REMARK SMILES C[C@H](c1ccc(C(=O)OCCOC(=O)c2ccc(-c3c4nc(c(-c5c(F)cccc5F)c5ccc([nH]5)c(-c5c(F)cccc5F)c5nc(c(-c6c(F)cccc6F)c6ccc3[nH]6)C=C5)C=C4)cc2)o1)[NH+]1Cc2ccccc2C1
REMARK SMILES IDX 10 1 9 2 7 3 8 4 6 5 3 6 4 7 69 8 5 9 2 10 1 11 70 12 71 13
REMARK SMILES IDX 78 14 72 16 77 17 73 18 76 19 74 20 75 21 11 22 12 23 13 24
REMARK SMILES IDX 14 25 15 26 16 27 68 28 17 29 67 30 18 31 19 32 20 33 61 34
REMARK SMILES IDX 21 35 66 36 60 37 62 38 22 39 65 40 59 41 58 42 23 44 49 45
REMARK SMILES IDX 32 46 48 47 33 48 36 49 47 50 63 51 34 52 35 53 46 55 64 56
REMARK SMILES IDX 37 57 24 58 25 59 30 60 26 61 27 62 29 63 31 64 28 65 50 66
REMARK SMILES IDX 51 67 56 68 52 69 53 70 55 71 57 72 54 73 38 74 39 75 44 76
REMARK SMILES IDX 40 77 41 78 43 79 45 80 42 81
REMARK H PARENT 70 15 62 43 36 54
REMARK Flexibility Score: inf
ROOT
ATOM      1  C   UNL     1       3.679   3.980   3.433  1.00  0.00     0.275 C 
ENDROOT
BRANCH   1   2
ATOM      2  O   UNL     1       2.757   2.883   3.271  1.00  0.00    -0.456 OA
BRANCH   2   3
ATOM      3  C   UNL     1       1.977   2.924   2.146  1.00  0.00     0.374 C 
ATOM      4  O   UNL     1       1.947   3.863   1.368  1.00  0.00    -0.242 OA
BRANCH   3   5
ATOM      5  C   UNL     1       1.306   1.653   1.953  1.00  0.00     0.212 A 
ATOM      6  C   UNL     1       0.531   0.054   0.625  1.00  0.00     0.162 A 
ATOM      7  C   UNL     1       0.575  -0.481   1.897  1.00  0.00     0.053 A 
ATOM      8  O   UNL     1       0.867   1.378   0.687  1.00  0.00    -0.448 OA
ATOM      9  C   UNL     1       1.080   0.545   2.748  1.00  0.00     0.059 A 
BRANCH   6  10
ATOM     10  C   UNL     1       0.483  -0.499  -0.776  1.00  0.00     0.248 C 
ATOM     11  C   UNL     1       1.889  -1.086  -1.052  1.00  0.00     0.084 C 
BRANCH  10  12
ATOM     12  N   UNL     1      -0.663  -1.312  -1.235  1.00  0.00    -0.319 N 
ATOM     13  C   UNL     1      -1.823  -1.511  -0.329  1.00  0.00     0.300 C 
ATOM     14  C   UNL     1      -0.329  -2.658  -1.741  1.00  0.00     0.300 C 
ATOM     15  H   UNL     1      -0.947  -0.674  -1.978  1.00  0.00     0.349 HD
ATOM     16  C   UNL     1      -1.760  -2.957   0.078  1.00  0.00     0.015 A 
ATOM     17  C   UNL     1      -0.762  -3.588  -0.662  1.00  0.00     0.015 A 
ATOM     18  C   UNL     1      -2.530  -3.680   0.969  1.00  0.00     0.010 A 
ATOM     19  C   UNL     1      -0.384  -4.895  -0.422  1.00  0.00     0.010 A 
ATOM     20  C   UNL     1      -2.203  -5.025   1.181  1.00  0.00     0.001 A 
ATOM     21  C   UNL     1      -1.108  -5.614   0.526  1.00  0.00     0.001 A 
ENDBRANCH  10  12
ENDBRANCH   6  10
ENDBRANCH   3   5
ENDBRANCH   2   3
ENDBRANCH   1   2
BRANCH   1  22
ATOM     22  C   UNL     1       5.093   3.609   2.967  1.00  0.00     0.275 C 
BRANCH  22  23
ATOM     23  O   UNL     1       5.190   3.540   1.532  1.00  0.00    -0.458 OA
BRANCH  23  24
ATOM     24  C   UNL     1       5.008   2.310   0.999  1.00  0.00     0.338 C 
ATOM     25  O   UNL     1       4.786   1.272   1.601  1.00  0.00    -0.246 OA
BRANCH  24  26
ATOM     26  C   UNL     1       4.989   2.400  -0.470  1.00  0.00     0.060 A 
ATOM     27  C   UNL     1       3.813   2.032  -1.123  1.00  0.00     0.016 A 
ATOM     28  C   UNL     1       6.119   2.758  -1.206  1.00  0.00     0.016 A 
ATOM     29  C   UNL     1       3.764   1.976  -2.512  1.00  0.00     0.010 A 
ATOM     30  C   UNL     1       6.061   2.736  -2.606  1.00  0.00     0.010 A 
ATOM     31  C   UNL     1       4.888   2.330  -3.268  1.00  0.00    -0.014 A 
BRANCH  31  32
ATOM     32  C   UNL     1       4.818   2.272  -4.750  1.00  0.00     0.031 A 
ATOM     33  C   UNL     1       5.571   1.217  -5.509  1.00  0.00     0.074 A 
ATOM     34  C   UNL     1       4.051   3.158  -5.413  1.00  0.00     0.049 A 
ATOM     35  N   UNL     1       5.663   1.034  -6.802  1.00  0.00    -0.248 NA
ATOM     36  C   UNL     1       6.321   0.239  -4.707  1.00  0.00     0.031 C 
ATOM     37  C   UNL     1       3.242   4.205  -4.788  1.00  0.00     0.029 A 
ATOM     38  N   UNL     1       3.824   3.316  -6.757  1.00  0.00    -0.354 N 
ATOM     39  C   UNL     1       6.492  -0.067  -6.972  1.00  0.00     0.074 A 
ATOM     40  C   UNL     1       6.896  -0.496  -5.649  1.00  0.00     0.031 C 
ATOM     41  C   UNL     1       2.598   4.890  -5.745  1.00  0.00     0.029 A 
ATOM     42  C   UNL     1       2.986   4.364  -7.051  1.00  0.00     0.049 A 
ATOM     43  H   UNL     1       4.223   2.735  -7.444  1.00  0.00     0.167 HD
ATOM     44  C   UNL     1       6.876  -0.667  -8.125  1.00  0.00     0.037 A 
ATOM     45  C   UNL     1       2.593   4.861  -8.239  1.00  0.00     0.037 A 
ATOM     46  C   UNL     1       6.465  -0.241  -9.439  1.00  0.00     0.049 A 
ATOM     47  C   UNL     1       3.088   4.220  -9.504  1.00  0.00     0.074 A 
ATOM     48  C   UNL     1       6.780  -0.801 -10.666  1.00  0.00     0.029 A 
ATOM     49  N   UNL     1       5.656   0.856  -9.698  1.00  0.00    -0.354 N 
ATOM     50  N   UNL     1       3.862   3.172  -9.653  1.00  0.00    -0.248 NA
ATOM     51  C   UNL     1       2.662   4.837 -10.768  1.00  0.00     0.031 C 
ATOM     52  C   UNL     1       6.204  -0.013 -11.669  1.00  0.00     0.029 A 
ATOM     53  C   UNL     1       5.487   1.008 -11.066  1.00  0.00     0.049 A 
ATOM     54  H   UNL     1       5.260   1.440  -9.012  1.00  0.00     0.167 HD
ATOM     55  C   UNL     1       3.999   2.991 -11.023  1.00  0.00     0.074 A 
ATOM     56  C   UNL     1       3.216   4.029 -11.662  1.00  0.00     0.031 C 
ATOM     57  C   UNL     1       4.710   2.050 -11.690  1.00  0.00     0.037 A 
BRANCH  44  58
ATOM     58  C   UNL     1       7.816  -1.833  -8.015  1.00  0.00     0.057 A 
ATOM     59  C   UNL     1       7.407  -3.075  -7.512  1.00  0.00     0.134 A 
ATOM     60  C   UNL     1       9.147  -1.715  -8.437  1.00  0.00     0.134 A 
ATOM     61  F   UNL     1       6.150  -3.253  -7.080  1.00  0.00    -0.206 F 
ATOM     62  C   UNL     1       8.295  -4.147  -7.404  1.00  0.00     0.040 A 
ATOM     63  C   UNL     1      10.037  -2.787  -8.358  1.00  0.00     0.040 A 
ATOM     64  F   UNL     1       9.604  -0.556  -8.936  1.00  0.00    -0.206 F 
ATOM     65  C   UNL     1       9.614  -4.006  -7.833  1.00  0.00     0.006 A 
ENDBRANCH  44  58
BRANCH  45  66
ATOM     66  C   UNL     1       1.691   6.038  -8.282  1.00  0.00     0.057 A 
ATOM     67  C   UNL     1       0.367   5.920  -8.716  1.00  0.00     0.134 A 
ATOM     68  C   UNL     1       2.130   7.307  -7.884  1.00  0.00     0.134 A 
ATOM     69  F   UNL     1      -0.104   4.735  -9.133  1.00  0.00    -0.206 F 
ATOM     70  C   UNL     1      -0.489   7.022  -8.760  1.00  0.00     0.040 A 
ATOM     71  C   UNL     1       1.278   8.412  -7.898  1.00  0.00     0.040 A 
ATOM     72  F   UNL     1       3.389   7.486  -7.458  1.00  0.00    -0.206 F 
ATOM     73  C   UNL     1      -0.035   8.272  -8.342  1.00  0.00     0.006 A 
ENDBRANCH  45  66
BRANCH  57  74
ATOM     74  C   UNL     1       4.657   2.088 -13.190  1.00  0.00     0.057 A 
ATOM     75  C   UNL     1       5.317   3.078 -13.928  1.00  0.00     0.134 A 
ATOM     76  C   UNL     1       3.960   1.105 -13.905  1.00  0.00     0.134 A 
ATOM     77  F   UNL     1       5.989   4.057 -13.303  1.00  0.00    -0.206 F 
ATOM     78  C   UNL     1       5.269   3.102 -15.323  1.00  0.00     0.040 A 
ATOM     79  C   UNL     1       3.927   1.103 -15.300  1.00  0.00     0.040 A 
ATOM     80  F   UNL     1       3.312   0.124 -13.260  1.00  0.00    -0.206 F 
ATOM     81  C   UNL     1       4.578   2.108 -16.013  1.00  0.00     0.006 A 
ENDBRANCH  57  74
ENDBRANCH  31  32
ENDBRANCH  24  26
ENDBRANCH  23  24
ENDBRANCH  22  23
ENDBRANCH   1  22
TORSDOF 13
