REMARK SMILES Cc1ccc2[nH]c(C(=O)OCCOC(=O)c3ccc(-c4c5nc(c(-c6c(F)cccc6F)c6ccc([nH]6)c(-c6c(F)cccc6F)c6nc(c(-c7c(F)cccc7F)c7ccc4[nH]7)C=C6)C=C5)cc3)c(NC(=O)[C@H]3C[C@H]3c3ccccc3)c2c1
REMARK SMILES IDX 11 1 10 2 8 3 9 4 7 5 1 6 2 7 3 8 84 9 4 10 83 11 5 12 70 13
REMARK SMILES IDX 6 14 71 16 72 17 73 19 74 20 75 21 76 22 77 23 78 24 82 25
REMARK SMILES IDX 79 26 81 27 80 28 12 29 13 30 14 31 15 32 16 33 17 34 69 35
REMARK SMILES IDX 18 36 68 37 19 38 20 39 21 40 62 41 22 42 67 43 61 44 63 45
REMARK SMILES IDX 23 46 66 47 60 48 59 49 24 51 50 52 33 53 49 54 34 55 37 56
REMARK SMILES IDX 48 57 64 58 35 59 36 60 47 62 65 63 38 64 25 65 26 66 31 67
REMARK SMILES IDX 27 68 28 69 30 70 32 71 29 72 51 73 52 74 57 75 53 76 54 77
REMARK SMILES IDX 56 78 58 79 55 80 39 81 40 82 45 83 41 84 42 85 44 86 46 87
REMARK SMILES IDX 43 88
REMARK H PARENT 6 15 71 18 63 50 37 61
REMARK Flexibility Score: inf
ROOT
ATOM      1  C   UNL     1      -4.178  -1.788  -2.369  1.00  0.00     0.275 C 
ENDROOT
BRANCH   1   2
ATOM      2  O   UNL     1      -4.066  -2.924  -1.472  1.00  0.00    -0.457 OA
BRANCH   2   3
ATOM      3  C   UNL     1      -5.108  -3.806  -1.479  1.00  0.00     0.357 C 
ATOM      4  O   UNL     1      -6.024  -3.758  -2.291  1.00  0.00    -0.244 OA
BRANCH   3   5
ATOM      5  C   UNL     1      -4.890  -4.933  -0.594  1.00  0.00     0.149 A 
ATOM      6  C   UNL     1      -4.305  -9.954   2.823  1.00  0.00     0.044 C 
ATOM      7  C   UNL     1      -4.359  -8.967   1.693  1.00  0.00    -0.050 A 
ATOM      8  C   UNL     1      -4.256  -9.418   0.375  1.00  0.00     0.005 A 
ATOM      9  C   UNL     1      -4.534  -7.589   1.957  1.00  0.00     0.016 A 
ATOM     10  C   UNL     1      -4.357  -8.533  -0.694  1.00  0.00     0.027 A 
ATOM     11  C   UNL     1      -4.649  -6.664   0.887  1.00  0.00     0.024 A 
ATOM     12  C   UNL     1      -4.572  -7.185  -0.396  1.00  0.00     0.048 A 
ATOM     13  C   UNL     1      -4.878  -5.219   0.780  1.00  0.00     0.082 A 
ATOM     14  N   UNL     1      -4.801  -6.149  -1.242  1.00  0.00    -0.347 N 
ATOM     15  H   UNL     1      -4.894  -6.254  -2.216  1.00  0.00     0.167 HD
BRANCH  13  16
ATOM     16  N   UNL     1      -5.098  -4.464   1.951  1.00  0.00    -0.323 N 
ATOM     17  C   UNL     1      -5.284  -3.121   2.227  1.00  0.00     0.228 C 
ATOM     18  H   UNL     1      -5.126  -5.023   2.760  1.00  0.00     0.170 HD
ATOM     19  O   UNL     1      -5.567  -2.729   3.353  1.00  0.00    -0.274 OA
BRANCH  17  20
ATOM     20  C   UNL     1      -5.059  -2.190   1.133  1.00  0.00     0.087 C 
ATOM     21  C   UNL     1      -6.298  -1.801   0.380  1.00  0.00     0.023 C 
ATOM     22  C   UNL     1      -5.277  -0.760   0.784  1.00  0.00     0.032 C 
BRANCH  22  23
ATOM     23  C   UNL     1      -5.920   0.523   1.188  1.00  0.00    -0.044 A 
ATOM     24  C   UNL     1      -6.808   1.124   0.259  1.00  0.00     0.004 A 
ATOM     25  C   UNL     1      -5.450   1.319   2.233  1.00  0.00     0.004 A 
ATOM     26  C   UNL     1      -7.162   2.467   0.329  1.00  0.00     0.000 A 
ATOM     27  C   UNL     1      -5.803   2.673   2.307  1.00  0.00     0.000 A 
ATOM     28  C   UNL     1      -6.641   3.249   1.348  1.00  0.00     0.000 A 
ENDBRANCH  22  23
ENDBRANCH  17  20
ENDBRANCH  13  16
ENDBRANCH   3   5
ENDBRANCH   2   3
ENDBRANCH   1   2
BRANCH   1  29
ATOM     29  C   UNL     1      -2.803  -1.147  -2.594  1.00  0.00     0.275 C 
BRANCH  29  30
ATOM     30  O   UNL     1      -2.150  -1.850  -3.661  1.00  0.00    -0.458 OA
BRANCH  30  31
ATOM     31  C   UNL     1      -1.656  -3.048  -3.280  1.00  0.00     0.338 C 
ATOM     32  O   UNL     1      -1.298  -3.390  -2.165  1.00  0.00    -0.246 OA
BRANCH  31  33
ATOM     33  C   UNL     1      -1.994  -3.994  -4.348  1.00  0.00     0.060 A 
ATOM     34  C   UNL     1      -2.882  -5.018  -4.009  1.00  0.00     0.016 A 
ATOM     35  C   UNL     1      -1.481  -3.886  -5.634  1.00  0.00     0.016 A 
ATOM     36  C   UNL     1      -3.230  -5.987  -4.932  1.00  0.00     0.010 A 
ATOM     37  C   UNL     1      -1.827  -4.859  -6.569  1.00  0.00     0.010 A 
ATOM     38  C   UNL     1      -2.670  -5.931  -6.208  1.00  0.00    -0.014 A 
BRANCH  38  39
ATOM     39  C   UNL     1      -2.801  -7.091  -7.112  1.00  0.00     0.031 A 
ATOM     40  C   UNL     1      -1.570  -7.905  -7.381  1.00  0.00     0.074 A 
ATOM     41  C   UNL     1      -3.986  -7.411  -7.657  1.00  0.00     0.049 A 
ATOM     42  N   UNL     1      -1.351  -8.799  -8.306  1.00  0.00    -0.248 NA
ATOM     43  C   UNL     1      -0.417  -7.653  -6.499  1.00  0.00     0.031 C 
ATOM     44  C   UNL     1      -5.258  -6.743  -7.377  1.00  0.00     0.029 A 
ATOM     45  N   UNL     1      -4.306  -8.373  -8.577  1.00  0.00    -0.354 N 
ATOM     46  C   UNL     1      -0.020  -9.169  -8.156  1.00  0.00     0.074 A 
ATOM     47  C   UNL     1       0.522  -8.397  -7.062  1.00  0.00     0.031 C 
ATOM     48  C   UNL     1      -6.220  -7.308  -8.124  1.00  0.00     0.029 A 
ATOM     49  C   UNL     1      -5.616  -8.318  -8.985  1.00  0.00     0.049 A 
ATOM     50  H   UNL     1      -3.662  -9.038  -8.912  1.00  0.00     0.167 HD
ATOM     51  C   UNL     1       0.679 -10.073  -8.881  1.00  0.00     0.037 A 
ATOM     52  C   UNL     1      -6.233  -8.971  -9.987  1.00  0.00     0.037 A 
ATOM     53  C   UNL     1       0.094 -10.847  -9.943  1.00  0.00     0.049 A 
ATOM     54  C   UNL     1      -5.421  -9.922 -10.823  1.00  0.00     0.074 A 
ATOM     55  C   UNL     1       0.688 -11.800 -10.748  1.00  0.00     0.029 A 
ATOM     56  N   UNL     1      -1.234 -10.754 -10.338  1.00  0.00    -0.354 N 
ATOM     57  N   UNL     1      -4.152 -10.241 -10.716  1.00  0.00    -0.248 NA
ATOM     58  C   UNL     1      -6.120 -10.594 -11.925  1.00  0.00     0.031 C 
ATOM     59  C   UNL     1      -0.270 -12.247 -11.665  1.00  0.00     0.029 A 
ATOM     60  C   UNL     1      -1.475 -11.618 -11.391  1.00  0.00     0.049 A 
ATOM     61  H   UNL     1      -1.905 -10.161  -9.929  1.00  0.00     0.167 HD
ATOM     62  C   UNL     1      -3.905 -11.168 -11.720  1.00  0.00     0.074 A 
ATOM     63  C   UNL     1      -5.163 -11.371 -12.412  1.00  0.00     0.031 C 
ATOM     64  C   UNL     1      -2.747 -11.795 -12.048  1.00  0.00     0.037 A 
BRANCH  51  65
ATOM     65  C   UNL     1       2.143 -10.224  -8.580  1.00  0.00     0.057 A 
ATOM     66  C   UNL     1       2.611 -10.783  -7.383  1.00  0.00     0.134 A 
ATOM     67  C   UNL     1       3.103  -9.795  -9.506  1.00  0.00     0.134 A 
ATOM     68  F   UNL     1       1.748 -11.194  -6.441  1.00  0.00    -0.206 F 
ATOM     69  C   UNL     1       3.977 -10.882  -7.107  1.00  0.00     0.040 A 
ATOM     70  C   UNL     1       4.471  -9.918  -9.255  1.00  0.00     0.040 A 
ATOM     71  F   UNL     1       2.728  -9.246 -10.672  1.00  0.00    -0.206 F 
ATOM     72  C   UNL     1       4.911 -10.455  -8.048  1.00  0.00     0.006 A 
ENDBRANCH  51  65
BRANCH  52  73
ATOM     73  C   UNL     1      -7.667  -8.713 -10.277  1.00  0.00     0.057 A 
ATOM     74  C   UNL     1      -8.634  -9.706 -10.084  1.00  0.00     0.134 A 
ATOM     75  C   UNL     1      -8.110  -7.470 -10.751  1.00  0.00     0.134 A 
ATOM     76  F   UNL     1      -8.274 -10.922  -9.650  1.00  0.00    -0.206 F 
ATOM     77  C   UNL     1      -9.983  -9.479 -10.363  1.00  0.00     0.040 A 
ATOM     78  C   UNL     1      -9.459  -7.220 -11.006  1.00  0.00     0.040 A 
ATOM     79  F   UNL     1      -7.237  -6.472 -10.954  1.00  0.00    -0.206 F 
ATOM     80  C   UNL     1     -10.400  -8.230 -10.819  1.00  0.00     0.006 A 
ENDBRANCH  52  73
BRANCH  64  81
ATOM     81  C   UNL     1      -2.808 -12.784 -13.173  1.00  0.00     0.057 A 
ATOM     82  C   UNL     1      -2.958 -12.383 -14.506  1.00  0.00     0.134 A 
ATOM     83  C   UNL     1      -2.676 -14.155 -12.918  1.00  0.00     0.134 A 
ATOM     84  F   UNL     1      -3.103 -11.085 -14.813  1.00  0.00    -0.206 F 
ATOM     85  C   UNL     1      -3.000 -13.313 -15.544  1.00  0.00     0.040 A 
ATOM     86  C   UNL     1      -2.683 -15.092 -13.951  1.00  0.00     0.040 A 
ATOM     87  F   UNL     1      -2.518 -14.603 -11.663  1.00  0.00    -0.206 F 
ATOM     88  C   UNL     1      -2.854 -14.671 -15.268  1.00  0.00     0.006 A 
ENDBRANCH  64  81
ENDBRANCH  38  39
ENDBRANCH  31  33
ENDBRANCH  30  31
ENDBRANCH  29  30
ENDBRANCH   1  29
TORSDOF 14
