REMARK SMILES CN(CC(=O)N1C[C@@H](O)C[C@H]1C(=O)OCCOC(=O)c1ccc(-c2c3nc(c(-c4c(F)cccc4F)c4ccc([nH]4)c(-c4c(F)cccc4F)c4nc(c(-c5c(F)cccc5F)c5ccc2[nH]5)C=C4)C=C3)cc1)C(=O)c1cccs1
REMARK SMILES IDX 14 1 12 2 13 3 11 4 6 5 7 6 8 7 10 8 4 9 5 10 3 11 2 12 1 13
REMARK SMILES IDX 74 14 75 15 76 16 77 17 80 18 78 19 79 20 9 21 15 23 16 24
REMARK SMILES IDX 17 25 18 26 19 27 20 28 21 29 73 30 22 31 72 32 23 33 24 34
REMARK SMILES IDX 25 35 66 36 26 37 71 38 65 39 67 40 27 41 70 42 64 43 63 44
REMARK SMILES IDX 28 46 54 47 37 48 53 49 38 50 41 51 52 52 68 53 39 54 40 55
REMARK SMILES IDX 51 57 69 58 42 59 29 60 30 61 35 62 31 63 32 64 34 65 36 66
REMARK SMILES IDX 33 67 55 68 56 69 61 70 57 71 58 72 60 73 62 74 59 75 43 76
REMARK SMILES IDX 44 77 49 78 45 79 46 80 48 81 50 82 47 83
REMARK H PARENT 9 22 67 45 41 56
REMARK Flexibility Score: inf
ROOT
ATOM      1  O   UNL     1      -4.374  -2.713  -1.579  1.00  0.00    -0.461 OA
ENDROOT
BRANCH   1   2
ATOM      2  C   UNL     1      -4.945  -1.818  -0.724  1.00  0.00     0.329 C 
ATOM      3  O   UNL     1      -6.141  -1.785  -0.446  1.00  0.00    -0.250 OA
BRANCH   2   4
ATOM      4  C   UNL     1      -3.982  -0.718  -0.265  1.00  0.00     0.197 C 
ATOM      5  N   UNL     1      -2.532  -0.930  -0.437  1.00  0.00    -0.325 N 
ATOM      6  C   UNL     1      -2.016  -0.021  -1.440  1.00  0.00     0.152 C 
ATOM      7  C   UNL     1      -2.966   1.171  -1.369  1.00  0.00     0.136 C 
ATOM      8  C   UNL     1      -4.314   0.525  -1.101  1.00  0.00     0.070 C 
BRANCH   5   9
ATOM      9  C   UNL     1      -1.859  -1.719   0.467  1.00  0.00     0.243 C 
ATOM     10  O   UNL     1      -2.508  -2.295   1.349  1.00  0.00    -0.273 OA
BRANCH   9  11
ATOM     11  C   UNL     1      -0.321  -1.851   0.532  1.00  0.00     0.219 C 
BRANCH  11  12
ATOM     12  N   UNL     1       0.543  -1.389  -0.548  1.00  0.00    -0.332 N 
ATOM     13  C   UNL     1       1.255  -0.137  -0.316  1.00  0.00     0.147 C 
BRANCH  12  14
ATOM     14  C   UNL     1       0.973  -2.182  -1.624  1.00  0.00     0.264 C 
ATOM     15  O   UNL     1       1.775  -1.724  -2.439  1.00  0.00    -0.268 OA
BRANCH  14  16
ATOM     16  C   UNL     1       0.498  -3.555  -1.715  1.00  0.00     0.092 A 
ATOM     17  C   UNL     1      -0.780  -4.077  -1.710  1.00  0.00     0.025 A 
ATOM     18  S   UNL     1       1.675  -4.797  -1.884  1.00  0.00    -0.139 S 
ATOM     19  C   UNL     1      -0.786  -5.503  -1.770  1.00  0.00     0.012 A 
ATOM     20  C   UNL     1       0.484  -6.022  -1.866  1.00  0.00     0.065 A 
ENDBRANCH  14  16
ENDBRANCH  12  14
ENDBRANCH  11  12
ENDBRANCH   9  11
ENDBRANCH   5   9
BRANCH   7  21
ATOM     21  O   UNL     1      -2.982   1.947  -2.551  1.00  0.00    -0.391 OA
ATOM     22  H   UNL     1      -3.241   1.390  -3.301  1.00  0.00     0.211 HD
ENDBRANCH   7  21
ENDBRANCH   2   4
ENDBRANCH   1   2
BRANCH   1  23
ATOM     23  C   UNL     1      -5.288  -3.671  -2.154  1.00  0.00     0.274 C 
BRANCH  23  24
ATOM     24  C   UNL     1      -5.227  -5.007  -1.423  1.00  0.00     0.275 C 
BRANCH  24  25
ATOM     25  O   UNL     1      -5.429  -4.801  -0.017  1.00  0.00    -0.458 OA
BRANCH  25  26
ATOM     26  C   UNL     1      -4.414  -5.210   0.779  1.00  0.00     0.338 C 
ATOM     27  O   UNL     1      -3.409  -5.812   0.445  1.00  0.00    -0.246 OA
BRANCH  26  28
ATOM     28  C   UNL     1      -4.715  -4.857   2.175  1.00  0.00     0.060 A 
ATOM     29  C   UNL     1      -4.878  -3.522   2.543  1.00  0.00     0.016 A 
ATOM     30  C   UNL     1      -4.705  -5.859   3.144  1.00  0.00     0.016 A 
ATOM     31  C   UNL     1      -4.930  -3.172   3.889  1.00  0.00     0.010 A 
ATOM     32  C   UNL     1      -4.851  -5.515   4.489  1.00  0.00     0.010 A 
ATOM     33  C   UNL     1      -4.925  -4.166   4.875  1.00  0.00    -0.014 A 
BRANCH  33  34
ATOM     34  C   UNL     1      -4.953  -3.796   6.312  1.00  0.00     0.031 A 
ATOM     35  C   UNL     1      -3.794  -4.148   7.203  1.00  0.00     0.074 A 
ATOM     36  C   UNL     1      -6.016  -3.143   6.817  1.00  0.00     0.049 A 
ATOM     37  N   UNL     1      -3.699  -4.071   8.506  1.00  0.00    -0.248 NA
ATOM     38  C   UNL     1      -2.585  -4.665   6.541  1.00  0.00     0.031 C 
ATOM     39  C   UNL     1      -7.183  -2.701   6.052  1.00  0.00     0.029 A 
ATOM     40  N   UNL     1      -6.286  -2.738   8.100  1.00  0.00    -0.354 N 
ATOM     41  C   UNL     1      -2.444  -4.575   8.824  1.00  0.00     0.074 A 
ATOM     42  C   UNL     1      -1.812  -4.956   7.578  1.00  0.00     0.031 C 
ATOM     43  C   UNL     1      -8.034  -2.069   6.874  1.00  0.00     0.029 A 
ATOM     44  C   UNL     1      -7.507  -2.125   8.233  1.00  0.00     0.049 A 
ATOM     45  H   UNL     1      -5.665  -2.873   8.851  1.00  0.00     0.167 HD
ATOM     46  C   UNL     1      -1.875  -4.710  10.045  1.00  0.00     0.037 A 
ATOM     47  C   UNL     1      -8.150  -1.691   9.332  1.00  0.00     0.037 A 
ATOM     48  C   UNL     1      -2.489  -4.286  11.277  1.00  0.00     0.049 A 
ATOM     49  C   UNL     1      -7.509  -1.872  10.677  1.00  0.00     0.074 A 
ATOM     50  C   UNL     1      -1.990  -4.370  12.565  1.00  0.00     0.029 A 
ATOM     51  N   UNL     1      -3.735  -3.684  11.369  1.00  0.00    -0.354 N 
ATOM     52  N   UNL     1      -6.346  -2.399  10.972  1.00  0.00    -0.248 NA
ATOM     53  C   UNL     1      -8.277  -1.414  11.842  1.00  0.00     0.031 C 
ATOM     54  C   UNL     1      -2.944  -3.839  13.440  1.00  0.00     0.029 A 
ATOM     55  C   UNL     1      -4.023  -3.396  12.693  1.00  0.00     0.049 A 
ATOM     56  H   UNL     1      -4.326  -3.489  10.606  1.00  0.00     0.167 HD
ATOM     57  C   UNL     1      -6.237  -2.328  12.353  1.00  0.00     0.074 A 
ATOM     58  C   UNL     1      -7.445  -1.690  12.836  1.00  0.00     0.031 C 
ATOM     59  C   UNL     1      -5.230  -2.759  13.151  1.00  0.00     0.037 A 
BRANCH  46  60
ATOM     60  C   UNL     1      -0.530  -5.369  10.113  1.00  0.00     0.057 A 
ATOM     61  C   UNL     1       0.641  -4.709   9.725  1.00  0.00     0.134 A 
ATOM     62  C   UNL     1      -0.406  -6.675  10.605  1.00  0.00     0.134 A 
ATOM     63  F   UNL     1       0.588  -3.463   9.230  1.00  0.00    -0.206 F 
ATOM     64  C   UNL     1       1.889  -5.331   9.809  1.00  0.00     0.040 A 
ATOM     65  C   UNL     1       0.838  -7.299  10.713  1.00  0.00     0.040 A 
ATOM     66  F   UNL     1      -1.490  -7.361  10.997  1.00  0.00    -0.206 F 
ATOM     67  C   UNL     1       1.990  -6.628  10.310  1.00  0.00     0.006 A 
ENDBRANCH  46  60
BRANCH  47  68
ATOM     68  C   UNL     1      -9.492  -1.075   9.204  1.00  0.00     0.057 A 
ATOM     69  C   UNL     1      -9.678   0.297   9.407  1.00  0.00     0.134 A 
ATOM     70  C   UNL     1     -10.615  -1.837   8.861  1.00  0.00     0.134 A 
ATOM     71  F   UNL     1      -8.643   1.073   9.757  1.00  0.00    -0.206 F 
ATOM     72  C   UNL     1     -10.936   0.888   9.280  1.00  0.00     0.040 A 
ATOM     73  C   UNL     1     -11.874  -1.255   8.708  1.00  0.00     0.040 A 
ATOM     74  F   UNL     1     -10.499  -3.157   8.650  1.00  0.00    -0.206 F 
ATOM     75  C   UNL     1     -12.037   0.112   8.922  1.00  0.00     0.006 A 
ENDBRANCH  47  68
BRANCH  59  76
ATOM     76  C   UNL     1      -5.388  -2.527  14.622  1.00  0.00     0.057 A 
ATOM     77  C   UNL     1      -6.241  -3.317  15.402  1.00  0.00     0.134 A 
ATOM     78  C   UNL     1      -4.664  -1.517  15.267  1.00  0.00     0.134 A 
ATOM     79  F   UNL     1      -6.973  -4.289  14.837  1.00  0.00    -0.206 F 
ATOM     80  C   UNL     1      -6.385  -3.096  16.772  1.00  0.00     0.040 A 
ATOM     81  C   UNL     1      -4.784  -1.300  16.640  1.00  0.00     0.040 A 
ATOM     82  F   UNL     1      -3.827  -0.731  14.574  1.00  0.00    -0.206 F 
ATOM     83  C   UNL     1      -5.651  -2.088  17.395  1.00  0.00     0.006 A 
ENDBRANCH  59  76
ENDBRANCH  33  34
ENDBRANCH  26  28
ENDBRANCH  25  26
ENDBRANCH  24  25
ENDBRANCH  23  24
ENDBRANCH   1  23
TORSDOF 17
