REMARK SMILES Cc1nn([C@H]2CCS(=O)(=O)C2)c(C)c1/C=C(\CC(=O)OCCOC(=O)c1ccc(-c2c3nc(c(-c4c(F)cccc4F)c4ccc([nH]4)c(-c4c(F)cccc4F)c4nc(c(-c5c(F)cccc5F)c5ccc2[nH]5)C=C4)C=C3)cc1)c1nc2ccccc2s1
REMARK SMILES IDX 21 1 20 2 18 3 19 4 17 5 16 6 15 7 14 8 1 9 2 10 3 11 4 12
REMARK SMILES IDX 12 13 13 14 5 15 6 16 11 17 7 18 8 19 9 20 10 21 80 22 81 23
REMARK SMILES IDX 88 24 82 25 87 26 83 27 86 28 84 29 85 30 22 31 23 32 24 33
REMARK SMILES IDX 25 34 26 35 27 36 79 37 28 38 78 39 29 40 30 41 31 42 72 43
REMARK SMILES IDX 32 44 77 45 71 46 73 47 33 48 76 49 70 50 69 51 34 53 60 54
REMARK SMILES IDX 43 55 59 56 44 57 47 58 58 59 74 60 45 61 46 62 57 64 75 65
REMARK SMILES IDX 48 66 35 67 36 68 41 69 37 70 38 71 40 72 42 73 39 74 61 75
REMARK SMILES IDX 62 76 67 77 63 78 64 79 66 80 68 81 65 82 49 83 50 84 55 85
REMARK SMILES IDX 51 86 52 87 54 88 56 89 53 90
REMARK H PARENT 73 52 47 63
REMARK Flexibility Score: inf
ROOT
ATOM      1  C   UNL     1      -2.010  -7.350  -8.533  1.00  0.00     0.274 C 
ENDROOT
BRANCH   1   2
ATOM      2  O   UNL     1      -1.827  -7.607  -7.117  1.00  0.00    -0.462 OA
BRANCH   2   3
ATOM      3  C   UNL     1      -2.723  -6.967  -6.327  1.00  0.00     0.310 C 
ATOM      4  O   UNL     1      -3.572  -6.182  -6.756  1.00  0.00    -0.252 OA
BRANCH   3   5
ATOM      5  C   UNL     1      -2.529  -7.077  -4.833  1.00  0.00     0.161 C 
BRANCH   5   6
ATOM      6  C   UNL     1      -1.815  -8.121  -3.977  1.00  0.00    -0.000 C 
ATOM      7  C   UNL     1      -0.752  -7.757  -3.201  1.00  0.00     0.019 C 
BRANCH   7   8
ATOM      8  C   UNL     1      -0.105  -6.476  -3.197  1.00  0.00     0.019 A 
ATOM      9  C   UNL     1       2.422  -7.102  -2.922  1.00  0.00     0.069 C 
ATOM     10  C   UNL     1       1.282  -6.192  -3.200  1.00  0.00     0.067 A 
ATOM     11  N   UNL     1       1.500  -4.899  -3.479  1.00  0.00    -0.177 NA
ATOM     12  N   UNL     1       0.260  -4.383  -3.623  1.00  0.00    -0.265 N 
ATOM     13  C   UNL     1      -0.694  -5.223  -3.096  1.00  0.00     0.043 A 
ATOM     14  C   UNL     1      -2.052  -4.805  -2.647  1.00  0.00     0.067 C 
BRANCH  12  15
ATOM     15  C   UNL     1       0.103  -3.114  -4.323  1.00  0.00     0.123 C 
ATOM     16  C   UNL     1       1.047  -2.985  -5.545  1.00  0.00     0.044 C 
ATOM     17  C   UNL     1      -1.284  -2.872  -4.921  1.00  0.00     0.164 C 
ATOM     18  C   UNL     1       0.677  -1.698  -6.270  1.00  0.00     0.139 C 
ATOM     19  S   UNL     1      -1.075  -1.501  -6.027  1.00  0.00     0.152 S 
ATOM     20  O   UNL     1      -1.291  -0.280  -5.257  1.00  0.00    -0.229 OA
ATOM     21  O   UNL     1      -1.767  -1.771  -7.253  1.00  0.00    -0.229 OA
ENDBRANCH  12  15
ENDBRANCH   7   8
BRANCH   6  22
ATOM     22  C   UNL     1      -2.384  -9.450  -3.823  1.00  0.00     0.121 A 
ATOM     23  N   UNL     1      -3.645  -9.740  -4.086  1.00  0.00    -0.236 NA
ATOM     24  S   UNL     1      -1.481 -10.836  -3.273  1.00  0.00    -0.114 S 
ATOM     25  C   UNL     1      -3.837 -11.114  -4.141  1.00  0.00     0.082 A 
ATOM     26  C   UNL     1      -2.764 -11.889  -3.718  1.00  0.00     0.055 A 
ATOM     27  C   UNL     1      -4.981 -11.780  -4.620  1.00  0.00     0.030 A 
ATOM     28  C   UNL     1      -2.820 -13.296  -3.734  1.00  0.00     0.021 A 
ATOM     29  C   UNL     1      -5.021 -13.167  -4.736  1.00  0.00     0.002 A 
ATOM     30  C   UNL     1      -3.947 -13.918  -4.290  1.00  0.00     0.002 A 
ENDBRANCH   6  22
ENDBRANCH   5   6
ENDBRANCH   3   5
ENDBRANCH   2   3
ENDBRANCH   1   2
BRANCH   1  31
ATOM     31  C   UNL     1      -3.042  -8.263  -9.205  1.00  0.00     0.275 C 
BRANCH  31  32
ATOM     32  O   UNL     1      -4.373  -8.046  -8.728  1.00  0.00    -0.458 OA
BRANCH  32  33
ATOM     33  C   UNL     1      -4.633  -8.737  -7.599  1.00  0.00     0.338 C 
ATOM     34  O   UNL     1      -3.849  -9.426  -6.966  1.00  0.00    -0.246 OA
BRANCH  33  35
ATOM     35  C   UNL     1      -6.059  -8.726  -7.294  1.00  0.00     0.060 A 
ATOM     36  C   UNL     1      -6.428  -8.790  -5.949  1.00  0.00     0.016 A 
ATOM     37  C   UNL     1      -6.871  -9.220  -8.316  1.00  0.00     0.016 A 
ATOM     38  C   UNL     1      -7.490  -9.605  -5.613  1.00  0.00     0.010 A 
ATOM     39  C   UNL     1      -7.903 -10.061  -7.973  1.00  0.00     0.010 A 
ATOM     40  C   UNL     1      -8.097 -10.362  -6.625  1.00  0.00    -0.014 A 
BRANCH  40  41
ATOM     41  C   UNL     1      -8.955 -11.479  -6.234  1.00  0.00     0.031 A 
ATOM     42  C   UNL     1     -10.130 -11.059  -5.435  1.00  0.00     0.074 A 
ATOM     43  C   UNL     1      -8.748 -12.735  -6.691  1.00  0.00     0.049 A 
ATOM     44  N   UNL     1     -10.579 -11.550  -4.327  1.00  0.00    -0.248 NA
ATOM     45  C   UNL     1     -10.818  -9.832  -5.881  1.00  0.00     0.031 C 
ATOM     46  C   UNL     1      -7.728 -13.173  -7.653  1.00  0.00     0.029 A 
ATOM     47  N   UNL     1      -9.497 -13.866  -6.522  1.00  0.00    -0.354 N 
ATOM     48  C   UNL     1     -11.721 -10.807  -4.043  1.00  0.00     0.074 A 
ATOM     49  C   UNL     1     -11.715  -9.663  -4.915  1.00  0.00     0.031 C 
ATOM     50  C   UNL     1      -8.095 -14.361  -8.178  1.00  0.00     0.029 A 
ATOM     51  C   UNL     1      -9.325 -14.799  -7.542  1.00  0.00     0.049 A 
ATOM     52  H   UNL     1     -10.099 -14.007  -5.755  1.00  0.00     0.167 HD
ATOM     53  C   UNL     1     -12.749 -11.321  -3.324  1.00  0.00     0.037 A 
ATOM     54  C   UNL     1     -10.197 -15.768  -7.925  1.00  0.00     0.037 A 
ATOM     55  C   UNL     1     -12.340 -12.400  -2.473  1.00  0.00     0.049 A 
ATOM     56  C   UNL     1     -11.184 -15.944  -6.830  1.00  0.00     0.074 A 
ATOM     57  C   UNL     1     -11.413 -12.526  -1.456  1.00  0.00     0.029 A 
ATOM     58  N   UNL     1     -12.679 -13.680  -2.831  1.00  0.00    -0.354 N 
ATOM     59  N   UNL     1     -10.922 -16.488  -5.676  1.00  0.00    -0.248 NA
ATOM     60  C   UNL     1     -12.382 -15.115  -6.870  1.00  0.00     0.031 C 
ATOM     61  C   UNL     1     -10.899 -13.847  -1.580  1.00  0.00     0.029 A 
ATOM     62  C   UNL     1     -11.568 -14.460  -2.638  1.00  0.00     0.049 A 
ATOM     63  H   UNL     1     -13.555 -13.982  -3.164  1.00  0.00     0.167 HD
ATOM     64  C   UNL     1     -11.646 -15.735  -4.762  1.00  0.00     0.074 A 
ATOM     65  C   UNL     1     -12.597 -14.969  -5.561  1.00  0.00     0.031 C 
ATOM     66  C   UNL     1     -11.217 -15.581  -3.476  1.00  0.00     0.037 A 
BRANCH  53  67
ATOM     67  C   UNL     1     -14.178 -11.063  -3.710  1.00  0.00     0.057 A 
ATOM     68  C   UNL     1     -15.209 -11.338  -2.804  1.00  0.00     0.134 A 
ATOM     69  C   UNL     1     -14.587 -10.801  -5.037  1.00  0.00     0.134 A 
ATOM     70  F   UNL     1     -14.935 -11.653  -1.529  1.00  0.00    -0.206 F 
ATOM     71  C   UNL     1     -16.552 -11.372  -3.197  1.00  0.00     0.040 A 
ATOM     72  C   UNL     1     -15.924 -10.771  -5.427  1.00  0.00     0.040 A 
ATOM     73  F   UNL     1     -13.710 -10.662  -6.042  1.00  0.00    -0.206 F 
ATOM     74  C   UNL     1     -16.913 -11.083  -4.510  1.00  0.00     0.006 A 
ENDBRANCH  53  67
BRANCH  54  75
ATOM     75  C   UNL     1     -10.432 -16.317  -9.290  1.00  0.00     0.057 A 
ATOM     76  C   UNL     1     -11.225 -17.460  -9.484  1.00  0.00     0.134 A 
ATOM     77  C   UNL     1     -10.097 -15.611 -10.461  1.00  0.00     0.134 A 
ATOM     78  F   UNL     1     -11.644 -18.186  -8.436  1.00  0.00    -0.206 F 
ATOM     79  C   UNL     1     -11.668 -17.862 -10.754  1.00  0.00     0.040 A 
ATOM     80  C   UNL     1     -10.514 -16.013 -11.735  1.00  0.00     0.040 A 
ATOM     81  F   UNL     1      -9.428 -14.452 -10.415  1.00  0.00    -0.206 F 
ATOM     82  C   UNL     1     -11.316 -17.134 -11.885  1.00  0.00     0.006 A 
ENDBRANCH  54  75
BRANCH  66  83
ATOM     83  C   UNL     1     -10.107 -16.469  -2.990  1.00  0.00     0.057 A 
ATOM     84  C   UNL     1      -8.814 -16.479  -3.536  1.00  0.00     0.134 A 
ATOM     85  C   UNL     1     -10.313 -17.230  -1.834  1.00  0.00     0.134 A 
ATOM     86  F   UNL     1      -8.493 -15.701  -4.579  1.00  0.00    -0.206 F 
ATOM     87  C   UNL     1      -7.789 -17.251  -2.982  1.00  0.00     0.040 A 
ATOM     88  C   UNL     1      -9.288 -17.977  -1.250  1.00  0.00     0.040 A 
ATOM     89  F   UNL     1     -11.509 -17.222  -1.223  1.00  0.00    -0.206 F 
ATOM     90  C   UNL     1      -8.024 -17.998  -1.832  1.00  0.00     0.006 A 
ENDBRANCH  66  83
ENDBRANCH  40  41
ENDBRANCH  33  35
ENDBRANCH  32  33
ENDBRANCH  31  32
ENDBRANCH   1  31
TORSDOF 15
