REMARK SMILES C[C@H]1C[C@]([NH2+]C2CCCCCC2)(C(=O)OCCOC(=O)c2ccc(-c3c4nc(c(-c5c(F)cccc5F)c5ccc([nH]5)c(-c5c(F)cccc5F)c5nc(c(-c6c(F)cccc6F)c6ccc3[nH]6)C=C5)C=C4)cc2)CS1
REMARK SMILES IDX 15 1 13 2 14 3 4 4 1 5 2 6 3 7 76 8 75 9 5 10 6 13 7 14 8 15
REMARK SMILES IDX 9 16 12 18 11 19 10 20 16 22 17 23 18 24 19 25 20 26 21 27
REMARK SMILES IDX 22 28 74 29 23 30 73 31 24 32 25 33 26 34 67 35 27 36 72 37
REMARK SMILES IDX 66 38 68 39 28 40 71 41 65 42 64 43 29 45 55 46 38 47 54 48
REMARK SMILES IDX 39 49 42 50 53 51 69 52 40 53 41 54 52 56 70 57 43 58 30 59
REMARK SMILES IDX 31 60 36 61 32 62 33 63 35 64 37 65 34 66 56 67 57 68 62 69
REMARK SMILES IDX 58 70 59 71 61 72 63 73 60 74 44 75 45 76 50 77 46 78 47 79
REMARK SMILES IDX 49 80 51 81 48 82
REMARK H PARENT 5 11 5 12 68 44 42 55
REMARK Flexibility Score: 90.00
ROOT
ATOM      1  O   UNL     1       2.337   3.601   2.028  1.00  0.00    -0.457 OA
ENDROOT
BRANCH   1   2
ATOM      2  C   UNL     1       1.141   4.097   1.607  1.00  0.00     0.369 C 
ATOM      3  O   UNL     1       0.672   5.152   2.025  1.00  0.00    -0.245 OA
BRANCH   2   4
ATOM      4  C   UNL     1       0.386   3.159   0.577  1.00  0.00     0.204 C 
ATOM      5  C   UNL     1       0.086   0.357  -1.530  1.00  0.00     0.019 C 
ATOM      6  C   UNL     1       0.654   0.732  -0.168  1.00  0.00     0.050 C 
ATOM      7  C   UNL     1       1.314   2.109  -0.076  1.00  0.00     0.096 C 
ATOM      8  S   UNL     1      -0.642   0.670   1.092  1.00  0.00    -0.151 SA
ATOM      9  C   UNL     1      -0.614   2.437   1.498  1.00  0.00     0.150 C 
BRANCH   4  10
ATOM     10  N   UNL     1      -0.166   4.118  -0.429  1.00  0.00    -0.329 N 
ATOM     11  H   UNL     1       0.642   4.606  -0.816  1.00  0.00     0.347 HD
ATOM     12  H   UNL     1      -0.858   4.610   0.136  1.00  0.00     0.347 HD
BRANCH  10  13
ATOM     13  C   UNL     1      -0.983   3.726  -1.584  1.00  0.00     0.183 C 
BRANCH  13  14
ATOM     14  C   UNL     1      -2.404   3.240  -1.268  1.00  0.00     0.065 C 
BRANCH  14  15
ATOM     15  C   UNL     1      -3.404   4.335  -0.895  1.00  0.00     0.006 C 
BRANCH  15  16
ATOM     16  C   UNL     1      -4.170   4.857  -2.111  1.00  0.00     0.000 CG0
ATOM     17  G   UNL     1      -3.349   5.671  -3.107  1.00  0.00     0.000 G0
ENDBRANCH  15  16
ENDBRANCH  14  15
ENDBRANCH  13  14
BRANCH  13  18
ATOM     18  C   UNL     1      -0.978   4.966  -2.520  1.00  0.00     0.065 C 
BRANCH  18  19
ATOM     19  C   UNL     1      -2.061   5.007  -3.598  1.00  0.00     0.006 C 
BRANCH  19  20
ATOM     20  C   UNL     1      -3.349   5.671  -3.107  1.00  0.00     0.000 CG0
ATOM     21  G   UNL     1      -4.170   4.857  -2.111  1.00  0.00     0.000 G0
ENDBRANCH  19  20
ENDBRANCH  18  19
ENDBRANCH  13  18
ENDBRANCH  10  13
ENDBRANCH   4  10
ENDBRANCH   2   4
ENDBRANCH   1   2
BRANCH   1  22
ATOM     22  C   UNL     1       3.071   4.404   2.978  1.00  0.00     0.274 C 
BRANCH  22  23
ATOM     23  C   UNL     1       4.179   5.222   2.311  1.00  0.00     0.275 C 
BRANCH  23  24
ATOM     24  O   UNL     1       3.664   6.382   1.609  1.00  0.00    -0.458 OA
BRANCH  24  25
ATOM     25  C   UNL     1       3.303   6.176   0.346  1.00  0.00     0.338 C 
ATOM     26  O   UNL     1       3.361   5.114  -0.298  1.00  0.00    -0.246 OA
BRANCH  25  27
ATOM     27  C   UNL     1       2.691   7.373  -0.224  1.00  0.00     0.060 A 
ATOM     28  C   UNL     1       1.312   7.347  -0.467  1.00  0.00     0.016 A 
ATOM     29  C   UNL     1       3.460   8.462  -0.668  1.00  0.00     0.016 A 
ATOM     30  C   UNL     1       0.719   8.338  -1.228  1.00  0.00     0.010 A 
ATOM     31  C   UNL     1       2.841   9.492  -1.384  1.00  0.00     0.010 A 
ATOM     32  C   UNL     1       1.473   9.419  -1.703  1.00  0.00    -0.014 A 
BRANCH  32  33
ATOM     33  C   UNL     1       0.809  10.415  -2.582  1.00  0.00     0.031 A 
ATOM     34  C   UNL     1       1.177  10.508  -4.035  1.00  0.00     0.074 A 
ATOM     35  C   UNL     1      -0.212  11.153  -2.104  1.00  0.00     0.049 A 
ATOM     36  N   UNL     1       0.743  11.346  -4.943  1.00  0.00    -0.248 NA
ATOM     37  C   UNL     1       2.160   9.535  -4.538  1.00  0.00     0.031 C 
ATOM     38  C   UNL     1      -0.718  11.111  -0.731  1.00  0.00     0.029 A 
ATOM     39  N   UNL     1      -1.039  12.045  -2.737  1.00  0.00    -0.354 N 
ATOM     40  C   UNL     1       1.439  11.041  -6.104  1.00  0.00     0.074 A 
ATOM     41  C   UNL     1       2.306   9.923  -5.798  1.00  0.00     0.031 C 
ATOM     42  C   UNL     1      -1.814  11.882  -0.645  1.00  0.00     0.029 A 
ATOM     43  C   UNL     1      -2.051  12.515  -1.938  1.00  0.00     0.049 A 
ATOM     44  H   UNL     1      -0.919  12.322  -3.675  1.00  0.00     0.167 HD
ATOM     45  C   UNL     1       1.370  11.648  -7.312  1.00  0.00     0.037 A 
ATOM     46  C   UNL     1      -3.059  13.363  -2.215  1.00  0.00     0.037 A 
ATOM     47  C   UNL     1       0.475  12.727  -7.634  1.00  0.00     0.049 A 
ATOM     48  C   UNL     1      -3.153  13.981  -3.578  1.00  0.00     0.074 A 
ATOM     49  C   UNL     1       0.396  13.473  -8.797  1.00  0.00     0.029 A 
ATOM     50  N   UNL     1      -0.528  13.185  -6.795  1.00  0.00    -0.354 N 
ATOM     51  N   UNL     1      -2.387  13.787  -4.623  1.00  0.00    -0.248 NA
ATOM     52  C   UNL     1      -4.232  14.957  -3.790  1.00  0.00     0.031 C 
ATOM     53  C   UNL     1      -0.664  14.379  -8.665  1.00  0.00     0.029 A 
ATOM     54  C   UNL     1      -1.248  14.187  -7.424  1.00  0.00     0.049 A 
ATOM     55  H   UNL     1      -0.703  12.848  -5.887  1.00  0.00     0.167 HD
ATOM     56  C   UNL     1      -2.871  14.637  -5.606  1.00  0.00     0.074 A 
ATOM     57  C   UNL     1      -4.022  15.318  -5.049  1.00  0.00     0.031 C 
ATOM     58  C   UNL     1      -2.385  14.854  -6.852  1.00  0.00     0.037 A 
BRANCH  45  59
ATOM     59  C   UNL     1       2.327  11.183  -8.362  1.00  0.00     0.057 A 
ATOM     60  C   UNL     1       2.068  10.057  -9.150  1.00  0.00     0.134 A 
ATOM     61  C   UNL     1       3.518  11.884  -8.595  1.00  0.00     0.134 A 
ATOM     62  F   UNL     1       0.953   9.334  -8.959  1.00  0.00    -0.206 F 
ATOM     63  C   UNL     1       2.967   9.637 -10.133  1.00  0.00     0.040 A 
ATOM     64  C   UNL     1       4.419  11.481  -9.581  1.00  0.00     0.040 A 
ATOM     65  F   UNL     1       3.822  12.970  -7.867  1.00  0.00    -0.206 F 
ATOM     66  C   UNL     1       4.145  10.353 -10.352  1.00  0.00     0.006 A 
ENDBRANCH  45  59
BRANCH  46  67
ATOM     67  C   UNL     1      -4.053  13.686  -1.168  1.00  0.00     0.057 A 
ATOM     68  C   UNL     1      -5.331  13.117  -1.193  1.00  0.00     0.134 A 
ATOM     69  C   UNL     1      -3.745  14.552  -0.114  1.00  0.00     0.134 A 
ATOM     70  F   UNL     1      -5.686  12.293  -2.192  1.00  0.00    -0.206 F 
ATOM     71  C   UNL     1      -6.272  13.400  -0.202  1.00  0.00     0.040 A 
ATOM     72  C   UNL     1      -4.670  14.834   0.891  1.00  0.00     0.040 A 
ATOM     73  F   UNL     1      -2.532  15.126  -0.040  1.00  0.00    -0.206 F 
ATOM     74  C   UNL     1      -5.940  14.258   0.847  1.00  0.00     0.006 A 
ENDBRANCH  46  67
BRANCH  58  75
ATOM     75  C   UNL     1      -3.084  15.884  -7.677  1.00  0.00     0.057 A 
ATOM     76  C   UNL     1      -2.791  17.245  -7.529  1.00  0.00     0.134 A 
ATOM     77  C   UNL     1      -4.033  15.519  -8.638  1.00  0.00     0.134 A 
ATOM     78  F   UNL     1      -1.896  17.652  -6.615  1.00  0.00    -0.206 F 
ATOM     79  C   UNL     1      -3.426  18.213  -8.307  1.00  0.00     0.040 A 
ATOM     80  C   UNL     1      -4.671  16.477  -9.426  1.00  0.00     0.040 A 
ATOM     81  F   UNL     1      -4.357  14.229  -8.820  1.00  0.00    -0.206 F 
ATOM     82  C   UNL     1      -4.368  17.829  -9.261  1.00  0.00     0.006 A 
ENDBRANCH  58  75
ENDBRANCH  32  33
ENDBRANCH  25  27
ENDBRANCH  24  25
ENDBRANCH  23  24
ENDBRANCH  22  23
ENDBRANCH   1  22
TORSDOF 13
