REMARK SMILES Cc1sc(-c2ccco2)nc1C(=O)N[C@@H](C(=O)OCCOC(=O)c1ccc(-c2c3nc(c(-c4c(F)cccc4F)c4ccc([nH]4)c(-c4c(F)cccc4F)c4nc(c(-c5c(F)cccc5F)c5ccc2[nH]5)C=C4)C=C3)cc1)C(C)C
REMARK SMILES IDX 19 1 18 2 16 3 17 4 15 5 14 6 12 7 13 8 11 10 1 11 2 12 3 13
REMARK SMILES IDX 4 14 10 15 5 16 6 17 9 18 7 19 8 20 78 21 79 22 80 23 20 24
REMARK SMILES IDX 21 25 22 26 23 27 24 28 25 29 77 30 26 31 76 32 27 33 28 34
REMARK SMILES IDX 29 35 70 36 30 37 75 38 69 39 71 40 31 41 74 42 68 43 67 44
REMARK SMILES IDX 32 46 58 47 41 48 57 49 42 50 45 51 56 52 72 53 43 54 44 55
REMARK SMILES IDX 55 57 73 58 46 59 33 60 34 61 39 62 35 63 36 64 38 65 40 66
REMARK SMILES IDX 37 67 59 68 60 69 65 70 61 71 62 72 64 73 66 74 63 75 47 76
REMARK SMILES IDX 48 77 53 78 49 79 50 80 52 81 54 82 51 83
REMARK H PARENT 14 9 71 45 45 56
REMARK Flexibility Score: inf
ROOT
ATOM      1  C   UNL     1       3.811  -2.660   3.146  1.00  0.00     0.274 C 
ENDROOT
BRANCH   1   2
ATOM      2  O   UNL     1       3.076  -2.639   1.901  1.00  0.00    -0.461 OA
BRANCH   2   3
ATOM      3  C   UNL     1       3.514  -1.799   0.915  1.00  0.00     0.329 C 
ATOM      4  O   UNL     1       4.550  -1.149   0.973  1.00  0.00    -0.250 OA
BRANCH   3   5
ATOM      5  C   UNL     1       2.533  -1.750  -0.294  1.00  0.00     0.195 C 
BRANCH   5   6
ATOM      6  N   UNL     1       1.322  -2.463   0.084  1.00  0.00    -0.337 N 
ATOM      7  C   UNL     1       0.129  -1.994   0.576  1.00  0.00     0.271 C 
ATOM      8  O   UNL     1      -0.603  -2.840   1.095  1.00  0.00    -0.267 OA
ATOM      9  H   UNL     1       1.365  -3.440  -0.032  1.00  0.00     0.164 HD
BRANCH   7  10
ATOM     10  C   UNL     1      -0.324  -0.598   0.399  1.00  0.00     0.142 A 
ATOM     11  C   UNL     1       1.670   1.015   1.100  1.00  0.00     0.059 C 
ATOM     12  C   UNL     1       0.338   0.621   0.563  1.00  0.00     0.035 A 
ATOM     13  S   UNL     1      -0.692   1.913   0.051  1.00  0.00    -0.115 S 
ATOM     14  C   UNL     1      -2.007   0.836   0.008  1.00  0.00     0.160 A 
ATOM     15  N   UNL     1      -1.696  -0.430   0.145  1.00  0.00    -0.227 NA
BRANCH  14  16
ATOM     16  C   UNL     1      -3.358   1.304  -0.050  1.00  0.00     0.162 A 
ATOM     17  C   UNL     1      -4.437   0.843   0.689  1.00  0.00     0.053 A 
ATOM     18  O   UNL     1      -3.773   2.361  -0.820  1.00  0.00    -0.462 OA
ATOM     19  C   UNL     1      -5.543   1.667   0.373  1.00  0.00     0.043 A 
ATOM     20  C   UNL     1      -5.091   2.559  -0.568  1.00  0.00     0.196 A 
ENDBRANCH  14  16
ENDBRANCH   7  10
ENDBRANCH   5   6
BRANCH   5  21
ATOM     21  C   UNL     1       3.148  -2.251  -1.619  1.00  0.00     0.017 C 
ATOM     22  C   UNL     1       2.091  -2.375  -2.724  1.00  0.00     0.010 C 
ATOM     23  C   UNL     1       4.232  -1.278  -2.113  1.00  0.00     0.010 C 
ENDBRANCH   5  21
ENDBRANCH   3   5
ENDBRANCH   2   3
ENDBRANCH   1   2
BRANCH   1  24
ATOM     24  C   UNL     1       4.513  -4.002   3.332  1.00  0.00     0.275 C 
BRANCH  24  25
ATOM     25  O   UNL     1       5.488  -4.141   2.288  1.00  0.00    -0.458 OA
BRANCH  25  26
ATOM     26  C   UNL     1       5.478  -5.305   1.607  1.00  0.00     0.338 C 
ATOM     27  O   UNL     1       4.844  -6.319   1.863  1.00  0.00    -0.246 OA
BRANCH  26  28
ATOM     28  C   UNL     1       6.319  -5.152   0.410  1.00  0.00     0.060 A 
ATOM     29  C   UNL     1       6.096  -4.063  -0.430  1.00  0.00     0.016 A 
ATOM     30  C   UNL     1       7.244  -6.130   0.054  1.00  0.00     0.016 A 
ATOM     31  C   UNL     1       6.724  -3.986  -1.667  1.00  0.00     0.010 A 
ATOM     32  C   UNL     1       7.949  -6.001  -1.148  1.00  0.00     0.010 A 
ATOM     33  C   UNL     1       7.669  -4.946  -2.038  1.00  0.00    -0.014 A 
BRANCH  33  34
ATOM     34  C   UNL     1       8.294  -4.891  -3.387  1.00  0.00     0.031 A 
ATOM     35  C   UNL     1       8.112  -6.044  -4.334  1.00  0.00     0.074 A 
ATOM     36  C   UNL     1       8.981  -3.804  -3.794  1.00  0.00     0.049 A 
ATOM     37  N   UNL     1       8.747  -6.312  -5.445  1.00  0.00    -0.248 NA
ATOM     38  C   UNL     1       7.082  -7.033  -3.976  1.00  0.00     0.031 C 
ATOM     39  C   UNL     1       9.160  -2.570  -3.027  1.00  0.00     0.029 A 
ATOM     40  N   UNL     1       9.650  -3.562  -4.969  1.00  0.00    -0.354 N 
ATOM     41  C   UNL     1       8.249  -7.534  -5.877  1.00  0.00     0.074 A 
ATOM     42  C   UNL     1       7.244  -7.947  -4.922  1.00  0.00     0.031 C 
ATOM     43  C   UNL     1       9.856  -1.691  -3.765  1.00  0.00     0.029 A 
ATOM     44  C   UNL     1      10.258  -2.332  -5.011  1.00  0.00     0.049 A 
ATOM     45  H   UNL     1       9.689  -4.210  -5.710  1.00  0.00     0.167 HD
ATOM     46  C   UNL     1       8.611  -8.252  -6.966  1.00  0.00     0.037 A 
ATOM     47  C   UNL     1      11.093  -1.799  -5.924  1.00  0.00     0.037 A 
ATOM     48  C   UNL     1       9.561  -7.806  -7.950  1.00  0.00     0.049 A 
ATOM     49  C   UNL     1      11.510  -2.625  -7.107  1.00  0.00     0.074 A 
ATOM     50  C   UNL     1      10.009  -8.465  -9.081  1.00  0.00     0.029 A 
ATOM     51  N   UNL     1      10.188  -6.570  -7.931  1.00  0.00    -0.354 N 
ATOM     52  N   UNL     1      11.128  -3.832  -7.446  1.00  0.00    -0.248 NA
ATOM     53  C   UNL     1      12.502  -2.029  -8.013  1.00  0.00     0.031 C 
ATOM     54  C   UNL     1      10.924  -7.633  -9.737  1.00  0.00     0.029 A 
ATOM     55  C   UNL     1      11.022  -6.446  -9.028  1.00  0.00     0.049 A 
ATOM     56  H   UNL     1      10.059  -5.881  -7.239  1.00  0.00     0.167 HD
ATOM     57  C   UNL     1      11.833  -4.142  -8.601  1.00  0.00     0.074 A 
ATOM     58  C   UNL     1      12.646  -2.986  -8.919  1.00  0.00     0.031 C 
ATOM     59  C   UNL     1      11.819  -5.286  -9.326  1.00  0.00     0.037 A 
BRANCH  46  60
ATOM     60  C   UNL     1       8.012  -9.616  -7.120  1.00  0.00     0.057 A 
ATOM     61  C   UNL     1       6.697  -9.812  -7.555  1.00  0.00     0.134 A 
ATOM     62  C   UNL     1       8.780 -10.755  -6.840  1.00  0.00     0.134 A 
ATOM     63  F   UNL     1       5.905  -8.761  -7.818  1.00  0.00    -0.206 F 
ATOM     64  C   UNL     1       6.159 -11.093  -7.691  1.00  0.00     0.040 A 
ATOM     65  C   UNL     1       8.261 -12.040  -6.991  1.00  0.00     0.040 A 
ATOM     66  F   UNL     1      10.048 -10.633  -6.419  1.00  0.00    -0.206 F 
ATOM     67  C   UNL     1       6.944 -12.212  -7.414  1.00  0.00     0.006 A 
ENDBRANCH  46  60
BRANCH  47  68
ATOM     68  C   UNL     1      11.649  -0.438  -5.716  1.00  0.00     0.057 A 
ATOM     69  C   UNL     1      11.273   0.630  -6.537  1.00  0.00     0.134 A 
ATOM     70  C   UNL     1      12.573  -0.176  -4.696  1.00  0.00     0.134 A 
ATOM     71  F   UNL     1      10.414   0.435  -7.547  1.00  0.00    -0.206 F 
ATOM     72  C   UNL     1      11.799   1.911  -6.354  1.00  0.00     0.040 A 
ATOM     73  C   UNL     1      13.086   1.104  -4.486  1.00  0.00     0.040 A 
ATOM     74  F   UNL     1      12.975  -1.159  -3.877  1.00  0.00    -0.206 F 
ATOM     75  C   UNL     1      12.703   2.151  -5.321  1.00  0.00     0.006 A 
ENDBRANCH  47  68
BRANCH  59  76
ATOM     76  C   UNL     1      12.695  -5.332 -10.539  1.00  0.00     0.057 A 
ATOM     77  C   UNL     1      14.077  -5.528 -10.436  1.00  0.00     0.134 A 
ATOM     78  C   UNL     1      12.147  -5.211 -11.822  1.00  0.00     0.134 A 
ATOM     79  F   UNL     1      14.660  -5.636  -9.232  1.00  0.00    -0.206 F 
ATOM     80  C   UNL     1      14.889  -5.589 -11.569  1.00  0.00     0.040 A 
ATOM     81  C   UNL     1      12.946  -5.287 -12.963  1.00  0.00     0.040 A 
ATOM     82  F   UNL     1      10.829  -5.025 -11.984  1.00  0.00    -0.206 F 
ATOM     83  C   UNL     1      14.322  -5.473 -12.838  1.00  0.00     0.006 A 
ENDBRANCH  59  76
ENDBRANCH  33  34
ENDBRANCH  26  28
ENDBRANCH  25  26
ENDBRANCH  24  25
ENDBRANCH   1  24
TORSDOF 15
