REMARK SMILES Cc1ccc(S(=O)(=O)n2cc(C(=O)C(=O)N[C@@H](Cc3cnc[nH]3)C(=O)OCCOC(=O)c3ccc(-c4c5nc(c(-c6c(F)cccc6F)c6ccc([nH]6)c(-c6c(F)cccc6F)c6nc(c(-c7c(F)cccc7F)c7ccc4[nH]7)C=C6)C=C5)cc3)c3ccccc32)cc1
REMARK SMILES IDX 26 1 24 2 25 3 17 4 16 5 14 6 15 7 12 9 13 10 11 11 9 12
REMARK SMILES IDX 10 13 91 14 86 15 90 16 87 17 89 18 88 19 6 20 7 21 8 22
REMARK SMILES IDX 5 23 1 24 2 25 3 26 93 27 4 28 92 29 18 30 19 31 20 32 23 33
REMARK SMILES IDX 21 34 22 35 27 37 28 38 29 39 30 40 31 41 32 42 33 43 85 44
REMARK SMILES IDX 34 45 84 46 35 47 36 48 37 49 78 50 38 51 83 52 77 53 79 54
REMARK SMILES IDX 39 55 82 56 76 57 75 58 40 60 66 61 49 62 65 63 50 64 53 65
REMARK SMILES IDX 64 66 80 67 51 68 52 69 63 71 81 72 54 73 41 74 42 75 47 76
REMARK SMILES IDX 43 77 44 78 46 79 48 80 45 81 67 82 68 83 73 84 69 85 70 86
REMARK SMILES IDX 72 87 74 88 71 89 55 90 56 91 61 92 57 93 58 94 60 95 62 96
REMARK SMILES IDX 59 97
REMARK H PARENT 16 8 23 36 79 59 53 70
REMARK Flexibility Score: inf
ROOT
ATOM      1  O   UNL     1      -7.149   8.452   5.915  1.00  0.00    -0.461 OA
ENDROOT
BRANCH   1   2
ATOM      2  C   UNL     1      -6.974   8.088   4.513  1.00  0.00     0.329 C 
ATOM      3  O   UNL     1      -6.050   8.853   4.125  1.00  0.00    -0.250 OA
BRANCH   2   4
ATOM      4  C   UNL     1      -8.011   6.397   3.555  1.00  0.00     0.198 C 
BRANCH   4   5
ATOM      5  N   UNL     1      -7.583   4.762   3.536  1.00  0.00    -0.335 N 
ATOM      6  C   UNL     1      -7.053   3.862   2.632  1.00  0.00     0.293 C 
ATOM      7  O   UNL     1      -7.059   2.679   2.968  1.00  0.00    -0.265 OA
ATOM      8  H   UNL     1      -7.759   4.335   4.405  1.00  0.00     0.164 HD
BRANCH   6   9
ATOM      9  C   UNL     1      -6.467   4.263   1.253  1.00  0.00     0.252 C 
ATOM     10  O   UNL     1      -6.896   5.282   0.716  1.00  0.00    -0.283 OA
BRANCH   9  11
ATOM     11  C   UNL     1      -5.462   3.412   0.564  1.00  0.00     0.054 A 
ATOM     12  N   UNL     1      -4.209   1.650  -0.044  1.00  0.00    -0.240 N 
ATOM     13  C   UNL     1      -5.071   2.127   0.913  1.00  0.00     0.117 A 
ATOM     14  C   UNL     1      -3.990   2.591  -1.025  1.00  0.00     0.065 A 
ATOM     15  C   UNL     1      -4.714   3.730  -0.635  1.00  0.00     0.012 A 
ATOM     16  C   UNL     1      -3.220   2.559  -2.205  1.00  0.00     0.028 A 
ATOM     17  C   UNL     1      -4.605   4.887  -1.440  1.00  0.00     0.011 A 
ATOM     18  C   UNL     1      -3.127   3.724  -2.967  1.00  0.00     0.002 A 
ATOM     19  C   UNL     1      -3.800   4.877  -2.585  1.00  0.00     0.001 A 
BRANCH  12  20
ATOM     20  S   UNL     1      -3.594   0.057  -0.057  1.00  0.00     0.268 S 
ATOM     21  O   UNL     1      -3.948  -0.470  -1.362  1.00  0.00    -0.201 OA
ATOM     22  O   UNL     1      -4.063  -0.558   1.171  1.00  0.00    -0.201 OA
BRANCH  20  23
ATOM     23  C   UNL     1      -1.822   0.107   0.035  1.00  0.00     0.088 A 
ATOM     24  C   UNL     1       2.482  -0.038   0.007  1.00  0.00     0.044 C 
ATOM     25  C   UNL     1       0.983   0.017   0.032  1.00  0.00    -0.051 A 
ATOM     26  C   UNL     1       0.240  -1.168  -0.027  1.00  0.00     0.005 A 
ATOM     27  C   UNL     1       0.307   1.241   0.120  1.00  0.00     0.005 A 
ATOM     28  C   UNL     1      -1.156  -1.125  -0.033  1.00  0.00     0.022 A 
ATOM     29  C   UNL     1      -1.091   1.290   0.137  1.00  0.00     0.022 A 
ENDBRANCH  20  23
ENDBRANCH  12  20
ENDBRANCH   9  11
ENDBRANCH   6   9
ENDBRANCH   4   5
BRANCH   4  30
ATOM     30  C   UNL     1      -9.744   5.984   3.357  1.00  0.00     0.092 C 
BRANCH  30  31
ATOM     31  C   UNL     1     -10.479   5.377   4.533  1.00  0.00     0.037 A 
ATOM     32  C   UNL     1     -10.510   4.110   5.077  1.00  0.00     0.134 A 
ATOM     33  N   UNL     1     -11.349   6.089   5.337  1.00  0.00    -0.348 N 
ATOM     34  N   UNL     1     -11.164   4.109   6.285  1.00  0.00    -0.245 NA
ATOM     35  C   UNL     1     -11.611   5.332   6.440  1.00  0.00     0.196 A 
ATOM     36  H   UNL     1     -11.714   6.983   5.147  1.00  0.00     0.167 HD
ENDBRANCH  30  31
ENDBRANCH   4  30
ENDBRANCH   2   4
ENDBRANCH   1   2
BRANCH   1  37
ATOM     37  C   UNL     1      -5.992   8.869   6.660  1.00  0.00     0.274 C 
BRANCH  37  38
ATOM     38  C   UNL     1      -5.058   7.676   6.918  1.00  0.00     0.275 C 
BRANCH  38  39
ATOM     39  O   UNL     1      -4.305   7.195   5.769  1.00  0.00    -0.458 OA
BRANCH  39  40
ATOM     40  C   UNL     1      -4.674   6.155   4.966  1.00  0.00     0.338 C 
ATOM     41  O   UNL     1      -3.888   5.372   4.457  1.00  0.00    -0.246 OA
BRANCH  40  42
ATOM     42  C   UNL     1      -6.033   6.272   4.416  1.00  0.00     0.060 A 
ATOM     43  C   UNL     1      -6.144   7.135   2.833  1.00  0.00     0.016 A 
ATOM     44  C   UNL     1      -7.427   6.296   5.552  1.00  0.00     0.016 A 
ATOM     45  C   UNL     1      -7.553   8.238   2.499  1.00  0.00     0.010 A 
ATOM     46  C   UNL     1      -8.823   7.385   5.199  1.00  0.00     0.010 A 
ATOM     47  C   UNL     1      -8.845   8.402   3.710  1.00  0.00    -0.014 A 
BRANCH  47  48
ATOM     48  C   UNL     1      -9.655   9.605   3.946  1.00  0.00     0.031 A 
ATOM     49  C   UNL     1     -11.090   9.397   4.169  1.00  0.00     0.074 A 
ATOM     50  C   UNL     1      -9.023  10.675   4.475  1.00  0.00     0.049 A 
ATOM     51  N   UNL     1     -11.685   9.561   5.304  1.00  0.00    -0.248 NA
ATOM     52  C   UNL     1     -11.924   8.790   3.125  1.00  0.00     0.031 C 
ATOM     53  C   UNL     1      -9.559  11.729   5.326  1.00  0.00     0.029 A 
ATOM     54  N   UNL     1      -7.750  11.130   4.152  1.00  0.00    -0.354 N 
ATOM     55  C   UNL     1     -13.012   9.266   5.099  1.00  0.00     0.074 A 
ATOM     56  C   UNL     1     -13.074   8.626   3.786  1.00  0.00     0.031 C 
ATOM     57  C   UNL     1      -8.781  12.820   5.218  1.00  0.00     0.029 A 
ATOM     58  C   UNL     1      -7.772  12.539   4.212  1.00  0.00     0.049 A 
ATOM     59  H   UNL     1      -6.973  10.570   3.924  1.00  0.00     0.167 HD
ATOM     60  C   UNL     1     -13.985  10.149   5.439  1.00  0.00     0.037 A 
ATOM     61  C   UNL     1      -7.636  13.209   3.026  1.00  0.00     0.037 A 
ATOM     62  C   UNL     1     -13.560  11.524   5.325  1.00  0.00     0.049 A 
ATOM     63  C   UNL     1      -8.980  13.669   2.486  1.00  0.00     0.074 A 
ATOM     64  C   UNL     1     -13.003  12.462   6.169  1.00  0.00     0.029 A 
ATOM     65  N   UNL     1     -13.453  12.038   4.049  1.00  0.00    -0.354 N 
ATOM     66  N   UNL     1     -10.127  13.386   3.049  1.00  0.00    -0.248 NA
ATOM     67  C   UNL     1      -9.152  14.451   1.265  1.00  0.00     0.031 C 
ATOM     68  C   UNL     1     -12.462  13.505   5.349  1.00  0.00     0.029 A 
ATOM     69  C   UNL     1     -12.743  13.219   4.022  1.00  0.00     0.049 A 
ATOM     70  H   UNL     1     -13.839  11.611   3.250  1.00  0.00     0.167 HD
ATOM     71  C   UNL     1     -11.151  13.932   2.335  1.00  0.00     0.074 A 
ATOM     72  C   UNL     1     -10.493  14.539   1.189  1.00  0.00     0.031 C 
ATOM     73  C   UNL     1     -12.456  13.854   2.738  1.00  0.00     0.037 A 
BRANCH  60  74
ATOM     74  C   UNL     1     -15.207   9.608   6.114  1.00  0.00     0.057 A 
ATOM     75  C   UNL     1     -16.163  10.469   6.669  1.00  0.00     0.134 A 
ATOM     76  C   UNL     1     -15.425   8.229   6.332  1.00  0.00     0.134 A 
ATOM     77  F   UNL     1     -16.078  11.797   6.501  1.00  0.00    -0.206 F 
ATOM     78  C   UNL     1     -17.232   9.998   7.439  1.00  0.00     0.040 A 
ATOM     79  C   UNL     1     -16.498   7.746   7.088  1.00  0.00     0.040 A 
ATOM     80  F   UNL     1     -14.588   7.301   5.842  1.00  0.00    -0.206 F 
ATOM     81  C   UNL     1     -17.397   8.634   7.661  1.00  0.00     0.006 A 
ENDBRANCH  60  74
BRANCH  61  82
ATOM     82  C   UNL     1      -6.488  12.629   2.255  1.00  0.00     0.057 A 
ATOM     83  C   UNL     1      -5.235  12.625   2.910  1.00  0.00     0.134 A 
ATOM     84  C   UNL     1      -6.671  11.685   1.242  1.00  0.00     0.134 A 
ATOM     85  F   UNL     1      -4.981  13.523   3.877  1.00  0.00    -0.206 F 
ATOM     86  C   UNL     1      -4.310  11.596   2.728  1.00  0.00     0.040 A 
ATOM     87  C   UNL     1      -5.712  10.688   1.003  1.00  0.00     0.040 A 
ATOM     88  F   UNL     1      -7.837  11.602   0.584  1.00  0.00    -0.206 F 
ATOM     89  C   UNL     1      -4.570  10.598   1.799  1.00  0.00     0.006 A 
ENDBRANCH  61  82
BRANCH  73  90
ATOM     90  C   UNL     1     -13.571  14.415   1.906  1.00  0.00     0.057 A 
ATOM     91  C   UNL     1     -13.500  15.688   1.328  1.00  0.00     0.134 A 
ATOM     92  C   UNL     1     -14.776  13.716   1.699  1.00  0.00     0.134 A 
ATOM     93  F   UNL     1     -12.448  16.490   1.554  1.00  0.00    -0.206 F 
ATOM     94  C   UNL     1     -14.508  16.185   0.499  1.00  0.00     0.040 A 
ATOM     95  C   UNL     1     -15.825  14.236   0.939  1.00  0.00     0.040 A 
ATOM     96  F   UNL     1     -14.974  12.485   2.192  1.00  0.00    -0.206 F 
ATOM     97  C   UNL     1     -15.678  15.459   0.304  1.00  0.00     0.006 A 
ENDBRANCH  73  90
ENDBRANCH  47  48
ENDBRANCH  40  42
ENDBRANCH  39  40
ENDBRANCH  38  39
ENDBRANCH  37  38
ENDBRANCH   1  37
TORSDOF 18
