REMARK SMILES C[C@H]1Oc2ccccc2C=C1/C=C/C(=O)N[C@H](C(=O)OCCOC(=O)c1ccc(-c2c3nc(c(-c4c(F)cccc4F)c4ccc([nH]4)c(-c4c(F)cccc4F)c4nc(c(-c5c(F)cccc5F)c5ccc2[nH]5)C=C4)C=C3)cc1)c1ccccc1
REMARK SMILES IDX 21 1 20 2 18 3 19 4 17 5 16 6 14 7 15 8 13 10 12 11 11 12
REMARK SMILES IDX 1 13 2 14 3 15 4 16 10 17 5 18 9 19 6 20 8 21 7 22 80 23
REMARK SMILES IDX 81 24 85 25 82 26 84 27 83 28 22 29 23 30 24 31 25 32 26 33
REMARK SMILES IDX 27 34 79 35 28 36 78 37 29 38 30 39 31 40 72 41 32 42 77 43
REMARK SMILES IDX 71 44 73 45 33 46 76 47 70 48 69 49 34 51 60 52 43 53 59 54
REMARK SMILES IDX 44 55 47 56 58 57 74 58 45 59 46 60 57 62 75 63 48 64 35 65
REMARK SMILES IDX 36 66 41 67 37 68 38 69 40 70 42 71 39 72 61 73 62 74 67 75
REMARK SMILES IDX 63 76 64 77 66 78 68 79 65 80 49 81 50 82 55 83 51 84 52 85
REMARK SMILES IDX 54 86 56 87 53 88
REMARK H PARENT 16 9 73 50 47 61
REMARK Flexibility Score: inf
ROOT
ATOM      1  C   UNL     1       4.500   0.382   5.468  1.00  0.00     0.274 C 
ENDROOT
BRANCH   1   2
ATOM      2  O   UNL     1       3.368  -0.042   4.679  1.00  0.00    -0.460 OA
BRANCH   2   3
ATOM      3  C   UNL     1       3.349  -1.352   4.293  1.00  0.00     0.333 C 
ATOM      4  O   UNL     1       4.188  -2.191   4.604  1.00  0.00    -0.249 OA
BRANCH   3   5
ATOM      5  C   UNL     1       2.153  -1.639   3.368  1.00  0.00     0.223 C 
BRANCH   5   6
ATOM      6  N   UNL     1       2.636  -2.536   2.308  1.00  0.00    -0.335 N 
ATOM      7  C   UNL     1       2.028  -2.987   1.181  1.00  0.00     0.244 C 
ATOM      8  O   UNL     1       2.611  -3.774   0.441  1.00  0.00    -0.270 OA
ATOM      9  H   UNL     1       3.555  -2.864   2.438  1.00  0.00     0.165 HD
BRANCH   7  10
ATOM     10  C   UNL     1       0.615  -2.643   0.917  1.00  0.00     0.071 C 
ATOM     11  C   UNL     1       0.155  -1.385   0.906  1.00  0.00     0.013 C 
BRANCH  11  12
ATOM     12  C   UNL     1      -1.233  -1.006   0.693  1.00  0.00    -0.007 C 
ATOM     13  C   UNL     1      -1.031   1.271   1.841  1.00  0.00     0.058 C 
ATOM     14  C   UNL     1      -1.858  -0.006   1.663  1.00  0.00     0.200 C 
ATOM     15  O   UNL     1      -3.193   0.448   1.356  1.00  0.00    -0.485 OA
ATOM     16  C   UNL     1      -3.818  -0.045   0.251  1.00  0.00     0.127 A 
ATOM     17  C   UNL     1      -1.919  -1.498  -0.347  1.00  0.00     0.019 C 
ATOM     18  C   UNL     1      -5.077   0.488  -0.026  1.00  0.00     0.047 A 
ATOM     19  C   UNL     1      -3.265  -1.010  -0.589  1.00  0.00     0.017 A 
ATOM     20  C   UNL     1      -5.790   0.057  -1.144  1.00  0.00     0.004 A 
ATOM     21  C   UNL     1      -3.992  -1.459  -1.697  1.00  0.00     0.012 A 
ATOM     22  C   UNL     1      -5.251  -0.923  -1.976  1.00  0.00     0.001 A 
ENDBRANCH  11  12
ENDBRANCH   7  10
ENDBRANCH   5   6
BRANCH   5  23
ATOM     23  C   UNL     1       0.931  -2.162   4.109  1.00  0.00    -0.014 A 
ATOM     24  C   UNL     1       0.580  -3.525   4.125  1.00  0.00     0.006 A 
ATOM     25  C   UNL     1       0.095  -1.258   4.788  1.00  0.00     0.006 A 
ATOM     26  C   UNL     1      -0.593  -3.959   4.747  1.00  0.00     0.000 A 
ATOM     27  C   UNL     1      -1.069  -1.698   5.425  1.00  0.00     0.000 A 
ATOM     28  C   UNL     1      -1.418  -3.045   5.395  1.00  0.00     0.000 A 
ENDBRANCH   5  23
ENDBRANCH   3   5
ENDBRANCH   2   3
ENDBRANCH   1   2
BRANCH   1  29
ATOM     29  C   UNL     1       4.074   0.664   6.904  1.00  0.00     0.275 C 
BRANCH  29  30
ATOM     30  O   UNL     1       3.606  -0.555   7.501  1.00  0.00    -0.458 OA
BRANCH  30  31
ATOM     31  C   UNL     1       2.292  -0.587   7.822  1.00  0.00     0.338 C 
ATOM     32  O   UNL     1       1.481   0.318   7.753  1.00  0.00    -0.246 OA
BRANCH  31  33
ATOM     33  C   UNL     1       1.953  -1.954   8.241  1.00  0.00     0.060 A 
ATOM     34  C   UNL     1       1.506  -2.211   9.532  1.00  0.00     0.016 A 
ATOM     35  C   UNL     1       1.988  -2.974   7.295  1.00  0.00     0.016 A 
ATOM     36  C   UNL     1       1.115  -3.512   9.869  1.00  0.00     0.010 A 
ATOM     37  C   UNL     1       1.484  -4.232   7.599  1.00  0.00     0.010 A 
ATOM     38  C   UNL     1       1.072  -4.533   8.899  1.00  0.00    -0.014 A 
BRANCH  38  39
ATOM     39  C   UNL     1       0.594  -5.902   9.235  1.00  0.00     0.031 A 
ATOM     40  C   UNL     1       1.468  -7.112   9.012  1.00  0.00     0.074 A 
ATOM     41  C   UNL     1      -0.656  -6.066   9.713  1.00  0.00     0.049 A 
ATOM     42  N   UNL     1       1.239  -8.365   9.326  1.00  0.00    -0.248 NA
ATOM     43  C   UNL     1       2.745  -6.906   8.309  1.00  0.00     0.031 C 
ATOM     44  C   UNL     1      -1.657  -5.006   9.854  1.00  0.00     0.029 A 
ATOM     45  N   UNL     1      -1.290  -7.185  10.192  1.00  0.00    -0.354 N 
ATOM     46  C   UNL     1       2.326  -9.085   8.842  1.00  0.00     0.074 A 
ATOM     47  C   UNL     1       3.176  -8.147   8.146  1.00  0.00     0.031 C 
ATOM     48  C   UNL     1      -2.745  -5.507  10.461  1.00  0.00     0.029 A 
ATOM     49  C   UNL     1      -2.529  -6.924  10.728  1.00  0.00     0.049 A 
ATOM     50  H   UNL     1      -0.897  -8.087  10.154  1.00  0.00     0.167 HD
ATOM     51  C   UNL     1       2.619 -10.398   9.000  1.00  0.00     0.037 A 
ATOM     52  C   UNL     1      -3.377  -7.730  11.394  1.00  0.00     0.037 A 
ATOM     53  C   UNL     1       1.804 -11.323   9.740  1.00  0.00     0.049 A 
ATOM     54  C   UNL     1      -2.992  -9.162  11.638  1.00  0.00     0.074 A 
ATOM     55  C   UNL     1       2.054 -12.651  10.037  1.00  0.00     0.029 A 
ATOM     56  N   UNL     1       0.581 -11.008  10.309  1.00  0.00    -0.354 N 
ATOM     57  N   UNL     1      -1.905  -9.800  11.278  1.00  0.00    -0.248 NA
ATOM     58  C   UNL     1      -3.948  -9.981  12.396  1.00  0.00     0.031 C 
ATOM     59  C   UNL     1       0.969 -13.146  10.770  1.00  0.00     0.029 A 
ATOM     60  C   UNL     1       0.060 -12.117  10.953  1.00  0.00     0.049 A 
ATOM     61  H   UNL     1       0.146 -10.126  10.262  1.00  0.00     0.167 HD
ATOM     62  C   UNL     1      -2.036 -11.086  11.783  1.00  0.00     0.074 A 
ATOM     63  C   UNL     1      -3.297 -11.131  12.493  1.00  0.00     0.031 C 
ATOM     64  C   UNL     1      -1.191 -12.139  11.664  1.00  0.00     0.037 A 
BRANCH  51  65
ATOM     65  C   UNL     1       3.899 -10.896   8.392  1.00  0.00     0.057 A 
ATOM     66  C   UNL     1       3.887 -11.774   7.301  1.00  0.00     0.134 A 
ATOM     67  C   UNL     1       5.150 -10.517   8.900  1.00  0.00     0.134 A 
ATOM     68  F   UNL     1       2.727 -12.188   6.771  1.00  0.00    -0.206 F 
ATOM     69  C   UNL     1       5.072 -12.248   6.733  1.00  0.00     0.040 A 
ATOM     70  C   UNL     1       6.340 -10.961   8.323  1.00  0.00     0.040 A 
ATOM     71  F   UNL     1       5.232  -9.670   9.938  1.00  0.00    -0.206 F 
ATOM     72  C   UNL     1       6.303 -11.834   7.239  1.00  0.00     0.006 A 
ENDBRANCH  51  65
BRANCH  52  73
ATOM     73  C   UNL     1      -4.639  -7.186  11.951  1.00  0.00     0.057 A 
ATOM     74  C   UNL     1      -5.722  -6.852  11.132  1.00  0.00     0.134 A 
ATOM     75  C   UNL     1      -4.792  -7.005  13.332  1.00  0.00     0.134 A 
ATOM     76  F   UNL     1      -5.633  -6.991   9.801  1.00  0.00    -0.206 F 
ATOM     77  C   UNL     1      -6.916  -6.362  11.665  1.00  0.00     0.040 A 
ATOM     78  C   UNL     1      -5.987  -6.539  13.881  1.00  0.00     0.040 A 
ATOM     79  F   UNL     1      -3.792  -7.322  14.168  1.00  0.00    -0.206 F 
ATOM     80  C   UNL     1      -7.053  -6.214  13.045  1.00  0.00     0.006 A 
ENDBRANCH  52  73
BRANCH  64  81
ATOM     81  C   UNL     1      -1.594 -13.414  12.340  1.00  0.00     0.057 A 
ATOM     82  C   UNL     1      -0.937 -13.846  13.498  1.00  0.00     0.134 A 
ATOM     83  C   UNL     1      -2.618 -14.224  11.832  1.00  0.00     0.134 A 
ATOM     84  F   UNL     1       0.057 -13.118  14.030  1.00  0.00    -0.206 F 
ATOM     85  C   UNL     1      -1.285 -15.040  14.130  1.00  0.00     0.040 A 
ATOM     86  C   UNL     1      -2.991 -15.408  12.468  1.00  0.00     0.040 A 
ATOM     87  F   UNL     1      -3.294 -13.855  10.734  1.00  0.00    -0.206 F 
ATOM     88  C   UNL     1      -2.320 -15.822  13.618  1.00  0.00     0.006 A 
ENDBRANCH  64  81
ENDBRANCH  38  39
ENDBRANCH  31  33
ENDBRANCH  30  31
ENDBRANCH  29  30
ENDBRANCH   1  29
TORSDOF 15
