REMARK SMILES C#CCN(CC(=O)OCCOC(=O)c1ccc(-c2c3nc(c(-c4c(F)cccc4F)c4ccc([nH]4)c(-c4c(F)cccc4F)c4nc(c(-c5c(F)cccc5F)c5ccc2[nH]5)C=C4)C=C3)cc1)C(=O)N1CC[N@H+]2CCC[C@H]2C1
REMARK SMILES IDX 9 1 8 2 6 3 7 4 5 5 4 6 3 7 2 8 1 9 68 10 69 11 70 12 71 13
REMARK SMILES IDX 78 14 72 15 77 16 73 17 76 18 74 19 75 21 10 22 11 23 12 24
REMARK SMILES IDX 13 25 14 26 15 27 67 28 16 29 66 30 17 31 18 32 19 33 60 34
REMARK SMILES IDX 20 35 65 36 59 37 61 38 21 39 64 40 58 41 57 42 22 44 48 45
REMARK SMILES IDX 31 46 47 47 32 48 35 49 46 50 62 51 33 52 34 53 45 55 63 56
REMARK SMILES IDX 36 57 23 58 24 59 29 60 25 61 26 62 28 63 30 64 27 65 49 66
REMARK SMILES IDX 50 67 55 68 51 69 52 70 54 71 56 72 53 73 37 74 38 75 43 76
REMARK SMILES IDX 39 77 40 78 42 79 44 80 41 81
REMARK H PARENT 73 20 61 43 35 54
REMARK Flexibility Score: inf
ROOT
ATOM      1  C   UNL     1      -6.875   0.436   1.247  1.00  0.00     0.274 C 
ENDROOT
BRANCH   1   2
ATOM      2  O   UNL     1      -5.488   0.518   0.791  1.00  0.00    -0.461 OA
BRANCH   2   3
ATOM      3  C   UNL     1      -4.684   1.319   1.544  1.00  0.00     0.325 C 
ATOM      4  O   UNL     1      -5.106   2.335   2.096  1.00  0.00    -0.250 OA
BRANCH   3   5
ATOM      5  C   UNL     1      -3.224   0.786   1.841  1.00  0.00     0.245 C 
BRANCH   5   6
ATOM      6  N   UNL     1      -2.547  -0.405   1.256  1.00  0.00    -0.302 N 
BRANCH   6   7
ATOM      7  C   UNL     1      -1.859   0.037   0.086  1.00  0.00     0.211 C 
BRANCH   7   8
ATOM      8  C   UNL     1      -0.339   0.037   0.086  1.00  0.00    -0.085 C 
ATOM      9  C   UNL     1       0.964   0.037   0.086  1.00  0.00     0.006 C 
ENDBRANCH   7   8
ENDBRANCH   6   7
BRANCH   6  10
ATOM     10  C   UNL     1      -2.708  -1.849   1.451  1.00  0.00     0.321 C 
ATOM     11  O   UNL     1      -2.394  -2.659   0.574  1.00  0.00    -0.248 OA
BRANCH  10  12
ATOM     12  N   UNL     1      -2.938  -2.344   2.784  1.00  0.00    -0.313 N 
ATOM     13  C   UNL     1      -4.500  -3.163   3.494  1.00  0.00     0.183 C 
ATOM     14  C   UNL     1      -1.614  -1.915   3.719  1.00  0.00     0.186 C 
ATOM     15  C   UNL     1      -5.097  -2.569   5.312  1.00  0.00     0.284 C 
ATOM     16  C   UNL     1      -2.001  -1.189   5.415  1.00  0.00     0.204 C 
ATOM     17  N   UNL     1      -3.935  -1.425   6.326  1.00  0.00    -0.330 N 
ATOM     18  C   UNL     1      -0.693  -2.050   6.692  1.00  0.00     0.073 C 
ATOM     19  C   UNL     1      -3.694  -2.233   8.027  1.00  0.00     0.262 C 
ATOM     20  H   UNL     1      -4.363  -0.501   6.382  1.00  0.00     0.348 HD
ATOM     21  C   UNL     1      -1.779  -2.667   8.313  1.00  0.00     0.068 C 
ENDBRANCH  10  12
ENDBRANCH   6  10
ENDBRANCH   5   6
ENDBRANCH   3   5
ENDBRANCH   2   3
ENDBRANCH   1   2
BRANCH   1  22
ATOM     22  C   UNL     1      -7.116  -0.419   2.536  1.00  0.00     0.275 C 
BRANCH  22  23
ATOM     23  O   UNL     1      -6.148  -0.201   3.610  1.00  0.00    -0.458 OA
BRANCH  23  24
ATOM     24  C   UNL     1      -4.989  -0.825   3.261  1.00  0.00     0.338 C 
ATOM     25  O   UNL     1      -4.945  -1.288   2.131  1.00  0.00    -0.246 OA
BRANCH  24  26
ATOM     26  C   UNL     1      -3.832  -1.012   4.359  1.00  0.00     0.060 A 
ATOM     27  C   UNL     1      -3.655   0.467   5.138  1.00  0.00     0.016 A 
ATOM     28  C   UNL     1      -3.122  -2.675   5.019  1.00  0.00     0.016 A 
ATOM     29  C   UNL     1      -2.867   0.569   6.513  1.00  0.00     0.010 A 
ATOM     30  C   UNL     1      -2.498  -2.644   6.450  1.00  0.00     0.010 A 
ATOM     31  C   UNL     1      -2.256  -0.843   7.302  1.00  0.00    -0.014 A 
BRANCH  31  32
ATOM     32  C   UNL     1      -1.250  -0.224   8.633  1.00  0.00     0.031 A 
ATOM     33  C   UNL     1       0.118  -0.884   9.286  1.00  0.00     0.074 A 
ATOM     34  C   UNL     1      -1.676   0.847   9.357  1.00  0.00     0.049 A 
ATOM     35  N   UNL     1       0.441  -0.922  10.575  1.00  0.00    -0.248 NA
ATOM     36  C   UNL     1       1.038  -1.782   8.544  1.00  0.00     0.031 C 
ATOM     37  C   UNL     1      -2.905   1.611   9.153  1.00  0.00     0.029 A 
ATOM     38  N   UNL     1      -1.098   1.497  10.434  1.00  0.00    -0.354 N 
ATOM     39  C   UNL     1       1.343  -1.991  10.693  1.00  0.00     0.074 A 
ATOM     40  C   UNL     1       1.291  -2.704   9.454  1.00  0.00     0.031 C 
ATOM     41  C   UNL     1      -2.901   2.707   9.919  1.00  0.00     0.029 A 
ATOM     42  C   UNL     1      -1.796   2.609  10.855  1.00  0.00     0.049 A 
ATOM     43  H   UNL     1      -0.264   1.193  10.860  1.00  0.00     0.167 HD
ATOM     44  C   UNL     1       2.305  -2.299  11.600  1.00  0.00     0.037 A 
ATOM     45  C   UNL     1      -1.644   3.422  11.919  1.00  0.00     0.037 A 
ATOM     46  C   UNL     1       2.602  -1.471  12.720  1.00  0.00     0.049 A 
ATOM     47  C   UNL     1      -0.587   3.111  12.940  1.00  0.00     0.074 A 
ATOM     48  C   UNL     1       3.573  -1.625  13.689  1.00  0.00     0.029 A 
ATOM     49  N   UNL     1       1.942  -0.284  12.974  1.00  0.00    -0.354 N 
ATOM     50  N   UNL     1       0.261   2.112  12.985  1.00  0.00    -0.248 NA
ATOM     51  C   UNL     1      -0.487   4.034  14.081  1.00  0.00     0.031 C 
ATOM     52  C   UNL     1       3.460  -0.548  14.572  1.00  0.00     0.029 A 
ATOM     53  C   UNL     1       2.465   0.299  14.105  1.00  0.00     0.049 A 
ATOM     54  H   UNL     1       1.210   0.086  12.430  1.00  0.00     0.167 HD
ATOM     55  C   UNL     1       1.016   2.308  14.136  1.00  0.00     0.074 A 
ATOM     56  C   UNL     1       0.535   3.525  14.752  1.00  0.00     0.031 C 
ATOM     57  C   UNL     1       2.011   1.546  14.649  1.00  0.00     0.037 A 
BRANCH  44  58
ATOM     58  C   UNL     1       3.139  -3.543  11.356  1.00  0.00     0.057 A 
ATOM     59  C   UNL     1       4.014  -3.668  10.260  1.00  0.00     0.134 A 
ATOM     60  C   UNL     1       2.982  -4.671  12.170  1.00  0.00     0.134 A 
ATOM     61  F   UNL     1       4.207  -2.638   9.421  1.00  0.00    -0.206 F 
ATOM     62  C   UNL     1       4.607  -4.889   9.925  1.00  0.00     0.040 A 
ATOM     63  C   UNL     1       3.613  -5.884  11.874  1.00  0.00     0.040 A 
ATOM     64  F   UNL     1       2.191  -4.625  13.252  1.00  0.00    -0.206 F 
ATOM     65  C   UNL     1       4.403  -6.004  10.733  1.00  0.00     0.006 A 
ENDBRANCH  44  58
BRANCH  45  66
ATOM     66  C   UNL     1      -2.539   4.603  12.097  1.00  0.00     0.057 A 
ATOM     67  C   UNL     1      -2.028   5.904  11.998  1.00  0.00     0.134 A 
ATOM     68  C   UNL     1      -3.909   4.476  12.368  1.00  0.00     0.134 A 
ATOM     69  F   UNL     1      -0.722   6.097  11.759  1.00  0.00    -0.206 F 
ATOM     70  C   UNL     1      -2.834   7.028  12.188  1.00  0.00     0.040 A 
ATOM     71  C   UNL     1      -4.735   5.592  12.519  1.00  0.00     0.040 A 
ATOM     72  F   UNL     1      -4.472   3.262  12.461  1.00  0.00    -0.206 F 
ATOM     73  C   UNL     1      -4.195   6.873  12.441  1.00  0.00     0.006 A 
ENDBRANCH  45  66
BRANCH  57  74
ATOM     74  C   UNL     1       2.717   2.043  15.867  1.00  0.00     0.057 A 
ATOM     75  C   UNL     1       2.126   2.006  17.133  1.00  0.00     0.134 A 
ATOM     76  C   UNL     1       4.048   2.470  15.773  1.00  0.00     0.134 A 
ATOM     77  F   UNL     1       0.853   1.609  17.280  1.00  0.00    -0.206 F 
ATOM     78  C   UNL     1       2.834   2.394  18.269  1.00  0.00     0.040 A 
ATOM     79  C   UNL     1       4.775   2.828  16.904  1.00  0.00     0.040 A 
ATOM     80  F   UNL     1       4.670   2.506  14.584  1.00  0.00    -0.206 F 
ATOM     81  C   UNL     1       4.165   2.794  18.157  1.00  0.00     0.006 A 
ENDBRANCH  57  74
ENDBRANCH  31  32
ENDBRANCH  24  26
ENDBRANCH  23  24
ENDBRANCH  22  23
ENDBRANCH   1  22
TORSDOF 16
