REMARK SMILES Cc1ccccc1[C@@H](CC(=O)OCCOC(=O)c1ccc(-c2c3nc(c(-c4c(F)cccc4F)c4ccc([nH]4)c(-c4c(F)cccc4F)c4nc(c(-c5c(F)cccc5F)c5ccc2[nH]5)C=C4)C=C3)cc1)NC(=O)C(F)(F)F
REMARK SMILES IDX 13 1 12 2 10 3 11 4 9 5 8 6 7 7 1 8 2 9 3 10 4 11 6 12 5 13
REMARK SMILES IDX 72 14 73 15 74 17 75 18 76 19 77 20 78 21 14 22 15 23 16 24
REMARK SMILES IDX 17 25 18 26 19 27 71 28 20 29 70 30 21 31 22 32 23 33 64 34
REMARK SMILES IDX 24 35 69 36 63 37 65 38 25 39 68 40 62 41 61 42 26 44 52 45
REMARK SMILES IDX 35 46 51 47 36 48 39 49 50 50 66 51 37 52 38 53 49 55 67 56
REMARK SMILES IDX 40 57 27 58 28 59 33 60 29 61 30 62 32 63 34 64 31 65 53 66
REMARK SMILES IDX 54 67 59 68 55 69 56 70 58 71 60 72 57 73 41 74 42 75 47 76
REMARK SMILES IDX 43 77 44 78 46 79 48 80 45 81
REMARK H PARENT 72 16 65 43 39 54
REMARK Flexibility Score: inf
ROOT
ATOM      1  C   UNL     1      -2.778   2.154   0.225  1.00  0.00     0.274 C 
ENDROOT
BRANCH   1   2
ATOM      2  O   UNL     1      -1.362   2.312   0.205  1.00  0.00    -0.462 OA
BRANCH   2   3
ATOM      3  C   UNL     1      -0.672   1.685  -0.784  1.00  0.00     0.308 C 
ATOM      4  O   UNL     1      -1.167   1.020  -1.667  1.00  0.00    -0.252 OA
BRANCH   3   5
ATOM      5  C   UNL     1       0.815   1.943  -0.597  1.00  0.00     0.152 C 
BRANCH   5   6
ATOM      6  C   UNL     1       1.275   1.594   0.837  1.00  0.00     0.124 C 
BRANCH   6   7
ATOM      7  C   UNL     1       0.729   0.196   1.154  1.00  0.00    -0.022 A 
ATOM      8  C   UNL     1       2.721  -0.952   0.026  1.00  0.00     0.045 C 
ATOM      9  C   UNL     1       1.284  -0.912   0.473  1.00  0.00    -0.046 A 
ATOM     10  C   UNL     1       0.470  -2.022   0.208  1.00  0.00     0.004 A 
ATOM     11  C   UNL     1      -0.858  -2.053   0.628  1.00  0.00     0.000 A 
ATOM     12  C   UNL     1      -0.544   0.058   1.745  1.00  0.00     0.006 A 
ATOM     13  C   UNL     1      -1.350  -1.038   1.438  1.00  0.00     0.000 A 
ENDBRANCH   6   7
BRANCH   6  14
ATOM     14  N   UNL     1       0.905   2.637   1.792  1.00  0.00    -0.341 N 
ATOM     15  C   UNL     1       1.745   3.458   2.517  1.00  0.00     0.326 C 
ATOM     16  H   UNL     1      -0.060   2.770   1.936  1.00  0.00     0.164 HD
ATOM     17  O   UNL     1       1.228   4.263   3.297  1.00  0.00    -0.265 OA
BRANCH  15  18
ATOM     18  C   UNL     1       3.272   3.336   2.323  1.00  0.00     0.471 C 
ATOM     19  F   UNL     1       3.724   2.077   2.589  1.00  0.00    -0.162 F 
ATOM     20  F   UNL     1       3.637   3.599   1.033  1.00  0.00    -0.162 F 
ATOM     21  F   UNL     1       3.996   4.178   3.108  1.00  0.00    -0.162 F 
ENDBRANCH  15  18
ENDBRANCH   6  14
ENDBRANCH   5   6
ENDBRANCH   3   5
ENDBRANCH   2   3
ENDBRANCH   1   2
BRANCH   1  22
ATOM     22  C   UNL     1      -3.366   3.281   1.084  1.00  0.00     0.275 C 
BRANCH  22  23
ATOM     23  O   UNL     1      -2.507   4.449   1.378  1.00  0.00    -0.458 OA
BRANCH  23  24
ATOM     24  C   UNL     1      -1.626   5.156   0.610  1.00  0.00     0.338 C 
ATOM     25  O   UNL     1      -0.776   5.892   1.091  1.00  0.00    -0.246 OA
BRANCH  24  26
ATOM     26  C   UNL     1      -1.663   4.961  -0.846  1.00  0.00     0.060 A 
ATOM     27  C   UNL     1      -0.487   4.912  -1.623  1.00  0.00     0.016 A 
ATOM     28  C   UNL     1      -2.882   4.639  -1.391  1.00  0.00     0.016 A 
ATOM     29  C   UNL     1      -0.536   4.397  -2.923  1.00  0.00     0.010 A 
ATOM     30  C   UNL     1      -2.867   3.868  -2.513  1.00  0.00     0.010 A 
ATOM     31  C   UNL     1      -1.737   3.837  -3.345  1.00  0.00    -0.014 A 
BRANCH  31  32
ATOM     32  C   UNL     1      -2.094   3.418  -4.695  1.00  0.00     0.031 A 
ATOM     33  C   UNL     1      -1.565   2.212  -5.349  1.00  0.00     0.074 A 
ATOM     34  C   UNL     1      -3.138   4.147  -5.169  1.00  0.00     0.049 A 
ATOM     35  N   UNL     1      -1.819   1.923  -6.574  1.00  0.00    -0.248 NA
ATOM     36  C   UNL     1      -0.722   1.210  -4.711  1.00  0.00     0.031 C 
ATOM     37  C   UNL     1      -4.058   3.963  -6.270  1.00  0.00     0.029 A 
ATOM     38  N   UNL     1      -3.515   5.405  -4.658  1.00  0.00    -0.354 N 
ATOM     39  C   UNL     1      -1.411   0.628  -6.824  1.00  0.00     0.074 A 
ATOM     40  C   UNL     1      -0.689   0.241  -5.638  1.00  0.00     0.031 C 
ATOM     41  C   UNL     1      -4.593   5.168  -6.572  1.00  0.00     0.029 A 
ATOM     42  C   UNL     1      -3.938   6.174  -5.737  1.00  0.00     0.049 A 
ATOM     43  H   UNL     1      -3.484   5.687  -3.715  1.00  0.00     0.167 HD
ATOM     44  C   UNL     1      -1.839   0.051  -7.987  1.00  0.00     0.037 A 
ATOM     45  C   UNL     1      -3.054   7.149  -6.111  1.00  0.00     0.037 A 
ATOM     46  C   UNL     1      -2.487   1.076  -8.814  1.00  0.00     0.049 A 
ATOM     47  C   UNL     1      -2.325   6.746  -7.378  1.00  0.00     0.074 A 
ATOM     48  C   UNL     1      -3.791   1.517  -8.956  1.00  0.00     0.029 A 
ATOM     49  N   UNL     1      -1.687   2.085  -9.315  1.00  0.00    -0.354 N 
ATOM     50  N   UNL     1      -2.423   5.566  -7.931  1.00  0.00    -0.248 NA
ATOM     51  C   UNL     1      -1.414   7.622  -8.107  1.00  0.00     0.031 C 
ATOM     52  C   UNL     1      -3.737   2.875  -9.419  1.00  0.00     0.029 A 
ATOM     53  C   UNL     1      -2.407   3.235  -9.577  1.00  0.00     0.049 A 
ATOM     54  H   UNL     1      -0.718   1.995  -9.468  1.00  0.00     0.167 HD
ATOM     55  C   UNL     1      -1.684   5.519  -9.067  1.00  0.00     0.074 A 
ATOM     56  C   UNL     1      -1.028   6.818  -9.113  1.00  0.00     0.031 C 
ATOM     57  C   UNL     1      -1.667   4.446  -9.911  1.00  0.00     0.037 A 
BRANCH  44  58
ATOM     58  C   UNL     1      -1.822  -1.414  -8.371  1.00  0.00     0.057 A 
ATOM     59  C   UNL     1      -2.635  -1.862  -9.438  1.00  0.00     0.134 A 
ATOM     60  C   UNL     1      -1.093  -2.439  -7.744  1.00  0.00     0.134 A 
ATOM     61  F   UNL     1      -3.372  -1.011 -10.166  1.00  0.00    -0.206 F 
ATOM     62  C   UNL     1      -2.746  -3.208  -9.816  1.00  0.00     0.040 A 
ATOM     63  C   UNL     1      -1.205  -3.795  -8.103  1.00  0.00     0.040 A 
ATOM     64  F   UNL     1      -0.209  -2.193  -6.773  1.00  0.00    -0.206 F 
ATOM     65  C   UNL     1      -2.039  -4.186  -9.139  1.00  0.00     0.006 A 
ENDBRANCH  44  58
BRANCH  45  66
ATOM     66  C   UNL     1      -2.447   7.840  -4.906  1.00  0.00     0.057 A 
ATOM     67  C   UNL     1      -3.323   8.345  -3.913  1.00  0.00     0.134 A 
ATOM     68  C   UNL     1      -1.112   7.682  -4.517  1.00  0.00     0.134 A 
ATOM     69  F   UNL     1      -4.624   8.531  -4.194  1.00  0.00    -0.206 F 
ATOM     70  C   UNL     1      -2.930   8.535  -2.582  1.00  0.00     0.040 A 
ATOM     71  C   UNL     1      -0.698   7.915  -3.192  1.00  0.00     0.040 A 
ATOM     72  F   UNL     1      -0.198   7.206  -5.372  1.00  0.00    -0.206 F 
ATOM     73  C   UNL     1      -1.615   8.293  -2.212  1.00  0.00     0.006 A 
ENDBRANCH  45  66
BRANCH  57  74
ATOM     74  C   UNL     1      -0.901   4.516 -11.187  1.00  0.00     0.057 A 
ATOM     75  C   UNL     1      -1.071   5.590 -12.068  1.00  0.00     0.134 A 
ATOM     76  C   UNL     1      -0.047   3.485 -11.608  1.00  0.00     0.134 A 
ATOM     77  F   UNL     1      -1.923   6.588 -11.784  1.00  0.00    -0.206 F 
ATOM     78  C   UNL     1      -0.363   5.676 -13.265  1.00  0.00     0.040 A 
ATOM     79  C   UNL     1       0.609   3.525 -12.835  1.00  0.00     0.040 A 
ATOM     80  F   UNL     1       0.209   2.417 -10.838  1.00  0.00    -0.206 F 
ATOM     81  C   UNL     1       0.473   4.636 -13.656  1.00  0.00     0.006 A 
ENDBRANCH  57  74
ENDBRANCH  31  32
ENDBRANCH  24  26
ENDBRANCH  23  24
ENDBRANCH  22  23
ENDBRANCH   1  22
TORSDOF 15
