REMARK SMILES COc1cc(Cl)ccc1-c1ccc(CC(=O)OCCOC(=O)c2ccc(-c3c4nc(c(-c5c(F)cccc5F)c5ccc([nH]5)c(-c5c(F)cccc5F)c5nc(c(-c6c(F)cccc6F)c6ccc3[nH]6)C=C5)C=C4)cc2)cc1
REMARK SMILES IDX 18 1 17 2 15 3 16 4 14 5 13 6 10 7 11 8 78 9 12 10 77 11
REMARK SMILES IDX 9 12 3 13 4 14 5 15 8 16 6 17 7 18 2 19 1 20 19 21 20 22
REMARK SMILES IDX 21 23 22 24 23 25 24 26 76 27 25 28 75 29 26 30 27 31 28 32
REMARK SMILES IDX 69 33 29 34 74 35 68 36 70 37 30 38 73 39 67 40 66 41 31 43
REMARK SMILES IDX 57 44 40 45 56 46 41 47 44 48 55 49 71 50 42 51 43 52 54 54
REMARK SMILES IDX 72 55 45 56 32 57 33 58 38 59 34 60 35 61 37 62 39 63 36 64
REMARK SMILES IDX 58 65 59 66 64 67 60 68 61 69 63 70 65 71 62 72 46 73 47 74
REMARK SMILES IDX 52 75 48 76 49 77 51 78 53 79 50 80
REMARK H PARENT 70 42 44 53
REMARK Flexibility Score: inf
ROOT
ATOM      1  C   UNL     1      -7.367  -5.138   0.771  1.00  0.00     0.274 C 
ENDROOT
BRANCH   1   2
ATOM      2  O   UNL     1      -6.388  -4.084   0.684  1.00  0.00    -0.462 OA
BRANCH   2   3
ATOM      3  C   UNL     1      -6.714  -2.919   1.303  1.00  0.00     0.310 C 
ATOM      4  O   UNL     1      -7.778  -2.706   1.876  1.00  0.00    -0.252 OA
BRANCH   3   5
ATOM      5  C   UNL     1      -5.660  -1.849   1.159  1.00  0.00     0.158 C 
BRANCH   5   6
ATOM      6  C   UNL     1      -4.227  -2.306   1.035  1.00  0.00    -0.037 A 
ATOM      7  C   UNL     1      -1.494  -3.011   0.828  1.00  0.00    -0.015 A 
ATOM      8  C   UNL     1      -2.218  -3.290   1.993  1.00  0.00     0.009 A 
ATOM      9  C   UNL     1      -2.162  -2.391  -0.238  1.00  0.00     0.009 A 
ATOM     10  C   UNL     1      -3.567  -2.938   2.097  1.00  0.00     0.005 A 
ATOM     11  C   UNL     1      -3.511  -2.043  -0.138  1.00  0.00     0.005 A 
BRANCH   7  12
ATOM     12  C   UNL     1      -0.071  -3.362   0.713  1.00  0.00     0.024 A 
ATOM     13  C   UNL     1       0.941  -2.381   0.683  1.00  0.00     0.128 A 
ATOM     14  C   UNL     1       2.285  -2.745   0.546  1.00  0.00     0.067 A 
ATOM     15  C   UNL     1       2.623  -4.089   0.408  1.00  0.00     0.044 A 
ATOM     16  C   UNL     1       0.301  -4.712   0.587  1.00  0.00     0.014 A 
ATOM     17  Cl  UNL     1       4.274  -4.537   0.216  1.00  0.00    -0.084 Cl
ATOM     18  C   UNL     1       1.640  -5.074   0.429  1.00  0.00     0.021 A 
BRANCH  13  19
ATOM     19  O   UNL     1       0.576  -1.071   0.886  1.00  0.00    -0.496 OA
ATOM     20  C   UNL     1       1.094  -0.179  -0.097  1.00  0.00     0.278 C 
ENDBRANCH  13  19
ENDBRANCH   7  12
ENDBRANCH   5   6
ENDBRANCH   3   5
ENDBRANCH   2   3
ENDBRANCH   1   2
BRANCH   1  21
ATOM     21  C   UNL     1      -7.054  -6.073   1.936  1.00  0.00     0.275 C 
BRANCH  21  22
ATOM     22  O   UNL     1      -7.144  -5.352   3.178  1.00  0.00    -0.458 OA
BRANCH  22  23
ATOM     23  C   UNL     1      -6.059  -5.421   3.977  1.00  0.00     0.338 C 
ATOM     24  O   UNL     1      -5.037  -6.061   3.804  1.00  0.00    -0.246 OA
BRANCH  23  25
ATOM     25  C   UNL     1      -6.278  -4.584   5.164  1.00  0.00     0.060 A 
ATOM     26  C   UNL     1      -6.220  -3.192   5.060  1.00  0.00     0.016 A 
ATOM     27  C   UNL     1      -6.419  -5.200   6.408  1.00  0.00     0.016 A 
ATOM     28  C   UNL     1      -6.249  -2.410   6.213  1.00  0.00     0.010 A 
ATOM     29  C   UNL     1      -6.500  -4.412   7.557  1.00  0.00     0.010 A 
ATOM     30  C   UNL     1      -6.384  -3.014   7.471  1.00  0.00    -0.014 A 
BRANCH  30  31
ATOM     31  C   UNL     1      -6.359  -2.196   8.708  1.00  0.00     0.031 A 
ATOM     32  C   UNL     1      -5.186  -2.287   9.643  1.00  0.00     0.074 A 
ATOM     33  C   UNL     1      -7.390  -1.382   8.998  1.00  0.00     0.049 A 
ATOM     34  N   UNL     1      -5.032  -1.761  10.831  1.00  0.00    -0.248 NA
ATOM     35  C   UNL     1      -4.036  -3.081   9.181  1.00  0.00     0.031 C 
ATOM     36  C   UNL     1      -8.571  -1.179   8.160  1.00  0.00     0.029 A 
ATOM     37  N   UNL     1      -7.610  -0.580  10.089  1.00  0.00    -0.354 N 
ATOM     38  C   UNL     1      -3.785  -2.183  11.272  1.00  0.00     0.074 A 
ATOM     39  C   UNL     1      -3.225  -3.015  10.228  1.00  0.00     0.031 C 
ATOM     40  C   UNL     1      -9.390  -0.304   8.764  1.00  0.00     0.029 A 
ATOM     41  C   UNL     1      -8.815   0.076  10.051  1.00  0.00     0.049 A 
ATOM     42  H   UNL     1      -6.966  -0.484  10.828  1.00  0.00     0.167 HD
ATOM     43  C   UNL     1      -3.163  -1.901  12.441  1.00  0.00     0.037 A 
ATOM     44  C   UNL     1      -9.402   0.872  10.964  1.00  0.00     0.037 A 
ATOM     45  C   UNL     1      -3.705  -1.052  13.469  1.00  0.00     0.049 A 
ATOM     46  C   UNL     1      -8.706   1.144  12.266  1.00  0.00     0.074 A 
ATOM     47  C   UNL     1      -3.142  -0.697  14.682  1.00  0.00     0.029 A 
ATOM     48  N   UNL     1      -4.935  -0.417  13.396  1.00  0.00    -0.354 N 
ATOM     49  N   UNL     1      -7.539   0.718  12.683  1.00  0.00    -0.248 NA
ATOM     50  C   UNL     1      -9.416   1.997  13.230  1.00  0.00     0.031 C 
ATOM     51  C   UNL     1      -4.042   0.137  15.355  1.00  0.00     0.029 A 
ATOM     52  C   UNL     1      -5.153   0.321  14.548  1.00  0.00     0.049 A 
ATOM     53  H   UNL     1      -5.560  -0.481  12.639  1.00  0.00     0.167 HD
ATOM     54  C   UNL     1      -7.369   1.258  13.950  1.00  0.00     0.074 A 
ATOM     55  C   UNL     1      -8.547   2.053  14.230  1.00  0.00     0.031 C 
ATOM     56  C   UNL     1      -6.331   1.106  14.807  1.00  0.00     0.037 A 
BRANCH  43  57
ATOM     57  C   UNL     1      -1.829  -2.539  12.680  1.00  0.00     0.057 A 
ATOM     58  C   UNL     1      -0.665  -2.066  12.063  1.00  0.00     0.134 A 
ATOM     59  C   UNL     1      -1.705  -3.620  13.561  1.00  0.00     0.134 A 
ATOM     60  F   UNL     1      -0.722  -1.042  11.198  1.00  0.00    -0.206 F 
ATOM     61  C   UNL     1       0.577  -2.658  12.303  1.00  0.00     0.040 A 
ATOM     62  C   UNL     1      -0.467  -4.209  13.821  1.00  0.00     0.040 A 
ATOM     63  F   UNL     1      -2.784  -4.118  14.184  1.00  0.00    -0.206 F 
ATOM     64  C   UNL     1       0.678  -3.729  13.188  1.00  0.00     0.006 A 
ENDBRANCH  43  57
BRANCH  44  65
ATOM     65  C   UNL     1     -10.735   1.453  10.683  1.00  0.00     0.057 A 
ATOM     66  C   UNL     1     -10.880   2.810  10.379  1.00  0.00     0.134 A 
ATOM     67  C   UNL     1     -11.892   0.665  10.706  1.00  0.00     0.134 A 
ATOM     68  F   UNL     1      -9.808   3.616  10.364  1.00  0.00    -0.206 F 
ATOM     69  C   UNL     1     -12.131   3.368  10.114  1.00  0.00     0.040 A 
ATOM     70  C   UNL     1     -13.147   1.205  10.425  1.00  0.00     0.040 A 
ATOM     71  F   UNL     1     -11.814  -0.643  10.991  1.00  0.00    -0.206 F 
ATOM     72  C   UNL     1     -13.269   2.562  10.131  1.00  0.00     0.006 A 
ENDBRANCH  44  65
BRANCH  56  73
ATOM     73  C   UNL     1      -6.417   1.830  16.115  1.00  0.00     0.057 A 
ATOM     74  C   UNL     1      -7.208   1.351  17.165  1.00  0.00     0.134 A 
ATOM     75  C   UNL     1      -5.679   2.999  16.334  1.00  0.00     0.134 A 
ATOM     76  F   UNL     1      -7.948   0.243  17.009  1.00  0.00    -0.206 F 
ATOM     77  C   UNL     1      -7.273   2.020  18.388  1.00  0.00     0.040 A 
ATOM     78  C   UNL     1      -5.724   3.668  17.558  1.00  0.00     0.040 A 
ATOM     79  F   UNL     1      -4.901   3.505  15.366  1.00  0.00    -0.206 F 
ATOM     80  C   UNL     1      -6.526   3.179  18.588  1.00  0.00     0.006 A 
ENDBRANCH  56  73
ENDBRANCH  30  31
ENDBRANCH  23  25
ENDBRANCH  22  23
ENDBRANCH  21  22
ENDBRANCH   1  21
TORSDOF 14
