REMARK SMILES COc1cc2ccccc2cc1C(=O)Nc1cc(C(=O)OCCOC(=O)c2ccc(-c3c4nc(c(-c5c(F)cccc5F)c5ccc([nH]5)c(-c5c(F)cccc5F)c5nc(c(-c6c(F)cccc6F)c6ccc3[nH]6)C=C5)C=C4)cc2)ccc1C
REMARK SMILES IDX 22 1 21 2 19 3 20 4 18 5 16 6 17 7 83 8 82 9 84 10 81 11
REMARK SMILES IDX 15 12 13 13 14 14 12 16 3 17 4 18 5 19 11 20 6 21 10 22 7 23
REMARK SMILES IDX 9 24 8 25 2 26 1 27 23 28 24 29 25 30 26 31 27 32 28 33
REMARK SMILES IDX 80 34 29 35 79 36 30 37 31 38 32 39 73 40 33 41 78 42 72 43
REMARK SMILES IDX 74 44 34 45 77 46 71 47 70 48 35 50 61 51 44 52 60 53 45 54
REMARK SMILES IDX 48 55 59 56 75 57 46 58 47 59 58 61 76 62 49 63 36 64 37 65
REMARK SMILES IDX 42 66 38 67 39 68 41 69 43 70 40 71 62 72 63 73 68 74 64 75
REMARK SMILES IDX 65 76 67 77 69 78 66 79 50 80 51 81 56 82 52 83 53 84 55 85
REMARK SMILES IDX 57 86 54 87
REMARK H PARENT 15 15 74 49 48 60
REMARK Flexibility Score: inf
ROOT
ATOM      1  C   UNL     1       0.264   0.263  -6.133  1.00  0.00     0.275 C 
ENDROOT
BRANCH   1   2
ATOM      2  O   UNL     1       0.699  -0.655  -5.117  1.00  0.00    -0.458 OA
BRANCH   2   3
ATOM      3  C   UNL     1       0.820  -0.043  -3.918  1.00  0.00     0.338 C 
ATOM      4  O   UNL     1       0.525   1.117  -3.685  1.00  0.00    -0.246 OA
BRANCH   3   5
ATOM      5  C   UNL     1       1.438  -0.859  -2.870  1.00  0.00     0.062 A 
ATOM      6  C   UNL     1       2.921  -0.632  -0.971  1.00  0.00     0.045 A 
ATOM      7  C   UNL     1       2.550  -0.270  -2.263  1.00  0.00     0.042 A 
ATOM      8  C   UNL     1       2.298  -1.739  -0.356  1.00  0.00    -0.027 A 
ATOM      9  C   UNL     1       1.224  -2.374  -1.021  1.00  0.00     0.006 A 
ATOM     10  C   UNL     1       2.563  -2.136   1.073  1.00  0.00     0.046 C 
ATOM     11  C   UNL     1       0.770  -1.919  -2.265  1.00  0.00     0.016 A 
BRANCH   6  12
ATOM     12  N   UNL     1       3.824   0.174  -0.248  1.00  0.00    -0.322 N 
ATOM     13  C   UNL     1       4.019   1.549  -0.262  1.00  0.00     0.259 C 
ATOM     14  O   UNL     1       5.018   1.999   0.304  1.00  0.00    -0.269 OA
ATOM     15  H   UNL     1       4.413  -0.319   0.368  1.00  0.00     0.170 HD
BRANCH  13  16
ATOM     16  C   UNL     1       3.048   2.523  -0.852  1.00  0.00     0.082 A 
ATOM     17  C   UNL     1       1.670   2.326  -0.912  1.00  0.00     0.132 A 
ATOM     18  C   UNL     1       0.905   3.144  -1.740  1.00  0.00     0.056 A 
ATOM     19  C   UNL     1       1.414   4.310  -2.313  1.00  0.00    -0.015 A 
ATOM     20  C   UNL     1       3.563   3.735  -1.365  1.00  0.00     0.026 A 
ATOM     21  C   UNL     1       0.602   5.146  -3.092  1.00  0.00     0.009 A 
ATOM     22  C   UNL     1       2.742   4.668  -2.042  1.00  0.00    -0.017 A 
ATOM     23  C   UNL     1       1.037   6.410  -3.473  1.00  0.00     0.001 A 
ATOM     24  C   UNL     1       3.182   5.939  -2.463  1.00  0.00     0.009 A 
ATOM     25  C   UNL     1       2.322   6.816  -3.138  1.00  0.00     0.001 A 
BRANCH  17  26
ATOM     26  O   UNL     1       0.969   1.326  -0.293  1.00  0.00    -0.496 OA
ATOM     27  C   UNL     1       0.999   1.438   1.127  1.00  0.00     0.278 C 
ENDBRANCH  17  26
ENDBRANCH  13  16
ENDBRANCH   6  12
ENDBRANCH   3   5
ENDBRANCH   2   3
ENDBRANCH   1   2
BRANCH   1  28
ATOM     28  C   UNL     1      -0.882  -0.287  -6.973  1.00  0.00     0.275 C 
BRANCH  28  29
ATOM     29  O   UNL     1      -1.849  -1.160  -6.331  1.00  0.00    -0.458 OA
BRANCH  29  30
ATOM     30  C   UNL     1      -2.322  -1.164  -5.064  1.00  0.00     0.338 C 
ATOM     31  O   UNL     1      -2.712  -2.208  -4.546  1.00  0.00    -0.246 OA
BRANCH  30  32
ATOM     32  C   UNL     1      -2.432   0.098  -4.297  1.00  0.00     0.060 A 
ATOM     33  C   UNL     1      -2.469   0.040  -2.888  1.00  0.00     0.016 A 
ATOM     34  C   UNL     1      -2.550   1.326  -4.936  1.00  0.00     0.016 A 
ATOM     35  C   UNL     1      -2.616   1.205  -2.124  1.00  0.00     0.010 A 
ATOM     36  C   UNL     1      -2.582   2.485  -4.182  1.00  0.00     0.010 A 
ATOM     37  C   UNL     1      -2.684   2.433  -2.780  1.00  0.00    -0.014 A 
BRANCH  37  38
ATOM     38  C   UNL     1      -3.170   3.686  -2.187  1.00  0.00     0.031 A 
ATOM     39  C   UNL     1      -2.351   4.611  -1.381  1.00  0.00     0.074 A 
ATOM     40  C   UNL     1      -4.421   3.995  -2.578  1.00  0.00     0.049 A 
ATOM     41  N   UNL     1      -2.139   5.861  -1.658  1.00  0.00    -0.248 NA
ATOM     42  C   UNL     1      -1.684   4.138  -0.164  1.00  0.00     0.031 C 
ATOM     43  C   UNL     1      -5.161   5.230  -2.445  1.00  0.00     0.029 A 
ATOM     44  N   UNL     1      -5.377   3.050  -2.979  1.00  0.00    -0.354 N 
ATOM     45  C   UNL     1      -1.342   6.382  -0.643  1.00  0.00     0.074 A 
ATOM     46  C   UNL     1      -1.034   5.240   0.221  1.00  0.00     0.031 C 
ATOM     47  C   UNL     1      -6.473   4.926  -2.424  1.00  0.00     0.029 A 
ATOM     48  C   UNL     1      -6.580   3.468  -2.400  1.00  0.00     0.049 A 
ATOM     49  H   UNL     1      -5.232   2.259  -3.547  1.00  0.00     0.167 HD
ATOM     50  C   UNL     1      -1.688   7.545  -0.021  1.00  0.00     0.037 A 
ATOM     51  C   UNL     1      -7.080   2.732  -1.362  1.00  0.00     0.037 A 
ATOM     52  C   UNL     1      -3.111   7.660   0.159  1.00  0.00     0.049 A 
ATOM     53  C   UNL     1      -7.073   3.518  -0.075  1.00  0.00     0.074 A 
ATOM     54  C   UNL     1      -4.134   8.207  -0.590  1.00  0.00     0.029 A 
ATOM     55  N   UNL     1      -3.699   6.887   1.145  1.00  0.00    -0.354 N 
ATOM     56  N   UNL     1      -6.198   4.443   0.214  1.00  0.00    -0.248 NA
ATOM     57  C   UNL     1      -8.083   3.346   0.962  1.00  0.00     0.031 C 
ATOM     58  C   UNL     1      -5.354   7.681  -0.094  1.00  0.00     0.029 A 
ATOM     59  C   UNL     1      -5.063   6.847   0.973  1.00  0.00     0.049 A 
ATOM     60  H   UNL     1      -3.210   6.431   1.867  1.00  0.00     0.167 HD
ATOM     61  C   UNL     1      -6.558   5.039   1.394  1.00  0.00     0.074 A 
ATOM     62  C   UNL     1      -7.724   4.300   1.838  1.00  0.00     0.031 C 
ATOM     63  C   UNL     1      -5.895   6.114   1.907  1.00  0.00     0.037 A 
BRANCH  50  64
ATOM     64  C   UNL     1      -0.686   8.657  -0.123  1.00  0.00     0.057 A 
ATOM     65  C   UNL     1      -1.058   9.992  -0.349  1.00  0.00     0.134 A 
ATOM     66  C   UNL     1       0.700   8.426  -0.018  1.00  0.00     0.134 A 
ATOM     67  F   UNL     1      -2.345  10.357  -0.429  1.00  0.00    -0.206 F 
ATOM     68  C   UNL     1      -0.117  11.017  -0.518  1.00  0.00     0.040 A 
ATOM     69  C   UNL     1       1.651   9.441  -0.193  1.00  0.00     0.040 A 
ATOM     70  F   UNL     1       1.175   7.206   0.276  1.00  0.00    -0.206 F 
ATOM     71  C   UNL     1       1.243  10.743  -0.455  1.00  0.00     0.006 A 
ENDBRANCH  50  64
BRANCH  51  72
ATOM     72  C   UNL     1      -6.829   1.259  -1.471  1.00  0.00     0.057 A 
ATOM     73  C   UNL     1      -7.240   0.582  -2.638  1.00  0.00     0.134 A 
ATOM     74  C   UNL     1      -5.977   0.555  -0.614  1.00  0.00     0.134 A 
ATOM     75  F   UNL     1      -8.063   1.186  -3.512  1.00  0.00    -0.206 F 
ATOM     76  C   UNL     1      -6.755  -0.682  -2.985  1.00  0.00     0.040 A 
ATOM     77  C   UNL     1      -5.501  -0.726  -0.940  1.00  0.00     0.040 A 
ATOM     78  F   UNL     1      -5.524   1.115   0.517  1.00  0.00    -0.206 F 
ATOM     79  C   UNL     1      -5.862  -1.333  -2.142  1.00  0.00     0.006 A 
ENDBRANCH  51  72
BRANCH  63  80
ATOM     80  C   UNL     1      -6.029   6.633   3.313  1.00  0.00     0.057 A 
ATOM     81  C   UNL     1      -6.338   5.818   4.410  1.00  0.00     0.134 A 
ATOM     82  C   UNL     1      -5.661   7.960   3.632  1.00  0.00     0.134 A 
ATOM     83  F   UNL     1      -6.586   4.509   4.261  1.00  0.00    -0.206 F 
ATOM     84  C   UNL     1      -6.340   6.299   5.724  1.00  0.00     0.040 A 
ATOM     85  C   UNL     1      -5.604   8.435   4.944  1.00  0.00     0.040 A 
ATOM     86  F   UNL     1      -5.304   8.841   2.686  1.00  0.00    -0.206 F 
ATOM     87  C   UNL     1      -5.960   7.607   5.996  1.00  0.00     0.006 A 
ENDBRANCH  63  80
ENDBRANCH  37  38
ENDBRANCH  30  32
ENDBRANCH  29  30
ENDBRANCH  28  29
ENDBRANCH   1  28
TORSDOF 14
