REMARK SMILES Cc1ccc(-c2cc(C(=O)OCCOC(=O)c3ccc(-c4c5nc(c(-c6c(F)cccc6F)c6ccc([nH]6)c(-c6c(F)cccc6F)c6nc(c(-c7c(F)cccc7F)c7ccc4[nH]7)C=C6)C=C5)cc3)c3c(-c4cccc([N+](=O)[O-])c4)[nH]nc3n2)cc1
REMARK SMILES IDX 12 1 11 2 9 3 10 4 8 5 6 6 7 7 85 8 84 9 71 10 83 11 72 12
REMARK SMILES IDX 82 13 5 15 1 16 2 17 3 18 87 19 4 20 86 21 73 22 74 23 81 24
REMARK SMILES IDX 75 25 77 26 76 27 78 28 79 29 80 30 13 31 14 32 15 33 16 34
REMARK SMILES IDX 17 35 18 36 70 37 19 38 69 39 20 40 21 41 22 42 63 43 23 44
REMARK SMILES IDX 68 45 62 46 64 47 24 48 67 49 61 50 60 51 25 53 51 54 34 55
REMARK SMILES IDX 50 56 35 57 38 58 49 59 65 60 36 61 37 62 48 64 66 65 39 66
REMARK SMILES IDX 26 67 27 68 32 69 28 70 29 71 31 72 33 73 30 74 52 75 53 76
REMARK SMILES IDX 58 77 54 78 55 79 57 80 59 81 56 82 40 83 41 84 46 85 42 86
REMARK SMILES IDX 43 87 45 88 47 89 44 90
REMARK H PARENT 82 14 64 52 38 63
REMARK Flexibility Score: inf
ROOT
ATOM      1  C   UNL     1      -4.587   0.741  -4.870  1.00  0.00     0.275 C 
ENDROOT
BRANCH   1   2
ATOM      2  O   UNL     1      -4.850  -0.178  -3.768  1.00  0.00    -0.458 OA
BRANCH   2   3
ATOM      3  C   UNL     1      -4.773   0.384  -2.527  1.00  0.00     0.339 C 
ATOM      4  O   UNL     1      -4.434   1.546  -2.321  1.00  0.00    -0.246 OA
BRANCH   3   5
ATOM      5  C   UNL     1      -4.685  -0.565  -1.406  1.00  0.00     0.075 A 
ATOM      6  C   UNL     1      -2.802  -0.786   0.192  1.00  0.00     0.074 A 
ATOM      7  C   UNL     1      -3.305  -0.643  -1.107  1.00  0.00     0.045 A 
ATOM      8  N   UNL     1      -3.531  -1.025   1.291  1.00  0.00    -0.226 NA
ATOM      9  C   UNL     1      -4.861  -1.072   1.059  1.00  0.00     0.182 A 
ATOM     10  C   UNL     1      -5.502  -0.831  -0.247  1.00  0.00     0.061 A 
ATOM     11  N   UNL     1      -5.727  -1.315   2.027  1.00  0.00    -0.154 NA
ATOM     12  C   UNL     1      -6.880  -0.954   0.060  1.00  0.00     0.076 A 
ATOM     13  N   UNL     1      -6.888  -1.287   1.409  1.00  0.00    -0.275 N 
ATOM     14  H   UNL     1      -7.726  -1.495   1.881  1.00  0.00     0.190 HD
BRANCH   6  15
ATOM     15  C   UNL     1      -1.375  -0.555   0.387  1.00  0.00     0.000 A 
ATOM     16  C   UNL     1       2.861   0.080   0.020  1.00  0.00     0.044 C 
ATOM     17  C   UNL     1       1.391  -0.121   0.225  1.00  0.00    -0.051 A 
ATOM     18  C   UNL     1       0.878  -1.422   0.295  1.00  0.00     0.004 A 
ATOM     19  C   UNL     1       0.518   0.968   0.308  1.00  0.00     0.004 A 
ATOM     20  C   UNL     1      -0.494  -1.638   0.384  1.00  0.00     0.010 A 
ATOM     21  C   UNL     1      -0.858   0.753   0.391  1.00  0.00     0.010 A 
ENDBRANCH   6  15
BRANCH  12  22
ATOM     22  C   UNL     1      -8.253  -0.929  -0.517  1.00  0.00     0.007 A 
ATOM     23  C   UNL     1      -9.306  -0.372   0.266  1.00  0.00     0.011 A 
ATOM     24  C   UNL     1      -8.615  -1.484  -1.742  1.00  0.00     0.096 A 
ATOM     25  C   UNL     1     -10.640  -0.325  -0.164  1.00  0.00     0.008 A 
ATOM     26  C   UNL     1      -9.939  -1.324  -2.220  1.00  0.00     0.270 A 
ATOM     27  C   UNL     1     -10.956  -0.765  -1.437  1.00  0.00     0.085 A 
BRANCH  26  28
ATOM     28  N   UNL     1     -10.253  -1.615  -3.618  1.00  0.00     0.062 N 
ATOM     29  O   UNL     1     -10.932  -0.769  -4.227  1.00  0.00    -0.258 OA
ATOM     30  O   UNL     1      -9.852  -2.687  -4.086  1.00  0.00    -0.258 OA
ENDBRANCH  26  28
ENDBRANCH  12  22
ENDBRANCH   3   5
ENDBRANCH   2   3
ENDBRANCH   1   2
BRANCH   1  31
ATOM     31  C   UNL     1      -5.524   0.547  -6.086  1.00  0.00     0.275 C 
BRANCH  31  32
ATOM     32  O   UNL     1      -6.949   0.652  -5.900  1.00  0.00    -0.458 OA
BRANCH  32  33
ATOM     33  C   UNL     1      -7.394   0.520  -4.644  1.00  0.00     0.338 C 
ATOM     34  O   UNL     1      -7.676  -0.555  -4.130  1.00  0.00    -0.246 OA
BRANCH  33  35
ATOM     35  C   UNL     1      -7.341   1.801  -3.927  1.00  0.00     0.060 A 
ATOM     36  C   UNL     1      -7.244   1.797  -2.528  1.00  0.00     0.016 A 
ATOM     37  C   UNL     1      -7.139   2.964  -4.660  1.00  0.00     0.016 A 
ATOM     38  C   UNL     1      -6.883   2.935  -1.835  1.00  0.00     0.010 A 
ATOM     39  C   UNL     1      -6.721   4.080  -3.996  1.00  0.00     0.010 A 
ATOM     40  C   UNL     1      -6.642   4.059  -2.597  1.00  0.00    -0.014 A 
BRANCH  40  41
ATOM     41  C   UNL     1      -6.503   5.358  -2.004  1.00  0.00     0.031 A 
ATOM     42  C   UNL     1      -5.198   5.737  -1.452  1.00  0.00     0.074 A 
ATOM     43  C   UNL     1      -7.623   6.088  -2.199  1.00  0.00     0.049 A 
ATOM     44  N   UNL     1      -5.039   6.531  -0.454  1.00  0.00    -0.248 NA
ATOM     45  C   UNL     1      -3.928   5.152  -1.903  1.00  0.00     0.031 C 
ATOM     46  C   UNL     1      -7.856   7.512  -2.220  1.00  0.00     0.029 A 
ATOM     47  N   UNL     1      -8.901   5.564  -2.395  1.00  0.00    -0.354 N 
ATOM     48  C   UNL     1      -3.724   6.947  -0.528  1.00  0.00     0.074 A 
ATOM     49  C   UNL     1      -3.037   5.895  -1.232  1.00  0.00     0.031 C 
ATOM     50  C   UNL     1      -9.183   7.742  -2.136  1.00  0.00     0.029 A 
ATOM     51  C   UNL     1      -9.861   6.467  -1.953  1.00  0.00     0.049 A 
ATOM     52  H   UNL     1      -9.094   4.683  -2.788  1.00  0.00     0.167 HD
ATOM     53  C   UNL     1      -3.461   8.268  -0.304  1.00  0.00     0.037 A 
ATOM     54  C   UNL     1     -10.629   6.131  -0.869  1.00  0.00     0.037 A 
ATOM     55  C   UNL     1      -4.720   8.960  -0.017  1.00  0.00     0.049 A 
ATOM     56  C   UNL     1     -10.127   6.828   0.369  1.00  0.00     0.074 A 
ATOM     57  C   UNL     1      -5.563   9.690  -0.841  1.00  0.00     0.029 A 
ATOM     58  N   UNL     1      -5.474   8.598   1.093  1.00  0.00    -0.354 N 
ATOM     59  N   UNL     1      -8.916   7.288   0.516  1.00  0.00    -0.248 NA
ATOM     60  C   UNL     1     -10.991   7.121   1.503  1.00  0.00     0.031 C 
ATOM     61  C   UNL     1      -6.840   9.742  -0.229  1.00  0.00     0.029 A 
ATOM     62  C   UNL     1      -6.785   9.011   0.945  1.00  0.00     0.049 A 
ATOM     63  H   UNL     1      -5.123   8.115   1.876  1.00  0.00     0.167 HD
ATOM     64  C   UNL     1      -8.856   8.039   1.658  1.00  0.00     0.074 A 
ATOM     65  C   UNL     1     -10.177   7.889   2.247  1.00  0.00     0.031 C 
ATOM     66  C   UNL     1      -7.756   8.774   2.000  1.00  0.00     0.037 A 
BRANCH  53  67
ATOM     67  C   UNL     1      -2.204   9.004  -0.721  1.00  0.00     0.057 A 
ATOM     68  C   UNL     1      -2.240  10.391  -0.993  1.00  0.00     0.134 A 
ATOM     69  C   UNL     1      -0.932   8.426  -0.871  1.00  0.00     0.134 A 
ATOM     70  F   UNL     1      -3.351  11.119  -0.823  1.00  0.00    -0.206 F 
ATOM     71  C   UNL     1      -1.135  11.120  -1.446  1.00  0.00     0.040 A 
ATOM     72  C   UNL     1       0.183   9.142  -1.345  1.00  0.00     0.040 A 
ATOM     73  F   UNL     1      -0.691   7.156  -0.521  1.00  0.00    -0.206 F 
ATOM     74  C   UNL     1       0.082  10.493  -1.641  1.00  0.00     0.006 A 
ENDBRANCH  53  67
BRANCH  54  75
ATOM     75  C   UNL     1     -11.083   4.708  -0.916  1.00  0.00     0.057 A 
ATOM     76  C   UNL     1     -11.882   4.349  -2.022  1.00  0.00     0.134 A 
ATOM     77  C   UNL     1     -10.260   3.729  -0.375  1.00  0.00     0.134 A 
ATOM     78  F   UNL     1     -12.777   5.218  -2.513  1.00  0.00    -0.206 F 
ATOM     79  C   UNL     1     -11.627   3.194  -2.759  1.00  0.00     0.040 A 
ATOM     80  C   UNL     1      -9.995   2.588  -1.116  1.00  0.00     0.040 A 
ATOM     81  F   UNL     1      -9.547   3.940   0.740  1.00  0.00    -0.206 F 
ATOM     82  C   UNL     1     -10.608   2.356  -2.347  1.00  0.00     0.006 A 
ENDBRANCH  54  75
BRANCH  66  83
ATOM     83  C   UNL     1      -7.538   9.484   3.311  1.00  0.00     0.057 A 
ATOM     84  C   UNL     1      -8.168   9.137   4.510  1.00  0.00     0.134 A 
ATOM     85  C   UNL     1      -6.557  10.501   3.424  1.00  0.00     0.134 A 
ATOM     86  F   UNL     1      -8.992   8.085   4.598  1.00  0.00    -0.206 F 
ATOM     87  C   UNL     1      -7.931   9.825   5.704  1.00  0.00     0.040 A 
ATOM     88  C   UNL     1      -6.248  11.129   4.627  1.00  0.00     0.040 A 
ATOM     89  F   UNL     1      -5.831  10.922   2.378  1.00  0.00    -0.206 F 
ATOM     90  C   UNL     1      -6.962  10.817   5.768  1.00  0.00     0.006 A 
ENDBRANCH  66  83
ENDBRANCH  40  41
ENDBRANCH  33  35
ENDBRANCH  32  33
ENDBRANCH  31  32
ENDBRANCH   1  31
TORSDOF 14
