REMARK SMILES COc1cc2c(CC(=O)OCCOC(=O)c3ccc(-c4c5nc(c(-c6c(F)cccc6F)c6ccc([nH]6)c(-c6c(F)cccc6F)c6nc(c(-c7c(F)cccc7F)c7ccc4[nH]7)C=C6)C=C5)cc3)c(C)n(C(=O)c3ccc(Cl)cc3)c2cc1Cl
REMARK SMILES IDX 11 1 10 2 8 3 9 4 7 5 6 6 3 7 4 8 84 9 5 10 83 11 85 12
REMARK SMILES IDX 82 13 70 14 72 15 71 16 2 17 1 18 73 19 74 20 75 21 76 22
REMARK SMILES IDX 81 23 77 24 80 25 78 26 79 27 12 28 13 29 14 30 15 31 16 32
REMARK SMILES IDX 17 33 69 34 18 35 68 36 19 37 20 38 21 39 62 40 22 41 67 42
REMARK SMILES IDX 61 43 63 44 23 45 66 46 60 47 59 48 24 50 50 51 33 52 49 53
REMARK SMILES IDX 34 54 37 55 48 56 64 57 35 58 36 59 47 61 65 62 38 63 25 64
REMARK SMILES IDX 26 65 31 66 27 67 28 68 30 69 32 70 29 71 51 72 52 73 57 74
REMARK SMILES IDX 53 75 54 76 56 77 58 78 55 79 39 80 40 81 45 82 41 83 42 84
REMARK SMILES IDX 44 85 46 86 43 87
REMARK H PARENT 63 49 37 60
REMARK Flexibility Score: inf
ROOT
ATOM      1  C   UNL     1      -1.624  -4.707   5.129  1.00  0.00     0.274 C 
ENDROOT
BRANCH   1   2
ATOM      2  O   UNL     1      -1.049  -5.197   3.897  1.00  0.00    -0.462 OA
BRANCH   2   3
ATOM      3  C   UNL     1      -1.866  -5.970   3.143  1.00  0.00     0.310 C 
ATOM      4  O   UNL     1      -3.015  -6.271   3.459  1.00  0.00    -0.252 OA
BRANCH   3   5
ATOM      5  C   UNL     1      -1.260  -6.505   1.878  1.00  0.00     0.160 C 
BRANCH   5   6
ATOM      6  C   UNL     1       0.138  -6.145   1.451  1.00  0.00    -0.008 A 
ATOM      7  C   UNL     1       1.138  -2.448   0.772  1.00  0.00     0.138 A 
ATOM      8  C   UNL     1       0.336  -3.516   1.233  1.00  0.00     0.058 A 
ATOM      9  C   UNL     1       2.393  -2.739   0.259  1.00  0.00     0.085 A 
ATOM     10  C   UNL     1       0.741  -4.875   1.157  1.00  0.00     0.008 A 
ATOM     11  C   UNL     1       2.809  -4.070   0.145  1.00  0.00     0.051 A 
ATOM     12  Cl  UNL     1       3.584  -1.557  -0.160  1.00  0.00    -0.080 Cl
ATOM     13  C   UNL     1       2.013  -5.131   0.634  1.00  0.00     0.058 A 
ATOM     14  C   UNL     1       1.053  -7.120   1.060  1.00  0.00     0.028 A 
ATOM     15  N   UNL     1       2.264  -6.508   0.750  1.00  0.00    -0.280 N 
ATOM     16  C   UNL     1       0.801  -8.597   1.002  1.00  0.00     0.065 C 
BRANCH   7  17
ATOM     17  O   UNL     1       0.587  -1.207   0.957  1.00  0.00    -0.495 OA
ATOM     18  C   UNL     1       0.810  -0.227  -0.055  1.00  0.00     0.278 C 
ENDBRANCH   7  17
BRANCH  15  19
ATOM     19  C   UNL     1       3.519  -7.157   0.584  1.00  0.00     0.262 C 
ATOM     20  O   UNL     1       3.585  -8.382   0.650  1.00  0.00    -0.268 OA
BRANCH  19  21
ATOM     21  C   UNL     1       4.787  -6.457   0.350  1.00  0.00     0.040 A 
ATOM     22  C   UNL     1       5.333  -5.644   1.350  1.00  0.00     0.015 A 
ATOM     23  C   UNL     1       5.372  -6.547  -0.916  1.00  0.00     0.015 A 
ATOM     24  C   UNL     1       6.443  -4.855   1.048  1.00  0.00     0.021 A 
ATOM     25  C   UNL     1       6.484  -5.760  -1.207  1.00  0.00     0.021 A 
ATOM     26  C   UNL     1       7.005  -4.907  -0.230  1.00  0.00     0.041 A 
ATOM     27  Cl  UNL     1       8.334  -3.886  -0.616  1.00  0.00    -0.084 Cl
ENDBRANCH  19  21
ENDBRANCH  15  19
ENDBRANCH   5   6
ENDBRANCH   3   5
ENDBRANCH   2   3
ENDBRANCH   1   2
BRANCH   1  28
ATOM     28  C   UNL     1      -2.096  -3.260   4.960  1.00  0.00     0.275 C 
BRANCH  28  29
ATOM     29  O   UNL     1      -3.250  -3.252   4.106  1.00  0.00    -0.458 OA
BRANCH  29  30
ATOM     30  C   UNL     1      -3.118  -2.652   2.894  1.00  0.00     0.338 C 
ATOM     31  O   UNL     1      -2.309  -1.821   2.561  1.00  0.00    -0.246 OA
BRANCH  30  32
ATOM     32  C   UNL     1      -3.941  -3.461   1.971  1.00  0.00     0.060 A 
ATOM     33  C   UNL     1      -5.224  -3.855   2.342  1.00  0.00     0.016 A 
ATOM     34  C   UNL     1      -3.326  -4.002   0.835  1.00  0.00     0.016 A 
ATOM     35  C   UNL     1      -5.838  -4.885   1.644  1.00  0.00     0.010 A 
ATOM     36  C   UNL     1      -3.925  -5.061   0.163  1.00  0.00     0.010 A 
ATOM     37  C   UNL     1      -5.161  -5.530   0.596  1.00  0.00    -0.014 A 
BRANCH  37  38
ATOM     38  C   UNL     1      -5.931  -6.443  -0.234  1.00  0.00     0.031 A 
ATOM     39  C   UNL     1      -6.785  -5.705  -1.190  1.00  0.00     0.074 A 
ATOM     40  C   UNL     1      -5.951  -7.787  -0.266  1.00  0.00     0.049 A 
ATOM     41  N   UNL     1      -8.044  -5.465  -1.054  1.00  0.00    -0.248 NA
ATOM     42  C   UNL     1      -6.151  -5.033  -2.329  1.00  0.00     0.031 C 
ATOM     43  C   UNL     1      -5.038  -8.764   0.315  1.00  0.00     0.029 A 
ATOM     44  N   UNL     1      -6.863  -8.564  -0.925  1.00  0.00    -0.354 N 
ATOM     45  C   UNL     1      -8.415  -4.742  -2.176  1.00  0.00     0.074 A 
ATOM     46  C   UNL     1      -7.192  -4.377  -2.845  1.00  0.00     0.031 C 
ATOM     47  C   UNL     1      -5.344  -9.996  -0.169  1.00  0.00     0.029 A 
ATOM     48  C   UNL     1      -6.556  -9.914  -0.975  1.00  0.00     0.049 A 
ATOM     49  H   UNL     1      -7.678  -8.191  -1.334  1.00  0.00     0.167 HD
ATOM     50  C   UNL     1      -9.716  -4.685  -2.564  1.00  0.00     0.037 A 
ATOM     51  C   UNL     1      -7.247 -10.865  -1.657  1.00  0.00     0.037 A 
ATOM     52  C   UNL     1     -10.604  -5.083  -1.496  1.00  0.00     0.049 A 
ATOM     53  C   UNL     1      -8.628 -10.356  -1.872  1.00  0.00     0.074 A 
ATOM     54  C   UNL     1     -10.781  -4.680  -0.183  1.00  0.00     0.029 A 
ATOM     55  N   UNL     1     -11.227  -6.306  -1.581  1.00  0.00    -0.354 N 
ATOM     56  N   UNL     1      -9.531 -10.266  -0.937  1.00  0.00    -0.248 NA
ATOM     57  C   UNL     1      -8.896  -9.574  -3.071  1.00  0.00     0.031 C 
ATOM     58  C   UNL     1     -11.022  -5.883   0.545  1.00  0.00     0.029 A 
ATOM     59  C   UNL     1     -11.030  -6.929  -0.376  1.00  0.00     0.049 A 
ATOM     60  H   UNL     1     -11.719  -6.663  -2.356  1.00  0.00     0.167 HD
ATOM     61  C   UNL     1     -10.218  -9.099  -1.226  1.00  0.00     0.074 A 
ATOM     62  C   UNL     1      -9.861  -8.777  -2.604  1.00  0.00     0.031 C 
ATOM     63  C   UNL     1     -10.791  -8.346  -0.241  1.00  0.00     0.037 A 
BRANCH  50  64
ATOM     64  C   UNL     1     -10.152  -4.634  -4.004  1.00  0.00     0.057 A 
ATOM     65  C   UNL     1      -9.354  -5.045  -5.091  1.00  0.00     0.134 A 
ATOM     66  C   UNL     1     -11.517  -4.465  -4.293  1.00  0.00     0.134 A 
ATOM     67  F   UNL     1      -8.049  -5.314  -4.970  1.00  0.00    -0.206 F 
ATOM     68  C   UNL     1      -9.880  -5.309  -6.357  1.00  0.00     0.040 A 
ATOM     69  C   UNL     1     -12.062  -4.780  -5.541  1.00  0.00     0.040 A 
ATOM     70  F   UNL     1     -12.380  -4.079  -3.340  1.00  0.00    -0.206 F 
ATOM     71  C   UNL     1     -11.244  -5.216  -6.575  1.00  0.00     0.006 A 
ENDBRANCH  50  64
BRANCH  51  72
ATOM     72  C   UNL     1      -6.788 -12.123  -2.290  1.00  0.00     0.057 A 
ATOM     73  C   UNL     1      -5.465 -12.285  -2.731  1.00  0.00     0.134 A 
ATOM     74  C   UNL     1      -7.706 -13.089  -2.740  1.00  0.00     0.134 A 
ATOM     75  F   UNL     1      -4.518 -11.389  -2.422  1.00  0.00    -0.206 F 
ATOM     76  C   UNL     1      -5.082 -13.325  -3.587  1.00  0.00     0.040 A 
ATOM     77  C   UNL     1      -7.337 -14.129  -3.604  1.00  0.00     0.040 A 
ATOM     78  F   UNL     1      -9.003 -13.009  -2.411  1.00  0.00    -0.206 F 
ATOM     79  C   UNL     1      -6.022 -14.242  -4.041  1.00  0.00     0.006 A 
ENDBRANCH  51  72
BRANCH  63  80
ATOM     80  C   UNL     1     -10.936  -8.941   1.132  1.00  0.00     0.057 A 
ATOM     81  C   UNL     1     -12.190  -8.887   1.756  1.00  0.00     0.134 A 
ATOM     82  C   UNL     1      -9.873  -9.443   1.899  1.00  0.00     0.134 A 
ATOM     83  F   UNL     1     -13.247  -8.369   1.109  1.00  0.00    -0.206 F 
ATOM     84  C   UNL     1     -12.386  -9.325   3.067  1.00  0.00     0.040 A 
ATOM     85  C   UNL     1     -10.065  -9.924   3.198  1.00  0.00     0.040 A 
ATOM     86  F   UNL     1      -8.613  -9.433   1.439  1.00  0.00    -0.206 F 
ATOM     87  C   UNL     1     -11.323  -9.861   3.788  1.00  0.00     0.006 A 
ENDBRANCH  63  80
ENDBRANCH  37  38
ENDBRANCH  30  32
ENDBRANCH  29  30
ENDBRANCH  28  29
ENDBRANCH   1  28
TORSDOF 15
