REMARK SMILES Cn1ccc(-c2n[nH]c(=O)n2-c2ccc(C(=O)OCCOC(=O)c3ccc(-c4c5nc(c(-c6c(F)cccc6F)c6ccc([nH]6)c(-c6c(F)cccc6F)c6nc(c(-c7c(F)cccc7F)c7ccc4[nH]7)C=C6)C=C5)cc3)cc2)n1
REMARK SMILES IDX 19 1 18 2 16 3 17 4 15 5 12 6 13 7 79 8 14 9 78 10 11 11
REMARK SMILES IDX 6 12 7 13 8 14 9 15 10 17 5 18 1 19 2 20 3 21 80 22 4 23
REMARK SMILES IDX 20 24 21 25 22 26 23 27 24 28 25 29 77 30 26 31 76 32 27 33
REMARK SMILES IDX 28 34 29 35 70 36 30 37 75 38 69 39 71 40 31 41 74 42 68 43
REMARK SMILES IDX 67 44 32 46 58 47 41 48 57 49 42 50 45 51 56 52 72 53 43 54
REMARK SMILES IDX 44 55 55 57 73 58 46 59 33 60 34 61 39 62 35 63 36 64 38 65
REMARK SMILES IDX 40 66 37 67 59 68 60 69 65 70 61 71 62 72 64 73 66 74 63 75
REMARK SMILES IDX 47 76 48 77 53 78 49 79 50 80 52 81 54 82 51 83
REMARK H PARENT 8 16 71 45 45 56
REMARK Flexibility Score: inf
ROOT
ATOM      1  C   UNL     1      -1.280   2.215   7.426  1.00  0.00     0.275 C 
ENDROOT
BRANCH   1   2
ATOM      2  O   UNL     1      -0.616   2.022   6.167  1.00  0.00    -0.458 OA
BRANCH   2   3
ATOM      3  C   UNL     1      -0.743   3.033   5.269  1.00  0.00     0.338 C 
ATOM      4  O   UNL     1      -1.494   3.995   5.364  1.00  0.00    -0.246 OA
BRANCH   3   5
ATOM      5  C   UNL     1       0.249   2.879   4.178  1.00  0.00     0.060 A 
ATOM      6  C   UNL     1       1.994   2.633   1.997  1.00  0.00     0.052 A 
ATOM      7  C   UNL     1       1.526   3.894   2.373  1.00  0.00     0.028 A 
ATOM      8  C   UNL     1       1.671   1.520   2.789  1.00  0.00     0.028 A 
ATOM      9  C   UNL     1       0.631   4.012   3.443  1.00  0.00     0.018 A 
ATOM     10  C   UNL     1       0.811   1.639   3.878  1.00  0.00     0.018 A 
BRANCH   6  11
ATOM     11  N   UNL     1       2.736   2.459   0.817  1.00  0.00    -0.242 N 
ATOM     12  C   UNL     1       2.625   1.459  -0.106  1.00  0.00     0.189 A 
ATOM     13  N   UNL     1       3.541   1.461  -1.037  1.00  0.00    -0.150 NA
ATOM     14  N   UNL     1       4.275   2.583  -0.754  1.00  0.00    -0.226 N 
ATOM     15  C   UNL     1       3.770   3.244   0.369  1.00  0.00     0.348 A 
ATOM     16  H   UNL     1       5.056   2.884  -1.274  1.00  0.00     0.195 HD
ATOM     17  O   UNL     1       4.225   4.277   0.834  1.00  0.00    -0.246 OA
BRANCH  12  18
ATOM     18  C   UNL     1       1.511   0.526  -0.130  1.00  0.00     0.130 A 
ATOM     19  C   UNL     1      -1.943  -0.032  -0.004  1.00  0.00     0.173 C 
ATOM     20  N   UNL     1      -0.506  -0.149  -0.064  1.00  0.00    -0.275 N 
ATOM     21  C   UNL     1       0.229  -1.287  -0.204  1.00  0.00     0.109 A 
ATOM     22  N   UNL     1       0.243   0.961   0.002  1.00  0.00    -0.170 NA
ATOM     23  C   UNL     1       1.542  -0.882  -0.286  1.00  0.00     0.054 A 
ENDBRANCH  12  18
ENDBRANCH   6  11
ENDBRANCH   3   5
ENDBRANCH   2   3
ENDBRANCH   1   2
BRANCH   1  24
ATOM     24  C   UNL     1      -0.378   2.937   8.417  1.00  0.00     0.275 C 
BRANCH  24  25
ATOM     25  O   UNL     1      -0.143   4.289   8.025  1.00  0.00    -0.458 OA
BRANCH  25  26
ATOM     26  C   UNL     1       0.992   4.490   7.319  1.00  0.00     0.338 C 
ATOM     27  O   UNL     1       1.684   3.651   6.768  1.00  0.00    -0.246 OA
BRANCH  26  28
ATOM     28  C   UNL     1       1.423   5.878   7.497  1.00  0.00     0.060 A 
ATOM     29  C   UNL     1       2.458   6.356   6.684  1.00  0.00     0.016 A 
ATOM     30  C   UNL     1       1.002   6.565   8.642  1.00  0.00     0.016 A 
ATOM     31  C   UNL     1       3.174   7.460   7.102  1.00  0.00     0.010 A 
ATOM     32  C   UNL     1       1.728   7.648   9.068  1.00  0.00     0.010 A 
ATOM     33  C   UNL     1       2.844   8.043   8.327  1.00  0.00    -0.014 A 
BRANCH  33  34
ATOM     34  C   UNL     1       3.647   9.141   8.831  1.00  0.00     0.031 A 
ATOM     35  C   UNL     1       3.361  10.456   8.198  1.00  0.00     0.074 A 
ATOM     36  C   UNL     1       4.378   8.979   9.952  1.00  0.00     0.049 A 
ATOM     37  N   UNL     1       4.192  11.329   7.735  1.00  0.00    -0.248 NA
ATOM     38  C   UNL     1       1.944  10.808   7.983  1.00  0.00     0.031 C 
ATOM     39  C   UNL     1       4.431   7.788  10.811  1.00  0.00     0.029 A 
ATOM     40  N   UNL     1       5.101   9.893  10.654  1.00  0.00    -0.354 N 
ATOM     41  C   UNL     1       3.414  12.417   7.341  1.00  0.00     0.074 A 
ATOM     42  C   UNL     1       2.045  11.984   7.370  1.00  0.00     0.031 C 
ATOM     43  C   UNL     1       4.936   8.133  12.014  1.00  0.00     0.029 A 
ATOM     44  C   UNL     1       5.336   9.529  11.973  1.00  0.00     0.049 A 
ATOM     45  H   UNL     1       5.427  10.735  10.263  1.00  0.00     0.167 HD
ATOM     46  C   UNL     1       3.932  13.671   7.268  1.00  0.00     0.037 A 
ATOM     47  C   UNL     1       5.731  10.345  12.980  1.00  0.00     0.037 A 
ATOM     48  C   UNL     1       5.360  13.640   7.100  1.00  0.00     0.049 A 
ATOM     49  C   UNL     1       6.244  11.598  12.373  1.00  0.00     0.074 A 
ATOM     50  C   UNL     1       6.214  13.088   6.165  1.00  0.00     0.029 A 
ATOM     51  N   UNL     1       6.148  13.966   8.175  1.00  0.00    -0.354 N 
ATOM     52  N   UNL     1       7.351  11.691  11.691  1.00  0.00    -0.248 NA
ATOM     53  C   UNL     1       5.299  12.688  12.175  1.00  0.00     0.031 C 
ATOM     54  C   UNL     1       7.360  12.676   6.905  1.00  0.00     0.029 A 
ATOM     55  C   UNL     1       7.151  13.035   8.237  1.00  0.00     0.049 A 
ATOM     56  H   UNL     1       6.017  14.726   8.786  1.00  0.00     0.167 HD
ATOM     57  C   UNL     1       7.069  12.598  10.680  1.00  0.00     0.074 A 
ATOM     58  C   UNL     1       5.835  13.259  11.094  1.00  0.00     0.031 C 
ATOM     59  C   UNL     1       7.699  12.526   9.471  1.00  0.00     0.037 A 
BRANCH  46  60
ATOM     60  C   UNL     1       3.192  14.898   7.749  1.00  0.00     0.057 A 
ATOM     61  C   UNL     1       3.778  16.162   7.561  1.00  0.00     0.134 A 
ATOM     62  C   UNL     1       2.104  14.873   8.649  1.00  0.00     0.134 A 
ATOM     63  F   UNL     1       4.822  16.321   6.734  1.00  0.00    -0.206 F 
ATOM     64  C   UNL     1       3.379  17.290   8.289  1.00  0.00     0.040 A 
ATOM     65  C   UNL     1       1.664  16.005   9.338  1.00  0.00     0.040 A 
ATOM     66  F   UNL     1       1.471  13.745   8.989  1.00  0.00    -0.206 F 
ATOM     67  C   UNL     1       2.327  17.211   9.191  1.00  0.00     0.006 A 
ENDBRANCH  46  60
BRANCH  47  68
ATOM     68  C   UNL     1       5.427  10.236  14.426  1.00  0.00     0.057 A 
ATOM     69  C   UNL     1       6.179  10.936  15.379  1.00  0.00     0.134 A 
ATOM     70  C   UNL     1       4.245   9.634  14.896  1.00  0.00     0.134 A 
ATOM     71  F   UNL     1       7.296  11.584  15.022  1.00  0.00    -0.206 F 
ATOM     72  C   UNL     1       5.775  11.040  16.718  1.00  0.00     0.040 A 
ATOM     73  C   UNL     1       3.839   9.717  16.232  1.00  0.00     0.040 A 
ATOM     74  F   UNL     1       3.399   9.016  14.060  1.00  0.00    -0.206 F 
ATOM     75  C   UNL     1       4.599  10.433  17.147  1.00  0.00     0.006 A 
ENDBRANCH  47  68
BRANCH  59  76
ATOM     76  C   UNL     1       8.895  11.625   9.355  1.00  0.00     0.057 A 
ATOM     77  C   UNL     1       8.839  10.232   9.507  1.00  0.00     0.134 A 
ATOM     78  C   UNL     1      10.109  12.167   8.921  1.00  0.00     0.134 A 
ATOM     79  F   UNL     1       7.694   9.612   9.814  1.00  0.00    -0.206 F 
ATOM     80  C   UNL     1       9.955   9.421   9.284  1.00  0.00     0.040 A 
ATOM     81  C   UNL     1      11.222  11.364   8.661  1.00  0.00     0.040 A 
ATOM     82  F   UNL     1      10.219  13.486   8.695  1.00  0.00    -0.206 F 
ATOM     83  C   UNL     1      11.151   9.987   8.853  1.00  0.00     0.006 A 
ENDBRANCH  59  76
ENDBRANCH  33  34
ENDBRANCH  26  28
ENDBRANCH  25  26
ENDBRANCH  24  25
ENDBRANCH   1  24
TORSDOF 13
