REMARK SMILES CC[C@@](C)(NC(=O)CCc1ccc(OC)c(Br)c1)C(=O)OCCOC(=O)c1ccc(-c2c3nc(c(-c4c(F)cccc4F)c4ccc([nH]4)c(-c4c(F)cccc4F)c4nc(c(-c5c(F)cccc5F)c5ccc2[nH]5)C=C4)C=C3)cc1
REMARK SMILES IDX 21 1 19 2 20 3 3 4 4 5 2 6 1 7 5 8 6 9 7 11 8 12 9 13 10 14
REMARK SMILES IDX 11 15 18 16 12 17 16 18 13 19 17 20 14 21 15 22 22 23 23 24
REMARK SMILES IDX 24 25 25 26 26 27 27 28 28 29 80 30 29 31 79 32 30 33 31 34
REMARK SMILES IDX 32 35 73 36 33 37 78 38 72 39 74 40 34 41 77 42 71 43 70 44
REMARK SMILES IDX 35 46 61 47 44 48 60 49 45 50 48 51 59 52 75 53 46 54 47 55
REMARK SMILES IDX 58 57 76 58 49 59 36 60 37 61 42 62 38 63 39 64 41 65 43 66
REMARK SMILES IDX 40 67 62 68 63 69 68 70 64 71 65 72 67 73 69 74 66 75 50 76
REMARK SMILES IDX 51 77 56 78 52 79 53 80 55 81 57 82 54 83
REMARK H PARENT 5 10 74 45 48 56
REMARK Flexibility Score: inf
ROOT
ATOM      1  O   UNL     1       2.920  -3.779   0.118  1.00  0.00    -0.460 OA
ENDROOT
BRANCH   1   2
ATOM      2  C   UNL     1       2.034  -3.489   1.144  1.00  0.00     0.331 C 
ATOM      3  O   UNL     1       2.417  -3.048   2.225  1.00  0.00    -0.249 OA
BRANCH   2   4
ATOM      4  C   UNL     1       0.428  -3.751   0.788  1.00  0.00     0.135 C 
ATOM      5  C   UNL     1      -0.160  -4.250   2.127  1.00  0.00     0.047 C 
BRANCH   4   6
ATOM      6  C   UNL     1      -0.747  -2.837   0.175  1.00  0.00     0.037 C 
ATOM      7  C   UNL     1      -1.216  -1.459   0.628  1.00  0.00     0.007 C 
ENDBRANCH   4   6
BRANCH   4   8
ATOM      8  N   UNL     1       0.498  -4.797  -0.221  1.00  0.00    -0.340 N 
ATOM      9  C   UNL     1       0.845  -4.562  -1.517  1.00  0.00     0.221 C 
ATOM     10  H   UNL     1       0.283  -5.720   0.046  1.00  0.00     0.164 HD
ATOM     11  O   UNL     1       0.596  -5.458  -2.330  1.00  0.00    -0.275 OA
BRANCH   9  12
ATOM     12  C   UNL     1       1.605  -3.285  -1.978  1.00  0.00     0.105 C 
BRANCH  12  13
ATOM     13  C   UNL     1       1.556  -1.771  -1.473  1.00  0.00     0.045 C 
BRANCH  13  14
ATOM     14  C   UNL     1       2.214  -0.877  -0.379  1.00  0.00    -0.046 A 
ATOM     15  C   UNL     1       1.684  -0.675   0.897  1.00  0.00     0.007 A 
ATOM     16  C   UNL     1       3.267   0.009  -0.682  1.00  0.00     0.023 A 
ATOM     17  C   UNL     1       2.004   0.405   1.721  1.00  0.00     0.048 A 
ATOM     18  C   UNL     1       3.654   1.073   0.149  1.00  0.00     0.060 A 
ATOM     19  C   UNL     1       2.909   1.345   1.280  1.00  0.00     0.133 A 
ATOM     20  Br  UNL     1       5.134   2.151  -0.342  1.00  0.00    -0.047 Br
BRANCH  19  21
ATOM     21  O   UNL     1       2.951   2.571   1.884  1.00  0.00    -0.496 OA
ATOM     22  C   UNL     1       1.717   3.255   1.597  1.00  0.00     0.278 C 
ENDBRANCH  19  21
ENDBRANCH  13  14
ENDBRANCH  12  13
ENDBRANCH   9  12
ENDBRANCH   4   8
ENDBRANCH   2   4
ENDBRANCH   1   2
BRANCH   1  23
ATOM     23  C   UNL     1       4.304  -3.277   0.130  1.00  0.00     0.274 C 
BRANCH  23  24
ATOM     24  C   UNL     1       5.007  -3.177  -1.300  1.00  0.00     0.275 C 
BRANCH  24  25
ATOM     25  O   UNL     1       4.395  -2.239  -2.260  1.00  0.00    -0.458 OA
BRANCH  25  26
ATOM     26  C   UNL     1       5.147  -1.639  -3.250  1.00  0.00     0.338 C 
ATOM     27  O   UNL     1       6.331  -1.819  -3.431  1.00  0.00    -0.246 OA
BRANCH  26  28
ATOM     28  C   UNL     1       4.351  -0.543  -3.961  1.00  0.00     0.060 A 
ATOM     29  C   UNL     1       2.989  -0.661  -4.246  1.00  0.00     0.016 A 
ATOM     30  C   UNL     1       4.928   0.718  -4.155  1.00  0.00     0.016 A 
ATOM     31  C   UNL     1       2.170   0.486  -4.394  1.00  0.00     0.010 A 
ATOM     32  C   UNL     1       4.123   1.852  -4.434  1.00  0.00     0.010 A 
ATOM     33  C   UNL     1       2.718   1.773  -4.473  1.00  0.00    -0.014 A 
BRANCH  33  34
ATOM     34  C   UNL     1       1.877   3.021  -4.612  1.00  0.00     0.031 A 
ATOM     35  C   UNL     1       1.033   3.268  -5.836  1.00  0.00     0.074 A 
ATOM     36  C   UNL     1       1.848   3.973  -3.651  1.00  0.00     0.049 A 
ATOM     37  N   UNL     1       0.446   4.375  -6.224  1.00  0.00    -0.248 NA
ATOM     38  C   UNL     1       0.792   2.124  -6.725  1.00  0.00     0.031 C 
ATOM     39  C   UNL     1       2.434   3.834  -2.325  1.00  0.00     0.029 A 
ATOM     40  N   UNL     1       1.321   5.251  -3.633  1.00  0.00    -0.354 N 
ATOM     41  C   UNL     1      -0.209   4.067  -7.408  1.00  0.00     0.074 A 
ATOM     42  C   UNL     1       0.010   2.658  -7.652  1.00  0.00     0.031 C 
ATOM     43  C   UNL     1       2.305   4.987  -1.649  1.00  0.00     0.029 A 
ATOM     44  C   UNL     1       1.646   5.972  -2.501  1.00  0.00     0.049 A 
ATOM     45  H   UNL     1       0.765   5.613  -4.360  1.00  0.00     0.167 HD
ATOM     46  C   UNL     1      -0.891   4.884  -8.246  1.00  0.00     0.037 A 
ATOM     47  C   UNL     1       1.486   7.281  -2.198  1.00  0.00     0.037 A 
ATOM     48  C   UNL     1      -1.079   6.297  -8.051  1.00  0.00     0.049 A 
ATOM     49  C   UNL     1       0.872   8.208  -3.219  1.00  0.00     0.074 A 
ATOM     50  C   UNL     1      -1.681   7.211  -8.900  1.00  0.00     0.029 A 
ATOM     51  N   UNL     1      -0.657   7.005  -6.939  1.00  0.00    -0.354 N 
ATOM     52  N   UNL     1       0.336   7.920  -4.379  1.00  0.00    -0.248 NA
ATOM     53  C   UNL     1       0.873   9.648  -2.906  1.00  0.00     0.031 C 
ATOM     54  C   UNL     1      -1.576   8.482  -8.324  1.00  0.00     0.029 A 
ATOM     55  C   UNL     1      -0.954   8.350  -7.094  1.00  0.00     0.049 A 
ATOM     56  H   UNL     1      -0.212   6.612  -6.154  1.00  0.00     0.167 HD
ATOM     57  C   UNL     1      -0.067   9.133  -4.926  1.00  0.00     0.074 A 
ATOM     58  C   UNL     1       0.254  10.160  -3.961  1.00  0.00     0.031 C 
ATOM     59  C   UNL     1      -0.638   9.372  -6.131  1.00  0.00     0.037 A 
BRANCH  46  60
ATOM     60  C   UNL     1      -1.392   4.277  -9.521  1.00  0.00     0.057 A 
ATOM     61  C   UNL     1      -2.537   3.474  -9.568  1.00  0.00     0.134 A 
ATOM     62  C   UNL     1      -0.709   4.511 -10.722  1.00  0.00     0.134 A 
ATOM     63  F   UNL     1      -3.219   3.196  -8.447  1.00  0.00    -0.206 F 
ATOM     64  C   UNL     1      -2.977   2.910 -10.767  1.00  0.00     0.040 A 
ATOM     65  C   UNL     1      -1.150   3.969 -11.928  1.00  0.00     0.040 A 
ATOM     66  F   UNL     1       0.397   5.270 -10.738  1.00  0.00    -0.206 F 
ATOM     67  C   UNL     1      -2.285   3.162 -11.951  1.00  0.00     0.006 A 
ENDBRANCH  46  60
BRANCH  47  68
ATOM     68  C   UNL     1       1.995   7.848  -0.912  1.00  0.00     0.057 A 
ATOM     69  C   UNL     1       1.132   8.445   0.018  1.00  0.00     0.134 A 
ATOM     70  C   UNL     1       3.366   7.896  -0.626  1.00  0.00     0.134 A 
ATOM     71  F   UNL     1      -0.189   8.476  -0.211  1.00  0.00    -0.206 F 
ATOM     72  C   UNL     1       1.612   9.084   1.165  1.00  0.00     0.040 A 
ATOM     73  C   UNL     1       3.857   8.501   0.534  1.00  0.00     0.040 A 
ATOM     74  F   UNL     1       4.255   7.368  -1.479  1.00  0.00    -0.206 F 
ATOM     75  C   UNL     1       2.979   9.108   1.429  1.00  0.00     0.006 A 
ENDBRANCH  47  68
BRANCH  59  76
ATOM     76  C   UNL     1      -0.966  10.795  -6.477  1.00  0.00     0.057 A 
ATOM     77  C   UNL     1       0.032  11.721  -6.806  1.00  0.00     0.134 A 
ATOM     78  C   UNL     1      -2.295  11.232  -6.529  1.00  0.00     0.134 A 
ATOM     79  F   UNL     1       1.326  11.370  -6.763  1.00  0.00    -0.206 F 
ATOM     80  C   UNL     1      -0.280  13.036  -7.161  1.00  0.00     0.040 A 
ATOM     81  C   UNL     1      -2.621  12.537  -6.905  1.00  0.00     0.040 A 
ATOM     82  F   UNL     1      -3.300  10.395  -6.232  1.00  0.00    -0.206 F 
ATOM     83  C   UNL     1      -1.611  13.444  -7.219  1.00  0.00     0.006 A 
ENDBRANCH  59  76
ENDBRANCH  33  34
ENDBRANCH  26  28
ENDBRANCH  25  26
ENDBRANCH  24  25
ENDBRANCH  23  24
ENDBRANCH   1  23
TORSDOF 17
