REMARK SMILES CSc1ccc(NS(=O)(=O)c2ccc(C(=O)OCCOC(=O)c3ccc(-c4c5nc(c(-c6c(F)cccc6F)c6ccc([nH]6)c(-c6c(F)cccc6F)c6nc(c(-c7c(F)cccc7F)c7ccc4[nH]7)C=C6)C=C5)cc3)cc2)cc1
REMARK SMILES IDX 18 1 17 2 15 3 16 4 14 5 11 6 12 7 78 8 13 9 77 10 8 11 9 12
REMARK SMILES IDX 10 13 7 14 6 16 3 17 4 18 80 19 5 20 79 21 2 22 1 23 19 24
REMARK SMILES IDX 20 25 21 26 22 27 23 28 24 29 76 30 25 31 75 32 26 33 27 34
REMARK SMILES IDX 28 35 69 36 29 37 74 38 68 39 70 40 30 41 73 42 67 43 66 44
REMARK SMILES IDX 31 46 57 47 40 48 56 49 41 50 44 51 55 52 71 53 42 54 43 55
REMARK SMILES IDX 54 57 72 58 45 59 32 60 33 61 38 62 34 63 35 64 37 65 39 66
REMARK SMILES IDX 36 67 58 68 59 69 64 70 60 71 61 72 63 73 65 74 62 75 46 76
REMARK SMILES IDX 47 77 52 78 48 79 49 80 51 81 53 82 50 83
REMARK H PARENT 7 15 70 45 44 56
REMARK Flexibility Score: inf
ROOT
ATOM      1  C   UNL     1       0.934  -2.006   6.102  1.00  0.00     0.275 C 
ENDROOT
BRANCH   1   2
ATOM      2  O   UNL     1       0.898  -0.568   5.995  1.00  0.00    -0.458 OA
BRANCH   2   3
ATOM      3  C   UNL     1       1.879   0.098   6.656  1.00  0.00     0.338 C 
ATOM      4  O   UNL     1       2.782  -0.400   7.308  1.00  0.00    -0.246 OA
BRANCH   3   5
ATOM      5  C   UNL     1       1.804   1.555   6.374  1.00  0.00     0.060 A 
ATOM      6  C   UNL     1       1.852   4.226   5.569  1.00  0.00     0.087 A 
ATOM      7  C   UNL     1       3.033   3.612   5.998  1.00  0.00     0.023 A 
ATOM      8  C   UNL     1       0.630   3.544   5.625  1.00  0.00     0.023 A 
ATOM      9  C   UNL     1       3.002   2.285   6.420  1.00  0.00     0.017 A 
ATOM     10  C   UNL     1       0.611   2.198   6.014  1.00  0.00     0.017 A 
BRANCH   6  11
ATOM     11  S   UNL     1       1.978   5.783   4.717  1.00  0.00     0.261 S 
ATOM     12  O   UNL     1       3.342   5.942   4.266  1.00  0.00    -0.201 OA
ATOM     13  O   UNL     1       1.342   6.769   5.565  1.00  0.00    -0.201 OA
BRANCH  11  14
ATOM     14  N   UNL     1       1.000   5.625   3.363  1.00  0.00    -0.280 N 
ATOM     15  H   UNL     1       0.182   6.172   3.327  1.00  0.00     0.180 HD
BRANCH  14  16
ATOM     16  C   UNL     1       1.263   4.759   2.260  1.00  0.00     0.049 A 
ATOM     17  C   UNL     1       1.232   2.926   0.100  1.00  0.00     0.007 A 
ATOM     18  C   UNL     1       1.749   2.559   1.340  1.00  0.00     0.017 A 
ATOM     19  C   UNL     1       0.789   4.242  -0.068  1.00  0.00     0.017 A 
ATOM     20  C   UNL     1       1.772   3.470   2.403  1.00  0.00     0.028 A 
ATOM     21  C   UNL     1       0.787   5.145   1.006  1.00  0.00     0.028 A 
BRANCH  17  22
ATOM     22  S   UNL     1       1.096   1.804  -1.283  1.00  0.00    -0.130 SA
ATOM     23  C   UNL     1       1.107   0.176  -0.472  1.00  0.00     0.091 C 
ENDBRANCH  17  22
ENDBRANCH  14  16
ENDBRANCH  11  14
ENDBRANCH   6  11
ENDBRANCH   3   5
ENDBRANCH   2   3
ENDBRANCH   1   2
BRANCH   1  24
ATOM     24  C   UNL     1       1.503  -2.642   4.833  1.00  0.00     0.275 C 
BRANCH  24  25
ATOM     25  O   UNL     1       2.884  -2.271   4.668  1.00  0.00    -0.458 OA
BRANCH  25  26
ATOM     26  C   UNL     1       3.207  -1.688   3.492  1.00  0.00     0.338 C 
ATOM     27  O   UNL     1       2.483  -1.466   2.537  1.00  0.00    -0.246 OA
BRANCH  26  28
ATOM     28  C   UNL     1       4.620  -1.287   3.529  1.00  0.00     0.060 A 
ATOM     29  C   UNL     1       4.970  -0.143   4.243  1.00  0.00     0.016 A 
ATOM     30  C   UNL     1       5.570  -1.959   2.759  1.00  0.00     0.016 A 
ATOM     31  C   UNL     1       6.265   0.367   4.154  1.00  0.00     0.010 A 
ATOM     32  C   UNL     1       6.883  -1.475   2.713  1.00  0.00     0.010 A 
ATOM     33  C   UNL     1       7.237  -0.289   3.384  1.00  0.00    -0.014 A 
BRANCH  33  34
ATOM     34  C   UNL     1       8.595   0.304   3.223  1.00  0.00     0.031 A 
ATOM     35  C   UNL     1       9.064   0.761   1.866  1.00  0.00     0.074 A 
ATOM     36  C   UNL     1       9.405   0.467   4.288  1.00  0.00     0.049 A 
ATOM     37  N   UNL     1      10.249   1.176   1.493  1.00  0.00    -0.248 NA
ATOM     38  C   UNL     1       8.069   0.740   0.782  1.00  0.00     0.031 C 
ATOM     39  C   UNL     1       9.072   0.113   5.668  1.00  0.00     0.029 A 
ATOM     40  N   UNL     1      10.675   0.983   4.375  1.00  0.00    -0.354 N 
ATOM     41  C   UNL     1      10.155   1.418   0.128  1.00  0.00     0.074 A 
ATOM     42  C   UNL     1       8.799   1.100  -0.264  1.00  0.00     0.031 C 
ATOM     43  C   UNL     1      10.096   0.452   6.467  1.00  0.00     0.029 A 
ATOM     44  C   UNL     1      11.184   0.983   5.651  1.00  0.00     0.049 A 
ATOM     45  H   UNL     1      11.174   1.321   3.596  1.00  0.00     0.167 HD
ATOM     46  C   UNL     1      11.111   1.867  -0.722  1.00  0.00     0.037 A 
ATOM     47  C   UNL     1      12.399   1.339   6.111  1.00  0.00     0.037 A 
ATOM     48  C   UNL     1      12.444   2.242  -0.329  1.00  0.00     0.049 A 
ATOM     49  C   UNL     1      13.448   1.819   5.147  1.00  0.00     0.074 A 
ATOM     50  C   UNL     1      13.476   2.718  -1.120  1.00  0.00     0.029 A 
ATOM     51  N   UNL     1      12.923   2.203   0.971  1.00  0.00    -0.354 N 
ATOM     52  N   UNL     1      13.362   1.987   3.850  1.00  0.00    -0.248 NA
ATOM     53  C   UNL     1      14.769   2.138   5.709  1.00  0.00     0.031 C 
ATOM     54  C   UNL     1      14.589   2.943  -0.302  1.00  0.00     0.029 A 
ATOM     55  C   UNL     1      14.238   2.639   1.003  1.00  0.00     0.049 A 
ATOM     56  H   UNL     1      12.406   1.909   1.756  1.00  0.00     0.167 HD
ATOM     57  C   UNL     1      14.611   2.439   3.443  1.00  0.00     0.074 A 
ATOM     58  C   UNL     1      15.431   2.539   4.632  1.00  0.00     0.031 C 
ATOM     59  C   UNL     1      15.041   2.736   2.193  1.00  0.00     0.037 A 
BRANCH  46  60
ATOM     60  C   UNL     1      10.757   1.952  -2.178  1.00  0.00     0.057 A 
ATOM     61  C   UNL     1       9.932   2.962  -2.685  1.00  0.00     0.134 A 
ATOM     62  C   UNL     1      11.287   1.030  -3.090  1.00  0.00     0.134 A 
ATOM     63  F   UNL     1       9.383   3.868  -1.863  1.00  0.00    -0.206 F 
ATOM     64  C   UNL     1       9.630   3.041  -4.047  1.00  0.00     0.040 A 
ATOM     65  C   UNL     1      11.012   1.111  -4.455  1.00  0.00     0.040 A 
ATOM     66  F   UNL     1      12.091   0.041  -2.669  1.00  0.00    -0.206 F 
ATOM     67  C   UNL     1      10.177   2.117  -4.936  1.00  0.00     0.006 A 
ENDBRANCH  46  60
BRANCH  47  68
ATOM     68  C   UNL     1      12.704   1.224   7.559  1.00  0.00     0.057 A 
ATOM     69  C   UNL     1      12.877   2.362   8.356  1.00  0.00     0.134 A 
ATOM     70  C   UNL     1      12.836  -0.025   8.179  1.00  0.00     0.134 A 
ATOM     71  F   UNL     1      12.790   3.585   7.814  1.00  0.00    -0.206 F 
ATOM     72  C   UNL     1      13.176   2.262   9.716  1.00  0.00     0.040 A 
ATOM     73  C   UNL     1      13.110  -0.139   9.542  1.00  0.00     0.040 A 
ATOM     74  F   UNL     1      12.685  -1.152   7.468  1.00  0.00    -0.206 F 
ATOM     75  C   UNL     1      13.286   1.008  10.314  1.00  0.00     0.006 A 
ENDBRANCH  47  68
BRANCH  59  76
ATOM     76  C   UNL     1      16.453   3.219   2.053  1.00  0.00     0.057 A 
ATOM     77  C   UNL     1      17.541   2.341   2.143  1.00  0.00     0.134 A 
ATOM     78  C   UNL     1      16.726   4.568   1.796  1.00  0.00     0.134 A 
ATOM     79  F   UNL     1      17.345   1.040   2.400  1.00  0.00    -0.206 F 
ATOM     80  C   UNL     1      18.854   2.794   2.000  1.00  0.00     0.040 A 
ATOM     81  C   UNL     1      18.033   5.028   1.632  1.00  0.00     0.040 A 
ATOM     82  F   UNL     1      15.727   5.457   1.693  1.00  0.00    -0.206 F 
ATOM     83  C   UNL     1      19.102   4.140   1.739  1.00  0.00     0.006 A 
ENDBRANCH  59  76
ENDBRANCH  33  34
ENDBRANCH  26  28
ENDBRANCH  25  26
ENDBRANCH  24  25
ENDBRANCH   1  24
TORSDOF 15
