REMARK SMILES CC(C)(CC(=O)Nc1cccc(S(N)(=O)=O)c1)CC(=O)OCCOC(=O)c1ccc(-c2c3nc(c(-c4c(F)cccc4F)c4ccc([nH]4)c(-c4c(F)cccc4F)c4nc(c(-c5c(F)cccc5F)c5ccc2[nH]5)C=C4)C=C3)cc1
REMARK SMILES IDX 19 1 20 2 18 3 2 4 1 5 3 6 4 7 5 8 6 9 7 10 8 12 9 13 17 14
REMARK SMILES IDX 10 15 12 16 11 17 13 18 15 19 16 20 14 21 21 24 22 25 23 26
REMARK SMILES IDX 24 27 25 28 26 29 27 30 28 31 80 32 29 33 79 34 30 35 31 36
REMARK SMILES IDX 32 37 73 38 33 39 78 40 72 41 74 42 34 43 77 44 71 45 70 46
REMARK SMILES IDX 35 48 61 49 44 50 60 51 45 52 48 53 59 54 75 55 46 56 47 57
REMARK SMILES IDX 58 59 76 60 49 61 36 62 37 63 42 64 38 65 39 66 41 67 43 68
REMARK SMILES IDX 40 69 62 70 63 71 68 72 64 73 65 74 67 75 69 76 66 77 50 78
REMARK SMILES IDX 51 79 56 80 52 81 53 82 55 83 57 84 54 85
REMARK H PARENT 7 11 14 22 14 23 74 47 48 58
REMARK Flexibility Score: inf
ROOT
ATOM      1  C   UNL     1       0.251  -0.731   3.551  1.00  0.00     0.306 C 
ATOM      2  O   UNL     1       1.183  -1.198   4.195  1.00  0.00    -0.252 OA
ENDROOT
BRANCH   1   3
ATOM      3  C   UNL     1       0.058   0.754   3.318  1.00  0.00     0.129 C 
BRANCH   3   4
ATOM      4  C   UNL     1       0.246   1.365   1.908  1.00  0.00    -0.016 C 
ATOM      5  C   UNL     1       1.626   1.009   1.357  1.00  0.00     0.012 C 
ATOM      6  C   UNL     1       0.304   2.911   2.126  1.00  0.00     0.012 C 
BRANCH   4   7
ATOM      7  C   UNL     1      -0.903   1.157   0.866  1.00  0.00     0.107 C 
BRANCH   7   8
ATOM      8  C   UNL     1      -1.584  -0.170   0.557  1.00  0.00     0.224 C 
ATOM      9  O   UNL     1      -2.493  -0.564   1.304  1.00  0.00    -0.275 OA
ATOM     10  N   UNL     1      -1.421  -0.880  -0.594  1.00  0.00    -0.326 N 
ATOM     11  H   UNL     1      -2.122  -1.563  -0.703  1.00  0.00     0.169 HD
BRANCH  10  12
ATOM     12  C   UNL     1      -0.512  -0.891  -1.668  1.00  0.00     0.042 A 
ATOM     13  C   UNL     1      -0.769  -1.796  -2.713  1.00  0.00     0.026 A 
ATOM     14  C   UNL     1       0.661  -0.157  -1.721  1.00  0.00     0.047 A 
ATOM     15  C   UNL     1       0.137  -1.970  -3.768  1.00  0.00     0.004 A 
ATOM     16  C   UNL     1       1.603  -0.382  -2.733  1.00  0.00     0.084 A 
ATOM     17  C   UNL     1       1.340  -1.272  -3.772  1.00  0.00     0.022 A 
BRANCH  16  18
ATOM     18  S   UNL     1       3.180   0.408  -2.645  1.00  0.00     0.238 S 
ATOM     19  O   UNL     1       3.476   1.007  -3.921  1.00  0.00    -0.207 OA
ATOM     20  O   UNL     1       3.304   1.132  -1.400  1.00  0.00    -0.207 OA
BRANCH  18  21
ATOM     21  N   UNL     1       4.228  -0.896  -2.473  1.00  0.00    -0.225 NA
ATOM     22  H   UNL     1       4.202  -1.467  -3.318  1.00  0.00     0.137 HD
ATOM     23  H   UNL     1       3.940  -1.460  -1.673  1.00  0.00     0.137 HD
ENDBRANCH  18  21
ENDBRANCH  16  18
ENDBRANCH  10  12
ENDBRANCH   7   8
ENDBRANCH   4   7
ENDBRANCH   3   4
ENDBRANCH   1   3
BRANCH   1  24
ATOM     24  O   UNL     1      -0.789  -1.441   3.073  1.00  0.00    -0.462 OA
BRANCH  24  25
ATOM     25  C   UNL     1      -0.929  -2.812   3.483  1.00  0.00     0.274 C 
BRANCH  25  26
ATOM     26  C   UNL     1      -0.425  -3.787   2.422  1.00  0.00     0.275 C 
BRANCH  26  27
ATOM     27  O   UNL     1       1.013  -3.799   2.370  1.00  0.00    -0.458 OA
BRANCH  27  28
ATOM     28  C   UNL     1       1.538  -3.003   1.416  1.00  0.00     0.338 C 
ATOM     29  O   UNL     1       0.936  -2.352   0.583  1.00  0.00    -0.246 OA
BRANCH  28  30
ATOM     30  C   UNL     1       2.997  -2.951   1.514  1.00  0.00     0.060 A 
ATOM     31  C   UNL     1       3.586  -1.799   2.034  1.00  0.00     0.016 A 
ATOM     32  C   UNL     1       3.777  -3.956   0.946  1.00  0.00     0.016 A 
ATOM     33  C   UNL     1       4.959  -1.617   1.947  1.00  0.00     0.010 A 
ATOM     34  C   UNL     1       5.165  -3.806   0.926  1.00  0.00     0.010 A 
ATOM     35  C   UNL     1       5.764  -2.631   1.415  1.00  0.00    -0.014 A 
BRANCH  35  36
ATOM     36  C   UNL     1       7.237  -2.482   1.434  1.00  0.00     0.031 A 
ATOM     37  C   UNL     1       8.018  -2.361   0.159  1.00  0.00     0.074 A 
ATOM     38  C   UNL     1       7.865  -2.466   2.625  1.00  0.00     0.049 A 
ATOM     39  N   UNL     1       9.310  -2.244  -0.011  1.00  0.00    -0.248 NA
ATOM     40  C   UNL     1       7.248  -2.364  -1.093  1.00  0.00     0.031 C 
ATOM     41  C   UNL     1       7.204  -2.557   3.930  1.00  0.00     0.029 A 
ATOM     42  N   UNL     1       9.197  -2.380   2.932  1.00  0.00    -0.354 N 
ATOM     43  C   UNL     1       9.507  -2.149  -1.382  1.00  0.00     0.074 A 
ATOM     44  C   UNL     1       8.204  -2.240  -2.004  1.00  0.00     0.031 C 
ATOM     45  C   UNL     1       8.133  -2.522   4.896  1.00  0.00     0.029 A 
ATOM     46  C   UNL     1       9.452  -2.467   4.279  1.00  0.00     0.049 A 
ATOM     47  H   UNL     1       9.902  -2.266   2.255  1.00  0.00     0.167 HD
ATOM     48  C   UNL     1      10.672  -2.013  -2.059  1.00  0.00     0.037 A 
ATOM     49  C   UNL     1      10.621  -2.538   4.940  1.00  0.00     0.037 A 
ATOM     50  C   UNL     1      11.969  -1.992  -1.433  1.00  0.00     0.049 A 
ATOM     51  C   UNL     1      11.900  -2.495   4.156  1.00  0.00     0.074 A 
ATOM     52  C   UNL     1      13.213  -1.874  -2.028  1.00  0.00     0.029 A 
ATOM     53  N   UNL     1      12.188  -2.123  -0.070  1.00  0.00    -0.354 N 
ATOM     54  N   UNL     1      12.073  -2.364   2.862  1.00  0.00    -0.248 NA
ATOM     55  C   UNL     1      13.147  -2.614   4.922  1.00  0.00     0.031 C 
ATOM     56  C   UNL     1      14.186  -1.999  -1.032  1.00  0.00     0.029 A 
ATOM     57  C   UNL     1      13.549  -2.129   0.192  1.00  0.00     0.049 A 
ATOM     58  H   UNL     1      11.482  -2.200   0.612  1.00  0.00     0.167 HD
ATOM     59  C   UNL     1      13.446  -2.358   2.662  1.00  0.00     0.074 A 
ATOM     60  C   UNL     1      14.059  -2.484   3.969  1.00  0.00     0.031 C 
ATOM     61  C   UNL     1      14.139  -2.255   1.501  1.00  0.00     0.037 A 
BRANCH  48  62
ATOM     62  C   UNL     1      10.598  -1.928  -3.556  1.00  0.00     0.057 A 
ATOM     63  C   UNL     1      10.113  -0.787  -4.209  1.00  0.00     0.134 A 
ATOM     64  C   UNL     1      11.047  -2.987  -4.355  1.00  0.00     0.134 A 
ATOM     65  F   UNL     1       9.649   0.255  -3.503  1.00  0.00    -0.206 F 
ATOM     66  C   UNL     1      10.065  -0.709  -5.603  1.00  0.00     0.040 A 
ATOM     67  C   UNL     1      11.024  -2.912  -5.749  1.00  0.00     0.040 A 
ATOM     68  F   UNL     1      11.522  -4.109  -3.794  1.00  0.00    -0.206 F 
ATOM     69  C   UNL     1      10.528  -1.772  -6.377  1.00  0.00     0.006 A 
ENDBRANCH  48  62
BRANCH  49  70
ATOM     70  C   UNL     1      10.629  -2.687   6.416  1.00  0.00     0.057 A 
ATOM     71  C   UNL     1      11.099  -1.663   7.245  1.00  0.00     0.134 A 
ATOM     72  C   UNL     1      10.169  -3.857   7.033  1.00  0.00     0.134 A 
ATOM     73  F   UNL     1      11.569  -0.525   6.712  1.00  0.00    -0.206 F 
ATOM     74  C   UNL     1      11.129  -1.803   8.633  1.00  0.00     0.040 A 
ATOM     75  C   UNL     1      10.166  -4.000   8.421  1.00  0.00     0.040 A 
ATOM     76  F   UNL     1       9.699  -4.874   6.295  1.00  0.00    -0.206 F 
ATOM     77  C   UNL     1      10.655  -2.973   9.225  1.00  0.00     0.006 A 
ENDBRANCH  49  70
BRANCH  61  78
ATOM     78  C   UNL     1      15.635  -2.236   1.600  1.00  0.00     0.057 A 
ATOM     79  C   UNL     1      16.372  -3.381   1.927  1.00  0.00     0.134 A 
ATOM     80  C   UNL     1      16.349  -1.061   1.334  1.00  0.00     0.134 A 
ATOM     81  F   UNL     1      15.746  -4.535   2.209  1.00  0.00    -0.206 F 
ATOM     82  C   UNL     1      17.764  -3.352   2.011  1.00  0.00     0.040 A 
ATOM     83  C   UNL     1      17.743  -1.026   1.385  1.00  0.00     0.040 A 
ATOM     84  F   UNL     1      15.704   0.069   1.006  1.00  0.00    -0.206 F 
ATOM     85  C   UNL     1      18.454  -2.173   1.732  1.00  0.00     0.006 A 
ENDBRANCH  61  78
ENDBRANCH  35  36
ENDBRANCH  28  30
ENDBRANCH  27  28
ENDBRANCH  26  27
ENDBRANCH  25  26
ENDBRANCH  24  25
ENDBRANCH   1  24
TORSDOF 17
