REMARK SMILES O=C(OCCOC(=O)[C@@H]1[C@H](C(=O)NCc2ccncc2)[C@H]2C=C[C@@H]1O2)c1ccc(-c2c3nc(c(-c4c(F)cccc4F)c4ccc([nH]4)c(-c4c(F)cccc4F)c4nc(c(-c5c(F)cccc5F)c5ccc2[nH]5)C=C4)C=C3)cc1
REMARK SMILES IDX 5 1 4 2 3 3 2 4 1 5 26 6 27 7 79 8 28 9 78 10 29 11 30 12
REMARK SMILES IDX 31 13 72 14 32 15 77 16 71 17 73 18 33 19 76 20 70 21 69 22
REMARK SMILES IDX 34 24 60 25 43 26 59 27 44 28 47 29 58 30 74 31 45 32 46 33
REMARK SMILES IDX 57 35 75 36 48 37 35 38 36 39 41 40 37 41 38 42 40 43 42 44
REMARK SMILES IDX 39 45 61 46 62 47 67 48 63 49 64 50 66 51 68 52 65 53 49 54
REMARK SMILES IDX 50 55 55 56 51 57 52 58 54 59 56 60 53 61 6 62 7 63 8 64
REMARK SMILES IDX 9 65 10 66 24 67 21 68 23 69 25 70 22 71 11 72 12 73 13 74
REMARK SMILES IDX 14 76 15 77 16 78 20 79 17 80 19 81 18 82
REMARK H PARENT 73 23 47 34 13 75
REMARK Flexibility Score: inf
ROOT
ATOM      1  C   UNL     1       2.718   0.660  -1.514  1.00  0.00     0.274 C 
ENDROOT
BRANCH   1   2
ATOM      2  C   UNL     1       3.321  -0.712  -1.203  1.00  0.00     0.275 C 
BRANCH   2   3
ATOM      3  O   UNL     1       2.680  -1.499  -0.176  1.00  0.00    -0.458 OA
BRANCH   3   4
ATOM      4  C   UNL     1       2.240  -1.016   1.007  1.00  0.00     0.338 C 
ATOM      5  O   UNL     1       1.067  -1.153   1.341  1.00  0.00    -0.246 OA
BRANCH   4   6
ATOM      6  C   UNL     1       3.223  -0.460   1.993  1.00  0.00     0.060 A 
ATOM      7  C   UNL     1       4.501   0.001   1.677  1.00  0.00     0.016 A 
ATOM      8  C   UNL     1       2.776  -0.290   3.315  1.00  0.00     0.016 A 
ATOM      9  C   UNL     1       5.278   0.692   2.614  1.00  0.00     0.010 A 
ATOM     10  C   UNL     1       3.530   0.443   4.240  1.00  0.00     0.010 A 
ATOM     11  C   UNL     1       4.789   0.957   3.888  1.00  0.00    -0.014 A 
BRANCH  11  12
ATOM     12  C   UNL     1       5.666   1.584   4.909  1.00  0.00     0.031 A 
ATOM     13  C   UNL     1       6.182   0.694   5.992  1.00  0.00     0.074 A 
ATOM     14  C   UNL     1       6.038   2.880   4.879  1.00  0.00     0.049 A 
ATOM     15  N   UNL     1       6.882   0.996   7.050  1.00  0.00    -0.248 NA
ATOM     16  C   UNL     1       5.884  -0.740   5.843  1.00  0.00     0.031 C 
ATOM     17  C   UNL     1       5.776   3.810   3.792  1.00  0.00     0.029 A 
ATOM     18  N   UNL     1       6.707   3.652   5.797  1.00  0.00    -0.354 N 
ATOM     19  C   UNL     1       7.115  -0.212   7.685  1.00  0.00     0.074 A 
ATOM     20  C   UNL     1       6.409  -1.235   6.949  1.00  0.00     0.031 C 
ATOM     21  C   UNL     1       6.159   5.048   4.140  1.00  0.00     0.029 A 
ATOM     22  C   UNL     1       6.744   4.991   5.471  1.00  0.00     0.049 A 
ATOM     23  H   UNL     1       7.120   3.285   6.612  1.00  0.00     0.167 HD
ATOM     24  C   UNL     1       7.896  -0.456   8.760  1.00  0.00     0.037 A 
ATOM     25  C   UNL     1       7.207   6.049   6.162  1.00  0.00     0.037 A 
ATOM     26  C   UNL     1       8.603   0.566   9.477  1.00  0.00     0.049 A 
ATOM     27  C   UNL     1       7.926   5.782   7.454  1.00  0.00     0.074 A 
ATOM     28  C   UNL     1       9.417   0.438  10.584  1.00  0.00     0.029 A 
ATOM     29  N   UNL     1       8.568   1.917   9.153  1.00  0.00    -0.354 N 
ATOM     30  N   UNL     1       8.162   4.633   8.039  1.00  0.00    -0.248 NA
ATOM     31  C   UNL     1       8.493   6.943   8.152  1.00  0.00     0.031 C 
ATOM     32  C   UNL     1       9.836   1.718  10.962  1.00  0.00     0.029 A 
ATOM     33  C   UNL     1       9.325   2.638  10.058  1.00  0.00     0.049 A 
ATOM     34  H   UNL     1       8.077   2.303   8.392  1.00  0.00     0.167 HD
ATOM     35  C   UNL     1       8.968   4.919   9.129  1.00  0.00     0.074 A 
ATOM     36  C   UNL     1       9.164   6.356   9.134  1.00  0.00     0.031 C 
ATOM     37  C   UNL     1       9.518   4.067  10.029  1.00  0.00     0.037 A 
BRANCH  24  38
ATOM     38  C   UNL     1       7.969  -1.883   9.204  1.00  0.00     0.057 A 
ATOM     39  C   UNL     1       8.608  -2.866   8.432  1.00  0.00     0.134 A 
ATOM     40  C   UNL     1       7.295  -2.299  10.356  1.00  0.00     0.134 A 
ATOM     41  F   UNL     1       9.237  -2.535   7.293  1.00  0.00    -0.206 F 
ATOM     42  C   UNL     1       8.526  -4.218   8.764  1.00  0.00     0.040 A 
ATOM     43  C   UNL     1       7.233  -3.646  10.714  1.00  0.00     0.040 A 
ATOM     44  F   UNL     1       6.654  -1.410  11.129  1.00  0.00    -0.206 F 
ATOM     45  C   UNL     1       7.835  -4.611   9.908  1.00  0.00     0.006 A 
ENDBRANCH  24  38
BRANCH  25  46
ATOM     46  C   UNL     1       7.074   7.433   5.634  1.00  0.00     0.057 A 
ATOM     47  C   UNL     1       8.187   8.147   5.175  1.00  0.00     0.134 A 
ATOM     48  C   UNL     1       5.838   8.094   5.614  1.00  0.00     0.134 A 
ATOM     49  F   UNL     1       9.401   7.576   5.180  1.00  0.00    -0.206 F 
ATOM     50  C   UNL     1       8.086   9.473   4.747  1.00  0.00     0.040 A 
ATOM     51  C   UNL     1       5.719   9.415   5.172  1.00  0.00     0.040 A 
ATOM     52  F   UNL     1       4.728   7.468   6.030  1.00  0.00    -0.206 F 
ATOM     53  C   UNL     1       6.848  10.112   4.745  1.00  0.00     0.006 A 
ENDBRANCH  25  46
BRANCH  37  54
ATOM     54  C   UNL     1      10.434   4.662  11.055  1.00  0.00     0.057 A 
ATOM     55  C   UNL     1       9.959   5.452  12.108  1.00  0.00     0.134 A 
ATOM     56  C   UNL     1      11.809   4.399  11.007  1.00  0.00     0.134 A 
ATOM     57  F   UNL     1       8.655   5.753  12.198  1.00  0.00    -0.206 F 
ATOM     58  C   UNL     1      10.824   5.977  13.068  1.00  0.00     0.040 A 
ATOM     59  C   UNL     1      12.679   4.891  11.978  1.00  0.00     0.040 A 
ATOM     60  F   UNL     1      12.325   3.644  10.025  1.00  0.00    -0.206 F 
ATOM     61  C   UNL     1      12.187   5.688  13.009  1.00  0.00     0.006 A 
ENDBRANCH  37  54
ENDBRANCH  11  12
ENDBRANCH   4   6
ENDBRANCH   3   4
ENDBRANCH   2   3
ENDBRANCH   1   2
BRANCH   1  62
ATOM     62  O   UNL     1       2.602   1.524  -0.368  1.00  0.00    -0.462 OA
BRANCH  62  63
ATOM     63  C   UNL     1       1.535   2.370  -0.410  1.00  0.00     0.312 C 
ATOM     64  O   UNL     1       0.710   2.391  -1.321  1.00  0.00    -0.252 OA
BRANCH  63  65
ATOM     65  C   UNL     1       1.450   3.349   0.734  1.00  0.00     0.147 C 
ATOM     66  C   UNL     1       2.279   4.644   0.564  1.00  0.00     0.128 C 
ATOM     67  C   UNL     1       1.974   2.819   2.061  1.00  0.00     0.157 C 
ATOM     68  C   UNL     1       3.128   4.646   1.826  1.00  0.00     0.155 C 
ATOM     69  C   UNL     1       1.589   3.701   3.210  1.00  0.00     0.004 C 
ATOM     70  O   UNL     1       3.355   3.218   1.956  1.00  0.00    -0.365 OA
ATOM     71  C   UNL     1       2.289   4.834   3.060  1.00  0.00     0.004 C 
BRANCH  66  72
ATOM     72  C   UNL     1       3.020   4.818  -0.751  1.00  0.00     0.227 C 
ATOM     73  O   UNL     1       2.444   5.447  -1.650  1.00  0.00    -0.275 OA
ATOM     74  N   UNL     1       4.232   4.339  -1.100  1.00  0.00    -0.352 N 
ATOM     75  H   UNL     1       4.430   4.510  -2.049  1.00  0.00     0.163 HD
BRANCH  74  76
ATOM     76  C   UNL     1       5.326   3.636  -0.443  1.00  0.00     0.151 C 
BRANCH  76  77
ATOM     77  C   UNL     1       5.985   2.575  -1.306  1.00  0.00    -0.026 A 
ATOM     78  C   UNL     1       6.710   1.546  -0.691  1.00  0.00     0.025 A 
ATOM     79  C   UNL     1       5.934   2.562  -2.703  1.00  0.00     0.025 A 
ATOM     80  C   UNL     1       7.210   0.502  -1.455  1.00  0.00     0.111 A 
ATOM     81  C   UNL     1       6.486   1.488  -3.389  1.00  0.00     0.111 A 
ATOM     82  N   UNL     1       7.090   0.440  -2.792  1.00  0.00    -0.265 NA
ENDBRANCH  76  77
ENDBRANCH  74  76
ENDBRANCH  66  72
ENDBRANCH  63  65
ENDBRANCH  62  63
ENDBRANCH   1  62
TORSDOF 14
