REMARK SMILES CC(C)CCn1nc(C(=O)OCCOC(=O)c2ccc(-c3c4nc(c(-c5c(F)cccc5F)c5ccc([nH]5)c(-c5c(F)cccc5F)c5nc(c(-c6c(F)cccc6F)c6ccc3[nH]6)C=C5)C=C4)cc2)c2c1CCN(C(=O)[C@@H]1CCc3nn(C)c(=O)n3C1)C2
REMARK SMILES IDX 12 1 11 2 9 3 10 4 8 5 6 6 7 7 72 8 71 9 73 10 89 11 74 12
REMARK SMILES IDX 75 13 5 14 4 15 2 16 1 17 3 18 76 19 77 20 78 21 79 22 88 23
REMARK SMILES IDX 80 24 87 25 81 26 85 27 82 28 83 29 86 30 84 31 13 32 14 33
REMARK SMILES IDX 15 34 16 35 17 36 18 37 70 38 19 39 69 40 20 41 21 42 22 43
REMARK SMILES IDX 63 44 23 45 68 46 62 47 64 48 24 49 67 50 61 51 60 52 25 54
REMARK SMILES IDX 51 55 34 56 50 57 35 58 38 59 49 60 65 61 36 62 37 63 48 65
REMARK SMILES IDX 66 66 39 67 26 68 27 69 32 70 28 71 29 72 31 73 33 74 30 75
REMARK SMILES IDX 52 76 53 77 58 78 54 79 55 80 57 81 59 82 56 83 40 84 41 85
REMARK SMILES IDX 46 86 42 87 43 88 45 89 47 90 44 91
REMARK H PARENT 64 53 38 64
REMARK Flexibility Score: inf
ROOT
ATOM      1  C   UNL     1       1.269  -4.781  -7.025  1.00  0.00     0.275 C 
ENDROOT
BRANCH   1   2
ATOM      2  O   UNL     1       0.880  -4.482  -5.679  1.00  0.00    -0.457 OA
BRANCH   2   3
ATOM      3  C   UNL     1       0.950  -3.191  -5.232  1.00  0.00     0.359 C 
ATOM      4  O   UNL     1       1.578  -2.300  -5.801  1.00  0.00    -0.244 OA
BRANCH   3   5
ATOM      5  C   UNL     1       0.145  -3.027  -4.010  1.00  0.00     0.175 A 
ATOM      6  N   UNL     1      -0.698  -2.213  -2.219  1.00  0.00    -0.268 N 
ATOM      7  N   UNL     1       0.056  -1.881  -3.294  1.00  0.00    -0.165 NA
ATOM      8  C   UNL     1      -0.907  -3.553  -2.151  1.00  0.00     0.046 A 
ATOM      9  C   UNL     1      -0.634  -4.050  -3.404  1.00  0.00     0.028 A 
ATOM     10  C   UNL     1      -1.322  -4.399  -1.016  1.00  0.00     0.078 C 
ATOM     11  C   UNL     1      -0.958  -5.442  -3.855  1.00  0.00     0.159 C 
ATOM     12  C   UNL     1      -1.043  -5.856  -1.448  1.00  0.00     0.126 C 
ATOM     13  N   UNL     1      -1.624  -6.171  -2.757  1.00  0.00    -0.338 N 
BRANCH   6  14
ATOM     14  C   UNL     1      -1.271  -1.182  -1.371  1.00  0.00     0.145 C 
BRANCH  14  15
ATOM     15  C   UNL     1      -0.876  -1.253   0.106  1.00  0.00     0.027 C 
BRANCH  15  16
ATOM     16  C   UNL     1       0.642  -1.222   0.345  1.00  0.00    -0.016 C 
ATOM     17  C   UNL     1       1.220   0.160   0.043  1.00  0.00     0.007 C 
ATOM     18  C   UNL     1       0.961  -1.627   1.784  1.00  0.00     0.007 C 
ENDBRANCH  15  16
ENDBRANCH  14  15
ENDBRANCH   6  14
BRANCH  13  19
ATOM     19  C   UNL     1      -2.555  -7.128  -3.106  1.00  0.00     0.227 C 
ATOM     20  O   UNL     1      -2.748  -7.373  -4.307  1.00  0.00    -0.274 OA
BRANCH  19  21
ATOM     21  C   UNL     1      -3.436  -7.920  -2.112  1.00  0.00     0.099 C 
ATOM     22  C   UNL     1      -4.600  -7.153  -1.479  1.00  0.00     0.023 C 
ATOM     23  C   UNL     1      -2.732  -8.824  -1.111  1.00  0.00     0.142 C 
ATOM     24  C   UNL     1      -4.273  -6.438  -0.176  1.00  0.00     0.078 C 
ATOM     25  N   UNL     1      -2.569  -8.203   0.182  1.00  0.00    -0.278 N 
ATOM     26  C   UNL     1      -3.172  -7.078   0.616  1.00  0.00     0.133 A 
ATOM     27  C   UNL     1      -1.487  -8.405   1.004  1.00  0.00     0.345 A 
ATOM     28  N   UNL     1      -2.607  -6.522   1.649  1.00  0.00    -0.155 NA
ATOM     29  N   UNL     1      -1.526  -7.341   1.913  1.00  0.00    -0.216 N 
ATOM     30  O   UNL     1      -0.600  -9.231   0.863  1.00  0.00    -0.246 OA
ATOM     31  C   UNL     1      -0.407  -6.913   2.709  1.00  0.00     0.179 C 
ENDBRANCH  19  21
ENDBRANCH  13  19
ENDBRANCH   3   5
ENDBRANCH   2   3
ENDBRANCH   1   2
BRANCH   1  32
ATOM     32  C   UNL     1       0.100  -4.546  -7.966  1.00  0.00     0.275 C 
BRANCH  32  33
ATOM     33  O   UNL     1      -0.090  -3.148  -8.136  1.00  0.00    -0.458 OA
BRANCH  33  34
ATOM     34  C   UNL     1      -1.032  -2.565  -7.362  1.00  0.00     0.338 C 
ATOM     35  O   UNL     1      -1.654  -3.074  -6.448  1.00  0.00    -0.246 OA
BRANCH  34  36
ATOM     36  C   UNL     1      -1.327  -1.249  -7.936  1.00  0.00     0.060 A 
ATOM     37  C   UNL     1      -2.296  -0.468  -7.306  1.00  0.00     0.016 A 
ATOM     38  C   UNL     1      -0.857  -0.958  -9.226  1.00  0.00     0.016 A 
ATOM     39  C   UNL     1      -2.952   0.478  -8.064  1.00  0.00     0.010 A 
ATOM     40  C   UNL     1      -1.524  -0.035  -9.985  1.00  0.00     0.010 A 
ATOM     41  C   UNL     1      -2.617   0.606  -9.419  1.00  0.00    -0.014 A 
BRANCH  41  42
ATOM     42  C   UNL     1      -3.361   1.540 -10.229  1.00  0.00     0.031 A 
ATOM     43  C   UNL     1      -3.050   2.942  -9.886  1.00  0.00     0.074 A 
ATOM     44  C   UNL     1      -4.147   1.160 -11.252  1.00  0.00     0.049 A 
ATOM     45  N   UNL     1      -3.817   3.781  -9.279  1.00  0.00    -0.248 NA
ATOM     46  C   UNL     1      -1.661   3.401 -10.053  1.00  0.00     0.031 C 
ATOM     47  C   UNL     1      -4.301  -0.165 -11.857  1.00  0.00     0.029 A 
ATOM     48  N   UNL     1      -4.941   1.941 -12.028  1.00  0.00    -0.354 N 
ATOM     49  C   UNL     1      -3.079   4.953  -9.183  1.00  0.00     0.074 A 
ATOM     50  C   UNL     1      -1.717   4.604  -9.481  1.00  0.00     0.031 C 
ATOM     51  C   UNL     1      -4.962  -0.045 -13.034  1.00  0.00     0.029 A 
ATOM     52  C   UNL     1      -5.399   1.332 -13.190  1.00  0.00     0.049 A 
ATOM     53  H   UNL     1      -5.175   2.866 -11.787  1.00  0.00     0.167 HD
ATOM     54  C   UNL     1      -3.708   6.157  -9.140  1.00  0.00     0.037 A 
ATOM     55  C   UNL     1      -6.033   1.962 -14.212  1.00  0.00     0.037 A 
ATOM     56  C   UNL     1      -5.090   6.005  -8.753  1.00  0.00     0.049 A 
ATOM     57  C   UNL     1      -6.568   3.243 -13.678  1.00  0.00     0.074 A 
ATOM     58  C   UNL     1      -5.731   5.481  -7.646  1.00  0.00     0.029 A 
ATOM     59  N   UNL     1      -6.040   6.049  -9.745  1.00  0.00    -0.354 N 
ATOM     60  N   UNL     1      -7.539   3.312 -12.810  1.00  0.00    -0.248 NA
ATOM     61  C   UNL     1      -5.697   4.409 -13.734  1.00  0.00     0.031 C 
ATOM     62  C   UNL     1      -6.865   4.790  -8.168  1.00  0.00     0.029 A 
ATOM     63  C   UNL     1      -6.895   4.995  -9.547  1.00  0.00     0.049 A 
ATOM     64  H   UNL     1      -6.097   6.716 -10.467  1.00  0.00     0.167 HD
ATOM     65  C   UNL     1      -7.150   4.305 -11.923  1.00  0.00     0.074 A 
ATOM     66  C   UNL     1      -6.040   4.993 -12.582  1.00  0.00     0.031 C 
ATOM     67  C   UNL     1      -7.558   4.289 -10.620  1.00  0.00     0.037 A 
BRANCH  54  68
ATOM     68  C   UNL     1      -3.191   7.385  -9.845  1.00  0.00     0.057 A 
ATOM     69  C   UNL     1      -3.869   8.603  -9.668  1.00  0.00     0.134 A 
ATOM     70  C   UNL     1      -2.261   7.367 -10.908  1.00  0.00     0.134 A 
ATOM     71  F   UNL     1      -4.785   8.745  -8.698  1.00  0.00    -0.206 F 
ATOM     72  C   UNL     1      -3.699   9.688 -10.535  1.00  0.00     0.040 A 
ATOM     73  C   UNL     1      -2.047   8.462 -11.746  1.00  0.00     0.040 A 
ATOM     74  F   UNL     1      -1.585   6.270 -11.264  1.00  0.00    -0.206 F 
ATOM     75  C   UNL     1      -2.793   9.616 -11.585  1.00  0.00     0.006 A 
ENDBRANCH  54  68
BRANCH  55  76
ATOM     76  C   UNL     1      -5.910   1.715 -15.668  1.00  0.00     0.057 A 
ATOM     77  C   UNL     1      -6.825   2.268 -16.577  1.00  0.00     0.134 A 
ATOM     78  C   UNL     1      -4.734   1.183 -16.225  1.00  0.00     0.134 A 
ATOM     79  F   UNL     1      -7.957   2.839 -16.140  1.00  0.00    -0.206 F 
ATOM     80  C   UNL     1      -6.572   2.317 -17.955  1.00  0.00     0.040 A 
ATOM     81  C   UNL     1      -4.471   1.222 -17.599  1.00  0.00     0.040 A 
ATOM     82  F   UNL     1      -3.759   0.694 -15.447  1.00  0.00    -0.206 F 
ATOM     83  C   UNL     1      -5.385   1.804 -18.469  1.00  0.00     0.006 A 
ENDBRANCH  55  76
BRANCH  67  84
ATOM     84  C   UNL     1      -8.624   3.301 -10.227  1.00  0.00     0.057 A 
ATOM     85  C   UNL     1      -8.476   1.907 -10.295  1.00  0.00     0.134 A 
ATOM     86  C   UNL     1      -9.789   3.781  -9.618  1.00  0.00     0.134 A 
ATOM     87  F   UNL     1      -7.355   1.349 -10.768  1.00  0.00    -0.206 F 
ATOM     88  C   UNL     1      -9.461   1.035  -9.818  1.00  0.00     0.040 A 
ATOM     89  C   UNL     1     -10.764   2.922  -9.108  1.00  0.00     0.040 A 
ATOM     90  F   UNL     1      -9.976   5.102  -9.467  1.00  0.00    -0.206 F 
ATOM     91  C   UNL     1     -10.608   1.543  -9.216  1.00  0.00     0.006 A 
ENDBRANCH  67  84
ENDBRANCH  41  42
ENDBRANCH  34  36
ENDBRANCH  33  34
ENDBRANCH  32  33
ENDBRANCH   1  32
TORSDOF 16
