REMARK SMILES COc1ccc(OCc2nc(N)cc(SCC(=O)OCCOC(=O)c3ccc(-c4c5nc(c(-c6c(F)cccc6F)c6ccc([nH]6)c(-c6c(F)cccc6F)c6nc(c(-c7c(F)cccc7F)c7ccc4[nH]7)C=C6)C=C5)cc3)n2)cc1
REMARK SMILES IDX 17 1 18 2 16 3 15 4 14 5 9 6 10 7 79 8 11 9 13 10 8 11 7 12
REMARK SMILES IDX 6 13 3 14 4 15 81 16 5 17 80 18 2 19 1 20 12 21 19 24 20 25
REMARK SMILES IDX 21 26 22 27 23 28 24 29 25 30 26 31 78 32 27 33 77 34 28 35
REMARK SMILES IDX 29 36 30 37 71 38 31 39 76 40 70 41 72 42 32 43 75 44 69 45
REMARK SMILES IDX 68 46 33 48 59 49 42 50 58 51 43 52 46 53 57 54 73 55 44 56
REMARK SMILES IDX 45 57 56 59 74 60 47 61 34 62 35 63 40 64 36 65 37 66 39 67
REMARK SMILES IDX 41 68 38 69 60 70 61 71 66 72 62 73 63 74 65 75 67 76 64 77
REMARK SMILES IDX 48 78 49 79 54 80 50 81 51 82 53 83 55 84 52 85
REMARK H PARENT 12 22 12 23 72 47 46 58
REMARK Flexibility Score: inf
ROOT
ATOM      1  C   UNL     1       2.855   6.583   6.648  1.00  0.00     0.316 C 
ATOM      2  O   UNL     1       3.249   5.797   7.506  1.00  0.00    -0.251 OA
ENDROOT
BRANCH   1   3
ATOM      3  C   UNL     1       3.797   7.569   5.997  1.00  0.00     0.199 C 
BRANCH   3   4
ATOM      4  S   UNL     1       3.233   8.276   4.425  1.00  0.00    -0.094 SA
BRANCH   4   5
ATOM      5  C   UNL     1       3.593   7.041   3.192  1.00  0.00     0.103 A 
ATOM      6  C   UNL     1       3.410   6.539   0.953  1.00  0.00     0.169 A 
ATOM      7  N   UNL     1       4.127   5.410   1.079  1.00  0.00    -0.213 NA
ATOM      8  N   UNL     1       3.140   7.378   1.969  1.00  0.00    -0.223 NA
ATOM      9  C   UNL     1       4.516   5.079   2.308  1.00  0.00     0.128 A 
ATOM     10  C   UNL     1       4.296   5.878   3.406  1.00  0.00     0.082 A 
BRANCH   6  11
ATOM     11  C   UNL     1       2.875   6.875  -0.423  1.00  0.00     0.306 C 
BRANCH  11  12
ATOM     12  O   UNL     1       1.542   6.401  -0.658  1.00  0.00    -0.486 OA
BRANCH  12  13
ATOM     13  C   UNL     1       1.341   5.058  -0.821  1.00  0.00     0.120 A 
ATOM     14  C   UNL     1       0.653   2.351  -1.019  1.00  0.00     0.119 A 
ATOM     15  C   UNL     1      -0.339   3.305  -0.818  1.00  0.00     0.050 A 
ATOM     16  C   UNL     1       1.978   2.747  -1.187  1.00  0.00     0.050 A 
ATOM     17  C   UNL     1       0.008   4.653  -0.710  1.00  0.00     0.050 A 
ATOM     18  C   UNL     1       2.320   4.101  -1.093  1.00  0.00     0.050 A 
BRANCH  14  19
ATOM     19  O   UNL     1       0.261   1.043  -1.103  1.00  0.00    -0.497 OA
ATOM     20  C   UNL     1       0.927   0.229  -0.139  1.00  0.00     0.278 C 
ENDBRANCH  14  19
ENDBRANCH  12  13
ENDBRANCH  11  12
ENDBRANCH   6  11
BRANCH   9  21
ATOM     21  N   UNL     1       5.211   3.888   2.413  1.00  0.00    -0.384 N 
ATOM     22  H   UNL     1       5.358   3.331   1.614  1.00  0.00     0.158 HD
ATOM     23  H   UNL     1       5.560   3.597   3.287  1.00  0.00     0.158 HD
ENDBRANCH   9  21
ENDBRANCH   4   5
ENDBRANCH   3   4
ENDBRANCH   1   3
BRANCH   1  24
ATOM     24  O   UNL     1       1.559   6.719   6.274  1.00  0.00    -0.461 OA
BRANCH  24  25
ATOM     25  C   UNL     1       0.591   5.930   6.994  1.00  0.00     0.274 C 
BRANCH  25  26
ATOM     26  C   UNL     1       0.281   4.623   6.271  1.00  0.00     0.275 C 
BRANCH  26  27
ATOM     27  O   UNL     1       1.430   3.757   6.289  1.00  0.00    -0.458 OA
BRANCH  27  28
ATOM     28  C   UNL     1       1.925   3.425   5.080  1.00  0.00     0.338 C 
ATOM     29  O   UNL     1       1.510   3.760   3.983  1.00  0.00    -0.246 OA
BRANCH  28  30
ATOM     30  C   UNL     1       3.086   2.536   5.229  1.00  0.00     0.060 A 
ATOM     31  C   UNL     1       4.267   3.001   5.810  1.00  0.00     0.016 A 
ATOM     32  C   UNL     1       3.037   1.274   4.633  1.00  0.00     0.016 A 
ATOM     33  C   UNL     1       5.423   2.221   5.742  1.00  0.00     0.010 A 
ATOM     34  C   UNL     1       4.178   0.471   4.621  1.00  0.00     0.010 A 
ATOM     35  C   UNL     1       5.388   0.949   5.148  1.00  0.00    -0.014 A 
BRANCH  35  36
ATOM     36  C   UNL     1       6.610   0.110   5.079  1.00  0.00     0.031 A 
ATOM     37  C   UNL     1       7.270  -0.183   3.760  1.00  0.00     0.074 A 
ATOM     38  C   UNL     1       7.117  -0.409   6.212  1.00  0.00     0.049 A 
ATOM     39  N   UNL     1       8.282  -0.970   3.498  1.00  0.00    -0.248 NA
ATOM     40  C   UNL     1       6.722   0.501   2.579  1.00  0.00     0.031 C 
ATOM     41  C   UNL     1       6.585  -0.188   7.556  1.00  0.00     0.029 A 
ATOM     42  N   UNL     1       8.189  -1.243   6.407  1.00  0.00    -0.354 N 
ATOM     43  C   UNL     1       8.492  -0.877   2.128  1.00  0.00     0.074 A 
ATOM     44  C   UNL     1       7.494   0.033   1.608  1.00  0.00     0.031 C 
ATOM     45  C   UNL     1       7.331  -0.870   8.439  1.00  0.00     0.029 A 
ATOM     46  C   UNL     1       8.360  -1.612   7.717  1.00  0.00     0.049 A 
ATOM     47  H   UNL     1       8.777  -1.546   5.678  1.00  0.00     0.167 HD
ATOM     48  C   UNL     1       9.430  -1.493   1.371  1.00  0.00     0.037 A 
ATOM     49  C   UNL     1       9.226  -2.478   8.273  1.00  0.00     0.037 A 
ATOM     50  C   UNL     1      10.421  -2.403   1.880  1.00  0.00     0.049 A 
ATOM     51  C   UNL     1      10.206  -3.208   7.405  1.00  0.00     0.074 A 
ATOM     52  C   UNL     1      11.419  -3.069   1.189  1.00  0.00     0.029 A 
ATOM     53  N   UNL     1      10.533  -2.780   3.208  1.00  0.00    -0.354 N 
ATOM     54  N   UNL     1      10.385  -3.118   6.110  1.00  0.00    -0.248 NA
ATOM     55  C   UNL     1      11.093  -4.170   8.073  1.00  0.00     0.031 C 
ATOM     56  C   UNL     1      12.119  -3.871   2.098  1.00  0.00     0.029 A 
ATOM     57  C   UNL     1      11.570  -3.685   3.356  1.00  0.00     0.049 A 
ATOM     58  H   UNL     1       9.960  -2.452   3.939  1.00  0.00     0.167 HD
ATOM     59  C   UNL     1      11.406  -4.007   5.807  1.00  0.00     0.074 A 
ATOM     60  C   UNL     1      11.816  -4.618   7.055  1.00  0.00     0.031 C 
ATOM     61  C   UNL     1      11.955  -4.291   4.602  1.00  0.00     0.037 A 
BRANCH  48  62
ATOM     62  C   UNL     1       9.422  -1.214  -0.100  1.00  0.00     0.057 A 
ATOM     63  C   UNL     1       9.991  -0.049  -0.626  1.00  0.00     0.134 A 
ATOM     64  C   UNL     1       8.883  -2.141  -1.000  1.00  0.00     0.134 A 
ATOM     65  F   UNL     1      10.511   0.881   0.188  1.00  0.00    -0.206 F 
ATOM     66  C   UNL     1      10.021   0.187  -2.002  1.00  0.00     0.040 A 
ATOM     67  C   UNL     1       8.917  -1.921  -2.377  1.00  0.00     0.040 A 
ATOM     68  F   UNL     1       8.321  -3.275  -0.554  1.00  0.00    -0.206 F 
ATOM     69  C   UNL     1       9.488  -0.754  -2.882  1.00  0.00     0.006 A 
ENDBRANCH  48  62
BRANCH  49  70
ATOM     70  C   UNL     1       9.168  -2.727   9.731  1.00  0.00     0.057 A 
ATOM     71  C   UNL     1      10.128  -2.189  10.593  1.00  0.00     0.134 A 
ATOM     72  C   UNL     1       8.135  -3.483  10.296  1.00  0.00     0.134 A 
ATOM     73  F   UNL     1      11.149  -1.471  10.103  1.00  0.00    -0.206 F 
ATOM     74  C   UNL     1      10.063  -2.396  11.972  1.00  0.00     0.040 A 
ATOM     75  C   UNL     1       8.048  -3.684  11.673  1.00  0.00     0.040 A 
ATOM     76  F   UNL     1       7.185  -4.020   9.516  1.00  0.00    -0.206 F 
ATOM     77  C   UNL     1       9.017  -3.140  12.515  1.00  0.00     0.006 A 
ENDBRANCH  49  70
BRANCH  61  78
ATOM     78  C   UNL     1      13.055  -5.304   4.582  1.00  0.00     0.057 A 
ATOM     79  C   UNL     1      12.783  -6.676   4.628  1.00  0.00     0.134 A 
ATOM     80  C   UNL     1      14.394  -4.906   4.491  1.00  0.00     0.134 A 
ATOM     81  F   UNL     1      11.519  -7.115   4.728  1.00  0.00    -0.206 F 
ATOM     82  C   UNL     1      13.809  -7.620   4.598  1.00  0.00     0.040 A 
ATOM     83  C   UNL     1      15.428  -5.841   4.448  1.00  0.00     0.040 A 
ATOM     84  F   UNL     1      14.715  -3.604   4.442  1.00  0.00    -0.206 F 
ATOM     85  C   UNL     1      15.136  -7.203   4.504  1.00  0.00     0.006 A 
ENDBRANCH  61  78
ENDBRANCH  35  36
ENDBRANCH  28  30
ENDBRANCH  27  28
ENDBRANCH  26  27
ENDBRANCH  25  26
ENDBRANCH  24  25
ENDBRANCH   1  24
TORSDOF 18
