REMARK SMILES CCOC(=O)c1cccc(Nc2c(-c3ccc(C(=O)OCCOC(=O)c4ccc(-c5c6nc(c(-c7c(F)cccc7F)c7ccc([nH]7)c(-c7c(F)cccc7F)c7nc(c(-c8c(F)cccc8F)c8ccc5[nH]8)C=C7)C=C6)cc4)cc3)nc3cnccn23)c1
REMARK SMILES IDX 18 1 19 2 17 3 14 4 15 5 81 6 16 7 80 8 13 9 12 10 88 11
REMARK SMILES IDX 82 12 83 13 87 14 84 15 86 16 85 17 11 18 10 20 6 21 7 22
REMARK SMILES IDX 89 23 8 24 9 25 4 26 5 27 3 28 2 29 1 30 20 31 21 32 22 33
REMARK SMILES IDX 23 34 24 35 25 36 26 37 27 38 79 39 28 40 78 41 29 42 30 43
REMARK SMILES IDX 31 44 72 45 32 46 77 47 71 48 73 49 33 50 76 51 70 52 69 53
REMARK SMILES IDX 34 55 60 56 43 57 59 58 44 59 47 60 58 61 74 62 45 63 46 64
REMARK SMILES IDX 57 66 75 67 48 68 35 69 36 70 41 71 37 72 38 73 40 74 42 75
REMARK SMILES IDX 39 76 61 77 62 78 67 79 63 80 64 81 66 82 68 83 65 84 49 85
REMARK SMILES IDX 50 86 55 87 51 88 52 89 54 90 56 91 53 92
REMARK H PARENT 11 19 73 54 47 65
REMARK Flexibility Score: inf
ROOT
ATOM      1  C   UNL     1       3.724  11.226  -2.846  1.00  0.00     0.338 C 
ATOM      2  O   UNL     1       4.854  11.337  -2.395  1.00  0.00    -0.246 OA
ENDROOT
BRANCH   1   3
ATOM      3  C   UNL     1       3.400  10.281  -3.943  1.00  0.00     0.060 A 
ATOM      4  C   UNL     1       2.894   8.391  -5.955  1.00  0.00     0.004 A 
ATOM      5  C   UNL     1       3.897   8.162  -5.010  1.00  0.00     0.011 A 
ATOM      6  C   UNL     1       2.164   9.586  -5.910  1.00  0.00     0.011 A 
ATOM      7  C   UNL     1       4.170   9.117  -4.038  1.00  0.00     0.016 A 
ATOM      8  C   UNL     1       2.398  10.522  -4.888  1.00  0.00     0.016 A 
BRANCH   4   9
ATOM      9  C   UNL     1       2.678   7.402  -6.990  1.00  0.00     0.114 A 
ATOM     10  C   UNL     1       2.391   6.061  -6.755  1.00  0.00     0.143 A 
ATOM     11  N   UNL     1       2.408   5.486  -8.010  1.00  0.00    -0.283 N 
ATOM     12  N   UNL     1       2.894   7.657  -8.324  1.00  0.00    -0.225 NA
ATOM     13  C   UNL     1       2.751   6.482  -8.893  1.00  0.00     0.157 A 
ATOM     14  C   UNL     1       2.150   4.210  -8.485  1.00  0.00     0.115 A 
ATOM     15  C   UNL     1       2.902   6.144 -10.281  1.00  0.00     0.158 A 
ATOM     16  C   UNL     1       2.297   3.975  -9.801  1.00  0.00     0.129 A 
ATOM     17  N   UNL     1       2.689   4.932 -10.724  1.00  0.00    -0.259 NA
BRANCH  10  18
ATOM     18  N   UNL     1       2.077   5.411  -5.601  1.00  0.00    -0.339 N 
ATOM     19  H   UNL     1       1.322   5.781  -5.090  1.00  0.00     0.168 HD
BRANCH  18  20
ATOM     20  C   UNL     1       2.700   4.269  -5.046  1.00  0.00     0.040 A 
ATOM     21  C   UNL     1       2.714   2.593  -3.274  1.00  0.00     0.062 A 
ATOM     22  C   UNL     1       3.860   2.009  -3.820  1.00  0.00     0.016 A 
ATOM     23  C   UNL     1       2.133   3.708  -3.892  1.00  0.00     0.041 A 
ATOM     24  C   UNL     1       4.410   2.531  -4.988  1.00  0.00     0.003 A 
ATOM     25  C   UNL     1       3.834   3.653  -5.594  1.00  0.00     0.026 A 
BRANCH  21  26
ATOM     26  C   UNL     1       2.184   2.060  -2.004  1.00  0.00     0.338 C 
ATOM     27  O   UNL     1       2.890   1.505  -1.172  1.00  0.00    -0.246 OA
BRANCH  26  28
ATOM     28  O   UNL     1       0.851   2.268  -1.903  1.00  0.00    -0.462 OA
BRANCH  28  29
ATOM     29  C   UNL     1       0.264   1.863  -0.656  1.00  0.00     0.230 C 
ATOM     30  C   UNL     1       0.096   0.355  -0.574  1.00  0.00     0.049 C 
ENDBRANCH  28  29
ENDBRANCH  26  28
ENDBRANCH  21  26
ENDBRANCH  18  20
ENDBRANCH  10  18
ENDBRANCH   4   9
ENDBRANCH   1   3
BRANCH   1  31
ATOM     31  O   UNL     1       2.606  11.829  -2.372  1.00  0.00    -0.458 OA
BRANCH  31  32
ATOM     32  C   UNL     1       2.805  12.685  -1.226  1.00  0.00     0.275 C 
BRANCH  32  33
ATOM     33  C   UNL     1       2.409  11.987   0.077  1.00  0.00     0.275 C 
BRANCH  33  34
ATOM     34  O   UNL     1       3.285  10.875   0.349  1.00  0.00    -0.458 OA
BRANCH  34  35
ATOM     35  C   UNL     1       2.700   9.656   0.356  1.00  0.00     0.338 C 
ATOM     36  O   UNL     1       1.522   9.393   0.185  1.00  0.00    -0.246 OA
BRANCH  35  37
ATOM     37  C   UNL     1       3.714   8.607   0.554  1.00  0.00     0.060 A 
ATOM     38  C   UNL     1       4.579   8.318  -0.493  1.00  0.00     0.016 A 
ATOM     39  C   UNL     1       3.699   7.795   1.686  1.00  0.00     0.016 A 
ATOM     40  C   UNL     1       5.356   7.161  -0.468  1.00  0.00     0.010 A 
ATOM     41  C   UNL     1       4.568   6.695   1.760  1.00  0.00     0.010 A 
ATOM     42  C   UNL     1       5.382   6.336   0.668  1.00  0.00    -0.014 A 
BRANCH  42  43
ATOM     43  C   UNL     1       6.242   5.110   0.698  1.00  0.00     0.031 A 
ATOM     44  C   UNL     1       5.656   3.752   1.012  1.00  0.00     0.074 A 
ATOM     45  C   UNL     1       7.565   5.196   0.433  1.00  0.00     0.049 A 
ATOM     46  N   UNL     1       6.275   2.614   1.220  1.00  0.00    -0.248 NA
ATOM     47  C   UNL     1       4.192   3.661   1.121  1.00  0.00     0.031 C 
ATOM     48  C   UNL     1       8.290   6.425   0.106  1.00  0.00     0.029 A 
ATOM     49  N   UNL     1       8.539   4.224   0.396  1.00  0.00    -0.354 N 
ATOM     50  C   UNL     1       5.281   1.689   1.522  1.00  0.00     0.074 A 
ATOM     51  C   UNL     1       4.022   2.398   1.492  1.00  0.00     0.031 C 
ATOM     52  C   UNL     1       9.575   6.131  -0.136  1.00  0.00     0.029 A 
ATOM     53  C   UNL     1       9.792   4.710   0.105  1.00  0.00     0.049 A 
ATOM     54  H   UNL     1       8.356   3.272   0.563  1.00  0.00     0.167 HD
ATOM     55  C   UNL     1       5.397   0.365   1.786  1.00  0.00     0.037 A 
ATOM     56  C   UNL     1      10.995   4.103   0.078  1.00  0.00     0.037 A 
ATOM     57  C   UNL     1       6.627  -0.377   1.749  1.00  0.00     0.049 A 
ATOM     58  C   UNL     1      11.099   2.641   0.405  1.00  0.00     0.074 A 
ATOM     59  C   UNL     1       6.819  -1.729   1.977  1.00  0.00     0.029 A 
ATOM     60  N   UNL     1       7.864   0.163   1.451  1.00  0.00    -0.354 N 
ATOM     61  N   UNL     1      10.147   1.792   0.698  1.00  0.00    -0.248 NA
ATOM     62  C   UNL     1      12.449   2.058   0.416  1.00  0.00     0.031 C 
ATOM     63  C   UNL     1       8.181  -2.005   1.839  1.00  0.00     0.029 A 
ATOM     64  C   UNL     1       8.830  -0.828   1.504  1.00  0.00     0.049 A 
ATOM     65  H   UNL     1       8.033   1.108   1.234  1.00  0.00     0.167 HD
ATOM     66  C   UNL     1      10.778   0.573   0.911  1.00  0.00     0.074 A 
ATOM     67  C   UNL     1      12.193   0.787   0.696  1.00  0.00     0.031 C 
ATOM     68  C   UNL     1      10.231  -0.614   1.263  1.00  0.00     0.037 A 
BRANCH  55  69
ATOM     69  C   UNL     1       4.160  -0.391   2.155  1.00  0.00     0.057 A 
ATOM     70  C   UNL     1       3.393  -1.058   1.194  1.00  0.00     0.134 A 
ATOM     71  C   UNL     1       3.805  -0.555   3.500  1.00  0.00     0.134 A 
ATOM     72  F   UNL     1       3.714  -0.987  -0.105  1.00  0.00    -0.206 F 
ATOM     73  C   UNL     1       2.298  -1.845   1.558  1.00  0.00     0.040 A 
ATOM     74  C   UNL     1       2.721  -1.351   3.876  1.00  0.00     0.040 A 
ATOM     75  F   UNL     1       4.523   0.031   4.469  1.00  0.00    -0.206 F 
ATOM     76  C   UNL     1       1.961  -1.996   2.902  1.00  0.00     0.006 A 
ENDBRANCH  55  69
BRANCH  56  77
ATOM     77  C   UNL     1      12.215   4.895  -0.227  1.00  0.00     0.057 A 
ATOM     78  C   UNL     1      12.935   4.695  -1.410  1.00  0.00     0.134 A 
ATOM     79  C   UNL     1      12.692   5.866   0.663  1.00  0.00     0.134 A 
ATOM     80  F   UNL     1      12.544   3.761  -2.289  1.00  0.00    -0.206 F 
ATOM     81  C   UNL     1      14.090   5.426  -1.693  1.00  0.00     0.040 A 
ATOM     82  C   UNL     1      13.828   6.624   0.379  1.00  0.00     0.040 A 
ATOM     83  F   UNL     1      12.047   6.105   1.814  1.00  0.00    -0.206 F 
ATOM     84  C   UNL     1      14.534   6.400  -0.801  1.00  0.00     0.006 A 
ENDBRANCH  56  77
BRANCH  68  85
ATOM     85  C   UNL     1      11.152  -1.787   1.402  1.00  0.00     0.057 A 
ATOM     86  C   UNL     1      12.003  -1.925   2.505  1.00  0.00     0.134 A 
ATOM     87  C   UNL     1      11.146  -2.815   0.452  1.00  0.00     0.134 A 
ATOM     88  F   UNL     1      12.061  -0.969   3.443  1.00  0.00    -0.206 F 
ATOM     89  C   UNL     1      12.830  -3.040   2.649  1.00  0.00     0.040 A 
ATOM     90  C   UNL     1      11.951  -3.945   0.597  1.00  0.00     0.040 A 
ATOM     91  F   UNL     1      10.344  -2.747  -0.622  1.00  0.00    -0.206 F 
ATOM     92  C   UNL     1      12.800  -4.057   1.696  1.00  0.00     0.006 A 
ENDBRANCH  68  85
ENDBRANCH  42  43
ENDBRANCH  35  37
ENDBRANCH  34  35
ENDBRANCH  33  34
ENDBRANCH  32  33
ENDBRANCH  31  32
ENDBRANCH   1  31
TORSDOF 17
