REMARK SMILES C[C@]12C=CC(=O)C=C1CC[C@H]1[C@H]2[C@H](O)C[C@]2(C)[C@H]1CC[C@]2(O)C(=O)COC(=O)CCC(=O)OCCOC(=O)c1ccc(-c2c3nc(c(-c4c(F)cccc4F)c4ccc([nH]4)c(-c4c(F)cccc4F)c4nc(c(-c5c(F)cccc5F)c5ccc2[nH]5)C=C4)C=C3)cc1
REMARK SMILES IDX 31 1 32 2 30 3 29 4 27 5 28 6 26 7 25 8 23 9 24 10 21 11
REMARK SMILES IDX 1 12 2 13 3 14 8 15 12 16 4 17 7 18 9 19 11 20 13 21 5 22
REMARK SMILES IDX 10 23 18 24 15 25 6 26 16 27 19 28 17 29 20 30 14 31 22 33
REMARK SMILES IDX 33 35 34 36 35 37 36 38 37 39 38 40 39 41 40 42 92 43 41 44
REMARK SMILES IDX 91 45 42 46 43 47 44 48 85 49 45 50 90 51 84 52 86 53 46 54
REMARK SMILES IDX 89 55 83 56 82 57 47 59 73 60 56 61 72 62 57 63 60 64 71 65
REMARK SMILES IDX 87 66 58 67 59 68 70 70 88 71 61 72 48 73 49 74 54 75 50 76
REMARK SMILES IDX 51 77 53 78 55 79 52 80 74 81 75 82 80 83 76 84 77 85 79 86
REMARK SMILES IDX 81 87 78 88 62 89 63 90 68 91 64 92 65 93 67 94 69 95 66 96
REMARK H PARENT 14 32 22 34 86 58 60 69
REMARK Flexibility Score: inf
ROOT
ATOM      1  C   UNL     1       1.007  -9.280  -4.310  1.00  0.00     0.306 C 
ATOM      2  O   UNL     1       1.540  -9.521  -5.386  1.00  0.00    -0.252 OA
ENDROOT
BRANCH   1   3
ATOM      3  C   UNL     1      -0.413  -8.743  -4.195  1.00  0.00     0.134 C 
BRANCH   3   4
ATOM      4  C   UNL     1      -1.319  -9.368  -3.136  1.00  0.00     0.134 C 
BRANCH   4   5
ATOM      5  C   UNL     1      -1.179  -8.884  -1.704  1.00  0.00     0.306 C 
ATOM      6  O   UNL     1      -2.139  -8.536  -1.026  1.00  0.00    -0.252 OA
BRANCH   5   7
ATOM      7  O   UNL     1       0.099  -8.877  -1.265  1.00  0.00    -0.458 OA
BRANCH   7   8
ATOM      8  C   UNL     1       0.424  -8.183  -0.058  1.00  0.00     0.311 C 
BRANCH   8   9
ATOM      9  C   UNL     1       1.190  -6.853  -0.291  1.00  0.00     0.202 C 
ATOM     10  O   UNL     1       2.072  -6.505   0.498  1.00  0.00    -0.293 OA
BRANCH   9  11
ATOM     11  C   UNL     1       0.794  -6.006  -1.532  1.00  0.00     0.132 C 
ATOM     12  C   UNL     1       0.903   0.514   0.065  1.00  0.00     0.021 C 
ATOM     13  C   UNL     1       0.989  -0.052  -1.382  1.00  0.00     0.013 C 
ATOM     14  C   UNL     1       2.314   0.442  -2.000  1.00  0.00    -0.012 C 
ATOM     15  C   UNL     1      -0.104   0.579  -2.269  1.00  0.00    -0.056 C 
ATOM     16  C   UNL     1       0.888  -1.625  -1.237  1.00  0.00     0.035 C 
ATOM     17  C   UNL     1       2.525   1.771  -2.124  1.00  0.00     0.048 C 
ATOM     18  C   UNL     1       0.072   1.805  -2.810  1.00  0.00     0.052 C 
ATOM     19  C   UNL     1      -1.271  -0.207  -2.785  1.00  0.00     0.032 C 
ATOM     20  C   UNL     1       0.247  -2.275  -2.475  1.00  0.00    -0.000 C 
ATOM     21  C   UNL     1       2.178  -2.345  -0.765  1.00  0.00     0.119 C 
ATOM     22  C   UNL     1       1.342   2.547  -2.631  1.00  0.00     0.178 C 
ATOM     23  C   UNL     1      -1.179  -1.709  -2.630  1.00  0.00     0.009 C 
ATOM     24  C   UNL     1       0.158  -3.812  -2.395  1.00  0.00     0.002 C 
ATOM     25  C   UNL     1       1.962  -3.857  -0.600  1.00  0.00     0.042 C 
ATOM     26  O   UNL     1       1.427   3.738  -2.901  1.00  0.00    -0.290 OA
ATOM     27  C   UNL     1       1.401  -4.574  -1.850  1.00  0.00     0.009 C 
ATOM     28  C   UNL     1      -0.971  -4.325  -1.506  1.00  0.00     0.008 C 
ATOM     29  C   UNL     1       2.475  -4.624  -2.970  1.00  0.00     0.015 C 
ATOM     30  C   UNL     1      -0.734  -5.808  -1.497  1.00  0.00     0.044 C 
BRANCH  21  31
ATOM     31  O   UNL     1       3.273  -2.155  -1.649  1.00  0.00    -0.393 OA
ATOM     32  H   UNL     1       3.069  -2.558  -2.508  1.00  0.00     0.210 HD
ENDBRANCH  21  31
BRANCH  11  33
ATOM     33  O   UNL     1       1.095  -6.832  -2.654  1.00  0.00    -0.381 OA
ATOM     34  H   UNL     1       0.870  -6.361  -3.471  1.00  0.00     0.212 HD
ENDBRANCH  11  33
ENDBRANCH   9  11
ENDBRANCH   8   9
ENDBRANCH   7   8
ENDBRANCH   5   7
ENDBRANCH   4   5
ENDBRANCH   3   4
ENDBRANCH   1   3
BRANCH   1  35
ATOM     35  O   UNL     1       1.617  -9.417  -3.114  1.00  0.00    -0.462 OA
BRANCH  35  36
ATOM     36  C   UNL     1       2.945  -9.963  -3.033  1.00  0.00     0.274 C 
BRANCH  36  37
ATOM     37  C   UNL     1       2.877 -11.354  -2.406  1.00  0.00     0.275 C 
BRANCH  37  38
ATOM     38  O   UNL     1       2.318 -12.272  -3.358  1.00  0.00    -0.458 OA
BRANCH  38  39
ATOM     39  C   UNL     1       0.978 -12.437  -3.285  1.00  0.00     0.338 C 
ATOM     40  O   UNL     1       0.217 -12.038  -2.427  1.00  0.00    -0.246 OA
BRANCH  39  41
ATOM     41  C   UNL     1       0.550 -13.103  -4.520  1.00  0.00     0.060 A 
ATOM     42  C   UNL     1      -0.167 -12.389  -5.486  1.00  0.00     0.016 A 
ATOM     43  C   UNL     1       0.873 -14.443  -4.708  1.00  0.00     0.016 A 
ATOM     44  C   UNL     1      -0.556 -13.013  -6.667  1.00  0.00     0.010 A 
ATOM     45  C   UNL     1       0.485 -15.067  -5.887  1.00  0.00     0.010 A 
ATOM     46  C   UNL     1      -0.231 -14.357  -6.868  1.00  0.00    -0.014 A 
BRANCH  46  47
ATOM     47  C   UNL     1      -0.675 -15.081  -8.074  1.00  0.00     0.031 A 
ATOM     48  C   UNL     1      -1.761 -16.100  -7.938  1.00  0.00     0.074 A 
ATOM     49  C   UNL     1      -0.035 -14.895  -9.240  1.00  0.00     0.049 A 
ATOM     50  N   UNL     1      -2.124 -17.038  -8.770  1.00  0.00    -0.248 NA
ATOM     51  C   UNL     1      -2.525 -16.070  -6.680  1.00  0.00     0.031 C 
ATOM     52  C   UNL     1       1.007 -13.899  -9.485  1.00  0.00     0.029 A 
ATOM     53  N   UNL     1      -0.140 -15.576 -10.425  1.00  0.00    -0.354 N 
ATOM     54  C   UNL     1      -3.133 -17.738  -8.122  1.00  0.00     0.074 A 
ATOM     55  C   UNL     1      -3.319 -17.120  -6.826  1.00  0.00     0.031 C 
ATOM     56  C   UNL     1       1.474 -14.056 -10.735  1.00  0.00     0.029 A 
ATOM     57  C   UNL     1       0.803 -15.198 -11.350  1.00  0.00     0.049 A 
ATOM     58  H   UNL     1      -0.821 -16.265 -10.596  1.00  0.00     0.167 HD
ATOM     59  C   UNL     1      -3.830 -18.805  -8.574  1.00  0.00     0.037 A 
ATOM     60  C   UNL     1       1.122 -15.751 -12.535  1.00  0.00     0.037 A 
ATOM     61  C   UNL     1      -3.631 -19.397  -9.870  1.00  0.00     0.049 A 
ATOM     62  C   UNL     1       0.371 -16.970 -12.996  1.00  0.00     0.074 A 
ATOM     63  C   UNL     1      -4.299 -20.462 -10.444  1.00  0.00     0.029 A 
ATOM     64  N   UNL     1      -2.684 -18.971 -10.791  1.00  0.00    -0.354 N 
ATOM     65  N   UNL     1      -0.586 -17.629 -12.387  1.00  0.00    -0.248 NA
ATOM     66  C   UNL     1       0.746 -17.526 -14.303  1.00  0.00     0.031 C 
ATOM     67  C   UNL     1      -3.726 -20.710 -11.695  1.00  0.00     0.029 A 
ATOM     68  C   UNL     1      -2.736 -19.766 -11.923  1.00  0.00     0.049 A 
ATOM     69  H   UNL     1      -2.067 -18.215 -10.660  1.00  0.00     0.167 HD
ATOM     70  C   UNL     1      -0.950 -18.656 -13.248  1.00  0.00     0.074 A 
ATOM     71  C   UNL     1      -0.109 -18.533 -14.422  1.00  0.00     0.031 C 
ATOM     72  C   UNL     1      -1.899 -19.610 -13.086  1.00  0.00     0.037 A 
BRANCH  59  73
ATOM     73  C   UNL     1      -4.833 -19.419  -7.645  1.00  0.00     0.057 A 
ATOM     74  C   UNL     1      -6.033 -18.776  -7.314  1.00  0.00     0.134 A 
ATOM     75  C   UNL     1      -4.600 -20.681  -7.082  1.00  0.00     0.134 A 
ATOM     76  F   UNL     1      -6.309 -17.558  -7.804  1.00  0.00    -0.206 F 
ATOM     77  C   UNL     1      -6.953 -19.355  -6.437  1.00  0.00     0.040 A 
ATOM     78  C   UNL     1      -5.524 -21.281  -6.226  1.00  0.00     0.040 A 
ATOM     79  F   UNL     1      -3.471 -21.352  -7.358  1.00  0.00    -0.206 F 
ATOM     80  C   UNL     1      -6.702 -20.614  -5.896  1.00  0.00     0.006 A 
ENDBRANCH  59  73
BRANCH  60  81
ATOM     81  C   UNL     1       2.217 -15.169 -13.348  1.00  0.00     0.057 A 
ATOM     82  C   UNL     1       1.947 -14.486 -14.538  1.00  0.00     0.134 A 
ATOM     83  C   UNL     1       3.556 -15.262 -12.947  1.00  0.00     0.134 A 
ATOM     84  F   UNL     1       0.686 -14.380 -14.982  1.00  0.00    -0.206 F 
ATOM     85  C   UNL     1       2.967 -13.923 -15.306  1.00  0.00     0.040 A 
ATOM     86  C   UNL     1       4.585 -14.684 -13.693  1.00  0.00     0.040 A 
ATOM     87  F   UNL     1       3.881 -15.900 -11.813  1.00  0.00    -0.206 F 
ATOM     88  C   UNL     1       4.291 -14.015 -14.879  1.00  0.00     0.006 A 
ENDBRANCH  60  81
BRANCH  72  89
ATOM     89  C   UNL     1      -2.123 -20.562 -14.223  1.00  0.00     0.057 A 
ATOM     90  C   UNL     1      -1.235 -21.607 -14.500  1.00  0.00     0.134 A 
ATOM     91  C   UNL     1      -3.286 -20.473 -14.998  1.00  0.00     0.134 A 
ATOM     92  F   UNL     1      -0.097 -21.738 -13.801  1.00  0.00    -0.206 F 
ATOM     93  C   UNL     1      -1.492 -22.528 -15.517  1.00  0.00     0.040 A 
ATOM     94  C   UNL     1      -3.566 -21.401 -16.000  1.00  0.00     0.040 A 
ATOM     95  F   UNL     1      -4.181 -19.499 -14.775  1.00  0.00    -0.206 F 
ATOM     96  C   UNL     1      -2.667 -22.432 -16.263  1.00  0.00     0.006 A 
ENDBRANCH  72  89
ENDBRANCH  46  47
ENDBRANCH  39  41
ENDBRANCH  38  39
ENDBRANCH  37  38
ENDBRANCH  36  37
ENDBRANCH  35  36
ENDBRANCH   1  35
TORSDOF 19
