REMARK SMILES O=C(OCCOC(=O)[C@H]1C=C[C@H](Nc2ccc([N+](=O)[O-])cc2C(F)F)C1)c1ccc(-c2c3nc(c(-c4c(F)cccc4F)c4ccc([nH]4)c(-c4c(F)cccc4F)c4nc(c(-c5c(F)cccc5F)c5ccc2[nH]5)C=C4)C=C3)cc1
REMARK SMILES IDX 5 1 4 2 3 3 2 4 1 5 27 6 28 7 80 8 29 9 79 10 30 11 31 12
REMARK SMILES IDX 32 13 73 14 33 15 78 16 72 17 74 18 34 19 77 20 71 21 70 22
REMARK SMILES IDX 35 24 61 25 44 26 60 27 45 28 48 29 59 30 75 31 46 32 47 33
REMARK SMILES IDX 58 35 76 36 49 37 36 38 37 39 42 40 38 41 39 42 41 43 43 44
REMARK SMILES IDX 40 45 62 46 63 47 68 48 64 49 65 50 67 51 69 52 66 53 50 54
REMARK SMILES IDX 51 55 56 56 52 57 53 58 55 59 57 60 54 61 6 62 7 63 8 64
REMARK SMILES IDX 9 65 10 66 26 67 11 68 12 69 13 70 14 72 15 73 22 74 16 75
REMARK SMILES IDX 21 76 17 77 23 78 24 79 25 80 18 81 19 82 20 83
REMARK H PARENT 74 23 48 34 13 71
REMARK Flexibility Score: inf
ROOT
ATOM      1  C   UNL     1       3.826  -0.051  -2.132  1.00  0.00     0.274 C 
ENDROOT
BRANCH   1   2
ATOM      2  C   UNL     1       3.981  -1.161  -1.087  1.00  0.00     0.275 C 
BRANCH   2   3
ATOM      3  O   UNL     1       2.954  -1.184  -0.086  1.00  0.00    -0.458 OA
BRANCH   3   4
ATOM      4  C   UNL     1       2.872  -0.492   1.073  1.00  0.00     0.338 C 
ATOM      5  O   UNL     1       1.973  -0.785   1.862  1.00  0.00    -0.246 OA
BRANCH   4   6
ATOM      6  C   UNL     1       3.711   0.708   1.398  1.00  0.00     0.060 A 
ATOM      7  C   UNL     1       4.963   1.029   0.866  1.00  0.00     0.016 A 
ATOM      8  C   UNL     1       3.136   1.620   2.302  1.00  0.00     0.016 A 
ATOM      9  C   UNL     1       5.571   2.261   1.131  1.00  0.00     0.010 A 
ATOM     10  C   UNL     1       3.718   2.866   2.541  1.00  0.00     0.010 A 
ATOM     11  C   UNL     1       4.942   3.199   1.947  1.00  0.00    -0.014 A 
BRANCH  11  12
ATOM     12  C   UNL     1       5.632   4.455   2.318  1.00  0.00     0.031 A 
ATOM     13  C   UNL     1       6.100   4.601   3.736  1.00  0.00     0.074 A 
ATOM     14  C   UNL     1       5.848   5.435   1.419  1.00  0.00     0.049 A 
ATOM     15  N   UNL     1       6.697   5.607   4.315  1.00  0.00    -0.248 NA
ATOM     16  C   UNL     1       5.846   3.455   4.627  1.00  0.00     0.031 C 
ATOM     17  C   UNL     1       5.471   5.400   0.006  1.00  0.00     0.029 A 
ATOM     18  N   UNL     1       6.433   6.667   1.571  1.00  0.00    -0.354 N 
ATOM     19  C   UNL     1       6.906   5.204   5.626  1.00  0.00     0.074 A 
ATOM     20  C   UNL     1       6.268   3.918   5.789  1.00  0.00     0.031 C 
ATOM     21  C   UNL     1       5.805   6.569  -0.572  1.00  0.00     0.029 A 
ATOM     22  C   UNL     1       6.429   7.428   0.427  1.00  0.00     0.049 A 
ATOM     23  H   UNL     1       6.820   6.977   2.422  1.00  0.00     0.167 HD
ATOM     24  C   UNL     1       7.624   5.814   6.596  1.00  0.00     0.037 A 
ATOM     25  C   UNL     1       6.881   8.679   0.221  1.00  0.00     0.037 A 
ATOM     26  C   UNL     1       8.263   7.087   6.429  1.00  0.00     0.049 A 
ATOM     27  C   UNL     1       7.543   9.408   1.353  1.00  0.00     0.074 A 
ATOM     28  C   UNL     1       9.040   7.793   7.326  1.00  0.00     0.029 A 
ATOM     29  N   UNL     1       8.183   7.850   5.272  1.00  0.00    -0.354 N 
ATOM     30  N   UNL     1       7.776   8.997   2.576  1.00  0.00    -0.248 NA
ATOM     31  C   UNL     1       8.028  10.765   1.067  1.00  0.00     0.031 C 
ATOM     32  C   UNL     1       9.401   9.004   6.724  1.00  0.00     0.029 A 
ATOM     33  C   UNL     1       8.884   9.030   5.437  1.00  0.00     0.049 A 
ATOM     34  H   UNL     1       7.699   7.590   4.455  1.00  0.00     0.167 HD
ATOM     35  C   UNL     1       8.489  10.018   3.188  1.00  0.00     0.074 A 
ATOM     36  C   UNL     1       8.621  11.080   2.210  1.00  0.00     0.031 C 
ATOM     37  C   UNL     1       9.015  10.060   4.437  1.00  0.00     0.037 A 
BRANCH  24  38
ATOM     38  C   UNL     1       7.738   5.074   7.895  1.00  0.00     0.057 A 
ATOM     39  C   UNL     1       8.460   3.874   7.992  1.00  0.00     0.134 A 
ATOM     40  C   UNL     1       7.037   5.500   9.027  1.00  0.00     0.134 A 
ATOM     41  F   UNL     1       9.129   3.395   6.931  1.00  0.00    -0.206 F 
ATOM     42  C   UNL     1       8.430   3.094   9.149  1.00  0.00     0.040 A 
ATOM     43  C   UNL     1       7.024   4.743  10.200  1.00  0.00     0.040 A 
ATOM     44  F   UNL     1       6.323   6.635   9.000  1.00  0.00    -0.206 F 
ATOM     45  C   UNL     1       7.706   3.528  10.257  1.00  0.00     0.006 A 
ENDBRANCH  24  38
BRANCH  25  46
ATOM     46  C   UNL     1       6.729   9.339  -1.098  1.00  0.00     0.057 A 
ATOM     47  C   UNL     1       7.776   9.405  -2.020  1.00  0.00     0.134 A 
ATOM     48  C   UNL     1       5.535   9.985  -1.430  1.00  0.00     0.134 A 
ATOM     49  F   UNL     1       8.960   8.842  -1.739  1.00  0.00    -0.206 F 
ATOM     50  C   UNL     1       7.638  10.091  -3.231  1.00  0.00     0.040 A 
ATOM     51  C   UNL     1       5.375  10.658  -2.641  1.00  0.00     0.040 A 
ATOM     52  F   UNL     1       4.521   9.991  -0.556  1.00  0.00    -0.206 F 
ATOM     53  C   UNL     1       6.432  10.715  -3.546  1.00  0.00     0.006 A 
ENDBRANCH  25  46
BRANCH  37  54
ATOM     54  C   UNL     1       9.858  11.249   4.779  1.00  0.00     0.057 A 
ATOM     55  C   UNL     1       9.304  12.505   5.047  1.00  0.00     0.134 A 
ATOM     56  C   UNL     1      11.248  11.113   4.881  1.00  0.00     0.134 A 
ATOM     57  F   UNL     1       7.981  12.701   4.946  1.00  0.00    -0.206 F 
ATOM     58  C   UNL     1      10.108  13.592   5.392  1.00  0.00     0.040 A 
ATOM     59  C   UNL     1      12.059  12.183   5.251  1.00  0.00     0.040 A 
ATOM     60  F   UNL     1      11.837   9.931   4.638  1.00  0.00    -0.206 F 
ATOM     61  C   UNL     1      11.489  13.429   5.504  1.00  0.00     0.006 A 
ENDBRANCH  37  54
ENDBRANCH  11  12
ENDBRANCH   4   6
ENDBRANCH   3   4
ENDBRANCH   2   3
ENDBRANCH   1   2
BRANCH   1  62
ATOM     62  O   UNL     1       3.170   1.132  -1.632  1.00  0.00    -0.462 OA
BRANCH  62  63
ATOM     63  C   UNL     1       1.974   1.447  -2.210  1.00  0.00     0.312 C 
ATOM     64  O   UNL     1       1.457   0.804  -3.118  1.00  0.00    -0.252 OA
BRANCH  63  65
ATOM     65  C   UNL     1       1.342   2.734  -1.675  1.00  0.00     0.124 C 
ATOM     66  C   UNL     1       1.632   3.053  -0.249  1.00  0.00    -0.014 C 
ATOM     67  C   UNL     1       1.848   3.985  -2.412  1.00  0.00     0.048 C 
ATOM     68  C   UNL     1       2.050   4.311  -0.083  1.00  0.00    -0.006 C 
ATOM     69  C   UNL     1       2.023   5.090  -1.353  1.00  0.00     0.103 C 
BRANCH  69  70
ATOM     70  N   UNL     1       0.850   5.965  -1.296  1.00  0.00    -0.378 N 
ATOM     71  H   UNL     1       0.015   5.727  -1.760  1.00  0.00     0.161 HD
BRANCH  70  72
ATOM     72  C   UNL     1       0.958   7.153  -0.560  1.00  0.00     0.044 A 
ATOM     73  C   UNL     1       0.471   7.181   0.761  1.00  0.00     0.033 A 
ATOM     74  C   UNL     1       1.598   8.294  -1.071  1.00  0.00     0.048 A 
ATOM     75  C   UNL     1       0.612   8.313   1.570  1.00  0.00     0.088 A 
ATOM     76  C   UNL     1       1.716   9.445  -0.263  1.00  0.00     0.097 A 
ATOM     77  C   UNL     1       1.237   9.447   1.052  1.00  0.00     0.270 A 
BRANCH  74  78
ATOM     78  C   UNL     1       2.156   8.322  -2.469  1.00  0.00     0.375 C 
ATOM     79  F   UNL     1       2.241   9.585  -2.984  1.00  0.00    -0.205 F 
ATOM     80  F   UNL     1       3.423   7.820  -2.540  1.00  0.00    -0.205 F 
ENDBRANCH  74  78
BRANCH  77  81
ATOM     81  N   UNL     1       1.385  10.649   1.885  1.00  0.00     0.062 N 
ATOM     82  O   UNL     1       0.857  10.640   3.006  1.00  0.00    -0.258 OA
ATOM     83  O   UNL     1       2.010  11.608   1.411  1.00  0.00    -0.258 OA
ENDBRANCH  77  81
ENDBRANCH  70  72
ENDBRANCH  69  70
ENDBRANCH  63  65
ENDBRANCH  62  63
ENDBRANCH   1  62
TORSDOF 15
