REMARK SMILES C[C@H](SCC[NH3+])c1ccc(C(=O)OCCOC(=O)c2ccc(-c3c4nc(c(-c5c(F)cccc5F)c5ccc([nH]5)c(-c5c(F)cccc5F)c5nc(c(-c6c(F)cccc6F)c6ccc3[nH]6)C=C5)C=C4)cc2)o1
REMARK SMILES IDX 13 1 11 2 12 3 10 4 7 5 8 6 73 7 9 8 2 9 1 10 3 11 4 12 5 13
REMARK SMILES IDX 6 14 14 18 15 19 16 20 17 21 18 22 19 23 20 24 72 25 21 26
REMARK SMILES IDX 71 27 22 28 23 29 24 30 65 31 25 32 70 33 64 34 66 35 26 36
REMARK SMILES IDX 69 37 63 38 62 39 27 41 53 42 36 43 52 44 37 45 40 46 51 47
REMARK SMILES IDX 67 48 38 49 39 50 50 52 68 53 41 54 28 55 29 56 34 57 30 58
REMARK SMILES IDX 31 59 33 60 35 61 32 62 54 63 55 64 60 65 56 66 57 67 59 68
REMARK SMILES IDX 61 69 58 70 42 71 43 72 48 73 44 74 45 75 47 76 49 77 46 78
REMARK H PARENT 6 15 6 16 6 17 66 40 40 51
REMARK Flexibility Score: inf
ROOT
ATOM      1  O   UNL     1      -5.525   0.428   1.249  1.00  0.00    -0.456 OA
ENDROOT
BRANCH   1   2
ATOM      2  C   UNL     1      -4.337   0.737   0.647  1.00  0.00     0.374 C 
ATOM      3  O   UNL     1      -4.147   1.736  -0.032  1.00  0.00    -0.242 OA
BRANCH   2   4
ATOM      4  C   UNL     1      -3.332  -0.237   1.014  1.00  0.00     0.211 A 
ATOM      5  C   UNL     1      -1.246  -0.891   1.357  1.00  0.00     0.117 A 
ATOM      6  C   UNL     1      -2.058  -1.913   1.804  1.00  0.00     0.048 A 
ATOM      7  O   UNL     1      -2.016   0.106   0.834  1.00  0.00    -0.453 OA
ATOM      8  C   UNL     1      -3.394  -1.489   1.597  1.00  0.00     0.058 A 
BRANCH   5   9
ATOM      9  C   UNL     1       0.234  -0.689   1.386  1.00  0.00     0.110 C 
ATOM     10  C   UNL     1       0.614   0.370   2.422  1.00  0.00     0.028 C 
BRANCH   9  11
ATOM     11  S   UNL     1       0.957  -0.191  -0.221  1.00  0.00    -0.145 SA
BRANCH  11  12
ATOM     12  C   UNL     1       0.271  -1.458  -1.343  1.00  0.00     0.131 C 
BRANCH  12  13
ATOM     13  C   UNL     1       0.990  -2.814  -1.309  1.00  0.00     0.269 C 
BRANCH  13  14
ATOM     14  N   UNL     1       0.822  -3.569  -0.065  1.00  0.00    -0.357 N 
ATOM     15  H   UNL     1       1.228  -3.044   0.709  1.00  0.00     0.344 HD
ATOM     16  H   UNL     1       1.292  -4.470  -0.149  1.00  0.00     0.344 HD
ATOM     17  H   UNL     1      -0.172  -3.719   0.110  1.00  0.00     0.344 HD
ENDBRANCH  13  14
ENDBRANCH  12  13
ENDBRANCH  11  12
ENDBRANCH   9  11
ENDBRANCH   5   9
ENDBRANCH   2   4
ENDBRANCH   1   2
BRANCH   1  18
ATOM     18  C   UNL     1      -6.549   1.437   1.171  1.00  0.00     0.275 C 
BRANCH  18  19
ATOM     19  C   UNL     1      -6.578   2.303   2.436  1.00  0.00     0.275 C 
BRANCH  19  20
ATOM     20  O   UNL     1      -5.446   3.192   2.502  1.00  0.00    -0.458 OA
BRANCH  20  21
ATOM     21  C   UNL     1      -4.403   2.750   3.243  1.00  0.00     0.338 C 
ATOM     22  O   UNL     1      -4.334   1.708   3.872  1.00  0.00    -0.246 OA
BRANCH  21  23
ATOM     23  C   UNL     1      -3.261   3.666   3.087  1.00  0.00     0.060 A 
ATOM     24  C   UNL     1      -2.147   3.196   2.395  1.00  0.00     0.016 A 
ATOM     25  C   UNL     1      -3.238   4.928   3.683  1.00  0.00     0.016 A 
ATOM     26  C   UNL     1      -0.996   3.970   2.307  1.00  0.00     0.010 A 
ATOM     27  C   UNL     1      -2.079   5.711   3.588  1.00  0.00     0.010 A 
ATOM     28  C   UNL     1      -0.944   5.228   2.913  1.00  0.00    -0.014 A 
BRANCH  28  29
ATOM     29  C   UNL     1       0.328   5.991   2.869  1.00  0.00     0.031 A 
ATOM     30  C   UNL     1       1.170   6.126   4.105  1.00  0.00     0.074 A 
ATOM     31  C   UNL     1       0.767   6.495   1.701  1.00  0.00     0.049 A 
ATOM     32  N   UNL     1       2.289   6.784   4.277  1.00  0.00    -0.248 NA
ATOM     33  C   UNL     1       0.694   5.425   5.307  1.00  0.00     0.031 C 
ATOM     34  C   UNL     1       0.079   6.370   0.416  1.00  0.00     0.029 A 
ATOM     35  N   UNL     1       1.907   7.199   1.404  1.00  0.00    -0.354 N 
ATOM     36  C   UNL     1       2.636   6.600   5.609  1.00  0.00     0.074 A 
ATOM     37  C   UNL     1       1.605   5.775   6.204  1.00  0.00     0.031 C 
ATOM     38  C   UNL     1       0.821   6.957  -0.536  1.00  0.00     0.029 A 
ATOM     39  C   UNL     1       2.009   7.543   0.079  1.00  0.00     0.049 A 
ATOM     40  H   UNL     1       2.587   7.434   2.076  1.00  0.00     0.167 HD
ATOM     41  C   UNL     1       3.716   7.076   6.274  1.00  0.00     0.037 A 
ATOM     42  C   UNL     1       2.943   8.266  -0.565  1.00  0.00     0.037 A 
ATOM     43  C   UNL     1       4.758   7.869   5.676  1.00  0.00     0.049 A 
ATOM     44  C   UNL     1       4.103   8.827   0.205  1.00  0.00     0.074 A 
ATOM     45  C   UNL     1       5.894   8.391   6.270  1.00  0.00     0.029 A 
ATOM     46  N   UNL     1       4.793   8.249   4.343  1.00  0.00    -0.354 N 
ATOM     47  N   UNL     1       4.400   8.681   1.474  1.00  0.00    -0.248 NA
ATOM     48  C   UNL     1       5.051   9.667  -0.542  1.00  0.00     0.031 C 
ATOM     49  C   UNL     1       6.602   9.113   5.302  1.00  0.00     0.029 A 
ATOM     50  C   UNL     1       5.922   9.014   4.099  1.00  0.00     0.049 A 
ATOM     51  H   UNL     1       4.116   8.010   3.670  1.00  0.00     0.167 HD
ATOM     52  C   UNL     1       5.569   9.401   1.676  1.00  0.00     0.074 A 
ATOM     53  C   UNL     1       5.938   9.970   0.396  1.00  0.00     0.031 C 
ATOM     54  C   UNL     1       6.271   9.577   2.821  1.00  0.00     0.037 A 
BRANCH  41  55
ATOM     55  C   UNL     1       3.804   6.777   7.740  1.00  0.00     0.057 A 
ATOM     56  C   UNL     1       4.173   5.514   8.219  1.00  0.00     0.134 A 
ATOM     57  C   UNL     1       3.536   7.776   8.683  1.00  0.00     0.134 A 
ATOM     58  F   UNL     1       4.427   4.511   7.365  1.00  0.00    -0.206 F 
ATOM     59  C   UNL     1       4.253   5.250   9.588  1.00  0.00     0.040 A 
ATOM     60  C   UNL     1       3.631   7.530  10.054  1.00  0.00     0.040 A 
ATOM     61  F   UNL     1       3.181   9.008   8.288  1.00  0.00    -0.206 F 
ATOM     62  C   UNL     1       3.986   6.261  10.509  1.00  0.00     0.006 A 
ENDBRANCH  41  55
BRANCH  42  63
ATOM     63  C   UNL     1       2.802   8.522  -2.019  1.00  0.00     0.057 A 
ATOM     64  C   UNL     1       3.645   7.904  -2.948  1.00  0.00     0.134 A 
ATOM     65  C   UNL     1       1.815   9.384  -2.512  1.00  0.00     0.134 A 
ATOM     66  F   UNL     1       4.625   7.088  -2.533  1.00  0.00    -0.206 F 
ATOM     67  C   UNL     1       3.514   8.136  -4.318  1.00  0.00     0.040 A 
ATOM     68  C   UNL     1       1.659   9.609  -3.879  1.00  0.00     0.040 A 
ATOM     69  F   UNL     1       0.980  10.009  -1.669  1.00  0.00    -0.206 F 
ATOM     70  C   UNL     1       2.513   8.986  -4.787  1.00  0.00     0.006 A 
ENDBRANCH  42  63
BRANCH  54  71
ATOM     71  C   UNL     1       7.513  10.411   2.735  1.00  0.00     0.057 A 
ATOM     72  C   UNL     1       7.453  11.807   2.655  1.00  0.00     0.134 A 
ATOM     73  C   UNL     1       8.780   9.814   2.762  1.00  0.00     0.134 A 
ATOM     74  F   UNL     1       6.269  12.435   2.611  1.00  0.00    -0.206 F 
ATOM     75  C   UNL     1       8.612  12.582   2.588  1.00  0.00     0.040 A 
ATOM     76  C   UNL     1       9.945  10.580   2.713  1.00  0.00     0.040 A 
ATOM     77  F   UNL     1       8.903   8.481   2.842  1.00  0.00    -0.206 F 
ATOM     78  C   UNL     1       9.863  11.968   2.622  1.00  0.00     0.006 A 
ENDBRANCH  54  71
ENDBRANCH  28  29
ENDBRANCH  21  23
ENDBRANCH  20  21
ENDBRANCH  19  20
ENDBRANCH  18  19
ENDBRANCH   1  18
TORSDOF 16
