REMARK SMILES O=C(CCCN1C(=O)/C(=C\c2ccc(O)c(O)c2)SC1=S)OCCOC(=O)c1ccc(-c2c3nc(c(-c4c(F)cccc4F)c4ccc([nH]4)c(-c4c(F)cccc4F)c4nc(c(-c5c(F)cccc5F)c5ccc2[nH]5)C=C4)C=C3)cc1
REMARK SMILES IDX 22 1 2 2 1 3 3 4 4 5 5 6 6 7 7 8 20 9 8 10 9 11 19 12 21 13
REMARK SMILES IDX 10 14 11 15 12 16 18 17 13 18 16 19 14 20 17 21 15 23 23 25
REMARK SMILES IDX 24 26 25 27 26 28 27 29 28 30 29 31 81 32 30 33 80 34 31 35
REMARK SMILES IDX 32 36 33 37 74 38 34 39 79 40 73 41 75 42 35 43 78 44 72 45
REMARK SMILES IDX 71 46 36 48 62 49 45 50 61 51 46 52 49 53 60 54 76 55 47 56
REMARK SMILES IDX 48 57 59 59 77 60 50 61 37 62 38 63 43 64 39 65 40 66 42 67
REMARK SMILES IDX 44 68 41 69 63 70 64 71 69 72 65 73 66 74 68 75 70 76 67 77
REMARK SMILES IDX 51 78 52 79 57 80 53 81 54 82 56 83 58 84 55 85
REMARK H PARENT 17 22 15 24 75 47 49 58
REMARK Flexibility Score: inf
ROOT
ATOM      1  O   UNL     1       3.376   0.903   0.902  1.00  0.00    -0.462 OA
ENDROOT
BRANCH   1   2
ATOM      2  C   UNL     1       2.601   1.355  -0.119  1.00  0.00     0.305 C 
ATOM      3  O   UNL     1       1.387   1.511  -0.038  1.00  0.00    -0.252 OA
BRANCH   2   4
ATOM      4  C   UNL     1       3.343   1.438  -1.446  1.00  0.00     0.124 C 
BRANCH   4   5
ATOM      5  C   UNL     1       4.873   1.275  -1.523  1.00  0.00     0.034 C 
BRANCH   5   6
ATOM      6  C   UNL     1       5.486   0.170  -0.646  1.00  0.00     0.128 C 
BRANCH   6   7
ATOM      7  N   UNL     1       6.516  -0.696  -1.228  1.00  0.00    -0.293 N 
ATOM      8  C   UNL     1       7.768  -0.151  -1.469  1.00  0.00     0.266 C 
ATOM      9  C   UNL     1       6.445  -2.078  -1.278  1.00  0.00     0.148 C 
ATOM     10  O   UNL     1       8.018   1.045  -1.490  1.00  0.00    -0.268 OA
ATOM     11  C   UNL     1       8.777  -1.251  -1.567  1.00  0.00     0.081 C 
ATOM     12  S   UNL     1       7.986  -2.760  -1.741  1.00  0.00    -0.054 SA
ATOM     13  S   UNL     1       5.204  -3.115  -0.897  1.00  0.00    -0.052 S 
ATOM     14  C   UNL     1      10.108  -1.186  -1.470  1.00  0.00     0.029 C 
BRANCH  14  15
ATOM     15  C   UNL     1      10.847   0.063  -1.490  1.00  0.00    -0.020 A 
ATOM     16  C   UNL     1      10.913   0.931  -0.393  1.00  0.00     0.012 A 
ATOM     17  C   UNL     1      11.423   0.413  -2.713  1.00  0.00     0.058 A 
ATOM     18  C   UNL     1      11.523   2.179  -0.535  1.00  0.00     0.051 A 
ATOM     19  C   UNL     1      12.017   1.651  -2.844  1.00  0.00     0.157 A 
ATOM     20  C   UNL     1      12.060   2.535  -1.770  1.00  0.00     0.157 A 
BRANCH  19  21
ATOM     21  O   UNL     1      12.529   2.004  -4.058  1.00  0.00    -0.504 OA
ATOM     22  H   UNL     1      12.937   2.840  -4.168  1.00  0.00     0.293 HD
ENDBRANCH  19  21
BRANCH  20  23
ATOM     23  O   UNL     1      12.627   3.759  -1.986  1.00  0.00    -0.504 OA
ATOM     24  H   UNL     1      12.675   4.383  -1.288  1.00  0.00     0.293 HD
ENDBRANCH  20  23
ENDBRANCH  14  15
ENDBRANCH   6   7
ENDBRANCH   5   6
ENDBRANCH   4   5
ENDBRANCH   2   4
ENDBRANCH   1   2
BRANCH   1  25
ATOM     25  C   UNL     1       2.704  -0.024   1.779  1.00  0.00     0.274 C 
BRANCH  25  26
ATOM     26  C   UNL     1       2.611  -1.423   1.135  1.00  0.00     0.275 C 
BRANCH  26  27
ATOM     27  O   UNL     1       2.390  -1.302  -0.290  1.00  0.00    -0.458 OA
BRANCH  27  28
ATOM     28  C   UNL     1       1.573  -2.175  -0.910  1.00  0.00     0.338 C 
ATOM     29  O   UNL     1       0.970  -3.107  -0.408  1.00  0.00    -0.246 OA
BRANCH  28  30
ATOM     30  C   UNL     1       1.476  -1.777  -2.336  1.00  0.00     0.060 A 
ATOM     31  C   UNL     1       0.398  -0.994  -2.749  1.00  0.00     0.016 A 
ATOM     32  C   UNL     1       2.426  -2.193  -3.276  1.00  0.00     0.016 A 
ATOM     33  C   UNL     1       0.241  -0.677  -4.107  1.00  0.00     0.010 A 
ATOM     34  C   UNL     1       2.292  -1.839  -4.626  1.00  0.00     0.010 A 
ATOM     35  C   UNL     1       1.169  -1.119  -5.064  1.00  0.00    -0.014 A 
BRANCH  35  36
ATOM     36  C   UNL     1       0.891  -0.945  -6.520  1.00  0.00     0.031 A 
ATOM     37  C   UNL     1       0.441  -2.129  -7.342  1.00  0.00     0.074 A 
ATOM     38  C   UNL     1       0.997   0.257  -7.119  1.00  0.00     0.049 A 
ATOM     39  N   UNL     1       0.032  -2.170  -8.587  1.00  0.00    -0.248 NA
ATOM     40  C   UNL     1       0.459  -3.441  -6.677  1.00  0.00     0.031 C 
ATOM     41  C   UNL     1       1.448   1.488  -6.474  1.00  0.00     0.029 A 
ATOM     42  N   UNL     1       0.725   0.637  -8.414  1.00  0.00    -0.354 N 
ATOM     43  C   UNL     1      -0.279  -3.500  -8.843  1.00  0.00     0.074 A 
ATOM     44  C   UNL     1       0.054  -4.245  -7.648  1.00  0.00     0.031 C 
ATOM     45  C   UNL     1       1.406   2.491  -7.370  1.00  0.00     0.029 A 
ATOM     46  C   UNL     1       0.930   1.974  -8.654  1.00  0.00     0.049 A 
ATOM     47  H   UNL     1       0.412   0.009  -9.104  1.00  0.00     0.167 HD
ATOM     48  C   UNL     1      -0.822  -4.054  -9.954  1.00  0.00     0.037 A 
ATOM     49  C   UNL     1       0.746   2.704  -9.773  1.00  0.00     0.037 A 
ATOM     50  C   UNL     1      -1.149  -3.334 -11.156  1.00  0.00     0.049 A 
ATOM     51  C   UNL     1       0.192   2.057 -11.018  1.00  0.00     0.074 A 
ATOM     52  C   UNL     1      -1.740  -3.812 -12.314  1.00  0.00     0.029 A 
ATOM     53  N   UNL     1      -0.898  -1.988 -11.364  1.00  0.00    -0.354 N 
ATOM     54  N   UNL     1      -0.190   0.818 -11.209  1.00  0.00    -0.248 NA
ATOM     55  C   UNL     1       0.031   2.919 -12.200  1.00  0.00     0.031 C 
ATOM     56  C   UNL     1      -1.800  -2.766 -13.241  1.00  0.00     0.029 A 
ATOM     57  C   UNL     1      -1.295  -1.625 -12.641  1.00  0.00     0.049 A 
ATOM     58  H   UNL     1      -0.497  -1.379 -10.702  1.00  0.00     0.167 HD
ATOM     59  C   UNL     1      -0.668   0.762 -12.514  1.00  0.00     0.074 A 
ATOM     60  C   UNL     1      -0.537   2.093 -13.067  1.00  0.00     0.031 C 
ATOM     61  C   UNL     1      -1.174  -0.298 -13.190  1.00  0.00     0.037 A 
BRANCH  48  62
ATOM     62  C   UNL     1      -1.110  -5.527  -9.917  1.00  0.00     0.057 A 
ATOM     63  C   UNL     1      -2.151  -6.050  -9.138  1.00  0.00     0.134 A 
ATOM     64  C   UNL     1      -0.372  -6.426 -10.697  1.00  0.00     0.134 A 
ATOM     65  F   UNL     1      -2.891  -5.243  -8.362  1.00  0.00    -0.206 F 
ATOM     66  C   UNL     1      -2.432  -7.417  -9.116  1.00  0.00     0.040 A 
ATOM     67  C   UNL     1      -0.660  -7.792 -10.704  1.00  0.00     0.040 A 
ATOM     68  F   UNL     1       0.631  -5.990 -11.473  1.00  0.00    -0.206 F 
ATOM     69  C   UNL     1      -1.688  -8.291  -9.906  1.00  0.00     0.006 A 
ENDBRANCH  48  62
BRANCH  49  70
ATOM     70  C   UNL     1       1.057   4.157  -9.774  1.00  0.00     0.057 A 
ATOM     71  C   UNL     1       0.040   5.117  -9.857  1.00  0.00     0.134 A 
ATOM     72  C   UNL     1       2.378   4.619  -9.737  1.00  0.00     0.134 A 
ATOM     73  F   UNL     1      -1.244   4.735  -9.924  1.00  0.00    -0.206 F 
ATOM     74  C   UNL     1       0.326   6.482  -9.923  1.00  0.00     0.040 A 
ATOM     75  C   UNL     1       2.677   5.982  -9.778  1.00  0.00     0.040 A 
ATOM     76  F   UNL     1       3.397   3.751  -9.662  1.00  0.00    -0.206 F 
ATOM     77  C   UNL     1       1.649   6.918  -9.879  1.00  0.00     0.006 A 
ENDBRANCH  49  70
BRANCH  61  78
ATOM     78  C   UNL     1      -1.662  -0.068 -14.592  1.00  0.00     0.057 A 
ATOM     79  C   UNL     1      -0.781   0.158 -15.657  1.00  0.00     0.134 A 
ATOM     80  C   UNL     1      -3.030  -0.125 -14.890  1.00  0.00     0.134 A 
ATOM     81  F   UNL     1       0.541   0.234 -15.441  1.00  0.00    -0.206 F 
ATOM     82  C   UNL     1      -1.243   0.340 -16.963  1.00  0.00     0.040 A 
ATOM     83  C   UNL     1      -3.503   0.029 -16.195  1.00  0.00     0.040 A 
ATOM     84  F   UNL     1      -3.930  -0.348 -13.920  1.00  0.00    -0.206 F 
ATOM     85  C   UNL     1      -2.608   0.268 -17.235  1.00  0.00     0.006 A 
ENDBRANCH  61  78
ENDBRANCH  35  36
ENDBRANCH  28  30
ENDBRANCH  27  28
ENDBRANCH  26  27
ENDBRANCH  25  26
ENDBRANCH   1  25
TORSDOF 17
