REMARK SMILES N#CC1=C(N)N2C(=O)[C@@H](CC(=O)OCCOC(=O)c3ccc(-c4c5nc(c(-c6c(F)cccc6F)c6ccc([nH]6)c(-c6c(F)cccc6F)c6nc(c(-c7c(F)cccc7F)c7ccc4[nH]7)C=C6)C=C5)cc3)SC2=C(C#N)[C@H]1c1ccc(Cl)cc1
REMARK SMILES IDX 14 1 13 2 11 3 12 4 10 5 9 6 3 7 4 8 78 9 6 10 75 11 7 12
REMARK SMILES IDX 74 13 8 14 73 15 2 16 1 17 5 18 79 21 80 22 85 23 81 24
REMARK SMILES IDX 84 25 82 26 83 27 76 28 77 29 15 30 16 31 17 32 18 33 19 34
REMARK SMILES IDX 20 35 72 36 21 37 71 38 22 39 23 40 24 41 65 42 25 43 70 44
REMARK SMILES IDX 64 45 66 46 26 47 69 48 63 49 62 50 27 52 53 53 36 54 52 55
REMARK SMILES IDX 37 56 40 57 51 58 67 59 38 60 39 61 50 63 68 64 41 65 28 66
REMARK SMILES IDX 29 67 34 68 30 69 31 70 33 71 35 72 32 73 54 74 55 75 60 76
REMARK SMILES IDX 56 77 57 78 59 79 61 80 58 81 42 82 43 83 48 84 44 85 45 86
REMARK SMILES IDX 47 87 49 88 46 89
REMARK H PARENT 5 19 5 20 66 51 40 62
REMARK Flexibility Score: inf
ROOT
ATOM      1  C   UNL     1       7.294  -4.691  -2.582  1.00  0.00     0.274 C 
ENDROOT
BRANCH   1   2
ATOM      2  O   UNL     1       7.741  -3.962  -1.418  1.00  0.00    -0.462 OA
BRANCH   2   3
ATOM      3  C   UNL     1       8.656  -2.996  -1.633  1.00  0.00     0.307 C 
ATOM      4  O   UNL     1       9.170  -2.759  -2.722  1.00  0.00    -0.252 OA
BRANCH   3   5
ATOM      5  C   UNL     1       9.089  -2.266  -0.389  1.00  0.00     0.147 C 
BRANCH   5   6
ATOM      6  C   UNL     1       8.101  -1.876   0.712  1.00  0.00     0.154 C 
ATOM      7  C   UNL     1       3.767   0.083   0.054  1.00  0.00     0.083 C 
ATOM      8  C   UNL     1       4.436  -1.079   0.265  1.00  0.00     0.126 C 
ATOM      9  C   UNL     1       4.406   1.441   0.052  1.00  0.00     0.107 C 
ATOM     10  N   UNL     1       5.827  -1.059   0.445  1.00  0.00    -0.258 N 
ATOM     11  C   UNL     1       5.901   1.341   0.304  1.00  0.00     0.073 C 
ATOM     12  C   UNL     1       6.616  -2.215   0.609  1.00  0.00     0.247 C 
ATOM     13  C   UNL     1       6.489   0.150   0.494  1.00  0.00     0.099 C 
ATOM     14  O   UNL     1       6.192  -3.365   0.723  1.00  0.00    -0.273 OA
ATOM     15  S   UNL     1       8.149  -0.052   0.929  1.00  0.00    -0.093 SA
BRANCH   7  16
ATOM     16  C   UNL     1       2.247   0.083   0.054  1.00  0.00     0.100 C 
ATOM     17  N   UNL     1       0.986   0.083   0.054  1.00  0.00    -0.193 NA
ENDBRANCH   7  16
BRANCH   8  18
ATOM     18  N   UNL     1       3.773  -2.278   0.337  1.00  0.00    -0.384 N 
ATOM     19  H   UNL     1       2.796  -2.308   0.213  1.00  0.00     0.158 HD
ATOM     20  H   UNL     1       4.272  -3.107   0.513  1.00  0.00     0.158 HD
ENDBRANCH   8  18
BRANCH   9  21
ATOM     21  C   UNL     1       3.845   2.119  -1.204  1.00  0.00    -0.034 A 
ATOM     22  C   UNL     1       4.145   1.611  -2.475  1.00  0.00     0.006 A 
ATOM     23  C   UNL     1       2.719   2.966  -1.085  1.00  0.00     0.006 A 
ATOM     24  C   UNL     1       3.357   1.933  -3.586  1.00  0.00     0.021 A 
ATOM     25  C   UNL     1       1.921   3.271  -2.196  1.00  0.00     0.021 A 
ATOM     26  C   UNL     1       2.247   2.757  -3.445  1.00  0.00     0.041 A 
ATOM     27  Cl  UNL     1       1.255   3.088  -4.808  1.00  0.00    -0.084 Cl
ENDBRANCH   9  21
BRANCH  11  28
ATOM     28  C   UNL     1       6.652   2.627   0.609  1.00  0.00     0.098 C 
ATOM     29  N   UNL     1       7.275   3.694   0.862  1.00  0.00    -0.193 NA
ENDBRANCH  11  28
ENDBRANCH   5   6
ENDBRANCH   3   5
ENDBRANCH   2   3
ENDBRANCH   1   2
BRANCH   1  30
ATOM     30  C   UNL     1       6.091  -4.034  -3.280  1.00  0.00     0.275 C 
BRANCH  30  31
ATOM     31  O   UNL     1       6.448  -2.864  -4.059  1.00  0.00    -0.458 OA
BRANCH  31  32
ATOM     32  C   UNL     1       6.458  -1.727  -3.346  1.00  0.00     0.338 C 
ATOM     33  O   UNL     1       6.190  -1.633  -2.145  1.00  0.00    -0.246 OA
BRANCH  32  34
ATOM     34  C   UNL     1       6.832  -0.497  -4.047  1.00  0.00     0.060 A 
ATOM     35  C   UNL     1       7.681   0.384  -3.354  1.00  0.00     0.016 A 
ATOM     36  C   UNL     1       6.091  -0.049  -5.137  1.00  0.00     0.016 A 
ATOM     37  C   UNL     1       7.708   1.739  -3.672  1.00  0.00     0.010 A 
ATOM     38  C   UNL     1       6.129   1.315  -5.458  1.00  0.00     0.010 A 
ATOM     39  C   UNL     1       6.878   2.228  -4.683  1.00  0.00    -0.014 A 
BRANCH  39  40
ATOM     40  C   UNL     1       6.857   3.674  -5.009  1.00  0.00     0.031 A 
ATOM     41  C   UNL     1       6.000   4.676  -4.292  1.00  0.00     0.074 A 
ATOM     42  C   UNL     1       7.644   4.090  -6.008  1.00  0.00     0.049 A 
ATOM     43  N   UNL     1       5.490   5.802  -4.724  1.00  0.00    -0.248 NA
ATOM     44  C   UNL     1       5.671   4.378  -2.901  1.00  0.00     0.031 C 
ATOM     45  C   UNL     1       8.611   3.255  -6.714  1.00  0.00     0.029 A 
ATOM     46  N   UNL     1       7.726   5.314  -6.607  1.00  0.00    -0.354 N 
ATOM     47  C   UNL     1       4.662   6.266  -3.701  1.00  0.00     0.074 A 
ATOM     48  C   UNL     1       4.785   5.325  -2.614  1.00  0.00     0.031 C 
ATOM     49  C   UNL     1       9.156   3.978  -7.700  1.00  0.00     0.029 A 
ATOM     50  C   UNL     1       8.538   5.302  -7.708  1.00  0.00     0.049 A 
ATOM     51  H   UNL     1       7.255   6.115  -6.284  1.00  0.00     0.167 HD
ATOM     52  C   UNL     1       3.896   7.386  -3.679  1.00  0.00     0.037 A 
ATOM     53  C   UNL     1       8.719   6.241  -8.650  1.00  0.00     0.037 A 
ATOM     54  C   UNL     1       4.034   8.446  -4.650  1.00  0.00     0.049 A 
ATOM     55  C   UNL     1       8.014   7.552  -8.517  1.00  0.00     0.074 A 
ATOM     56  C   UNL     1       3.402   9.678  -4.691  1.00  0.00     0.029 A 
ATOM     57  N   UNL     1       4.952   8.436  -5.689  1.00  0.00    -0.354 N 
ATOM     58  N   UNL     1       7.064   7.894  -7.681  1.00  0.00    -0.248 NA
ATOM     59  C   UNL     1       8.429   8.617  -9.434  1.00  0.00     0.031 C 
ATOM     60  C   UNL     1       3.965  10.425  -5.731  1.00  0.00     0.029 A 
ATOM     61  C   UNL     1       4.956   9.663  -6.327  1.00  0.00     0.049 A 
ATOM     62  H   UNL     1       5.518   7.669  -5.936  1.00  0.00     0.167 HD
ATOM     63  C   UNL     1       6.776   9.221  -7.959  1.00  0.00     0.074 A 
ATOM     64  C   UNL     1       7.665   9.623  -9.032  1.00  0.00     0.031 C 
ATOM     65  C   UNL     1       5.858  10.036  -7.383  1.00  0.00     0.037 A 
BRANCH  52  66
ATOM     66  C   UNL     1       2.879   7.585  -2.582  1.00  0.00     0.057 A 
ATOM     67  C   UNL     1       3.228   7.852  -1.253  1.00  0.00     0.134 A 
ATOM     68  C   UNL     1       1.512   7.654  -2.903  1.00  0.00     0.134 A 
ATOM     69  F   UNL     1       4.511   7.815  -0.866  1.00  0.00    -0.206 F 
ATOM     70  C   UNL     1       2.265   8.169  -0.288  1.00  0.00     0.040 A 
ATOM     71  C   UNL     1       0.544   8.005  -1.956  1.00  0.00     0.040 A 
ATOM     72  F   UNL     1       1.095   7.434  -4.159  1.00  0.00    -0.206 F 
ATOM     73  C   UNL     1       0.921   8.263  -0.642  1.00  0.00     0.006 A 
ENDBRANCH  52  66
BRANCH  53  74
ATOM     74  C   UNL     1       9.619   5.926  -9.776  1.00  0.00     0.057 A 
ATOM     75  C   UNL     1      10.928   6.411  -9.808  1.00  0.00     0.134 A 
ATOM     76  C   UNL     1       9.231   5.014 -10.766  1.00  0.00     0.134 A 
ATOM     77  F   UNL     1      11.348   7.281  -8.879  1.00  0.00    -0.206 F 
ATOM     78  C   UNL     1      11.828   5.997 -10.788  1.00  0.00     0.040 A 
ATOM     79  C   UNL     1      10.127   4.575 -11.738  1.00  0.00     0.040 A 
ATOM     80  F   UNL     1       7.995   4.491 -10.760  1.00  0.00    -0.206 F 
ATOM     81  C   UNL     1      11.431   5.066 -11.749  1.00  0.00     0.006 A 
ENDBRANCH  53  74
BRANCH  65  82
ATOM     82  C   UNL     1       5.810  11.445  -7.880  1.00  0.00     0.057 A 
ATOM     83  C   UNL     1       5.206  11.771  -9.099  1.00  0.00     0.134 A 
ATOM     84  C   UNL     1       6.374  12.484  -7.130  1.00  0.00     0.134 A 
ATOM     85  F   UNL     1       4.658  10.814  -9.863  1.00  0.00    -0.206 F 
ATOM     86  C   UNL     1       5.191  13.083  -9.572  1.00  0.00     0.040 A 
ATOM     87  C   UNL     1       6.351  13.802  -7.585  1.00  0.00     0.040 A 
ATOM     88  F   UNL     1       6.959  12.233  -5.949  1.00  0.00    -0.206 F 
ATOM     89  C   UNL     1       5.765  14.102  -8.814  1.00  0.00     0.006 A 
ENDBRANCH  65  82
ENDBRANCH  39  40
ENDBRANCH  32  34
ENDBRANCH  31  32
ENDBRANCH  30  31
ENDBRANCH   1  30
TORSDOF 16
