REMARK SMILES O=C(CCn1c(N2CC[NH2+]CC2)nc2ccccc2c1=O)OCCOC(=O)c1ccc(-c2c3nc(c(-c4c(F)cccc4F)c4ccc([nH]4)c(-c4c(F)cccc4F)c4nc(c(-c5c(F)cccc5F)c5ccc2[nH]5)C=C4)C=C3)cc1
REMARK SMILES IDX 23 1 22 2 2 3 1 4 3 5 4 6 5 7 6 8 20 9 13 10 19 11 21 12
REMARK SMILES IDX 14 13 18 14 15 15 17 16 16 17 7 18 8 19 12 20 9 21 11 22
REMARK SMILES IDX 10 23 24 26 25 27 26 28 27 29 28 30 29 31 81 32 30 33 80 34
REMARK SMILES IDX 31 35 32 36 33 37 74 38 34 39 79 40 73 41 75 42 35 43 78 44
REMARK SMILES IDX 72 45 71 46 36 48 62 49 45 50 61 51 46 52 49 53 60 54 76 55
REMARK SMILES IDX 47 56 48 57 59 59 77 60 50 61 37 62 38 63 43 64 39 65 40 66
REMARK SMILES IDX 42 67 44 68 41 69 63 70 64 71 69 72 65 73 66 74 68 75 70 76
REMARK SMILES IDX 67 77 51 78 52 79 57 80 53 81 54 82 56 83 58 84 55 85
REMARK H PARENT 10 24 10 25 75 47 49 58
REMARK Flexibility Score: inf
ROOT
ATOM      1  C   UNL     1       3.310   1.194  -1.129  1.00  0.00     0.274 C 
ENDROOT
BRANCH   1   2
ATOM      2  O   UNL     1       2.200   0.389  -0.688  1.00  0.00    -0.462 OA
BRANCH   2   3
ATOM      3  C   UNL     1       2.419  -0.761   0.008  1.00  0.00     0.307 C 
ATOM      4  O   UNL     1       1.775  -1.778  -0.232  1.00  0.00    -0.252 OA
BRANCH   3   5
ATOM      5  C   UNL     1       3.323  -0.667   1.214  1.00  0.00     0.145 C 
BRANCH   5   6
ATOM      6  C   UNL     1       4.399  -1.738   1.313  1.00  0.00     0.141 C 
BRANCH   6   7
ATOM      7  N   UNL     1       5.338  -1.726   0.198  1.00  0.00    -0.278 N 
ATOM      8  C   UNL     1       5.586  -2.850  -0.581  1.00  0.00     0.209 A 
ATOM      9  C   UNL     1       6.108  -0.577   0.046  1.00  0.00     0.262 A 
ATOM     10  N   UNL     1       6.306  -2.783  -1.665  1.00  0.00    -0.214 NA
ATOM     11  C   UNL     1       6.771  -0.423  -1.249  1.00  0.00     0.066 A 
ATOM     12  O   UNL     1       6.189   0.321   0.881  1.00  0.00    -0.269 OA
ATOM     13  C   UNL     1       6.790  -1.534  -2.082  1.00  0.00     0.080 A 
ATOM     14  C   UNL     1       7.233   0.831  -1.669  1.00  0.00     0.016 A 
ATOM     15  C   UNL     1       7.302  -1.378  -3.370  1.00  0.00     0.029 A 
ATOM     16  C   UNL     1       7.720   0.978  -2.963  1.00  0.00     0.001 A 
ATOM     17  C   UNL     1       7.755  -0.128  -3.813  1.00  0.00     0.002 A 
BRANCH   8  18
ATOM     18  N   UNL     1       5.155  -4.071  -0.124  1.00  0.00    -0.331 N 
ATOM     19  C   UNL     1       6.125  -5.043   0.374  1.00  0.00     0.181 C 
ATOM     20  C   UNL     1       3.805  -4.608  -0.306  1.00  0.00     0.181 C 
ATOM     21  C   UNL     1       5.616  -5.588   1.723  1.00  0.00     0.282 C 
ATOM     22  C   UNL     1       3.318  -5.296   1.003  1.00  0.00     0.282 C 
ATOM     23  N   UNL     1       4.287  -6.232   1.621  1.00  0.00    -0.343 N 
ATOM     24  H   UNL     1       3.963  -6.488   2.553  1.00  0.00     0.346 HD
ATOM     25  H   UNL     1       4.363  -7.067   1.040  1.00  0.00     0.346 HD
ENDBRANCH   8  18
ENDBRANCH   6   7
ENDBRANCH   5   6
ENDBRANCH   3   5
ENDBRANCH   2   3
ENDBRANCH   1   2
BRANCH   1  26
ATOM     26  C   UNL     1       3.390   2.577  -0.473  1.00  0.00     0.275 C 
BRANCH  26  27
ATOM     27  O   UNL     1       3.272   2.495   0.955  1.00  0.00    -0.458 OA
BRANCH  27  28
ATOM     28  C   UNL     1       2.002   2.547   1.426  1.00  0.00     0.338 C 
ATOM     29  O   UNL     1       1.010   2.881   0.798  1.00  0.00    -0.246 OA
BRANCH  28  30
ATOM     30  C   UNL     1       1.947   1.928   2.774  1.00  0.00     0.060 A 
ATOM     31  C   UNL     1       3.028   1.962   3.663  1.00  0.00     0.016 A 
ATOM     32  C   UNL     1       0.785   1.224   3.118  1.00  0.00     0.016 A 
ATOM     33  C   UNL     1       2.929   1.320   4.903  1.00  0.00     0.010 A 
ATOM     34  C   UNL     1       0.684   0.591   4.360  1.00  0.00     0.010 A 
ATOM     35  C   UNL     1       1.746   0.654   5.272  1.00  0.00    -0.014 A 
BRANCH  35  36
ATOM     36  C   UNL     1       1.553   0.191   6.670  1.00  0.00     0.031 A 
ATOM     37  C   UNL     1       1.588  -1.258   7.055  1.00  0.00     0.074 A 
ATOM     38  C   UNL     1       1.294   1.124   7.607  1.00  0.00     0.049 A 
ATOM     39  N   UNL     1       1.470  -1.795   8.245  1.00  0.00    -0.248 NA
ATOM     40  C   UNL     1       1.772  -2.231   5.971  1.00  0.00     0.031 C 
ATOM     41  C   UNL     1       1.186   2.562   7.351  1.00  0.00     0.029 A 
ATOM     42  N   UNL     1       1.070   1.006   8.954  1.00  0.00    -0.354 N 
ATOM     43  C   UNL     1       1.590  -3.166   8.062  1.00  0.00     0.074 A 
ATOM     44  C   UNL     1       1.741  -3.380   6.635  1.00  0.00     0.031 C 
ATOM     45  C   UNL     1       0.931   3.194   8.506  1.00  0.00     0.029 A 
ATOM     46  C   UNL     1       0.831   2.207   9.575  1.00  0.00     0.049 A 
ATOM     47  H   UNL     1       1.079   0.144   9.429  1.00  0.00     0.167 HD
ATOM     48  C   UNL     1       1.591  -4.150   8.997  1.00  0.00     0.037 A 
ATOM     49  C   UNL     1       0.557   2.485  10.862  1.00  0.00     0.037 A 
ATOM     50  C   UNL     1       1.399  -3.939  10.413  1.00  0.00     0.049 A 
ATOM     51  C   UNL     1       0.508   1.369  11.865  1.00  0.00     0.074 A 
ATOM     52  C   UNL     1       1.413  -4.874  11.437  1.00  0.00     0.029 A 
ATOM     53  N   UNL     1       1.137  -2.712  11.006  1.00  0.00    -0.354 N 
ATOM     54  N   UNL     1       0.710   0.087  11.690  1.00  0.00    -0.248 NA
ATOM     55  C   UNL     1       0.201   1.747  13.251  1.00  0.00     0.031 C 
ATOM     56  C   UNL     1       1.112  -4.221  12.638  1.00  0.00     0.029 A 
ATOM     57  C   UNL     1       0.961  -2.870  12.374  1.00  0.00     0.049 A 
ATOM     58  H   UNL     1       1.084  -1.855  10.526  1.00  0.00     0.167 HD
ATOM     59  C   UNL     1       0.581  -0.492  12.945  1.00  0.00     0.074 A 
ATOM     60  C   UNL     1       0.308   0.584  13.876  1.00  0.00     0.031 C 
ATOM     61  C   UNL     1       0.677  -1.798  13.295  1.00  0.00     0.037 A 
BRANCH  48  62
ATOM     62  C   UNL     1       1.809  -5.557   8.517  1.00  0.00     0.057 A 
ATOM     63  C   UNL     1       0.785  -6.511   8.578  1.00  0.00     0.134 A 
ATOM     64  C   UNL     1       3.057  -5.983   8.040  1.00  0.00     0.134 A 
ATOM     65  F   UNL     1      -0.430  -6.177   9.037  1.00  0.00    -0.206 F 
ATOM     66  C   UNL     1       0.993  -7.834   8.182  1.00  0.00     0.040 A 
ATOM     67  C   UNL     1       3.270  -7.296   7.617  1.00  0.00     0.040 A 
ATOM     68  F   UNL     1       4.082  -5.121   7.955  1.00  0.00    -0.206 F 
ATOM     69  C   UNL     1       2.237  -8.228   7.693  1.00  0.00     0.006 A 
ENDBRANCH  48  62
BRANCH  49  70
ATOM     70  C   UNL     1       0.323   3.887  11.284  1.00  0.00     0.057 A 
ATOM     71  C   UNL     1      -0.834   4.577  10.907  1.00  0.00     0.134 A 
ATOM     72  C   UNL     1       1.241   4.557  12.100  1.00  0.00     0.134 A 
ATOM     73  F   UNL     1      -1.747   3.991  10.119  1.00  0.00    -0.206 F 
ATOM     74  C   UNL     1      -1.071   5.886  11.328  1.00  0.00     0.040 A 
ATOM     75  C   UNL     1       1.004   5.855  12.551  1.00  0.00     0.040 A 
ATOM     76  F   UNL     1       2.360   3.938  12.507  1.00  0.00    -0.206 F 
ATOM     77  C   UNL     1      -0.156   6.524  12.162  1.00  0.00     0.006 A 
ENDBRANCH  49  70
BRANCH  61  78
ATOM     78  C   UNL     1       0.509  -2.119  14.754  1.00  0.00     0.057 A 
ATOM     79  C   UNL     1       1.604  -2.525  15.528  1.00  0.00     0.134 A 
ATOM     80  C   UNL     1      -0.728  -1.999  15.402  1.00  0.00     0.134 A 
ATOM     81  F   UNL     1       2.817  -2.667  14.972  1.00  0.00    -0.206 F 
ATOM     82  C   UNL     1       1.478  -2.787  16.893  1.00  0.00     0.040 A 
ATOM     83  C   UNL     1      -0.860  -2.228  16.773  1.00  0.00     0.040 A 
ATOM     84  F   UNL     1      -1.814  -1.596  14.725  1.00  0.00    -0.206 F 
ATOM     85  C   UNL     1       0.245  -2.626  17.523  1.00  0.00     0.006 A 
ENDBRANCH  61  78
ENDBRANCH  35  36
ENDBRANCH  28  30
ENDBRANCH  27  28
ENDBRANCH  26  27
ENDBRANCH   1  26
TORSDOF 14
