REMARK SMILES O=C(OCCOC(=O)c1cccc(OS(=O)(=O)c2cccc([N+](=O)[O-])c2)c1)c1ccc(-c2c3nc(c(-c4c(F)cccc4F)c4ccc([nH]4)c(-c4c(F)cccc4F)c4nc(c(-c5c(F)cccc5F)c5ccc2[nH]5)C=C4)C=C3)cc1
REMARK SMILES IDX 5 1 4 2 3 3 2 4 1 5 28 6 29 7 81 8 30 9 80 10 31 11 32 12
REMARK SMILES IDX 33 13 74 14 34 15 79 16 73 17 75 18 35 19 78 20 72 21 71 22
REMARK SMILES IDX 36 24 62 25 45 26 61 27 46 28 49 29 60 30 76 31 47 32 48 33
REMARK SMILES IDX 59 35 77 36 50 37 37 38 38 39 43 40 39 41 40 42 42 43 44 44
REMARK SMILES IDX 41 45 63 46 64 47 69 48 65 49 66 50 68 51 70 52 67 53 51 54
REMARK SMILES IDX 52 55 57 56 53 57 54 58 56 59 58 60 55 61 6 62 7 63 8 64
REMARK SMILES IDX 9 65 10 66 27 67 11 68 13 69 12 70 14 71 15 72 16 73 17 74
REMARK SMILES IDX 18 75 19 76 26 77 20 78 22 79 21 80 23 81 24 82 25 83
REMARK H PARENT 75 23 49 34
REMARK Flexibility Score: inf
ROOT
ATOM      1  C   UNL     1       4.241  -2.218  -0.325  1.00  0.00     0.275 C 
ENDROOT
BRANCH   1   2
ATOM      2  C   UNL     1       4.520  -1.142   0.728  1.00  0.00     0.275 C 
BRANCH   2   3
ATOM      3  O   UNL     1       3.379  -0.312   0.997  1.00  0.00    -0.458 OA
BRANCH   3   4
ATOM      4  C   UNL     1       2.994   0.869   0.469  1.00  0.00     0.338 C 
ATOM      5  O   UNL     1       2.048   1.450   1.003  1.00  0.00    -0.246 OA
BRANCH   4   6
ATOM      6  C   UNL     1       3.583   1.516  -0.756  1.00  0.00     0.060 A 
ATOM      7  C   UNL     1       4.735   1.135  -1.454  1.00  0.00     0.016 A 
ATOM      8  C   UNL     1       2.865   2.621  -1.258  1.00  0.00     0.016 A 
ATOM      9  C   UNL     1       5.165   1.826  -2.596  1.00  0.00     0.010 A 
ATOM     10  C   UNL     1       3.277   3.308  -2.401  1.00  0.00     0.010 A 
ATOM     11  C   UNL     1       4.447   2.926  -3.061  1.00  0.00    -0.014 A 
BRANCH  11  12
ATOM     12  C   UNL     1       4.969   3.773  -4.158  1.00  0.00     0.031 A 
ATOM     13  C   UNL     1       5.691   5.014  -3.784  1.00  0.00     0.074 A 
ATOM     14  C   UNL     1       4.684   3.488  -5.440  1.00  0.00     0.049 A 
ATOM     15  N   UNL     1       6.199   5.926  -4.561  1.00  0.00    -0.248 NA
ATOM     16  C   UNL     1       5.831   5.281  -2.345  1.00  0.00     0.031 C 
ATOM     17  C   UNL     1       3.950   2.302  -5.815  1.00  0.00     0.029 A 
ATOM     18  N   UNL     1       4.911   4.119  -6.636  1.00  0.00    -0.354 N 
ATOM     19  C   UNL     1       6.674   6.905  -3.707  1.00  0.00     0.074 A 
ATOM     20  C   UNL     1       6.389   6.479  -2.355  1.00  0.00     0.031 C 
ATOM     21  C   UNL     1       3.735   2.297  -7.135  1.00  0.00     0.029 A 
ATOM     22  C   UNL     1       4.353   3.473  -7.723  1.00  0.00     0.049 A 
ATOM     23  H   UNL     1       5.425   4.955  -6.713  1.00  0.00     0.167 HD
ATOM     24  C   UNL     1       7.272   8.067  -4.049  1.00  0.00     0.037 A 
ATOM     25  C   UNL     1       4.368   3.777  -9.041  1.00  0.00     0.037 A 
ATOM     26  C   UNL     1       7.502   8.441  -5.418  1.00  0.00     0.049 A 
ATOM     27  C   UNL     1       5.181   5.002  -9.398  1.00  0.00     0.074 A 
ATOM     28  C   UNL     1       8.111   9.575  -5.915  1.00  0.00     0.029 A 
ATOM     29  N   UNL     1       7.107   7.677  -6.515  1.00  0.00    -0.354 N 
ATOM     30  N   UNL     1       5.783   5.842  -8.581  1.00  0.00    -0.248 NA
ATOM     31  C   UNL     1       5.364   5.321 -10.816  1.00  0.00     0.031 C 
ATOM     32  C   UNL     1       8.036   9.521  -7.312  1.00  0.00     0.029 A 
ATOM     33  C   UNL     1       7.428   8.330  -7.690  1.00  0.00     0.049 A 
ATOM     34  H   UNL     1       6.664   6.799  -6.461  1.00  0.00     0.167 HD
ATOM     35  C   UNL     1       6.459   6.749  -9.380  1.00  0.00     0.074 A 
ATOM     36  C   UNL     1       6.218   6.335 -10.751  1.00  0.00     0.031 C 
ATOM     37  C   UNL     1       7.187   7.840  -9.029  1.00  0.00     0.037 A 
BRANCH  24  38
ATOM     38  C   UNL     1       7.593   9.002  -2.923  1.00  0.00     0.057 A 
ATOM     39  C   UNL     1       8.550   8.698  -1.943  1.00  0.00     0.134 A 
ATOM     40  C   UNL     1       6.842  10.171  -2.748  1.00  0.00     0.134 A 
ATOM     41  F   UNL     1       9.278   7.574  -2.028  1.00  0.00    -0.206 F 
ATOM     42  C   UNL     1       8.705   9.490  -0.803  1.00  0.00     0.040 A 
ATOM     43  C   UNL     1       7.011  10.988  -1.628  1.00  0.00     0.040 A 
ATOM     44  F   UNL     1       5.902  10.517  -3.639  1.00  0.00    -0.206 F 
ATOM     45  C   UNL     1       7.932  10.638  -0.643  1.00  0.00     0.006 A 
ENDBRANCH  24  38
BRANCH  25  46
ATOM     46  C   UNL     1       3.739   2.847 -10.050  1.00  0.00     0.057 A 
ATOM     47  C   UNL     1       4.466   2.267 -11.101  1.00  0.00     0.134 A 
ATOM     48  C   UNL     1       2.414   2.391  -9.920  1.00  0.00     0.134 A 
ATOM     49  F   UNL     1       5.734   2.627 -11.337  1.00  0.00    -0.206 F 
ATOM     50  C   UNL     1       3.941   1.261 -11.924  1.00  0.00     0.040 A 
ATOM     51  C   UNL     1       1.895   1.343 -10.694  1.00  0.00     0.040 A 
ATOM     52  F   UNL     1       1.610   2.899  -8.973  1.00  0.00    -0.206 F 
ATOM     53  C   UNL     1       2.664   0.766 -11.696  1.00  0.00     0.006 A 
ENDBRANCH  25  46
BRANCH  37  54
ATOM     54  C   UNL     1       7.767   8.651 -10.149  1.00  0.00     0.057 A 
ATOM     55  C   UNL     1       6.953   9.431 -10.980  1.00  0.00     0.134 A 
ATOM     56  C   UNL     1       9.153   8.729 -10.335  1.00  0.00     0.134 A 
ATOM     57  F   UNL     1       5.618   9.397 -10.851  1.00  0.00    -0.206 F 
ATOM     58  C   UNL     1       7.496  10.246 -11.972  1.00  0.00     0.040 A 
ATOM     59  C   UNL     1       9.709   9.565 -11.302  1.00  0.00     0.040 A 
ATOM     60  F   UNL     1       9.987   8.021  -9.558  1.00  0.00    -0.206 F 
ATOM     61  C   UNL     1       8.879  10.323 -12.126  1.00  0.00     0.006 A 
ENDBRANCH  37  54
ENDBRANCH  11  12
ENDBRANCH   4   6
ENDBRANCH   3   4
ENDBRANCH   2   3
ENDBRANCH   1   2
BRANCH   1  62
ATOM     62  O   UNL     1       3.714  -1.683  -1.550  1.00  0.00    -0.458 OA
BRANCH  62  63
ATOM     63  C   UNL     1       2.360  -1.670  -1.655  1.00  0.00     0.338 C 
ATOM     64  O   UNL     1       1.554  -2.074  -0.836  1.00  0.00    -0.246 OA
BRANCH  63  65
ATOM     65  C   UNL     1       1.984  -0.966  -2.896  1.00  0.00     0.063 A 
ATOM     66  C   UNL     1       1.031   0.054  -2.829  1.00  0.00     0.016 A 
ATOM     67  C   UNL     1       2.598  -1.294  -4.111  1.00  0.00     0.064 A 
ATOM     68  C   UNL     1       0.698   0.757  -3.985  1.00  0.00     0.005 A 
ATOM     69  C   UNL     1       2.279  -0.582  -5.268  1.00  0.00     0.143 A 
ATOM     70  C   UNL     1       1.300   0.423  -5.204  1.00  0.00     0.048 A 
BRANCH  69  71
ATOM     71  O   UNL     1       2.936  -0.742  -6.476  1.00  0.00    -0.379 OA
BRANCH  71  72
ATOM     72  S   UNL     1       4.447  -1.381  -6.524  1.00  0.00     0.339 S 
ATOM     73  O   UNL     1       5.292  -0.699  -5.561  1.00  0.00    -0.181 OA
ATOM     74  O   UNL     1       4.320  -2.827  -6.482  1.00  0.00    -0.181 OA
BRANCH  72  75
ATOM     75  C   UNL     1       5.123  -0.989  -8.143  1.00  0.00     0.112 A 
ATOM     76  C   UNL     1       4.950  -1.912  -9.184  1.00  0.00     0.024 A 
ATOM     77  C   UNL     1       6.008   0.090  -8.296  1.00  0.00     0.109 A 
ATOM     78  C   UNL     1       5.660  -1.764 -10.379  1.00  0.00     0.009 A 
ATOM     79  C   UNL     1       6.712   0.228  -9.502  1.00  0.00     0.270 A 
ATOM     80  C   UNL     1       6.546  -0.698 -10.541  1.00  0.00     0.086 A 
BRANCH  79  81
ATOM     81  N   UNL     1       7.646   1.347  -9.687  1.00  0.00     0.062 N 
ATOM     82  O   UNL     1       8.502   1.236 -10.576  1.00  0.00    -0.258 OA
ATOM     83  O   UNL     1       7.509   2.332  -8.953  1.00  0.00    -0.258 OA
ENDBRANCH  79  81
ENDBRANCH  72  75
ENDBRANCH  71  72
ENDBRANCH  69  71
ENDBRANCH  63  65
ENDBRANCH  62  63
ENDBRANCH   1  62
TORSDOF 15
