REMARK SMILES C[C@]1(C(=O)OCCOC(=O)c2ccc(-c3c4nc(c(-c5c(F)cccc5F)c5ccc([nH]5)c(-c5c(F)cccc5F)c5nc(c(-c6c(F)cccc6F)c6ccc3[nH]6)C=C5)C=C4)cc2)[NH2+]C2(C(=O)c3ccccc3C2=O)[C@@H]2C(=O)N(c3ccccc3)C(=O)[C@H]21
REMARK SMILES IDX 7 1 6 2 5 3 3 4 4 5 2 6 1 7 65 8 89 9 66 10 77 13 87 14
REMARK SMILES IDX 67 15 75 16 78 17 80 18 88 19 68 20 69 21 74 22 76 23 79 24
REMARK SMILES IDX 70 25 73 26 71 27 72 28 81 29 82 30 86 31 83 32 85 33 84 34
REMARK SMILES IDX 8 35 9 36 10 37 11 38 12 39 64 40 13 41 63 42 14 43 15 44
REMARK SMILES IDX 16 45 57 46 17 47 62 48 56 49 58 50 18 51 61 52 55 53 54 54
REMARK SMILES IDX 19 56 45 57 28 58 44 59 29 60 32 61 43 62 59 63 30 64 31 65
REMARK SMILES IDX 42 67 60 68 33 69 20 70 21 71 26 72 22 73 23 74 25 75 27 76
REMARK SMILES IDX 24 77 46 78 47 79 52 80 48 81 49 82 51 83 53 84 50 85 34 86
REMARK SMILES IDX 35 87 40 88 36 89 37 90 39 91 41 92 38 93
REMARK H PARENT 65 11 65 12 58 55 32 66
REMARK Flexibility Score: inf
ROOT
ATOM      1  C   UNL     1       3.429  -1.306   4.185  1.00  0.00     0.275 C 
ENDROOT
BRANCH   1   2
ATOM      2  C   UNL     1       2.751   0.063   4.222  1.00  0.00     0.274 C 
BRANCH   2   3
ATOM      3  O   UNL     1       1.560   0.068   3.412  1.00  0.00    -0.457 OA
BRANCH   3   4
ATOM      4  C   UNL     1       1.624   0.662   2.189  1.00  0.00     0.368 C 
ATOM      5  O   UNL     1       2.631   1.200   1.748  1.00  0.00    -0.245 OA
BRANCH   4   6
ATOM      6  C   UNL     1       0.240   0.677   1.461  1.00  0.00     0.205 C 
ATOM      7  C   UNL     1       0.361   0.436  -0.043  1.00  0.00     0.093 C 
ATOM      8  N   UNL     1      -0.734  -0.312   2.057  1.00  0.00    -0.313 N 
ATOM      9  C   UNL     1      -0.455   1.980   1.726  1.00  0.00     0.172 C 
ATOM     10  C   UNL     1      -1.699   0.461   2.935  1.00  0.00     0.237 C 
ATOM     11  H   UNL     1      -0.230  -1.001   2.617  1.00  0.00     0.348 HD
ATOM     12  H   UNL     1      -1.238  -0.805   1.320  1.00  0.00     0.348 HD
ATOM     13  C   UNL     1      -0.986   1.761   3.126  1.00  0.00     0.177 C 
ATOM     14  C   UNL     1       0.203   3.301   1.843  1.00  0.00     0.244 C 
ATOM     15  C   UNL     1      -3.074   0.490   2.270  1.00  0.00     0.232 C 
ATOM     16  C   UNL     1      -1.949  -0.327   4.220  1.00  0.00     0.232 C 
ATOM     17  C   UNL     1      -1.473   3.136   3.422  1.00  0.00     0.245 C 
ATOM     18  N   UNL     1      -0.535   3.973   2.810  1.00  0.00    -0.250 N 
ATOM     19  O   UNL     1       1.126   3.680   1.144  1.00  0.00    -0.273 OA
ATOM     20  O   UNL     1      -3.373   1.016   1.213  1.00  0.00    -0.286 OA
ATOM     21  C   UNL     1      -3.977  -0.352   3.050  1.00  0.00     0.036 A 
ATOM     22  C   UNL     1      -3.323  -0.836   4.176  1.00  0.00     0.036 A 
ATOM     23  O   UNL     1      -1.183  -0.522   5.147  1.00  0.00    -0.286 OA
ATOM     24  O   UNL     1      -2.417   3.397   4.145  1.00  0.00    -0.273 OA
ATOM     25  C   UNL     1      -5.281  -0.700   2.753  1.00  0.00     0.013 A 
ATOM     26  C   UNL     1      -3.953  -1.687   5.064  1.00  0.00     0.013 A 
ATOM     27  C   UNL     1      -5.934  -1.557   3.642  1.00  0.00     0.001 A 
ATOM     28  C   UNL     1      -5.276  -2.045   4.788  1.00  0.00     0.001 A 
BRANCH  18  29
ATOM     29  C   UNL     1      -0.251   5.304   3.176  1.00  0.00     0.052 A 
ATOM     30  C   UNL     1       0.177   6.230   2.214  1.00  0.00     0.027 A 
ATOM     31  C   UNL     1      -0.259   5.680   4.524  1.00  0.00     0.027 A 
ATOM     32  C   UNL     1       0.603   7.504   2.588  1.00  0.00     0.002 A 
ATOM     33  C   UNL     1       0.210   6.942   4.901  1.00  0.00     0.002 A 
ATOM     34  C   UNL     1       0.636   7.852   3.934  1.00  0.00     0.000 A 
ENDBRANCH  18  29
ENDBRANCH   4   6
ENDBRANCH   3   4
ENDBRANCH   2   3
ENDBRANCH   1   2
BRANCH   1  35
ATOM     35  O   UNL     1       4.007  -1.554   2.892  1.00  0.00    -0.458 OA
BRANCH  35  36
ATOM     36  C   UNL     1       3.204  -2.211   2.026  1.00  0.00     0.338 C 
ATOM     37  O   UNL     1       2.095  -2.670   2.225  1.00  0.00    -0.246 OA
BRANCH  36  38
ATOM     38  C   UNL     1       3.815  -2.179   0.694  1.00  0.00     0.060 A 
ATOM     39  C   UNL     1       4.748  -3.126   0.298  1.00  0.00     0.016 A 
ATOM     40  C   UNL     1       3.350  -1.231  -0.210  1.00  0.00     0.016 A 
ATOM     41  C   UNL     1       5.228  -3.084  -1.014  1.00  0.00     0.010 A 
ATOM     42  C   UNL     1       3.741  -1.250  -1.536  1.00  0.00     0.010 A 
ATOM     43  C   UNL     1       4.718  -2.153  -1.944  1.00  0.00    -0.014 A 
BRANCH  43  44
ATOM     44  C   UNL     1       5.200  -2.113  -3.343  1.00  0.00     0.031 A 
ATOM     45  C   UNL     1       5.862  -0.875  -3.892  1.00  0.00     0.074 A 
ATOM     46  C   UNL     1       5.001  -3.190  -4.124  1.00  0.00     0.049 A 
ATOM     47  N   UNL     1       6.410  -0.687  -5.066  1.00  0.00    -0.248 NA
ATOM     48  C   UNL     1       5.883   0.318  -3.029  1.00  0.00     0.031 C 
ATOM     49  C   UNL     1       4.273  -4.399  -3.726  1.00  0.00     0.029 A 
ATOM     50  N   UNL     1       5.409  -3.454  -5.404  1.00  0.00    -0.354 N 
ATOM     51  C   UNL     1       6.840   0.635  -5.075  1.00  0.00     0.074 A 
ATOM     52  C   UNL     1       6.410   1.230  -3.832  1.00  0.00     0.031 C 
ATOM     53  C   UNL     1       4.357  -5.305  -4.712  1.00  0.00     0.029 A 
ATOM     54  C   UNL     1       5.106  -4.727  -5.821  1.00  0.00     0.049 A 
ATOM     55  H   UNL     1       5.874  -2.796  -5.969  1.00  0.00     0.167 HD
ATOM     56  C   UNL     1       7.568   1.282  -6.016  1.00  0.00     0.037 A 
ATOM     57  C   UNL     1       5.421  -5.359  -6.965  1.00  0.00     0.037 A 
ATOM     58  C   UNL     1       8.000   0.672  -7.245  1.00  0.00     0.049 A 
ATOM     59  C   UNL     1       6.236  -4.623  -7.991  1.00  0.00     0.074 A 
ATOM     60  C   UNL     1       8.788   1.206  -8.249  1.00  0.00     0.029 A 
ATOM     61  N   UNL     1       7.669  -0.618  -7.638  1.00  0.00    -0.354 N 
ATOM     62  N   UNL     1       6.725  -3.407  -7.944  1.00  0.00    -0.248 NA
ATOM     63  C   UNL     1       6.547  -5.351  -9.226  1.00  0.00     0.031 C 
ATOM     64  C   UNL     1       8.893   0.256  -9.271  1.00  0.00     0.029 A 
ATOM     65  C   UNL     1       8.218  -0.890  -8.879  1.00  0.00     0.049 A 
ATOM     66  H   UNL     1       7.123  -1.246  -7.111  1.00  0.00     0.167 HD
ATOM     67  C   UNL     1       7.421  -3.231  -9.132  1.00  0.00     0.074 A 
ATOM     68  C   UNL     1       7.313  -4.478  -9.864  1.00  0.00     0.031 C 
ATOM     69  C   UNL     1       8.087  -2.140  -9.585  1.00  0.00     0.037 A 
BRANCH  56  70
ATOM     70  C   UNL     1       7.953   2.709  -5.736  1.00  0.00     0.057 A 
ATOM     71  C   UNL     1       7.445   3.760  -6.510  1.00  0.00     0.134 A 
ATOM     72  C   UNL     1       8.841   3.046  -4.703  1.00  0.00     0.134 A 
ATOM     73  F   UNL     1       6.599   3.515  -7.522  1.00  0.00    -0.206 F 
ATOM     74  C   UNL     1       7.799   5.089  -6.264  1.00  0.00     0.040 A 
ATOM     75  C   UNL     1       9.177   4.372  -4.426  1.00  0.00     0.040 A 
ATOM     76  F   UNL     1       9.361   2.092  -3.916  1.00  0.00    -0.206 F 
ATOM     77  C   UNL     1       8.659   5.399  -5.212  1.00  0.00     0.006 A 
ENDBRANCH  56  70
BRANCH  57  78
ATOM     78  C   UNL     1       5.013  -6.771  -7.178  1.00  0.00     0.057 A 
ATOM     79  C   UNL     1       3.671  -7.129  -7.344  1.00  0.00     0.134 A 
ATOM     80  C   UNL     1       5.964  -7.797  -7.230  1.00  0.00     0.134 A 
ATOM     81  F   UNL     1       2.708  -6.196  -7.289  1.00  0.00    -0.206 F 
ATOM     82  C   UNL     1       3.288  -8.454  -7.556  1.00  0.00     0.040 A 
ATOM     83  C   UNL     1       5.599  -9.123  -7.471  1.00  0.00     0.040 A 
ATOM     84  F   UNL     1       7.268  -7.517  -7.087  1.00  0.00    -0.206 F 
ATOM     85  C   UNL     1       4.256  -9.454  -7.632  1.00  0.00     0.006 A 
ENDBRANCH  57  78
BRANCH  69  86
ATOM     86  C   UNL     1       8.763  -2.268 -10.918  1.00  0.00     0.057 A 
ATOM     87  C   UNL     1      10.161  -2.300 -11.007  1.00  0.00     0.134 A 
ATOM     88  C   UNL     1       8.035  -2.351 -12.112  1.00  0.00     0.134 A 
ATOM     89  F   UNL     1      10.917  -2.213  -9.903  1.00  0.00    -0.206 F 
ATOM     90  C   UNL     1      10.809  -2.415 -12.236  1.00  0.00     0.040 A 
ATOM     91  C   UNL     1       8.672  -2.500 -13.344  1.00  0.00     0.040 A 
ATOM     92  F   UNL     1       6.693  -2.340 -12.092  1.00  0.00    -0.206 F 
ATOM     93  C   UNL     1      10.064  -2.527 -13.408  1.00  0.00     0.006 A 
ENDBRANCH  69  86
ENDBRANCH  43  44
ENDBRANCH  36  38
ENDBRANCH  35  36
ENDBRANCH   1  35
TORSDOF 12
