REMARK SMILES O=C(OCCOC(=O)[C@H]1CC=CC[C@@H]1C(=O)N[C@@H]1CCCN(c2ccccc2F)C1=O)c1ccc(-c2c3nc(c(-c4c(F)cccc4F)c4ccc([nH]4)c(-c4c(F)cccc4F)c4nc(c(-c5c(F)cccc5F)c5ccc2[nH]5)C=C4)C=C3)cc1
REMARK SMILES IDX 5 1 4 2 3 3 2 4 1 5 32 6 33 7 85 8 34 9 84 10 35 11 36 12
REMARK SMILES IDX 37 13 78 14 38 15 83 16 77 17 79 18 39 19 82 20 76 21 75 22
REMARK SMILES IDX 40 24 66 25 49 26 65 27 50 28 53 29 64 30 80 31 51 32 52 33
REMARK SMILES IDX 63 35 81 36 54 37 41 38 42 39 47 40 43 41 44 42 46 43 48 44
REMARK SMILES IDX 45 45 67 46 68 47 73 48 69 49 70 50 72 51 74 52 71 53 55 54
REMARK SMILES IDX 56 55 61 56 57 57 58 58 60 59 62 60 59 61 6 62 7 63 8 64
REMARK SMILES IDX 9 65 10 66 14 67 11 68 13 69 12 70 15 71 16 72 17 73 18 75
REMARK SMILES IDX 19 76 30 77 20 78 22 79 31 80 21 81 23 82 24 83 28 84 25 85
REMARK SMILES IDX 27 86 29 87 26 88
REMARK H PARENT 79 23 53 34 17 74
REMARK Flexibility Score: inf
ROOT
ATOM      1  C   UNL     1       2.724   1.939  -0.789  1.00  0.00     0.274 C 
ENDROOT
BRANCH   1   2
ATOM      2  C   UNL     1       3.930   2.672  -1.366  1.00  0.00     0.275 C 
BRANCH   2   3
ATOM      3  O   UNL     1       4.775   3.301  -0.379  1.00  0.00    -0.458 OA
BRANCH   3   4
ATOM      4  C   UNL     1       4.670   4.476   0.287  1.00  0.00     0.338 C 
ATOM      5  O   UNL     1       5.549   4.768   1.097  1.00  0.00    -0.246 OA
BRANCH   4   6
ATOM      6  C   UNL     1       3.509   5.421   0.181  1.00  0.00     0.060 A 
ATOM      7  C   UNL     1       2.687   5.591  -0.935  1.00  0.00     0.016 A 
ATOM      8  C   UNL     1       3.242   6.221   1.312  1.00  0.00     0.016 A 
ATOM      9  C   UNL     1       1.580   6.457  -0.897  1.00  0.00     0.010 A 
ATOM     10  C   UNL     1       2.133   7.077   1.361  1.00  0.00     0.010 A 
ATOM     11  C   UNL     1       1.281   7.193   0.254  1.00  0.00    -0.014 A 
BRANCH  11  12
ATOM     12  C   UNL     1       0.178   8.190   0.244  1.00  0.00     0.031 A 
ATOM     13  C   UNL     1       0.549   9.635   0.082  1.00  0.00     0.074 A 
ATOM     14  C   UNL     1      -1.123   7.833   0.299  1.00  0.00     0.049 A 
ATOM     15  N   UNL     1      -0.239  10.667  -0.058  1.00  0.00    -0.248 NA
ATOM     16  C   UNL     1       1.985   9.954  -0.007  1.00  0.00     0.031 C 
ATOM     17  C   UNL     1      -1.633   6.465   0.295  1.00  0.00     0.029 A 
ATOM     18  N   UNL     1      -2.268   8.593   0.381  1.00  0.00    -0.354 N 
ATOM     19  C   UNL     1       0.598  11.726  -0.374  1.00  0.00     0.074 A 
ATOM     20  C   UNL     1       1.958  11.252  -0.273  1.00  0.00     0.031 C 
ATOM     21  C   UNL     1      -2.966   6.476   0.476  1.00  0.00     0.029 A 
ATOM     22  C   UNL     1      -3.416   7.855   0.587  1.00  0.00     0.049 A 
ATOM     23  H   UNL     1      -2.268   9.574   0.299  1.00  0.00     0.167 HD
ATOM     24  C   UNL     1       0.251  12.961  -0.799  1.00  0.00     0.037 A 
ATOM     25  C   UNL     1      -4.675   8.259   0.850  1.00  0.00     0.037 A 
ATOM     26  C   UNL     1      -1.103  13.437  -0.850  1.00  0.00     0.049 A 
ATOM     27  C   UNL     1      -4.991   9.717   0.713  1.00  0.00     0.074 A 
ATOM     28  C   UNL     1      -1.568  14.667  -1.273  1.00  0.00     0.029 A 
ATOM     29  N   UNL     1      -2.206  12.708  -0.433  1.00  0.00    -0.354 N 
ATOM     30  N   UNL     1      -4.191  10.699   0.387  1.00  0.00    -0.248 NA
ATOM     31  C   UNL     1      -6.396  10.104   0.892  1.00  0.00     0.031 C 
ATOM     32  C   UNL     1      -2.948  14.706  -1.051  1.00  0.00     0.029 A 
ATOM     33  C   UNL     1      -3.348  13.480  -0.543  1.00  0.00     0.049 A 
ATOM     34  H   UNL     1      -2.180  11.779  -0.107  1.00  0.00     0.167 HD
ATOM     35  C   UNL     1      -5.006  11.810   0.243  1.00  0.00     0.074 A 
ATOM     36  C   UNL     1      -6.354  11.388   0.569  1.00  0.00     0.031 C 
ATOM     37  C   UNL     1      -4.674  13.052  -0.181  1.00  0.00     0.037 A 
BRANCH  24  38
ATOM     38  C   UNL     1       1.350  13.854  -1.281  1.00  0.00     0.057 A 
ATOM     39  C   UNL     1       1.746  14.976  -0.548  1.00  0.00     0.134 A 
ATOM     40  C   UNL     1       1.981  13.622  -2.512  1.00  0.00     0.134 A 
ATOM     41  F   UNL     1       1.184  15.247   0.639  1.00  0.00    -0.206 F 
ATOM     42  C   UNL     1       2.724  15.848  -1.030  1.00  0.00     0.040 A 
ATOM     43  C   UNL     1       2.972  14.476  -2.995  1.00  0.00     0.040 A 
ATOM     44  F   UNL     1       1.657  12.550  -3.252  1.00  0.00    -0.206 F 
ATOM     45  C   UNL     1       3.339  15.599  -2.256  1.00  0.00     0.006 A 
ENDBRANCH  24  38
BRANCH  25  46
ATOM     46  C   UNL     1      -5.749   7.323   1.274  1.00  0.00     0.057 A 
ATOM     47  C   UNL     1      -6.090   7.224   2.630  1.00  0.00     0.134 A 
ATOM     48  C   UNL     1      -6.509   6.579   0.371  1.00  0.00     0.134 A 
ATOM     49  F   UNL     1      -5.432   7.955   3.542  1.00  0.00    -0.206 F 
ATOM     50  C   UNL     1      -7.092   6.364   3.083  1.00  0.00     0.040 A 
ATOM     51  C   UNL     1      -7.537   5.735   0.805  1.00  0.00     0.040 A 
ATOM     52  F   UNL     1      -6.283   6.683  -0.946  1.00  0.00    -0.206 F 
ATOM     53  C   UNL     1      -7.818   5.611   2.166  1.00  0.00     0.006 A 
ENDBRANCH  25  46
BRANCH  37  54
ATOM     54  C   UNL     1      -5.795  14.025  -0.353  1.00  0.00     0.057 A 
ATOM     55  C   UNL     1      -6.203  14.409  -1.637  1.00  0.00     0.134 A 
ATOM     56  C   UNL     1      -6.455  14.595   0.740  1.00  0.00     0.134 A 
ATOM     57  F   UNL     1      -5.610  13.892  -2.724  1.00  0.00    -0.206 F 
ATOM     58  C   UNL     1      -7.219  15.342  -1.827  1.00  0.00     0.040 A 
ATOM     59  C   UNL     1      -7.496  15.505   0.562  1.00  0.00     0.040 A 
ATOM     60  F   UNL     1      -6.127  14.242   1.992  1.00  0.00    -0.206 F 
ATOM     61  C   UNL     1      -7.873  15.888  -0.725  1.00  0.00     0.006 A 
ENDBRANCH  37  54
ENDBRANCH  11  12
ENDBRANCH   4   6
ENDBRANCH   3   4
ENDBRANCH   2   3
ENDBRANCH   1   2
BRANCH   1  62
ATOM     62  O   UNL     1       2.103   2.723   0.227  1.00  0.00    -0.462 OA
BRANCH  62  63
ATOM     63  C   UNL     1       2.264   2.345   1.527  1.00  0.00     0.310 C 
ATOM     64  O   UNL     1       2.865   1.337   1.884  1.00  0.00    -0.252 OA
BRANCH  63  65
ATOM     65  C   UNL     1       1.661   3.394   2.464  1.00  0.00     0.115 C 
ATOM     66  C   UNL     1       0.475   4.076   1.777  1.00  0.00     0.043 C 
ATOM     67  C   UNL     1       1.271   2.797   3.825  1.00  0.00     0.097 C 
ATOM     68  C   UNL     1      -0.773   3.249   1.814  1.00  0.00    -0.030 C 
ATOM     69  C   UNL     1       0.068   1.857   3.720  1.00  0.00     0.041 C 
ATOM     70  C   UNL     1      -0.935   2.232   2.668  1.00  0.00    -0.030 C 
BRANCH  67  71
ATOM     71  C   UNL     1       1.319   3.815   4.986  1.00  0.00     0.224 C 
ATOM     72  O   UNL     1       2.353   3.877   5.668  1.00  0.00    -0.275 OA
ATOM     73  N   UNL     1       0.370   4.724   5.323  1.00  0.00    -0.344 N 
ATOM     74  H   UNL     1       0.614   5.282   6.097  1.00  0.00     0.164 HD
BRANCH  73  75
ATOM     75  C   UNL     1      -0.934   5.037   4.767  1.00  0.00     0.172 C 
ATOM     76  C   UNL     1      -1.416   6.444   5.091  1.00  0.00     0.037 C 
ATOM     77  C   UNL     1      -2.049   4.060   5.146  1.00  0.00     0.249 C 
ATOM     78  C   UNL     1      -2.548   6.752   4.127  1.00  0.00     0.025 C 
ATOM     79  N   UNL     1      -3.197   4.275   4.364  1.00  0.00    -0.308 N 
ATOM     80  O   UNL     1      -1.840   3.140   5.927  1.00  0.00    -0.272 OA
ATOM     81  C   UNL     1      -3.607   5.645   4.053  1.00  0.00     0.126 C 
BRANCH  79  82
ATOM     82  C   UNL     1      -4.035   3.182   3.945  1.00  0.00     0.080 A 
ATOM     83  C   UNL     1      -4.568   3.177   2.640  1.00  0.00     0.029 A 
ATOM     84  C   UNL     1      -4.247   2.030   4.717  1.00  0.00     0.146 A 
ATOM     85  C   UNL     1      -5.220   2.052   2.117  1.00  0.00     0.002 A 
ATOM     86  C   UNL     1      -4.890   0.905   4.198  1.00  0.00     0.041 A 
ATOM     87  F   UNL     1      -3.927   1.990   6.016  1.00  0.00    -0.205 F 
ATOM     88  C   UNL     1      -5.366   0.907   2.892  1.00  0.00     0.003 A 
ENDBRANCH  79  82
ENDBRANCH  73  75
ENDBRANCH  67  71
ENDBRANCH  63  65
ENDBRANCH  62  63
ENDBRANCH   1  62
TORSDOF 14
