REMARK SMILES COc1c[nH]c(C[N@H+]2CCC[C@@H](c3ccc(C(=O)OCCOC(=O)c4ccc(-c5c6nc(c(-c7c(F)cccc7F)c7ccc([nH]7)c(-c7c(F)cccc7F)c7nc(c(-c8c(F)cccc8F)c8ccc5[nH]8)C=C7)C=C6)cc4)cc3)C2)cc1=O
REMARK SMILES IDX 20 1 19 2 17 3 18 4 16 5 13 6 14 7 80 8 15 9 79 10 12 11
REMARK SMILES IDX 8 12 9 13 81 14 10 16 11 17 7 18 6 19 3 20 4 21 83 22 5 23
REMARK SMILES IDX 82 24 84 25 2 27 1 28 21 29 22 30 23 31 24 32 25 33 26 34
REMARK SMILES IDX 78 35 27 36 77 37 28 38 29 39 30 40 71 41 31 42 76 43 70 44
REMARK SMILES IDX 72 45 32 46 75 47 69 48 68 49 33 51 59 52 42 53 58 54 43 55
REMARK SMILES IDX 46 56 57 57 73 58 44 59 45 60 56 62 74 63 47 64 34 65 35 66
REMARK SMILES IDX 40 67 36 68 37 69 39 70 41 71 38 72 60 73 61 74 66 75 62 76
REMARK SMILES IDX 63 77 65 78 67 79 64 80 48 81 49 82 54 83 50 84 51 85 53 86
REMARK SMILES IDX 55 87 52 88
REMARK H PARENT 8 15 5 26 72 50 46 61
REMARK Flexibility Score: inf
ROOT
ATOM      1  C   UNL     1      -7.808   8.244  -2.461  1.00  0.00     0.275 C 
ENDROOT
BRANCH   1   2
ATOM      2  O   UNL     1      -6.410   8.579  -2.336  1.00  0.00    -0.458 OA
BRANCH   2   3
ATOM      3  C   UNL     1      -5.653   7.630  -1.736  1.00  0.00     0.338 C 
ATOM      4  O   UNL     1      -6.044   6.579  -1.253  1.00  0.00    -0.246 OA
BRANCH   3   5
ATOM      5  C   UNL     1      -4.216   7.962  -1.828  1.00  0.00     0.060 A 
ATOM      6  C   UNL     1      -1.438   8.380  -1.780  1.00  0.00    -0.039 A 
ATOM      7  C   UNL     1      -1.968   7.125  -2.114  1.00  0.00     0.005 A 
ATOM      8  C   UNL     1      -2.324   9.443  -1.541  1.00  0.00     0.005 A 
ATOM      9  C   UNL     1      -3.337   6.911  -2.088  1.00  0.00     0.016 A 
ATOM     10  C   UNL     1      -3.713   9.242  -1.583  1.00  0.00     0.016 A 
BRANCH   6  11
ATOM     11  C   UNL     1       0.061   8.516  -1.531  1.00  0.00     0.074 C 
ATOM     12  N   UNL     1       1.873   7.438  -0.102  1.00  0.00    -0.329 N 
ATOM     13  C   UNL     1       2.612   7.075  -1.318  1.00  0.00     0.262 C 
ATOM     14  C   UNL     1       0.438   7.565  -0.367  1.00  0.00     0.270 C 
ATOM     15  H   UNL     1       2.206   8.355   0.192  1.00  0.00     0.348 HD
ATOM     16  C   UNL     1       2.376   8.095  -2.434  1.00  0.00     0.062 C 
ATOM     17  C   UNL     1       0.893   8.203  -2.783  1.00  0.00     0.020 C 
BRANCH  12  18
ATOM     18  C   UNL     1       2.155   6.511   1.018  1.00  0.00     0.317 C 
BRANCH  18  19
ATOM     19  C   UNL     1       1.839   5.032   0.796  1.00  0.00     0.074 A 
ATOM     20  C   UNL     1       1.017   2.347   0.245  1.00  0.00     0.182 A 
ATOM     21  C   UNL     1       0.150   3.341   0.476  1.00  0.00     0.133 A 
ATOM     22  C   UNL     1       2.479   2.706   0.348  1.00  0.00     0.223 A 
ATOM     23  N   UNL     1       0.518   4.619   0.794  1.00  0.00    -0.357 N 
ATOM     24  C   UNL     1       2.823   4.133   0.613  1.00  0.00     0.083 A 
ATOM     25  O   UNL     1       3.386   1.888   0.222  1.00  0.00    -0.286 OA
ATOM     26  H   UNL     1      -0.182   5.269   1.029  1.00  0.00     0.166 HD
BRANCH  20  27
ATOM     27  O   UNL     1       0.549   1.086  -0.070  1.00  0.00    -0.491 OA
ATOM     28  C   UNL     1       1.292   0.033   0.529  1.00  0.00     0.278 C 
ENDBRANCH  20  27
ENDBRANCH  18  19
ENDBRANCH  12  18
ENDBRANCH   6  11
ENDBRANCH   3   5
ENDBRANCH   2   3
ENDBRANCH   1   2
BRANCH   1  29
ATOM     29  C   UNL     1      -8.095   7.626  -3.831  1.00  0.00     0.275 C 
BRANCH  29  30
ATOM     30  O   UNL     1      -7.387   6.379  -3.967  1.00  0.00    -0.458 OA
BRANCH  30  31
ATOM     31  C   UNL     1      -6.932   6.099  -5.212  1.00  0.00     0.338 C 
ATOM     32  O   UNL     1      -7.113   6.762  -6.220  1.00  0.00    -0.246 OA
BRANCH  31  33
ATOM     33  C   UNL     1      -6.136   4.849  -5.213  1.00  0.00     0.060 A 
ATOM     34  C   UNL     1      -5.268   4.551  -4.166  1.00  0.00     0.016 A 
ATOM     35  C   UNL     1      -6.155   4.024  -6.338  1.00  0.00     0.016 A 
ATOM     36  C   UNL     1      -4.320   3.530  -4.300  1.00  0.00     0.010 A 
ATOM     37  C   UNL     1      -5.288   2.925  -6.417  1.00  0.00     0.010 A 
ATOM     38  C   UNL     1      -4.308   2.700  -5.432  1.00  0.00    -0.014 A 
BRANCH  38  39
ATOM     39  C   UNL     1      -3.245   1.661  -5.632  1.00  0.00     0.031 A 
ATOM     40  C   UNL     1      -2.420   1.654  -6.903  1.00  0.00     0.074 A 
ATOM     41  C   UNL     1      -2.988   0.721  -4.698  1.00  0.00     0.049 A 
ATOM     42  N   UNL     1      -1.591   0.743  -7.353  1.00  0.00    -0.248 NA
ATOM     43  C   UNL     1      -2.563   2.815  -7.795  1.00  0.00     0.031 C 
ATOM     44  C   UNL     1      -3.658   0.603  -3.403  1.00  0.00     0.029 A 
ATOM     45  N   UNL     1      -2.080  -0.315  -4.691  1.00  0.00    -0.354 N 
ATOM     46  C   UNL     1      -1.186   1.181  -8.610  1.00  0.00     0.074 A 
ATOM     47  C   UNL     1      -1.855   2.441  -8.851  1.00  0.00     0.031 C 
ATOM     48  C   UNL     1      -3.105  -0.404  -2.709  1.00  0.00     0.029 A 
ATOM     49  C   UNL     1      -2.107  -1.070  -3.541  1.00  0.00     0.049 A 
ATOM     50  H   UNL     1      -1.468  -0.498  -5.440  1.00  0.00     0.167 HD
ATOM     51  C   UNL     1      -0.333   0.595  -9.484  1.00  0.00     0.037 A 
ATOM     52  C   UNL     1      -1.434  -2.188  -3.198  1.00  0.00     0.037 A 
ATOM     53  C   UNL     1       0.426  -0.598  -9.215  1.00  0.00     0.049 A 
ATOM     54  C   UNL     1      -0.460  -2.795  -4.172  1.00  0.00     0.074 A 
ATOM     55  C   UNL     1       1.341  -1.243 -10.032  1.00  0.00     0.029 A 
ATOM     56  N   UNL     1       0.387  -1.305  -8.025  1.00  0.00    -0.354 N 
ATOM     57  N   UNL     1      -0.118  -2.381  -5.367  1.00  0.00    -0.248 NA
ATOM     58  C   UNL     1       0.216  -4.032  -3.752  1.00  0.00     0.031 C 
ATOM     59  C   UNL     1       1.846  -2.349  -9.339  1.00  0.00     0.029 A 
ATOM     60  C   UNL     1       1.262  -2.377  -8.085  1.00  0.00     0.049 A 
ATOM     61  H   UNL     1      -0.179  -1.079  -7.252  1.00  0.00     0.167 HD
ATOM     62  C   UNL     1       0.834  -3.284  -5.824  1.00  0.00     0.074 A 
ATOM     63  C   UNL     1       1.031  -4.258  -4.772  1.00  0.00     0.031 C 
ATOM     64  C   UNL     1       1.479  -3.313  -7.015  1.00  0.00     0.037 A 
BRANCH  51  65
ATOM     65  C   UNL     1      -0.181   1.227 -10.837  1.00  0.00     0.057 A 
ATOM     66  C   UNL     1       0.559   2.398 -11.037  1.00  0.00     0.134 A 
ATOM     67  C   UNL     1      -0.749   0.619 -11.965  1.00  0.00     0.134 A 
ATOM     68  F   UNL     1       1.117   3.035  -9.997  1.00  0.00    -0.206 F 
ATOM     69  C   UNL     1       0.712   2.954 -12.309  1.00  0.00     0.040 A 
ATOM     70  C   UNL     1      -0.584   1.152 -13.244  1.00  0.00     0.040 A 
ATOM     71  F   UNL     1      -1.463  -0.511 -11.843  1.00  0.00    -0.206 F 
ATOM     72  C   UNL     1       0.146   2.326 -13.418  1.00  0.00     0.006 A 
ENDBRANCH  51  65
BRANCH  52  73
ATOM     73  C   UNL     1      -1.654  -2.811  -1.863  1.00  0.00     0.057 A 
ATOM     74  C   UNL     1      -0.622  -2.876  -0.920  1.00  0.00     0.134 A 
ATOM     75  C   UNL     1      -2.890  -3.354  -1.492  1.00  0.00     0.134 A 
ATOM     76  F   UNL     1       0.601  -2.420  -1.228  1.00  0.00    -0.206 F 
ATOM     77  C   UNL     1      -0.811  -3.441   0.343  1.00  0.00     0.040 A 
ATOM     78  C   UNL     1      -3.103  -3.894  -0.222  1.00  0.00     0.040 A 
ATOM     79  F   UNL     1      -3.920  -3.346  -2.351  1.00  0.00    -0.206 F 
ATOM     80  C   UNL     1      -2.061  -3.939   0.701  1.00  0.00     0.006 A 
ENDBRANCH  52  73
BRANCH  64  81
ATOM     81  C   UNL     1       2.495  -4.397  -7.214  1.00  0.00     0.057 A 
ATOM     82  C   UNL     1       2.119  -5.725  -7.453  1.00  0.00     0.134 A 
ATOM     83  C   UNL     1       3.864  -4.107  -7.174  1.00  0.00     0.134 A 
ATOM     84  F   UNL     1       0.823  -6.068  -7.490  1.00  0.00    -0.206 F 
ATOM     85  C   UNL     1       3.071  -6.732  -7.615  1.00  0.00     0.040 A 
ATOM     86  C   UNL     1       4.825  -5.103  -7.355  1.00  0.00     0.040 A 
ATOM     87  F   UNL     1       4.289  -2.853  -6.958  1.00  0.00    -0.206 F 
ATOM     88  C   UNL     1       4.429  -6.421  -7.569  1.00  0.00     0.006 A 
ENDBRANCH  64  81
ENDBRANCH  38  39
ENDBRANCH  31  33
ENDBRANCH  30  31
ENDBRANCH  29  30
ENDBRANCH   1  29
TORSDOF 15
