REMARK SMILES Cc1ccc(S(=O)(=O)Nc2cccc(F)c2C(=O)OCCOC(=O)c2ccc(-c3c4nc(c(-c5c(F)cccc5F)c5ccc([nH]5)c(-c5c(F)cccc5F)c5nc(c(-c6c(F)cccc6F)c6ccc3[nH]6)C=C5)C=C4)cc2)cc1Cl
REMARK SMILES IDX 20 1 19 2 17 3 18 4 16 5 10 6 11 7 12 8 14 9 13 10 15 11
REMARK SMILES IDX 9 12 6 14 7 15 8 16 5 17 1 18 2 19 3 20 80 21 4 22 79 23
REMARK SMILES IDX 81 24 21 25 22 26 23 27 24 28 25 29 26 30 78 31 27 32 77 33
REMARK SMILES IDX 28 34 29 35 30 36 71 37 31 38 76 39 70 40 72 41 32 42 75 43
REMARK SMILES IDX 69 44 68 45 33 47 59 48 42 49 58 50 43 51 46 52 57 53 73 54
REMARK SMILES IDX 44 55 45 56 56 58 74 59 47 60 34 61 35 62 40 63 36 64 37 65
REMARK SMILES IDX 39 66 41 67 38 68 60 69 61 70 66 71 62 72 63 73 65 74 67 75
REMARK SMILES IDX 64 76 48 77 49 78 54 79 50 80 51 81 53 82 55 83 52 84
REMARK H PARENT 9 13 72 46 46 57
REMARK Flexibility Score: inf
ROOT
ATOM      1  C   UNL     1      -8.073  -1.887   3.035  1.00  0.00     0.275 C 
ENDROOT
BRANCH   1   2
ATOM      2  O   UNL     1      -7.479  -1.153   1.941  1.00  0.00    -0.458 OA
BRANCH   2   3
ATOM      3  C   UNL     1      -6.135  -0.966   2.002  1.00  0.00     0.343 C 
ATOM      4  O   UNL     1      -5.379  -1.427   2.835  1.00  0.00    -0.246 OA
BRANCH   3   5
ATOM      5  C   UNL     1      -5.730  -0.044   0.930  1.00  0.00     0.119 A 
ATOM      6  C   UNL     1      -4.817  -0.345  -0.095  1.00  0.00     0.066 A 
ATOM      7  C   UNL     1      -4.598   0.605  -1.110  1.00  0.00     0.028 A 
ATOM      8  C   UNL     1      -5.227   1.851  -1.081  1.00  0.00     0.005 A 
ATOM      9  C   UNL     1      -6.338   1.217   0.953  1.00  0.00     0.139 A 
ATOM     10  C   UNL     1      -6.089   2.162  -0.037  1.00  0.00     0.040 A 
ATOM     11  F   UNL     1      -7.171   1.557   1.949  1.00  0.00    -0.206 F 
BRANCH   6  12
ATOM     12  N   UNL     1      -4.075  -1.556  -0.231  1.00  0.00    -0.279 N 
ATOM     13  H   UNL     1      -4.422  -2.243  -0.845  1.00  0.00     0.180 HD
BRANCH  12  14
ATOM     14  S   UNL     1      -2.634  -1.889   0.596  1.00  0.00     0.261 S 
ATOM     15  O   UNL     1      -2.040  -2.961  -0.175  1.00  0.00    -0.201 OA
ATOM     16  O   UNL     1      -2.876  -2.046   2.007  1.00  0.00    -0.201 OA
BRANCH  14  17
ATOM     17  C   UNL     1      -1.548  -0.508   0.409  1.00  0.00     0.089 A 
ATOM     18  C   UNL     1       1.168   2.800   0.002  1.00  0.00     0.046 C 
ATOM     19  C   UNL     1       0.241   1.627   0.139  1.00  0.00    -0.032 A 
ATOM     20  C   UNL     1      -1.040   1.829   0.676  1.00  0.00     0.006 A 
ATOM     21  C   UNL     1       0.638   0.323  -0.195  1.00  0.00     0.045 A 
ATOM     22  C   UNL     1      -1.921   0.762   0.842  1.00  0.00     0.022 A 
ATOM     23  C   UNL     1      -0.258  -0.737  -0.082  1.00  0.00     0.043 A 
ATOM     24  Cl  UNL     1       2.243  -0.031  -0.725  1.00  0.00    -0.084 Cl
ENDBRANCH  14  17
ENDBRANCH  12  14
ENDBRANCH   6  12
ENDBRANCH   3   5
ENDBRANCH   2   3
ENDBRANCH   1   2
BRANCH   1  25
ATOM     25  C   UNL     1      -8.968  -2.991   2.482  1.00  0.00     0.275 C 
BRANCH  25  26
ATOM     26  O   UNL     1      -8.128  -3.962   1.835  1.00  0.00    -0.458 OA
BRANCH  26  27
ATOM     27  C   UNL     1      -8.277  -4.096   0.499  1.00  0.00     0.338 C 
ATOM     28  O   UNL     1      -9.155  -3.640  -0.211  1.00  0.00    -0.246 OA
BRANCH  27  29
ATOM     29  C   UNL     1      -7.114  -4.835  -0.019  1.00  0.00     0.060 A 
ATOM     30  C   UNL     1      -5.850  -4.313   0.217  1.00  0.00     0.016 A 
ATOM     31  C   UNL     1      -7.263  -5.967  -0.822  1.00  0.00     0.016 A 
ATOM     32  C   UNL     1      -4.749  -4.882  -0.411  1.00  0.00     0.010 A 
ATOM     33  C   UNL     1      -6.128  -6.585  -1.378  1.00  0.00     0.010 A 
ATOM     34  C   UNL     1      -4.849  -6.030  -1.205  1.00  0.00    -0.014 A 
BRANCH  34  35
ATOM     35  C   UNL     1      -3.621  -6.562  -1.879  1.00  0.00     0.031 A 
ATOM     36  C   UNL     1      -3.581  -6.720  -3.379  1.00  0.00     0.074 A 
ATOM     37  C   UNL     1      -2.482  -6.794  -1.186  1.00  0.00     0.049 A 
ATOM     38  N   UNL     1      -2.676  -7.302  -4.128  1.00  0.00    -0.248 NA
ATOM     39  C   UNL     1      -4.697  -6.138  -4.141  1.00  0.00     0.031 C 
ATOM     40  C   UNL     1      -2.297  -6.565   0.249  1.00  0.00     0.029 A 
ATOM     41  N   UNL     1      -1.243  -7.223  -1.606  1.00  0.00    -0.354 N 
ATOM     42  C   UNL     1      -3.145  -7.216  -5.432  1.00  0.00     0.074 A 
ATOM     43  C   UNL     1      -4.405  -6.506  -5.381  1.00  0.00     0.031 C 
ATOM     44  C   UNL     1      -1.009  -6.754   0.566  1.00  0.00     0.029 A 
ATOM     45  C   UNL     1      -0.302  -7.263  -0.603  1.00  0.00     0.049 A 
ATOM     46  H   UNL     1      -1.048  -7.478  -2.537  1.00  0.00     0.167 HD
ATOM     47  C   UNL     1      -2.581  -7.696  -6.566  1.00  0.00     0.037 A 
ATOM     48  C   UNL     1       0.971  -7.710  -0.594  1.00  0.00     0.037 A 
ATOM     49  C   UNL     1      -1.298  -8.347  -6.629  1.00  0.00     0.049 A 
ATOM     50  C   UNL     1       1.536  -8.335  -1.836  1.00  0.00     0.074 A 
ATOM     51  C   UNL     1      -0.671  -8.910  -7.728  1.00  0.00     0.029 A 
ATOM     52  N   UNL     1      -0.434  -8.498  -5.556  1.00  0.00    -0.354 N 
ATOM     53  N   UNL     1       1.017  -8.397  -3.038  1.00  0.00    -0.248 NA
ATOM     54  C   UNL     1       2.839  -9.005  -1.710  1.00  0.00     0.031 C 
ATOM     55  C   UNL     1       0.555  -9.437  -7.311  1.00  0.00     0.029 A 
ATOM     56  C   UNL     1       0.710  -9.164  -5.963  1.00  0.00     0.049 A 
ATOM     57  H   UNL     1      -0.608  -8.179  -4.641  1.00  0.00     0.167 HD
ATOM     58  C   UNL     1       1.919  -9.121  -3.804  1.00  0.00     0.074 A 
ATOM     59  C   UNL     1       3.036  -9.450  -2.944  1.00  0.00     0.031 C 
ATOM     60  C   UNL     1       1.816  -9.495  -5.102  1.00  0.00     0.037 A 
BRANCH  47  61
ATOM     61  C   UNL     1      -3.372  -7.597  -7.837  1.00  0.00     0.057 A 
ATOM     62  C   UNL     1      -3.962  -8.745  -8.383  1.00  0.00     0.134 A 
ATOM     63  C   UNL     1      -3.494  -6.402  -8.554  1.00  0.00     0.134 A 
ATOM     64  F   UNL     1      -3.875  -9.923  -7.746  1.00  0.00    -0.206 F 
ATOM     65  C   UNL     1      -4.633  -8.712  -9.605  1.00  0.00     0.040 A 
ATOM     66  C   UNL     1      -4.182  -6.352  -9.769  1.00  0.00     0.040 A 
ATOM     67  F   UNL     1      -2.966  -5.265  -8.078  1.00  0.00    -0.206 F 
ATOM     68  C   UNL     1      -4.745  -7.511 -10.302  1.00  0.00     0.006 A 
ENDBRANCH  47  61
BRANCH  48  69
ATOM     69  C   UNL     1       1.764  -7.672   0.664  1.00  0.00     0.057 A 
ATOM     70  C   UNL     1       1.395  -8.431   1.783  1.00  0.00     0.134 A 
ATOM     71  C   UNL     1       2.906  -6.873   0.781  1.00  0.00     0.134 A 
ATOM     72  F   UNL     1       0.321  -9.233   1.734  1.00  0.00    -0.206 F 
ATOM     73  C   UNL     1       2.102  -8.363   2.984  1.00  0.00     0.040 A 
ATOM     74  C   UNL     1       3.644  -6.821   1.966  1.00  0.00     0.040 A 
ATOM     75  F   UNL     1       3.338  -6.153  -0.265  1.00  0.00    -0.206 F 
ATOM     76  C   UNL     1       3.234  -7.557   3.076  1.00  0.00     0.006 A 
ENDBRANCH  48  69
BRANCH  60  77
ATOM     77  C   UNL     1       2.934 -10.307  -5.682  1.00  0.00     0.057 A 
ATOM     78  C   UNL     1       3.825  -9.747  -6.606  1.00  0.00     0.134 A 
ATOM     79  C   UNL     1       3.080 -11.666  -5.380  1.00  0.00     0.134 A 
ATOM     80  F   UNL     1       3.732  -8.452  -6.943  1.00  0.00    -0.206 F 
ATOM     81  C   UNL     1       4.813 -10.516  -7.222  1.00  0.00     0.040 A 
ATOM     82  C   UNL     1       4.077 -12.441  -5.975  1.00  0.00     0.040 A 
ATOM     83  F   UNL     1       2.264 -12.258  -4.494  1.00  0.00    -0.206 F 
ATOM     84  C   UNL     1       4.941 -11.868  -6.906  1.00  0.00     0.006 A 
ENDBRANCH  60  77
ENDBRANCH  34  35
ENDBRANCH  27  29
ENDBRANCH  26  27
ENDBRANCH  25  26
ENDBRANCH   1  25
TORSDOF 14
