REMARK SMILES Cc1ccc(Nc2c(Cl)cc(Cl)cc2Cl)c(CC(=O)OCCOC(=O)c2ccc(-c3c4nc(c(-c5c(F)cccc5F)c5ccc([nH]5)c(-c5c(F)cccc5F)c5nc(c(-c6c(F)cccc6F)c6ccc3[nH]6)C=C5)C=C4)cc2)c1
REMARK SMILES IDX 21 1 20 2 18 3 19 4 17 5 16 6 1 7 2 8 3 9 80 10 4 11 5 12
REMARK SMILES IDX 6 13 7 15 8 16 14 17 9 18 10 19 13 20 15 21 11 22 12 23
REMARK SMILES IDX 22 24 23 25 24 26 25 27 26 28 27 29 79 30 28 31 78 32 29 33
REMARK SMILES IDX 30 34 31 35 72 36 32 37 77 38 71 39 73 40 33 41 76 42 70 43
REMARK SMILES IDX 69 44 34 46 60 47 43 48 59 49 44 50 47 51 58 52 74 53 45 54
REMARK SMILES IDX 46 55 57 57 75 58 48 59 35 60 36 61 41 62 37 63 38 64 40 65
REMARK SMILES IDX 42 66 39 67 61 68 62 69 67 70 63 71 64 72 66 73 68 74 65 75
REMARK SMILES IDX 49 76 50 77 55 78 51 79 52 80 54 81 56 82 53 83
REMARK H PARENT 6 14 73 45 47 56
REMARK Flexibility Score: inf
ROOT
ATOM      1  C   UNL     1      -2.168   0.867  -3.637  1.00  0.00     0.274 C 
ENDROOT
BRANCH   1   2
ATOM      2  O   UNL     1      -1.928   0.805  -2.239  1.00  0.00    -0.462 OA
BRANCH   2   3
ATOM      3  C   UNL     1      -1.065   1.714  -1.702  1.00  0.00     0.310 C 
ATOM      4  O   UNL     1      -0.428   2.537  -2.313  1.00  0.00    -0.252 OA
BRANCH   3   5
ATOM      5  C   UNL     1      -1.031   1.506  -0.198  1.00  0.00     0.160 C 
BRANCH   5   6
ATOM      6  C   UNL     1      -0.391   0.175   0.088  1.00  0.00    -0.013 A 
ATOM      7  C   UNL     1       3.239  -0.948   0.151  1.00  0.00     0.044 C 
ATOM      8  C   UNL     1       1.742  -0.990   0.176  1.00  0.00    -0.051 A 
ATOM      9  C   UNL     1       1.054  -2.202   0.134  1.00  0.00     0.005 A 
ATOM     10  C   UNL     1       1.013   0.192   0.176  1.00  0.00     0.009 A 
ATOM     11  C   UNL     1      -0.344  -2.229   0.091  1.00  0.00     0.026 A 
ATOM     12  C   UNL     1      -1.097  -1.051   0.057  1.00  0.00     0.042 A 
BRANCH  12  13
ATOM     13  N   UNL     1      -2.498  -1.112  -0.086  1.00  0.00    -0.353 N 
ATOM     14  H   UNL     1      -2.925  -0.278  -0.388  1.00  0.00     0.167 HD
BRANCH  13  15
ATOM     15  C   UNL     1      -3.384  -2.196   0.142  1.00  0.00     0.076 A 
ATOM     16  C   UNL     1      -3.744  -2.583   1.447  1.00  0.00     0.067 A 
ATOM     17  C   UNL     1      -4.100  -2.786  -0.920  1.00  0.00     0.067 A 
ATOM     18  Cl  UNL     1      -2.953  -1.923   2.837  1.00  0.00    -0.082 Cl
ATOM     19  C   UNL     1      -4.758  -3.521   1.672  1.00  0.00     0.043 A 
ATOM     20  C   UNL     1      -5.165  -3.662  -0.697  1.00  0.00     0.043 A 
ATOM     21  Cl  UNL     1      -3.600  -2.601  -2.559  1.00  0.00    -0.082 Cl
ATOM     22  C   UNL     1      -5.480  -4.033   0.600  1.00  0.00     0.044 A 
ATOM     23  Cl  UNL     1      -6.748  -5.161   0.877  1.00  0.00    -0.084 Cl
ENDBRANCH  13  15
ENDBRANCH  12  13
ENDBRANCH   5   6
ENDBRANCH   3   5
ENDBRANCH   2   3
ENDBRANCH   1   2
BRANCH   1  24
ATOM     24  C   UNL     1      -3.606   0.404  -3.926  1.00  0.00     0.275 C 
BRANCH  24  25
ATOM     25  O   UNL     1      -4.551   0.299  -2.791  1.00  0.00    -0.458 OA
BRANCH  25  26
ATOM     26  C   UNL     1      -4.746   1.111  -1.713  1.00  0.00     0.338 C 
ATOM     27  O   UNL     1      -5.177   0.699  -0.644  1.00  0.00    -0.246 OA
BRANCH  26  28
ATOM     28  C   UNL     1      -4.342   2.515  -1.855  1.00  0.00     0.060 A 
ATOM     29  C   UNL     1      -3.850   3.273  -0.777  1.00  0.00     0.016 A 
ATOM     30  C   UNL     1      -4.304   3.007  -3.140  1.00  0.00     0.016 A 
ATOM     31  C   UNL     1      -3.198   4.476  -1.041  1.00  0.00     0.010 A 
ATOM     32  C   UNL     1      -3.396   3.978  -3.418  1.00  0.00     0.010 A 
ATOM     33  C   UNL     1      -2.951   4.794  -2.377  1.00  0.00    -0.014 A 
BRANCH  33  34
ATOM     34  C   UNL     1      -2.580   6.105  -2.875  1.00  0.00     0.031 A 
ATOM     35  C   UNL     1      -1.221   6.628  -2.763  1.00  0.00     0.074 A 
ATOM     36  C   UNL     1      -3.591   6.700  -3.552  1.00  0.00     0.049 A 
ATOM     37  N   UNL     1      -0.954   7.848  -2.454  1.00  0.00    -0.248 NA
ATOM     38  C   UNL     1      -0.031   5.809  -2.982  1.00  0.00     0.031 C 
ATOM     39  C   UNL     1      -3.626   7.862  -4.410  1.00  0.00     0.029 A 
ATOM     40  N   UNL     1      -4.934   6.296  -3.492  1.00  0.00    -0.354 N 
ATOM     41  C   UNL     1       0.363   8.047  -2.807  1.00  0.00     0.074 A 
ATOM     42  C   UNL     1       0.941   6.730  -2.939  1.00  0.00     0.031 C 
ATOM     43  C   UNL     1      -4.913   8.254  -4.538  1.00  0.00     0.029 A 
ATOM     44  C   UNL     1      -5.741   7.406  -3.682  1.00  0.00     0.049 A 
ATOM     45  H   UNL     1      -5.251   5.376  -3.340  1.00  0.00     0.167 HD
ATOM     46  C   UNL     1       0.765   9.274  -3.245  1.00  0.00     0.037 A 
ATOM     47  C   UNL     1      -6.504   7.783  -2.615  1.00  0.00     0.037 A 
ATOM     48  C   UNL     1      -0.393  10.152  -3.393  1.00  0.00     0.049 A 
ATOM     49  C   UNL     1      -5.947   9.047  -2.014  1.00  0.00     0.074 A 
ATOM     50  C   UNL     1      -1.173  10.438  -4.502  1.00  0.00     0.029 A 
ATOM     51  N   UNL     1      -1.149  10.512  -2.282  1.00  0.00    -0.354 N 
ATOM     52  N   UNL     1      -4.707   9.431  -2.150  1.00  0.00    -0.248 NA
ATOM     53  C   UNL     1      -6.757  10.005  -1.274  1.00  0.00     0.031 C 
ATOM     54  C   UNL     1      -2.428  10.914  -4.052  1.00  0.00     0.029 A 
ATOM     55  C   UNL     1      -2.414  10.919  -2.669  1.00  0.00     0.049 A 
ATOM     56  H   UNL     1      -0.829  10.481  -1.351  1.00  0.00     0.167 HD
ATOM     57  C   UNL     1      -4.556  10.677  -1.610  1.00  0.00     0.074 A 
ATOM     58  C   UNL     1      -5.864  10.987  -1.058  1.00  0.00     0.031 C 
ATOM     59  C   UNL     1      -3.384  11.372  -1.685  1.00  0.00     0.037 A 
BRANCH  46  60
ATOM     60  C   UNL     1       2.104   9.514  -3.897  1.00  0.00     0.057 A 
ATOM     61  C   UNL     1       2.249  10.374  -5.003  1.00  0.00     0.134 A 
ATOM     62  C   UNL     1       3.299   8.922  -3.451  1.00  0.00     0.134 A 
ATOM     63  F   UNL     1       1.216  11.058  -5.509  1.00  0.00    -0.206 F 
ATOM     64  C   UNL     1       3.470  10.576  -5.659  1.00  0.00     0.040 A 
ATOM     65  C   UNL     1       4.525   9.095  -4.115  1.00  0.00     0.040 A 
ATOM     66  F   UNL     1       3.324   8.166  -2.343  1.00  0.00    -0.206 F 
ATOM     67  C   UNL     1       4.612   9.921  -5.228  1.00  0.00     0.006 A 
ENDBRANCH  46  60
BRANCH  47  68
ATOM     68  C   UNL     1      -7.081   6.615  -1.861  1.00  0.00     0.057 A 
ATOM     69  C   UNL     1      -7.925   5.721  -2.556  1.00  0.00     0.134 A 
ATOM     70  C   UNL     1      -6.595   6.165  -0.628  1.00  0.00     0.134 A 
ATOM     71  F   UNL     1      -8.432   6.067  -3.751  1.00  0.00    -0.206 F 
ATOM     72  C   UNL     1      -8.187   4.420  -2.106  1.00  0.00     0.040 A 
ATOM     73  C   UNL     1      -6.869   4.868  -0.155  1.00  0.00     0.040 A 
ATOM     74  F   UNL     1      -5.777   6.932   0.107  1.00  0.00    -0.206 F 
ATOM     75  C   UNL     1      -7.636   3.980  -0.909  1.00  0.00     0.006 A 
ENDBRANCH  47  68
BRANCH  59  76
ATOM     76  C   UNL     1      -3.070  12.625  -0.920  1.00  0.00     0.057 A 
ATOM     77  C   UNL     1      -3.592  12.909   0.346  1.00  0.00     0.134 A 
ATOM     78  C   UNL     1      -2.072  13.514  -1.382  1.00  0.00     0.134 A 
ATOM     79  F   UNL     1      -4.461  12.085   0.949  1.00  0.00    -0.206 F 
ATOM     80  C   UNL     1      -3.195  14.031   1.079  1.00  0.00     0.040 A 
ATOM     81  C   UNL     1      -1.620  14.596  -0.630  1.00  0.00     0.040 A 
ATOM     82  F   UNL     1      -1.471  13.353  -2.571  1.00  0.00    -0.206 F 
ATOM     83  C   UNL     1      -2.195  14.869   0.600  1.00  0.00     0.006 A 
ENDBRANCH  59  76
ENDBRANCH  33  34
ENDBRANCH  26  28
ENDBRANCH  25  26
ENDBRANCH  24  25
ENDBRANCH   1  24
TORSDOF 14
