REMARK SMILES Cc1cc(C(=O)OCCOC(=O)c2ccc(-c3c4nc(c(-c5c(F)cccc5F)c5ccc([nH]5)c(-c5c(F)cccc5F)c5nc(c(-c6c(F)cccc6F)c6ccc3[nH]6)C=C5)C=C4)cc2)c(NC(=O)c2nc(C(C)(C)C)n[nH]2)s1
REMARK SMILES IDX 8 1 7 2 5 3 6 4 4 5 1 6 2 7 3 8 80 9 67 10 68 11 69 12 70 14
REMARK SMILES IDX 71 15 72 16 79 17 73 18 78 19 74 21 75 22 76 23 77 24 9 25
REMARK SMILES IDX 10 26 11 27 12 28 13 29 14 30 66 31 15 32 65 33 16 34 17 35
REMARK SMILES IDX 18 36 59 37 19 38 64 39 58 40 60 41 20 42 63 43 57 44 56 45
REMARK SMILES IDX 21 47 47 48 30 49 46 50 31 51 34 52 45 53 61 54 32 55 33 56
REMARK SMILES IDX 44 58 62 59 35 60 22 61 23 62 28 63 24 64 25 65 27 66 29 67
REMARK SMILES IDX 26 68 48 69 49 70 54 71 50 72 51 73 53 74 55 75 52 76 36 77
REMARK SMILES IDX 37 78 42 79 38 80 39 81 41 82 43 83 40 84
REMARK H PARENT 68 13 79 20 60 46 34 57
REMARK Flexibility Score: inf
ROOT
ATOM      1  C   UNL     1      -3.154  -4.250  -0.180  1.00  0.00     0.275 C 
ENDROOT
BRANCH   1   2
ATOM      2  O   UNL     1      -2.030  -3.347  -0.168  1.00  0.00    -0.458 OA
BRANCH   2   3
ATOM      3  C   UNL     1      -2.239  -2.091  -0.656  1.00  0.00     0.341 C 
ATOM      4  O   UNL     1      -3.296  -1.698  -1.144  1.00  0.00    -0.246 OA
BRANCH   3   5
ATOM      5  C   UNL     1      -1.075  -1.219  -0.495  1.00  0.00     0.095 A 
ATOM      6  C   UNL     1       2.608  -0.622   0.229  1.00  0.00     0.056 C 
ATOM      7  C   UNL     1       1.146  -0.606  -0.045  1.00  0.00     0.004 A 
ATOM      8  C   UNL     1       0.261  -1.653  -0.168  1.00  0.00     0.033 A 
ATOM      9  S   UNL     1       0.356   0.882  -0.232  1.00  0.00    -0.122 S 
ATOM     10  C   UNL     1      -1.121   0.165  -0.638  1.00  0.00     0.110 A 
BRANCH  10  11
ATOM     11  N   UNL     1      -2.216   0.915  -1.036  1.00  0.00    -0.310 N 
ATOM     12  C   UNL     1      -2.463   2.273  -1.138  1.00  0.00     0.293 C 
ATOM     13  H   UNL     1      -2.986   0.362  -1.305  1.00  0.00     0.171 HD
ATOM     14  O   UNL     1      -3.576   2.586  -1.570  1.00  0.00    -0.265 OA
BRANCH  12  15
ATOM     15  C   UNL     1      -1.482   3.269  -0.791  1.00  0.00     0.214 A 
ATOM     16  N   UNL     1      -1.504   4.062   0.267  1.00  0.00    -0.207 NA
ATOM     17  N   UNL     1      -0.426   3.621  -1.575  1.00  0.00    -0.255 N 
ATOM     18  C   UNL     1      -0.398   4.867   0.091  1.00  0.00     0.156 A 
ATOM     19  N   UNL     1       0.299   4.603  -1.024  1.00  0.00    -0.158 NA
ATOM     20  H   UNL     1      -0.221   3.204  -2.443  1.00  0.00     0.192 HD
BRANCH  18  21
ATOM     21  C   UNL     1      -0.039   5.998   1.032  1.00  0.00     0.024 C 
ATOM     22  C   UNL     1      -1.061   7.140   0.877  1.00  0.00     0.019 C 
ATOM     23  C   UNL     1      -0.045   5.521   2.497  1.00  0.00     0.019 C 
ATOM     24  C   UNL     1       1.367   6.563   0.728  1.00  0.00     0.019 C 
ENDBRANCH  18  21
ENDBRANCH  12  15
ENDBRANCH  10  11
ENDBRANCH   3   5
ENDBRANCH   2   3
ENDBRANCH   1   2
BRANCH   1  25
ATOM     25  C   UNL     1      -3.871  -4.288   1.175  1.00  0.00     0.275 C 
BRANCH  25  26
ATOM     26  O   UNL     1      -4.604  -3.072   1.415  1.00  0.00    -0.458 OA
BRANCH  26  27
ATOM     27  C   UNL     1      -3.954  -2.141   2.154  1.00  0.00     0.338 C 
ATOM     28  O   UNL     1      -2.859  -2.263   2.679  1.00  0.00    -0.246 OA
BRANCH  27  29
ATOM     29  C   UNL     1      -4.667  -0.850   2.066  1.00  0.00     0.060 A 
ATOM     30  C   UNL     1      -3.893   0.282   1.798  1.00  0.00     0.016 A 
ATOM     31  C   UNL     1      -6.050  -0.731   2.232  1.00  0.00     0.016 A 
ATOM     32  C   UNL     1      -4.499   1.524   1.631  1.00  0.00     0.010 A 
ATOM     33  C   UNL     1      -6.656   0.527   2.098  1.00  0.00     0.010 A 
ATOM     34  C   UNL     1      -5.883   1.656   1.778  1.00  0.00    -0.014 A 
BRANCH  34  35
ATOM     35  C   UNL     1      -6.480   3.009   1.680  1.00  0.00     0.031 A 
ATOM     36  C   UNL     1      -6.523   3.880   2.898  1.00  0.00     0.074 A 
ATOM     37  C   UNL     1      -6.897   3.490   0.495  1.00  0.00     0.049 A 
ATOM     38  N   UNL     1      -6.994   5.093   3.036  1.00  0.00    -0.248 NA
ATOM     39  C   UNL     1      -5.944   3.311   4.124  1.00  0.00     0.031 C 
ATOM     40  C   UNL     1      -6.804   2.787  -0.781  1.00  0.00     0.029 A 
ATOM     41  N   UNL     1      -7.464   4.700   0.173  1.00  0.00    -0.354 N 
ATOM     42  C   UNL     1      -6.763   5.436   4.361  1.00  0.00     0.074 A 
ATOM     43  C   UNL     1      -6.126   4.297   4.989  1.00  0.00     0.031 C 
ATOM     44  C   UNL     1      -7.292   3.578  -1.752  1.00  0.00     0.029 A 
ATOM     45  C   UNL     1      -7.769   4.826  -1.160  1.00  0.00     0.049 A 
ATOM     46  H   UNL     1      -7.634   5.408   0.835  1.00  0.00     0.167 HD
ATOM     47  C   UNL     1      -7.062   6.593   4.996  1.00  0.00     0.037 A 
ATOM     48  C   UNL     1      -8.381   5.829  -1.821  1.00  0.00     0.037 A 
ATOM     49  C   UNL     1      -7.717   7.715   4.377  1.00  0.00     0.049 A 
ATOM     50  C   UNL     1      -8.814   7.057  -1.063  1.00  0.00     0.074 A 
ATOM     51  C   UNL     1      -8.098   8.915   4.952  1.00  0.00     0.029 A 
ATOM     52  N   UNL     1      -8.098   7.772   3.044  1.00  0.00    -0.354 N 
ATOM     53  N   UNL     1      -8.621   7.366   0.197  1.00  0.00    -0.248 NA
ATOM     54  C   UNL     1      -9.563   8.073  -1.818  1.00  0.00     0.031 C 
ATOM     55  C   UNL     1      -8.762   9.674   3.982  1.00  0.00     0.029 A 
ATOM     56  C   UNL     1      -8.739   8.973   2.787  1.00  0.00     0.049 A 
ATOM     57  H   UNL     1      -7.936   7.064   2.380  1.00  0.00     0.167 HD
ATOM     58  C   UNL     1      -9.194   8.618   0.377  1.00  0.00     0.074 A 
ATOM     59  C   UNL     1      -9.734   9.020  -0.905  1.00  0.00     0.031 C 
ATOM     60  C   UNL     1      -9.267   9.368   1.504  1.00  0.00     0.037 A 
BRANCH  47  61
ATOM     61  C   UNL     1      -6.741   6.667   6.458  1.00  0.00     0.057 A 
ATOM     62  C   UNL     1      -5.427   6.775   6.929  1.00  0.00     0.134 A 
ATOM     63  C   UNL     1      -7.769   6.626   7.409  1.00  0.00     0.134 A 
ATOM     64  F   UNL     1      -4.396   6.800   6.071  1.00  0.00    -0.206 F 
ATOM     65  C   UNL     1      -5.144   6.813   8.296  1.00  0.00     0.040 A 
ATOM     66  C   UNL     1      -7.500   6.690   8.777  1.00  0.00     0.040 A 
ATOM     67  F   UNL     1      -9.050   6.524   7.024  1.00  0.00    -0.206 F 
ATOM     68  C   UNL     1      -6.184   6.776   9.223  1.00  0.00     0.006 A 
ENDBRANCH  47  61
BRANCH  48  69
ATOM     69  C   UNL     1      -8.665   5.705  -3.275  1.00  0.00     0.057 A 
ATOM     70  C   UNL     1      -8.064   6.553  -4.213  1.00  0.00     0.134 A 
ATOM     71  C   UNL     1      -9.588   4.767  -3.756  1.00  0.00     0.134 A 
ATOM     72  F   UNL     1      -7.197   7.495  -3.816  1.00  0.00    -0.206 F 
ATOM     73  C   UNL     1      -8.385   6.487  -5.571  1.00  0.00     0.040 A 
ATOM     74  C   UNL     1      -9.896   4.671  -5.114  1.00  0.00     0.040 A 
ATOM     75  F   UNL     1     -10.209   3.931  -2.911  1.00  0.00    -0.206 F 
ATOM     76  C   UNL     1      -9.301   5.539  -6.025  1.00  0.00     0.006 A 
ENDBRANCH  48  69
BRANCH  60  77
ATOM     77  C   UNL     1      -9.921  10.717   1.402  1.00  0.00     0.057 A 
ATOM     78  C   UNL     1     -11.304  10.862   1.234  1.00  0.00     0.134 A 
ATOM     79  C   UNL     1      -9.161  11.887   1.526  1.00  0.00     0.134 A 
ATOM     80  F   UNL     1     -12.090   9.783   1.096  1.00  0.00    -0.206 F 
ATOM     81  C   UNL     1     -11.904  12.121   1.174  1.00  0.00     0.040 A 
ATOM     82  C   UNL     1      -9.753  13.151   1.497  1.00  0.00     0.040 A 
ATOM     83  F   UNL     1      -7.832  11.822   1.699  1.00  0.00    -0.206 F 
ATOM     84  C   UNL     1     -11.129  13.271   1.314  1.00  0.00     0.006 A 
ENDBRANCH  60  77
ENDBRANCH  34  35
ENDBRANCH  27  29
ENDBRANCH  26  27
ENDBRANCH  25  26
ENDBRANCH   1  25
TORSDOF 14
