REMARK SMILES Cc1nc(N[C@@H](C(=O)OCCOC(=O)c2ccc(-c3c4nc(c(-c5c(F)cccc5F)c5ccc([nH]5)c(-c5c(F)cccc5F)c5nc(c(-c6c(F)cccc6F)c6ccc3[nH]6)C=C5)C=C4)cc2)C(C)C)c2c3c(sc2n1)CCCC3
REMARK SMILES IDX 10 1 9 2 7 3 8 4 6 5 5 6 4 8 1 9 2 10 3 11 77 12 76 13 72 14
REMARK SMILES IDX 75 15 73 16 74 17 81 18 78 19 80 20 79 21 69 22 70 23 71 24
REMARK SMILES IDX 11 25 12 26 13 27 14 28 15 29 16 30 68 31 17 32 67 33 18 34
REMARK SMILES IDX 19 35 20 36 61 37 21 38 66 39 60 40 62 41 22 42 65 43 59 44
REMARK SMILES IDX 58 45 23 47 49 48 32 49 48 50 33 51 36 52 47 53 63 54 34 55
REMARK SMILES IDX 35 56 46 58 64 59 37 60 24 61 25 62 30 63 26 64 27 65 29 66
REMARK SMILES IDX 31 67 28 68 50 69 51 70 56 71 52 72 53 73 55 74 57 75 54 76
REMARK SMILES IDX 38 77 39 78 44 79 40 80 41 81 43 82 45 83 42 84
REMARK H PARENT 5 7 62 46 36 57
REMARK Flexibility Score: inf
ROOT
ATOM      1  C   UNL     1      -2.970   6.269  -3.572  1.00  0.00     0.274 C 
ENDROOT
BRANCH   1   2
ATOM      2  O   UNL     1      -1.981   5.227  -3.569  1.00  0.00    -0.461 OA
BRANCH   2   3
ATOM      3  C   UNL     1      -1.147   5.253  -4.644  1.00  0.00     0.328 C 
ATOM      4  O   UNL     1      -1.257   6.070  -5.557  1.00  0.00    -0.250 OA
BRANCH   3   5
ATOM      5  C   UNL     1      -0.161   4.076  -4.693  1.00  0.00     0.193 C 
BRANCH   5   6
ATOM      6  N   UNL     1      -0.071   3.330  -3.460  1.00  0.00    -0.356 N 
ATOM      7  H   UNL     1       0.039   3.863  -2.640  1.00  0.00     0.163 HD
BRANCH   6   8
ATOM      8  C   UNL     1      -0.120   1.966  -3.291  1.00  0.00     0.139 A 
ATOM      9  C   UNL     1       0.772   0.064  -0.246  1.00  0.00     0.090 C 
ATOM     10  C   UNL     1       0.268   0.348  -1.629  1.00  0.00     0.129 A 
ATOM     11  N   UNL     1       0.257   1.626  -2.030  1.00  0.00    -0.216 NA
ATOM     12  N   UNL     1      -0.094  -0.690  -2.372  1.00  0.00    -0.222 NA
ATOM     13  C   UNL     1      -0.474  -0.353  -3.614  1.00  0.00     0.129 A 
ATOM     14  C   UNL     1      -0.497   0.917  -4.192  1.00  0.00     0.057 A 
ATOM     15  S   UNL     1      -1.014  -1.603  -4.636  1.00  0.00    -0.120 S 
ATOM     16  C   UNL     1      -0.921   0.772  -5.605  1.00  0.00    -0.021 A 
ATOM     17  C   UNL     1      -1.284  -0.529  -5.910  1.00  0.00     0.011 A 
ATOM     18  C   UNL     1      -1.042   1.804  -6.696  1.00  0.00     0.037 C 
ATOM     19  C   UNL     1      -1.813  -1.008  -7.232  1.00  0.00     0.047 C 
ATOM     20  C   UNL     1      -1.283   1.271  -8.104  1.00  0.00     0.005 C 
ATOM     21  C   UNL     1      -2.324   0.165  -8.077  1.00  0.00     0.006 C 
ENDBRANCH   6   8
ENDBRANCH   5   6
BRANCH   5  22
ATOM     22  C   UNL     1       1.240   4.415  -5.261  1.00  0.00     0.017 C 
ATOM     23  C   UNL     1       2.269   3.278  -5.176  1.00  0.00     0.010 C 
ATOM     24  C   UNL     1       1.207   4.884  -6.729  1.00  0.00     0.010 C 
ENDBRANCH   5  22
ENDBRANCH   3   5
ENDBRANCH   2   3
ENDBRANCH   1   2
BRANCH   1  25
ATOM     25  C   UNL     1      -2.458   7.574  -2.948  1.00  0.00     0.275 C 
BRANCH  25  26
ATOM     26  O   UNL     1      -1.203   8.039  -3.492  1.00  0.00    -0.458 OA
BRANCH  26  27
ATOM     27  C   UNL     1      -0.126   7.557  -2.827  1.00  0.00     0.338 C 
ATOM     28  O   UNL     1      -0.150   6.750  -1.908  1.00  0.00    -0.246 OA
BRANCH  27  29
ATOM     29  C   UNL     1       1.171   8.052  -3.317  1.00  0.00     0.060 A 
ATOM     30  C   UNL     1       1.657   7.669  -4.566  1.00  0.00     0.016 A 
ATOM     31  C   UNL     1       2.040   8.575  -2.360  1.00  0.00     0.016 A 
ATOM     32  C   UNL     1       3.039   7.625  -4.786  1.00  0.00     0.010 A 
ATOM     33  C   UNL     1       3.411   8.595  -2.606  1.00  0.00     0.010 A 
ATOM     34  C   UNL     1       3.928   8.052  -3.791  1.00  0.00    -0.014 A 
BRANCH  34  35
ATOM     35  C   UNL     1       5.364   8.174  -4.136  1.00  0.00     0.031 A 
ATOM     36  C   UNL     1       5.657   9.574  -4.541  1.00  0.00     0.074 A 
ATOM     37  C   UNL     1       6.389   7.450  -3.630  1.00  0.00     0.049 A 
ATOM     38  N   UNL     1       5.689  10.511  -3.641  1.00  0.00    -0.248 NA
ATOM     39  C   UNL     1       5.579  10.063  -5.913  1.00  0.00     0.031 C 
ATOM     40  C   UNL     1       6.315   6.633  -2.415  1.00  0.00     0.029 A 
ATOM     41  N   UNL     1       7.739   7.457  -3.946  1.00  0.00    -0.354 N 
ATOM     42  C   UNL     1       5.532  11.707  -4.296  1.00  0.00     0.074 A 
ATOM     43  C   UNL     1       5.511  11.391  -5.710  1.00  0.00     0.031 C 
ATOM     44  C   UNL     1       7.570   6.388  -1.980  1.00  0.00     0.029 A 
ATOM     45  C   UNL     1       8.544   6.894  -2.950  1.00  0.00     0.049 A 
ATOM     46  H   UNL     1       8.095   7.823  -4.787  1.00  0.00     0.167 HD
ATOM     47  C   UNL     1       5.397  12.874  -3.618  1.00  0.00     0.037 A 
ATOM     48  C   UNL     1       9.784   7.339  -2.592  1.00  0.00     0.037 A 
ATOM     49  C   UNL     1       5.405  12.773  -2.186  1.00  0.00     0.049 A 
ATOM     50  C   UNL     1       9.471   8.713  -2.052  1.00  0.00     0.074 A 
ATOM     51  C   UNL     1       4.491  12.729  -1.156  1.00  0.00     0.029 A 
ATOM     52  N   UNL     1       6.622  12.610  -1.571  1.00  0.00    -0.354 N 
ATOM     53  N   UNL     1       8.972   9.001  -0.881  1.00  0.00    -0.248 NA
ATOM     54  C   UNL     1       9.445   9.812  -3.017  1.00  0.00     0.031 C 
ATOM     55  C   UNL     1       5.169  12.088  -0.068  1.00  0.00     0.029 A 
ATOM     56  C   UNL     1       6.439  11.741  -0.526  1.00  0.00     0.049 A 
ATOM     57  H   UNL     1       7.470  13.038  -1.831  1.00  0.00     0.167 HD
ATOM     58  C   UNL     1       8.332  10.232  -1.045  1.00  0.00     0.074 A 
ATOM     59  C   UNL     1       8.703  10.695  -2.367  1.00  0.00     0.031 C 
ATOM     60  C   UNL     1       7.401  10.721  -0.175  1.00  0.00     0.037 A 
BRANCH  47  61
ATOM     61  C   UNL     1       5.486  14.192  -4.255  1.00  0.00     0.057 A 
ATOM     62  C   UNL     1       6.728  14.838  -4.212  1.00  0.00     0.134 A 
ATOM     63  C   UNL     1       4.382  14.908  -4.712  1.00  0.00     0.134 A 
ATOM     64  F   UNL     1       7.814  14.181  -3.771  1.00  0.00    -0.206 F 
ATOM     65  C   UNL     1       6.865  16.175  -4.561  1.00  0.00     0.040 A 
ATOM     66  C   UNL     1       4.508  16.250  -5.077  1.00  0.00     0.040 A 
ATOM     67  F   UNL     1       3.170  14.337  -4.769  1.00  0.00    -0.206 F 
ATOM     68  C   UNL     1       5.747  16.890  -4.983  1.00  0.00     0.006 A 
ENDBRANCH  47  61
BRANCH  48  69
ATOM     69  C   UNL     1      10.929   7.119  -3.542  1.00  0.00     0.057 A 
ATOM     70  C   UNL     1      11.077   5.879  -4.187  1.00  0.00     0.134 A 
ATOM     71  C   UNL     1      11.935   8.060  -3.819  1.00  0.00     0.134 A 
ATOM     72  F   UNL     1      10.263   4.854  -3.887  1.00  0.00    -0.206 F 
ATOM     73  C   UNL     1      12.070   5.642  -5.146  1.00  0.00     0.040 A 
ATOM     74  C   UNL     1      12.912   7.852  -4.802  1.00  0.00     0.040 A 
ATOM     75  F   UNL     1      12.008   9.220  -3.152  1.00  0.00    -0.206 F 
ATOM     76  C   UNL     1      12.969   6.645  -5.485  1.00  0.00     0.006 A 
ENDBRANCH  48  69
BRANCH  60  77
ATOM     77  C   UNL     1       7.255   9.975   1.107  1.00  0.00     0.057 A 
ATOM     78  C   UNL     1       8.246  10.068   2.089  1.00  0.00     0.134 A 
ATOM     79  C   UNL     1       6.117   9.214   1.405  1.00  0.00     0.134 A 
ATOM     80  F   UNL     1       9.356  10.791   1.870  1.00  0.00    -0.206 F 
ATOM     81  C   UNL     1       8.100   9.451   3.333  1.00  0.00     0.040 A 
ATOM     82  C   UNL     1       5.951   8.609   2.653  1.00  0.00     0.040 A 
ATOM     83  F   UNL     1       5.131   9.066   0.506  1.00  0.00    -0.206 F 
ATOM     84  C   UNL     1       6.943   8.731   3.623  1.00  0.00     0.006 A 
ENDBRANCH  60  77
ENDBRANCH  34  35
ENDBRANCH  27  29
ENDBRANCH  26  27
ENDBRANCH  25  26
ENDBRANCH   1  25
TORSDOF 14
