REMARK SMILES Cc1noc(C)c1[C@H](C)NC(=O)NC[C@@](C)(O)C(=O)OCCOC(=O)c1ccc(-c2c3nc(c(-c4c(F)cccc4F)c4ccc([nH]4)c(-c4c(F)cccc4F)c4nc(c(-c5c(F)cccc5F)c5ccc2[nH]5)C=C4)C=C3)cc1
REMARK SMILES IDX 21 1 20 2 18 3 19 4 15 5 16 6 14 7 13 8 10 9 11 10 12 12
REMARK SMILES IDX 8 14 9 15 7 16 1 17 2 18 3 19 4 20 5 21 6 22 17 23 22 25
REMARK SMILES IDX 23 26 24 27 25 28 26 29 27 30 79 31 28 32 78 33 29 34 30 35
REMARK SMILES IDX 31 36 72 37 32 38 77 39 71 40 73 41 33 42 76 43 70 44 69 45
REMARK SMILES IDX 34 47 60 48 43 49 59 50 44 51 47 52 58 53 74 54 45 55 46 56
REMARK SMILES IDX 57 58 75 59 48 60 35 61 36 62 41 63 37 64 38 65 40 66 42 67
REMARK SMILES IDX 39 68 61 69 62 70 67 71 63 72 64 73 66 74 68 75 65 76 49 77
REMARK SMILES IDX 50 78 55 79 51 80 52 81 54 82 56 83 53 84
REMARK H PARENT 10 11 13 13 17 24 73 46 47 57
REMARK Flexibility Score: inf
ROOT
ATOM      1  C   UNL     1       1.409   8.111  -1.408  1.00  0.00     0.274 C 
ENDROOT
BRANCH   1   2
ATOM      2  O   UNL     1       2.457   7.314  -0.809  1.00  0.00    -0.460 OA
BRANCH   2   3
ATOM      3  C   UNL     1       2.217   6.785   0.435  1.00  0.00     0.339 C 
ATOM      4  O   UNL     1       1.285   7.120   1.154  1.00  0.00    -0.249 OA
BRANCH   3   5
ATOM      5  C   UNL     1       3.290   5.714   0.779  1.00  0.00     0.176 C 
ATOM      6  C   UNL     1       4.426   6.510   1.431  1.00  0.00     0.057 C 
BRANCH   5   7
ATOM      7  C   UNL     1       2.821   4.566   1.732  1.00  0.00     0.164 C 
BRANCH   7   8
ATOM      8  N   UNL     1       1.421   4.526   2.168  1.00  0.00    -0.335 N 
ATOM      9  N   UNL     1      -0.238   3.024   1.060  1.00  0.00    -0.331 N 
ATOM     10  C   UNL     1       0.312   3.806   2.068  1.00  0.00     0.315 C 
ATOM     11  H   UNL     1      -0.898   2.498   1.568  1.00  0.00     0.165 HD
ATOM     12  O   UNL     1      -0.429   3.929   3.059  1.00  0.00    -0.249 OA
ATOM     13  H   UNL     1       1.242   5.310   2.735  1.00  0.00     0.165 HD
BRANCH   9  14
ATOM     14  C   UNL     1      -0.528   2.276  -0.872  1.00  0.00     0.116 C 
ATOM     15  C   UNL     1       0.209   0.838  -1.520  1.00  0.00     0.036 C 
BRANCH  14  16
ATOM     16  C   UNL     1      -1.807   2.723  -2.145  1.00  0.00     0.040 A 
ATOM     17  C   UNL     1      -2.808   5.400  -2.103  1.00  0.00     0.071 C 
ATOM     18  C   UNL     1      -2.487   4.016  -2.593  1.00  0.00     0.086 A 
ATOM     19  N   UNL     1      -3.053   3.868  -3.792  1.00  0.00    -0.085 NA
ATOM     20  O   UNL     1      -2.895   2.596  -4.153  1.00  0.00    -0.361 OA
ATOM     21  C   UNL     1      -2.226   1.888  -3.218  1.00  0.00     0.139 A 
ATOM     22  C   UNL     1      -2.162   0.489  -3.701  1.00  0.00     0.091 C 
ENDBRANCH  14  16
ENDBRANCH   9  14
ENDBRANCH   7   8
ENDBRANCH   5   7
BRANCH   5  23
ATOM     23  O   UNL     1       3.899   5.096  -0.367  1.00  0.00    -0.377 OA
ATOM     24  H   UNL     1       4.553   4.443  -0.073  1.00  0.00     0.212 HD
ENDBRANCH   5  23
ENDBRANCH   3   5
ENDBRANCH   2   3
ENDBRANCH   1   2
BRANCH   1  25
ATOM     25  C   UNL     1       0.620   7.261  -2.403  1.00  0.00     0.275 C 
BRANCH  25  26
ATOM     26  O   UNL     1      -0.026   6.221  -1.658  1.00  0.00    -0.458 OA
BRANCH  26  27
ATOM     27  C   UNL     1       0.738   5.140  -1.473  1.00  0.00     0.338 C 
ATOM     28  O   UNL     1       1.807   4.896  -2.014  1.00  0.00    -0.246 OA
BRANCH  27  29
ATOM     29  C   UNL     1       0.225   4.231  -0.444  1.00  0.00     0.060 A 
ATOM     30  C   UNL     1       1.385   2.854  -0.093  1.00  0.00     0.016 A 
ATOM     31  C   UNL     1      -1.538   4.001  -0.029  1.00  0.00     0.016 A 
ATOM     32  C   UNL     1       0.784   1.342   0.697  1.00  0.00     0.010 A 
ATOM     33  C   UNL     1      -2.150   2.394   0.558  1.00  0.00     0.010 A 
ATOM     34  C   UNL     1      -0.981   1.083   0.949  1.00  0.00    -0.014 A 
BRANCH  34  35
ATOM     35  C   UNL     1      -1.429  -0.162   1.648  1.00  0.00     0.031 A 
ATOM     36  C   UNL     1      -1.722  -1.405   0.866  1.00  0.00     0.074 A 
ATOM     37  C   UNL     1      -1.563  -0.220   2.984  1.00  0.00     0.049 A 
ATOM     38  N   UNL     1      -1.679  -2.662   1.214  1.00  0.00    -0.248 NA
ATOM     39  C   UNL     1      -2.082  -1.194  -0.533  1.00  0.00     0.031 C 
ATOM     40  C   UNL     1      -1.409   0.892   3.910  1.00  0.00     0.029 A 
ATOM     41  N   UNL     1      -1.889  -1.279   3.796  1.00  0.00    -0.354 N 
ATOM     42  C   UNL     1      -1.845  -3.381   0.035  1.00  0.00     0.074 A 
ATOM     43  C   UNL     1      -2.028  -2.421  -1.030  1.00  0.00     0.031 C 
ATOM     44  C   UNL     1      -1.670   0.476   5.159  1.00  0.00     0.029 A 
ATOM     45  C   UNL     1      -1.988  -0.945   5.124  1.00  0.00     0.049 A 
ATOM     46  H   UNL     1      -2.038  -2.191   3.458  1.00  0.00     0.167 HD
ATOM     47  C   UNL     1      -1.876  -4.723  -0.139  1.00  0.00     0.037 A 
ATOM     48  C   UNL     1      -2.290  -1.702   6.194  1.00  0.00     0.037 A 
ATOM     49  C   UNL     1      -2.008  -5.646   0.956  1.00  0.00     0.049 A 
ATOM     50  C   UNL     1      -2.460  -3.182   6.000  1.00  0.00     0.074 A 
ATOM     51  C   UNL     1      -2.134  -7.023   0.924  1.00  0.00     0.029 A 
ATOM     52  N   UNL     1      -2.138  -5.261   2.283  1.00  0.00    -0.354 N 
ATOM     53  N   UNL     1      -2.389  -3.885   4.894  1.00  0.00    -0.248 NA
ATOM     54  C   UNL     1      -2.710  -3.979   7.206  1.00  0.00     0.031 C 
ATOM     55  C   UNL     1      -2.427  -7.459   2.223  1.00  0.00     0.029 A 
ATOM     56  C   UNL     1      -2.399  -6.365   3.074  1.00  0.00     0.049 A 
ATOM     57  H   UNL     1      -2.056  -4.337   2.613  1.00  0.00     0.167 HD
ATOM     58  C   UNL     1      -2.561  -5.210   5.272  1.00  0.00     0.074 A 
ATOM     59  C   UNL     1      -2.714  -5.210   6.714  1.00  0.00     0.031 C 
ATOM     60  C   UNL     1      -2.583  -6.329   4.503  1.00  0.00     0.037 A 
BRANCH  47  61
ATOM     61  C   UNL     1      -1.836  -5.247  -1.546  1.00  0.00     0.057 A 
ATOM     62  C   UNL     1      -0.660  -5.177  -2.309  1.00  0.00     0.134 A 
ATOM     63  C   UNL     1      -2.943  -5.869  -2.132  1.00  0.00     0.134 A 
ATOM     64  F   UNL     1       0.436  -4.581  -1.816  1.00  0.00    -0.206 F 
ATOM     65  C   UNL     1      -0.590  -5.705  -3.601  1.00  0.00     0.040 A 
ATOM     66  C   UNL     1      -2.882  -6.414  -3.418  1.00  0.00     0.040 A 
ATOM     67  F   UNL     1      -4.103  -5.964  -1.465  1.00  0.00    -0.206 F 
ATOM     68  C   UNL     1      -1.702  -6.333  -4.156  1.00  0.00     0.006 A 
ENDBRANCH  47  61
BRANCH  48  69
ATOM     69  C   UNL     1      -2.409  -1.066   7.532  1.00  0.00     0.057 A 
ATOM     70  C   UNL     1      -1.470  -1.296   8.543  1.00  0.00     0.134 A 
ATOM     71  C   UNL     1      -3.457  -0.180   7.818  1.00  0.00     0.134 A 
ATOM     72  F   UNL     1      -0.451  -2.143   8.338  1.00  0.00    -0.206 F 
ATOM     73  C   UNL     1      -1.573  -0.680   9.792  1.00  0.00     0.040 A 
ATOM     74  C   UNL     1      -3.557   0.465   9.052  1.00  0.00     0.040 A 
ATOM     75  F   UNL     1      -4.387   0.091   6.890  1.00  0.00    -0.206 F 
ATOM     76  C   UNL     1      -2.615   0.210  10.046  1.00  0.00     0.006 A 
ENDBRANCH  48  69
BRANCH  60  77
ATOM     77  C   UNL     1      -2.775  -7.634   5.218  1.00  0.00     0.057 A 
ATOM     78  C   UNL     1      -3.986  -7.971   5.837  1.00  0.00     0.134 A 
ATOM     79  C   UNL     1      -1.733  -8.567   5.283  1.00  0.00     0.134 A 
ATOM     80  F   UNL     1      -5.021  -7.117   5.817  1.00  0.00    -0.206 F 
ATOM     81  C   UNL     1      -4.137  -9.168   6.537  1.00  0.00     0.040 A 
ATOM     82  C   UNL     1      -1.883  -9.783   5.949  1.00  0.00     0.040 A 
ATOM     83  F   UNL     1      -0.552  -8.315   4.697  1.00  0.00    -0.206 F 
ATOM     84  C   UNL     1      -3.084 -10.079   6.591  1.00  0.00     0.006 A 
ENDBRANCH  60  77
ENDBRANCH  34  35
ENDBRANCH  27  29
ENDBRANCH  26  27
ENDBRANCH  25  26
ENDBRANCH   1  25
TORSDOF 16
