REMARK SMILES O=C(COc1ccc(/C=N/NC(=O)c2cc3cc([N+](=O)[O-])ccc3o2)cc1)OCCOC(=O)c1ccc(-c2c3nc(c(-c4c(F)cccc4F)c4ccc([nH]4)c(-c4c(F)cccc4F)c4nc(c(-c5c(F)cccc5F)c5ccc2[nH]5)C=C4)C=C3)cc1
REMARK SMILES IDX 1 1 2 2 3 3 4 4 5 5 6 6 27 7 7 8 26 9 8 10 9 11 10 12 11 13
REMARK SMILES IDX 12 14 13 16 14 17 15 18 25 19 16 20 24 21 17 22 23 23 18 24
REMARK SMILES IDX 22 25 19 26 20 27 21 28 28 29 29 30 30 31 31 32 32 33 33 34
REMARK SMILES IDX 34 35 35 36 87 37 36 38 86 39 37 40 38 41 39 42 80 43 40 44
REMARK SMILES IDX 85 45 79 46 81 47 41 48 84 49 78 50 77 51 42 53 68 54 51 55
REMARK SMILES IDX 67 56 52 57 55 58 66 59 82 60 53 61 54 62 65 64 83 65 56 66
REMARK SMILES IDX 43 67 44 68 49 69 45 70 46 71 48 72 50 73 47 74 69 75 70 76
REMARK SMILES IDX 75 77 71 78 72 79 74 80 76 81 73 82 57 83 58 84 63 85 59 86
REMARK SMILES IDX 60 87 62 88 64 89 61 90
REMARK H PARENT 11 15 81 52 55 63
REMARK Flexibility Score: inf
ROOT
ATOM      1  O   UNL     1       1.222   0.469  -0.183  1.00  0.00    -0.248 OA
ATOM      2  C   UNL     1       2.445   0.336  -0.169  1.00  0.00     0.344 C 
ENDROOT
BRANCH   2   3
ATOM      3  C   UNL     1       3.264   0.447  -1.447  1.00  0.00     0.351 C 
BRANCH   3   4
ATOM      4  O   UNL     1       4.130   1.577  -1.473  1.00  0.00    -0.482 OA
BRANCH   4   5
ATOM      5  C   UNL     1       3.474   2.644  -2.019  1.00  0.00     0.120 A 
ATOM      6  C   UNL     1       3.776   3.002  -3.329  1.00  0.00     0.047 A 
ATOM      7  C   UNL     1       2.544   3.365  -1.268  1.00  0.00     0.047 A 
ATOM      8  C   UNL     1       3.112   4.078  -3.909  1.00  0.00     0.013 A 
ATOM      9  C   UNL     1       1.876   4.439  -1.847  1.00  0.00     0.013 A 
ATOM     10  C   UNL     1       2.164   4.794  -3.166  1.00  0.00    -0.005 A 
BRANCH  10  11
ATOM     11  C   UNL     1       1.544   6.013  -3.720  1.00  0.00     0.141 C 
ATOM     12  N   UNL     1       1.763   6.349  -4.945  1.00  0.00    -0.180 NA
BRANCH  12  13
ATOM     13  N   UNL     1       1.401   7.569  -5.434  1.00  0.00    -0.240 N 
ATOM     14  C   UNL     1       0.920   8.688  -4.789  1.00  0.00     0.307 C 
ATOM     15  H   UNL     1       1.500   7.667  -6.409  1.00  0.00     0.194 HD
ATOM     16  O   UNL     1       1.462   9.768  -5.035  1.00  0.00    -0.264 OA
BRANCH  14  17
ATOM     17  C   UNL     1      -0.289   8.635  -3.998  1.00  0.00     0.194 A 
ATOM     18  C   UNL     1      -0.474   8.872  -2.644  1.00  0.00     0.065 A 
ATOM     19  O   UNL     1      -1.461   8.888  -4.667  1.00  0.00    -0.451 OA
ATOM     20  C   UNL     1      -1.687   9.608  -2.543  1.00  0.00     0.028 A 
ATOM     21  C   UNL     1      -2.255   9.584  -3.810  1.00  0.00     0.135 A 
ATOM     22  C   UNL     1      -2.273  10.412  -1.549  1.00  0.00     0.097 A 
ATOM     23  C   UNL     1      -3.396  10.293  -4.178  1.00  0.00     0.055 A 
ATOM     24  C   UNL     1      -3.340  11.245  -1.936  1.00  0.00     0.270 A 
ATOM     25  C   UNL     1      -3.908  11.175  -3.220  1.00  0.00     0.089 A 
BRANCH  24  26
ATOM     26  N   UNL     1      -3.784  12.295  -1.010  1.00  0.00     0.062 N 
ATOM     27  O   UNL     1      -3.427  12.207   0.173  1.00  0.00    -0.258 OA
ATOM     28  O   UNL     1      -4.465  13.221  -1.474  1.00  0.00    -0.258 OA
ENDBRANCH  24  26
ENDBRANCH  14  17
ENDBRANCH  12  13
ENDBRANCH  10  11
ENDBRANCH   4   5
ENDBRANCH   3   4
ENDBRANCH   2   3
BRANCH   2  29
ATOM     29  O   UNL     1       3.100   0.138   1.000  1.00  0.00    -0.460 OA
BRANCH  29  30
ATOM     30  C   UNL     1       4.457  -0.347   1.085  1.00  0.00     0.274 C 
BRANCH  30  31
ATOM     31  C   UNL     1       4.480  -1.876   1.143  1.00  0.00     0.275 C 
BRANCH  31  32
ATOM     32  O   UNL     1       4.079  -2.421  -0.129  1.00  0.00    -0.458 OA
BRANCH  32  33
ATOM     33  C   UNL     1       2.790  -2.832  -0.227  1.00  0.00     0.338 C 
ATOM     34  O   UNL     1       1.974  -2.909   0.674  1.00  0.00    -0.246 OA
BRANCH  33  35
ATOM     35  C   UNL     1       2.455  -2.976  -1.663  1.00  0.00     0.060 A 
ATOM     36  C   UNL     1       1.223  -2.486  -2.117  1.00  0.00     0.016 A 
ATOM     37  C   UNL     1       3.359  -3.549  -2.562  1.00  0.00     0.016 A 
ATOM     38  C   UNL     1       0.881  -2.590  -3.468  1.00  0.00     0.010 A 
ATOM     39  C   UNL     1       3.012  -3.663  -3.910  1.00  0.00     0.010 A 
ATOM     40  C   UNL     1       1.763  -3.207  -4.365  1.00  0.00    -0.014 A 
BRANCH  40  41
ATOM     41  C   UNL     1       1.336  -3.545  -5.744  1.00  0.00     0.031 A 
ATOM     42  C   UNL     1       0.795  -4.921  -6.006  1.00  0.00     0.074 A 
ATOM     43  C   UNL     1       1.483  -2.675  -6.758  1.00  0.00     0.049 A 
ATOM     44  N   UNL     1       0.474  -5.487  -7.140  1.00  0.00    -0.248 NA
ATOM     45  C   UNL     1       0.604  -5.779  -4.825  1.00  0.00     0.031 C 
ATOM     46  C   UNL     1       1.980  -1.307  -6.637  1.00  0.00     0.029 A 
ATOM     47  N   UNL     1       1.253  -2.835  -8.102  1.00  0.00    -0.354 N 
ATOM     48  C   UNL     1       0.053  -6.768  -6.813  1.00  0.00     0.074 A 
ATOM     49  C   UNL     1       0.180  -6.905  -5.378  1.00  0.00     0.031 C 
ATOM     50  C   UNL     1       2.051  -0.761  -7.865  1.00  0.00     0.029 A 
ATOM     51  C   UNL     1       1.629  -1.751  -8.856  1.00  0.00     0.049 A 
ATOM     52  H   UNL     1       0.857  -3.650  -8.488  1.00  0.00     0.167 HD
ATOM     53  C   UNL     1      -0.403  -7.744  -7.633  1.00  0.00     0.037 A 
ATOM     54  C   UNL     1       1.659  -1.590 -10.194  1.00  0.00     0.037 A 
ATOM     55  C   UNL     1      -0.526  -7.615  -9.059  1.00  0.00     0.049 A 
ATOM     56  C   UNL     1       1.204  -2.709 -11.094  1.00  0.00     0.074 A 
ATOM     57  C   UNL     1      -1.018  -8.535  -9.968  1.00  0.00     0.029 A 
ATOM     58  N   UNL     1      -0.138  -6.500  -9.784  1.00  0.00    -0.354 N 
ATOM     59  N   UNL     1       0.756  -3.899 -10.773  1.00  0.00    -0.248 NA
ATOM     60  C   UNL     1       1.261  -2.464 -12.544  1.00  0.00     0.031 C 
ATOM     61  C   UNL     1      -0.884  -7.993 -11.251  1.00  0.00     0.029 A 
ATOM     62  C   UNL     1      -0.349  -6.720 -11.135  1.00  0.00     0.049 A 
ATOM     63  H   UNL     1       0.232  -5.674  -9.397  1.00  0.00     0.167 HD
ATOM     64  C   UNL     1       0.454  -4.531 -11.973  1.00  0.00     0.074 A 
ATOM     65  C   UNL     1       0.766  -3.594 -13.031  1.00  0.00     0.031 C 
ATOM     66  C   UNL     1      -0.043  -5.776 -12.178  1.00  0.00     0.037 A 
BRANCH  53  67
ATOM     67  C   UNL     1      -0.774  -9.049  -6.997  1.00  0.00     0.057 A 
ATOM     68  C   UNL     1      -1.935  -9.191  -6.227  1.00  0.00     0.134 A 
ATOM     69  C   UNL     1       0.040 -10.176  -7.160  1.00  0.00     0.134 A 
ATOM     70  F   UNL     1      -2.746  -8.143  -6.019  1.00  0.00    -0.206 F 
ATOM     71  C   UNL     1      -2.259 -10.404  -5.618  1.00  0.00     0.040 A 
ATOM     72  C   UNL     1      -0.286 -11.399  -6.576  1.00  0.00     0.040 A 
ATOM     73  F   UNL     1       1.166 -10.104  -7.887  1.00  0.00    -0.206 F 
ATOM     74  C   UNL     1      -1.435 -11.514  -5.796  1.00  0.00     0.006 A 
ENDBRANCH  53  67
BRANCH  54  75
ATOM     75  C   UNL     1       2.164  -0.320 -10.772  1.00  0.00     0.057 A 
ATOM     76  C   UNL     1       1.298   0.593 -11.383  1.00  0.00     0.134 A 
ATOM     77  C   UNL     1       3.526   0.002 -10.740  1.00  0.00     0.134 A 
ATOM     78  F   UNL     1      -0.013   0.327 -11.468  1.00  0.00    -0.206 F 
ATOM     79  C   UNL     1       1.770   1.778 -11.952  1.00  0.00     0.040 A 
ATOM     80  C   UNL     1       4.009   1.191 -11.287  1.00  0.00     0.040 A 
ATOM     81  F   UNL     1       4.406  -0.835 -10.169  1.00  0.00    -0.206 F 
ATOM     82  C   UNL     1       3.129   2.081 -11.900  1.00  0.00     0.006 A 
ENDBRANCH  54  75
BRANCH  66  83
ATOM     83  C   UNL     1      -0.312  -6.196 -13.593  1.00  0.00     0.057 A 
ATOM     84  C   UNL     1       0.721  -6.564 -14.462  1.00  0.00     0.134 A 
ATOM     85  C   UNL     1      -1.627  -6.308 -14.063  1.00  0.00     0.134 A 
ATOM     86  F   UNL     1       2.002  -6.469 -14.075  1.00  0.00    -0.206 F 
ATOM     87  C   UNL     1       0.457  -7.024 -15.754  1.00  0.00     0.040 A 
ATOM     88  C   UNL     1      -1.905  -6.786 -15.345  1.00  0.00     0.040 A 
ATOM     89  F   UNL     1      -2.662  -5.979 -13.276  1.00  0.00    -0.206 F 
ATOM     90  C   UNL     1      -0.861  -7.145 -16.194  1.00  0.00     0.006 A 
ENDBRANCH  66  83
ENDBRANCH  40  41
ENDBRANCH  33  35
ENDBRANCH  32  33
ENDBRANCH  31  32
ENDBRANCH  30  31
ENDBRANCH  29  30
ENDBRANCH   2  29
TORSDOF 17
