REMARK SMILES [NH3+][C@H](CS[C@@H]1CC(=O)N(c2ccc3ccccc3c2)C1=O)C(=O)OCCOC(=O)c1ccc(-c2c3nc(c(-c4c(F)cccc4F)c4ccc([nH]4)c(-c4c(F)cccc4F)c4nc(c(-c5c(F)cccc5F)c5ccc2[nH]5)C=C4)C=C3)cc1
REMARK SMILES IDX 25 1 24 2 22 3 23 4 2 5 1 6 3 10 4 11 5 12 6 13 20 14 7 15
REMARK SMILES IDX 9 16 21 17 8 18 10 19 11 20 19 21 12 22 18 23 13 24 17 25
REMARK SMILES IDX 14 26 16 27 15 28 26 29 27 30 28 31 29 32 30 33 31 34 83 35
REMARK SMILES IDX 32 36 82 37 33 38 34 39 35 40 76 41 36 42 81 43 75 44 77 45
REMARK SMILES IDX 37 46 80 47 74 48 73 49 38 51 64 52 47 53 63 54 48 55 51 56
REMARK SMILES IDX 62 57 78 58 49 59 50 60 61 62 79 63 52 64 39 65 40 66 45 67
REMARK SMILES IDX 41 68 42 69 44 70 46 71 43 72 65 73 66 74 71 75 67 76 68 77
REMARK SMILES IDX 70 78 72 79 69 80 53 81 54 82 59 83 55 84 56 85 58 86 60 87
REMARK SMILES IDX 57 88
REMARK H PARENT 1 7 1 8 1 9 77 50 51 61
REMARK Flexibility Score: inf
ROOT
ATOM      1  C   UNL     1      -3.043  -0.133  -1.597  1.00  0.00     0.274 C 
ENDROOT
BRANCH   1   2
ATOM      2  O   UNL     1      -1.623  -0.361  -1.454  1.00  0.00    -0.458 OA
BRANCH   2   3
ATOM      3  C   UNL     1      -0.789   0.445  -2.166  1.00  0.00     0.365 C 
ATOM      4  O   UNL     1      -1.171   1.315  -2.940  1.00  0.00    -0.245 OA
BRANCH   3   5
ATOM      5  C   UNL     1       0.701   0.154  -1.890  1.00  0.00     0.301 C 
BRANCH   5   6
ATOM      6  N   UNL     1       1.299  -0.646  -2.980  1.00  0.00    -0.345 N 
ATOM      7  H   UNL     1       1.041  -0.241  -3.880  1.00  0.00     0.345 HD
ATOM      8  H   UNL     1       0.954  -1.604  -2.928  1.00  0.00     0.345 HD
ATOM      9  H   UNL     1       2.315  -0.645  -2.885  1.00  0.00     0.345 HD
ENDBRANCH   5   6
BRANCH   5  10
ATOM     10  C   UNL     1       1.001  -0.336  -0.456  1.00  0.00     0.147 C 
BRANCH  10  11
ATOM     11  S   UNL     1       1.485  -2.087  -0.242  1.00  0.00    -0.141 SA
BRANCH  11  12
ATOM     12  C   UNL     1      -0.092  -2.937  -0.600  1.00  0.00     0.146 C 
ATOM     13  C   UNL     1      -1.142  -2.796   0.485  1.00  0.00     0.125 C 
ATOM     14  C   UNL     1       0.165  -4.423  -0.678  1.00  0.00     0.247 C 
ATOM     15  C   UNL     1      -1.622  -4.196   0.719  1.00  0.00     0.235 C 
ATOM     16  N   UNL     1      -0.740  -5.066   0.131  1.00  0.00    -0.250 N 
ATOM     17  O   UNL     1       0.985  -4.929  -1.435  1.00  0.00    -0.273 OA
ATOM     18  O   UNL     1      -2.618  -4.445   1.385  1.00  0.00    -0.274 OA
BRANCH  16  19
ATOM     19  C   UNL     1      -0.764  -6.467   0.298  1.00  0.00     0.052 A 
ATOM     20  C   UNL     1      -1.968  -7.172   0.378  1.00  0.00     0.027 A 
ATOM     21  C   UNL     1       0.444  -7.167   0.420  1.00  0.00     0.035 A 
ATOM     22  C   UNL     1      -1.962  -8.561   0.538  1.00  0.00     0.011 A 
ATOM     23  C   UNL     1       0.463  -8.549   0.651  1.00  0.00    -0.016 A 
ATOM     24  C   UNL     1      -0.755  -9.261   0.688  1.00  0.00    -0.018 A 
ATOM     25  C   UNL     1       1.672  -9.230   0.862  1.00  0.00     0.009 A 
ATOM     26  C   UNL     1      -0.728 -10.649   0.890  1.00  0.00     0.009 A 
ATOM     27  C   UNL     1       1.680 -10.605   1.092  1.00  0.00     0.001 A 
ATOM     28  C   UNL     1       0.483 -11.315   1.095  1.00  0.00     0.001 A 
ENDBRANCH  16  19
ENDBRANCH  11  12
ENDBRANCH  10  11
ENDBRANCH   5  10
ENDBRANCH   3   5
ENDBRANCH   2   3
ENDBRANCH   1   2
BRANCH   1  29
ATOM     29  C   UNL     1      -3.630   0.510  -0.336  1.00  0.00     0.275 C 
BRANCH  29  30
ATOM     30  O   UNL     1      -3.187   1.873  -0.207  1.00  0.00    -0.458 OA
BRANCH  30  31
ATOM     31  C   UNL     1      -2.092   2.051   0.566  1.00  0.00     0.338 C 
ATOM     32  O   UNL     1      -1.497   1.210   1.216  1.00  0.00    -0.246 OA
BRANCH  31  33
ATOM     33  C   UNL     1      -1.581   3.411   0.359  1.00  0.00     0.060 A 
ATOM     34  C   UNL     1      -0.345   3.551  -0.277  1.00  0.00     0.016 A 
ATOM     35  C   UNL     1      -2.277   4.527   0.821  1.00  0.00     0.016 A 
ATOM     36  C   UNL     1       0.203   4.813  -0.467  1.00  0.00     0.010 A 
ATOM     37  C   UNL     1      -1.725   5.797   0.632  1.00  0.00     0.010 A 
ATOM     38  C   UNL     1      -0.482   5.944  -0.009  1.00  0.00    -0.014 A 
BRANCH  38  39
ATOM     39  C   UNL     1       0.136   7.279  -0.161  1.00  0.00     0.031 A 
ATOM     40  C   UNL     1       0.734   7.959   1.034  1.00  0.00     0.074 A 
ATOM     41  C   UNL     1       0.177   7.862  -1.372  1.00  0.00     0.049 A 
ATOM     42  N   UNL     1       1.242   9.160   1.135  1.00  0.00    -0.248 NA
ATOM     43  C   UNL     1       0.764   7.183   2.284  1.00  0.00     0.031 C 
ATOM     44  C   UNL     1      -0.326   7.268  -2.612  1.00  0.00     0.029 A 
ATOM     45  N   UNL     1       0.662   9.084  -1.757  1.00  0.00    -0.354 N 
ATOM     46  C   UNL     1       1.632   9.293   2.460  1.00  0.00     0.074 A 
ATOM     47  C   UNL     1       1.290   8.056   3.130  1.00  0.00     0.031 C 
ATOM     48  C   UNL     1      -0.126   8.131  -3.621  1.00  0.00     0.029 A 
ATOM     49  C   UNL     1       0.475   9.351  -3.091  1.00  0.00     0.049 A 
ATOM     50  H   UNL     1       1.102   9.710  -1.138  1.00  0.00     0.167 HD
ATOM     51  C   UNL     1       2.223  10.353   3.060  1.00  0.00     0.037 A 
ATOM     52  C   UNL     1       0.731  10.469  -3.796  1.00  0.00     0.037 A 
ATOM     53  C   UNL     1       2.569  11.574   2.381  1.00  0.00     0.049 A 
ATOM     54  C   UNL     1       1.330  11.654  -3.093  1.00  0.00     0.074 A 
ATOM     55  C   UNL     1       3.178  12.706   2.895  1.00  0.00     0.029 A 
ATOM     56  N   UNL     1       2.334  11.822   1.036  1.00  0.00    -0.354 N 
ATOM     57  N   UNL     1       1.686  11.777  -1.837  1.00  0.00    -0.248 NA
ATOM     58  C   UNL     1       1.557  12.859  -3.903  1.00  0.00     0.031 C 
ATOM     59  C   UNL     1       3.276  13.652   1.869  1.00  0.00     0.029 A 
ATOM     60  C   UNL     1       2.768  13.095   0.707  1.00  0.00     0.049 A 
ATOM     61  H   UNL     1       1.921  11.185   0.409  1.00  0.00     0.167 HD
ATOM     62  C   UNL     1       2.193  13.063  -1.708  1.00  0.00     0.074 A 
ATOM     63  C   UNL     1       2.114  13.675  -3.019  1.00  0.00     0.031 C 
ATOM     64  C   UNL     1       2.680  13.683  -0.606  1.00  0.00     0.037 A 
BRANCH  51  65
ATOM     65  C   UNL     1       2.499  10.247   4.530  1.00  0.00     0.057 A 
ATOM     66  C   UNL     1       3.524   9.439   5.036  1.00  0.00     0.134 A 
ATOM     67  C   UNL     1       1.740  10.981   5.450  1.00  0.00     0.134 A 
ATOM     68  F   UNL     1       4.276   8.697   4.209  1.00  0.00    -0.206 F 
ATOM     69  C   UNL     1       3.771   9.348   6.407  1.00  0.00     0.040 A 
ATOM     70  C   UNL     1       1.992  10.915   6.821  1.00  0.00     0.040 A 
ATOM     71  F   UNL     1       0.743  11.775   5.031  1.00  0.00    -0.206 F 
ATOM     72  C   UNL     1       3.007  10.092   7.304  1.00  0.00     0.006 A 
ENDBRANCH  51  65
BRANCH  52  73
ATOM     73  C   UNL     1       0.397  10.527  -5.241  1.00  0.00     0.057 A 
ATOM     74  C   UNL     1       1.399  10.565  -6.216  1.00  0.00     0.134 A 
ATOM     75  C   UNL     1      -0.933  10.550  -5.680  1.00  0.00     0.134 A 
ATOM     76  F   UNL     1       2.691  10.568  -5.856  1.00  0.00    -0.206 F 
ATOM     77  C   UNL     1       1.093  10.635  -7.576  1.00  0.00     0.040 A 
ATOM     78  C   UNL     1      -1.254  10.595  -7.037  1.00  0.00     0.040 A 
ATOM     79  F   UNL     1      -1.939  10.516  -4.794  1.00  0.00    -0.206 F 
ATOM     80  C   UNL     1      -0.239  10.644  -7.989  1.00  0.00     0.006 A 
ENDBRANCH  52  73
BRANCH  64  81
ATOM     81  C   UNL     1       3.186  15.083  -0.780  1.00  0.00     0.057 A 
ATOM     82  C   UNL     1       2.314  16.166  -0.945  1.00  0.00     0.134 A 
ATOM     83  C   UNL     1       4.559  15.354  -0.748  1.00  0.00     0.134 A 
ATOM     84  F   UNL     1       0.988  15.970  -0.997  1.00  0.00    -0.206 F 
ATOM     85  C   UNL     1       2.792  17.469  -1.093  1.00  0.00     0.040 A 
ATOM     86  C   UNL     1       5.048  16.654  -0.872  1.00  0.00     0.040 A 
ATOM     87  F   UNL     1       5.446  14.360  -0.586  1.00  0.00    -0.206 F 
ATOM     88  C   UNL     1       4.163  17.716  -1.050  1.00  0.00     0.006 A 
ENDBRANCH  64  81
ENDBRANCH  38  39
ENDBRANCH  31  33
ENDBRANCH  30  31
ENDBRANCH  29  30
ENDBRANCH   1  29
TORSDOF 16
