REMARK SMILES O=C(OCCOC(=O)[C@@H]1C[NH2+]CCN1C(=O)N[C@@H]1CCOC1)c1ccc(-c2c3nc(c(-c4c(F)cccc4F)c4ccc([nH]4)c(-c4c(F)cccc4F)c4nc(c(-c5c(F)cccc5F)c5ccc2[nH]5)C=C4)C=C3)cc1
REMARK SMILES IDX 4 1 3 2 2 3 1 4 23 5 24 6 76 7 25 8 75 9 26 10 27 11 28 12
REMARK SMILES IDX 69 13 29 14 74 15 68 16 70 17 30 18 73 19 67 20 66 21 31 23
REMARK SMILES IDX 57 24 40 25 56 26 41 27 44 28 55 29 71 30 42 31 43 32 54 34
REMARK SMILES IDX 72 35 45 36 32 37 33 38 38 39 34 40 35 41 37 42 39 43 36 44
REMARK SMILES IDX 58 45 59 46 64 47 60 48 61 49 63 50 65 51 62 52 46 53 47 54
REMARK SMILES IDX 52 55 48 56 49 57 51 58 53 59 50 60 5 61 6 62 7 63 8 64 9 65
REMARK SMILES IDX 10 66 14 67 11 68 13 69 12 70 15 73 16 74 17 75 18 77 19 78
REMARK SMILES IDX 22 79 20 80 21 81
REMARK H PARENT 70 22 44 33 11 71 11 72 17 76
REMARK Flexibility Score: inf
ROOT
ATOM      1  C   UNL     1       5.704   1.063   0.599  1.00  0.00     0.275 C 
ENDROOT
BRANCH   1   2
ATOM      2  O   UNL     1       4.209   1.636  -0.319  1.00  0.00    -0.458 OA
BRANCH   2   3
ATOM      3  C   UNL     1       2.794   0.866  -0.748  1.00  0.00     0.338 C 
ATOM      4  O   UNL     1       1.822   1.567  -1.013  1.00  0.00    -0.246 OA
BRANCH   3   5
ATOM      5  C   UNL     1       2.667  -1.016  -0.785  1.00  0.00     0.060 A 
ATOM      6  C   UNL     1       4.231  -2.159  -0.336  1.00  0.00     0.016 A 
ATOM      7  C   UNL     1       2.255  -1.022  -2.553  1.00  0.00     0.016 A 
ATOM      8  C   UNL     1       5.242  -2.881  -1.539  1.00  0.00     0.010 A 
ATOM      9  C   UNL     1       3.307  -1.953  -3.664  1.00  0.00     0.010 A 
ATOM     10  C   UNL     1       4.701  -2.918  -3.098  1.00  0.00    -0.014 A 
BRANCH  10  11
ATOM     11  C   UNL     1       5.362  -4.102  -3.737  1.00  0.00     0.031 A 
ATOM     12  C   UNL     1       6.129  -3.887  -4.983  1.00  0.00     0.074 A 
ATOM     13  C   UNL     1       5.467  -5.298  -3.073  1.00  0.00     0.049 A 
ATOM     14  N   UNL     1       6.747  -4.771  -5.710  1.00  0.00    -0.248 NA
ATOM     15  C   UNL     1       6.289  -2.495  -5.425  1.00  0.00     0.031 C 
ATOM     16  C   UNL     1       5.059  -5.587  -1.682  1.00  0.00     0.029 A 
ATOM     17  N   UNL     1       5.950  -6.532  -3.451  1.00  0.00    -0.354 N 
ATOM     18  C   UNL     1       7.383  -4.045  -6.699  1.00  0.00     0.074 A 
ATOM     19  C   UNL     1       7.053  -2.651  -6.497  1.00  0.00     0.031 C 
ATOM     20  C   UNL     1       5.194  -6.873  -1.368  1.00  0.00     0.029 A 
ATOM     21  C   UNL     1       5.653  -7.542  -2.547  1.00  0.00     0.049 A 
ATOM     22  H   UNL     1       6.457  -6.682  -4.281  1.00  0.00     0.167 HD
ATOM     23  C   UNL     1       8.183  -4.528  -7.673  1.00  0.00     0.037 A 
ATOM     24  C   UNL     1       5.666  -8.879  -2.654  1.00  0.00     0.037 A 
ATOM     25  C   UNL     1       8.480  -5.928  -7.823  1.00  0.00     0.049 A 
ATOM     26  C   UNL     1       6.311  -9.407  -3.879  1.00  0.00     0.074 A 
ATOM     27  C   UNL     1       9.230  -6.549  -8.801  1.00  0.00     0.029 A 
ATOM     28  N   UNL     1       8.025  -6.927  -6.967  1.00  0.00    -0.354 N 
ATOM     29  N   UNL     1       6.853  -8.720  -4.852  1.00  0.00    -0.248 NA
ATOM     30  C   UNL     1       6.412 -10.859  -4.008  1.00  0.00     0.031 C 
ATOM     31  C   UNL     1       9.165  -7.928  -8.581  1.00  0.00     0.029 A 
ATOM     32  C   UNL     1       8.426  -8.167  -7.431  1.00  0.00     0.049 A 
ATOM     33  H   UNL     1       7.495  -6.774  -6.152  1.00  0.00     0.167 HD
ATOM     34  C   UNL     1       7.420  -9.651  -5.690  1.00  0.00     0.074 A 
ATOM     35  C   UNL     1       7.148 -10.954  -5.107  1.00  0.00     0.031 C 
ATOM     36  C   UNL     1       8.119  -9.441  -6.828  1.00  0.00     0.037 A 
BRANCH  23  37
ATOM     37  C   UNL     1       8.682  -3.541  -8.677  1.00  0.00     0.057 A 
ATOM     38  C   UNL     1       9.672  -2.596  -8.377  1.00  0.00     0.134 A 
ATOM     39  C   UNL     1       8.111  -3.502  -9.954  1.00  0.00     0.134 A 
ATOM     40  F   UNL     1      10.230  -2.557  -7.158  1.00  0.00    -0.206 F 
ATOM     41  C   UNL     1      10.059  -1.631  -9.309  1.00  0.00     0.040 A 
ATOM     42  C   UNL     1       8.506  -2.558 -10.900  1.00  0.00     0.040 A 
ATOM     43  F   UNL     1       7.144  -4.368 -10.293  1.00  0.00    -0.206 F 
ATOM     44  C   UNL     1       9.478  -1.613 -10.576  1.00  0.00     0.006 A 
ENDBRANCH  23  37
BRANCH  24  45
ATOM     45  C   UNL     1       5.023  -9.757  -1.635  1.00  0.00     0.057 A 
ATOM     46  C   UNL     1       5.757 -10.643  -0.841  1.00  0.00     0.134 A 
ATOM     47  C   UNL     1       3.629  -9.753  -1.460  1.00  0.00     0.134 A 
ATOM     48  F   UNL     1       7.093 -10.692  -0.945  1.00  0.00    -0.206 F 
ATOM     49  C   UNL     1       5.132 -11.528   0.045  1.00  0.00     0.040 A 
ATOM     50  C   UNL     1       2.993 -10.616  -0.562  1.00  0.00     0.040 A 
ATOM     51  F   UNL     1       2.859  -8.912  -2.168  1.00  0.00    -0.206 F 
ATOM     52  C   UNL     1       3.745 -11.521   0.181  1.00  0.00     0.006 A 
ENDBRANCH  24  45
BRANCH  36  53
ATOM     53  C   UNL     1       8.636 -10.667  -7.496  1.00  0.00     0.057 A 
ATOM     54  C   UNL     1       7.779 -11.549  -8.162  1.00  0.00     0.134 A 
ATOM     55  C   UNL     1      10.007 -10.945  -7.495  1.00  0.00     0.134 A 
ATOM     56  F   UNL     1       6.453 -11.345  -8.157  1.00  0.00    -0.206 F 
ATOM     57  C   UNL     1       8.272 -12.681  -8.803  1.00  0.00     0.040 A 
ATOM     58  C   UNL     1      10.514 -12.054  -8.164  1.00  0.00     0.040 A 
ATOM     59  F   UNL     1      10.868 -10.135  -6.862  1.00  0.00    -0.206 F 
ATOM     60  C   UNL     1       9.644 -12.927  -8.817  1.00  0.00     0.006 A 
ENDBRANCH  36  53
ENDBRANCH  10  11
ENDBRANCH   3   5
ENDBRANCH   2   3
ENDBRANCH   1   2
BRANCH   1  61
ATOM     61  C   UNL     1       5.925  -0.718   1.243  1.00  0.00     0.274 C 
BRANCH  61  62
ATOM     62  O   UNL     1       4.736  -1.966   1.784  1.00  0.00    -0.460 OA
BRANCH  62  63
ATOM     63  C   UNL     1       3.348  -2.719   1.716  1.00  0.00     0.334 C 
ATOM     64  O   UNL     1       2.890  -3.154   2.778  1.00  0.00    -0.250 OA
BRANCH  63  65
ATOM     65  C   UNL     1       2.416  -3.131   0.142  1.00  0.00     0.252 C 
ATOM     66  C   UNL     1       2.081  -4.650   0.253  1.00  0.00     0.298 C 
ATOM     67  N   UNL     1       3.013  -2.733  -1.580  1.00  0.00    -0.300 N 
ATOM     68  N   UNL     1       1.225  -5.231  -0.783  1.00  0.00    -0.343 N 
ATOM     69  C   UNL     1       2.135  -3.737  -2.576  1.00  0.00     0.183 C 
ATOM     70  C   UNL     1       1.871  -5.162  -2.081  1.00  0.00     0.282 C 
ATOM     71  H   UNL     1       0.346  -4.715  -0.819  1.00  0.00     0.346 HD
ATOM     72  H   UNL     1       1.052  -6.210  -0.554  1.00  0.00     0.346 HD
BRANCH  67  73
ATOM     73  C   UNL     1       4.187  -1.139  -1.863  1.00  0.00     0.318 C 
ATOM     74  O   UNL     1       4.794  -0.491  -2.757  1.00  0.00    -0.249 OA
ATOM     75  N   UNL     1       4.427  -0.296  -0.264  1.00  0.00    -0.333 N 
ATOM     76  H   UNL     1       5.331   0.091  -0.235  1.00  0.00     0.165 HD
BRANCH  75  77
ATOM     77  C   UNL     1       3.506   0.099   1.404  1.00  0.00     0.112 C 
ATOM     78  C   UNL     1       3.383   1.657   1.974  1.00  0.00     0.056 C 
ATOM     79  C   UNL     1       3.812  -0.305   3.017  1.00  0.00     0.185 C 
ATOM     80  C   UNL     1       4.373   1.865   3.144  1.00  0.00     0.162 C 
ATOM     81  O   UNL     1       4.793   0.580   3.540  1.00  0.00    -0.379 OA
ENDBRANCH  75  77
ENDBRANCH  67  73
ENDBRANCH  63  65
ENDBRANCH  62  63
ENDBRANCH  61  62
ENDBRANCH   1  61
TORSDOF 13
