REMARK SMILES O=C(OCCOC(=O)[C@@H]1[C@@H](C(=O)N2CCN(c3cccc(Cl)c3)CC2)[C@H]2CC[C@@H]1O2)c1ccc(-c2c3nc(c(-c4c(F)cccc4F)c4ccc([nH]4)c(-c4c(F)cccc4F)c4nc(c(-c5c(F)cccc5F)c5ccc2[nH]5)C=C4)C=C3)cc1
REMARK SMILES IDX 4 1 3 2 2 3 1 4 31 5 32 6 84 7 33 8 83 9 34 10 35 11 36 12
REMARK SMILES IDX 77 13 37 14 82 15 76 16 78 17 38 18 81 19 75 20 74 21 39 23
REMARK SMILES IDX 65 24 48 25 64 26 49 27 52 28 63 29 79 30 50 31 51 32 62 34
REMARK SMILES IDX 80 35 53 36 40 37 41 38 46 39 42 40 43 41 45 42 47 43 44 44
REMARK SMILES IDX 66 45 67 46 72 47 68 48 69 49 71 50 73 51 70 52 54 53 55 54
REMARK SMILES IDX 60 55 56 56 57 57 59 58 61 59 58 60 5 61 6 62 7 63 8 64 9 65
REMARK SMILES IDX 10 66 29 67 26 68 28 69 30 70 27 71 11 72 12 73 13 74 14 75
REMARK SMILES IDX 25 76 15 77 24 78 16 79 17 80 18 81 23 82 19 83 21 84 20 85
REMARK SMILES IDX 22 86
REMARK H PARENT 78 22 52 33
REMARK Flexibility Score: inf
ROOT
ATOM      1  C   UNL     1       4.202   1.224   1.022  1.00  0.00     0.275 C 
ENDROOT
BRANCH   1   2
ATOM      2  O   UNL     1       3.218   1.176  -0.025  1.00  0.00    -0.458 OA
BRANCH   2   3
ATOM      3  C   UNL     1       3.155   0.392  -1.125  1.00  0.00     0.338 C 
ATOM      4  O   UNL     1       2.235   0.582  -1.921  1.00  0.00    -0.246 OA
BRANCH   3   5
ATOM      5  C   UNL     1       4.046  -0.790  -1.379  1.00  0.00     0.060 A 
ATOM      6  C   UNL     1       5.338  -1.001  -0.879  1.00  0.00     0.016 A 
ATOM      7  C   UNL     1       3.493  -1.800  -2.183  1.00  0.00     0.016 A 
ATOM      8  C   UNL     1       6.001  -2.230  -1.048  1.00  0.00     0.010 A 
ATOM      9  C   UNL     1       4.150  -3.020  -2.359  1.00  0.00     0.010 A 
ATOM     10  C   UNL     1       5.393  -3.269  -1.749  1.00  0.00    -0.014 A 
BRANCH  10  11
ATOM     11  C   UNL     1       6.031  -4.604  -1.915  1.00  0.00     0.031 A 
ATOM     12  C   UNL     1       6.443  -5.008  -3.294  1.00  0.00     0.074 A 
ATOM     13  C   UNL     1       6.150  -5.486  -0.897  1.00  0.00     0.049 A 
ATOM     14  N   UNL     1       6.940  -6.144  -3.701  1.00  0.00    -0.248 NA
ATOM     15  C   UNL     1       6.297  -3.994  -4.353  1.00  0.00     0.031 C 
ATOM     16  C   UNL     1       5.860  -5.220   0.507  1.00  0.00     0.029 A 
ATOM     17  N   UNL     1       6.466  -6.826  -0.899  1.00  0.00    -0.354 N 
ATOM     18  C   UNL     1       7.247  -5.946  -5.035  1.00  0.00     0.074 A 
ATOM     19  C   UNL     1       6.729  -4.652  -5.414  1.00  0.00     0.031 C 
ATOM     20  C   UNL     1       5.833  -6.375   1.195  1.00  0.00     0.029 A 
ATOM     21  C   UNL     1       6.203  -7.459   0.300  1.00  0.00     0.049 A 
ATOM     22  H   UNL     1       6.844  -7.290  -1.681  1.00  0.00     0.167 HD
ATOM     23  C   UNL     1       7.996  -6.729  -5.840  1.00  0.00     0.037 A 
ATOM     24  C   UNL     1       6.268  -8.762   0.638  1.00  0.00     0.037 A 
ATOM     25  C   UNL     1       8.499  -8.015  -5.454  1.00  0.00     0.049 A 
ATOM     26  C   UNL     1       6.909  -9.703  -0.343  1.00  0.00     0.074 A 
ATOM     27  C   UNL     1       9.310  -8.875  -6.168  1.00  0.00     0.029 A 
ATOM     28  N   UNL     1       8.215  -8.633  -4.245  1.00  0.00    -0.354 N 
ATOM     29  N   UNL     1       7.342  -9.453  -1.555  1.00  0.00    -0.248 NA
ATOM     30  C   UNL     1       7.163 -11.076   0.114  1.00  0.00     0.031 C 
ATOM     31  C   UNL     1       9.469 -10.042  -5.412  1.00  0.00     0.029 A 
ATOM     32  C   UNL     1       8.799  -9.886  -4.208  1.00  0.00     0.049 A 
ATOM     33  H   UNL     1       7.677  -8.239  -3.521  1.00  0.00     0.167 HD
ATOM     34  C   UNL     1       8.008 -10.598  -1.964  1.00  0.00     0.074 A 
ATOM     35  C   UNL     1       7.889 -11.557  -0.885  1.00  0.00     0.031 C 
ATOM     36  C   UNL     1       8.690 -10.817  -3.114  1.00  0.00     0.037 A 
BRANCH  23  37
ATOM     37  C   UNL     1       8.339  -6.160  -7.178  1.00  0.00     0.057 A 
ATOM     38  C   UNL     1       9.216  -5.070  -7.296  1.00  0.00     0.134 A 
ATOM     39  C   UNL     1       7.756  -6.656  -8.347  1.00  0.00     0.134 A 
ATOM     40  F   UNL     1       9.783  -4.531  -6.205  1.00  0.00    -0.206 F 
ATOM     41  C   UNL     1       9.471  -4.469  -8.528  1.00  0.00     0.040 A 
ATOM     42  C   UNL     1       8.024  -6.079  -9.588  1.00  0.00     0.040 A 
ATOM     43  F   UNL     1       6.902  -7.688  -8.297  1.00  0.00    -0.206 F 
ATOM     44  C   UNL     1       8.874  -4.977  -9.680  1.00  0.00     0.006 A 
ENDBRANCH  23  37
BRANCH  24  45
ATOM     45  C   UNL     1       5.819  -9.257   1.970  1.00  0.00     0.057 A 
ATOM     46  C   UNL     1       6.736  -9.665   2.947  1.00  0.00     0.134 A 
ATOM     47  C   UNL     1       4.459  -9.432   2.259  1.00  0.00     0.134 A 
ATOM     48  F   UNL     1       8.053  -9.546   2.724  1.00  0.00    -0.206 F 
ATOM     49  C   UNL     1       6.324 -10.271   4.137  1.00  0.00     0.040 A 
ATOM     50  C   UNL     1       4.032 -10.020   3.455  1.00  0.00     0.040 A 
ATOM     51  F   UNL     1       3.524  -9.069   1.369  1.00  0.00    -0.206 F 
ATOM     52  C   UNL     1       4.967 -10.455   4.392  1.00  0.00     0.006 A 
ENDBRANCH  24  45
BRANCH  36  53
ATOM     53  C   UNL     1       9.420 -12.118  -3.241  1.00  0.00     0.057 A 
ATOM     54  C   UNL     1       8.748 -13.332  -3.427  1.00  0.00     0.134 A 
ATOM     55  C   UNL     1      10.821 -12.142  -3.243  1.00  0.00     0.134 A 
ATOM     56  F   UNL     1       7.408 -13.376  -3.416  1.00  0.00    -0.206 F 
ATOM     57  C   UNL     1       9.446 -14.527  -3.598  1.00  0.00     0.040 A 
ATOM     58  C   UNL     1      11.529 -13.325  -3.447  1.00  0.00     0.040 A 
ATOM     59  F   UNL     1      11.523 -11.010  -3.075  1.00  0.00    -0.206 F 
ATOM     60  C   UNL     1      10.840 -14.523  -3.621  1.00  0.00     0.006 A 
ENDBRANCH  36  53
ENDBRANCH  10  11
ENDBRANCH   3   5
ENDBRANCH   2   3
ENDBRANCH   1   2
BRANCH   1  61
ATOM     61  C   UNL     1       4.000   0.180   2.123  1.00  0.00     0.274 C 
BRANCH  61  62
ATOM     62  O   UNL     1       3.520  -1.072   1.606  1.00  0.00    -0.462 OA
BRANCH  62  63
ATOM     63  C   UNL     1       2.365  -1.573   2.125  1.00  0.00     0.312 C 
ATOM     64  O   UNL     1       1.700  -1.024   3.002  1.00  0.00    -0.252 OA
BRANCH  63  65
ATOM     65  C   UNL     1       1.893  -2.811   1.387  1.00  0.00     0.143 C 
ATOM     66  C   UNL     1       1.206  -3.842   2.316  1.00  0.00     0.124 C 
ATOM     67  C   UNL     1       3.030  -3.647   0.832  1.00  0.00     0.133 C 
ATOM     68  C   UNL     1       2.105  -5.079   2.155  1.00  0.00     0.132 C 
ATOM     69  C   UNL     1       2.502  -4.699  -0.148  1.00  0.00     0.036 C 
ATOM     70  O   UNL     1       3.386  -4.437   1.986  1.00  0.00    -0.373 OA
ATOM     71  C   UNL     1       1.969  -5.767   0.794  1.00  0.00     0.035 C 
BRANCH  66  72
ATOM     72  C   UNL     1      -0.222  -4.228   1.995  1.00  0.00     0.229 C 
ATOM     73  O   UNL     1      -0.766  -5.211   2.489  1.00  0.00    -0.274 OA
ATOM     74  N   UNL     1      -0.846  -3.409   1.097  1.00  0.00    -0.339 N 
ATOM     75  C   UNL     1      -1.692  -2.321   1.565  1.00  0.00     0.141 C 
ATOM     76  C   UNL     1      -1.074  -3.820  -0.287  1.00  0.00     0.141 C 
ATOM     77  C   UNL     1      -1.539  -1.089   0.654  1.00  0.00     0.138 C 
ATOM     78  C   UNL     1      -0.879  -2.620  -1.228  1.00  0.00     0.138 C 
ATOM     79  N   UNL     1      -1.694  -1.488  -0.758  1.00  0.00    -0.368 N 
BRANCH  79  80
ATOM     80  C   UNL     1      -2.365  -0.696  -1.663  1.00  0.00     0.038 A 
ATOM     81  C   UNL     1      -3.110  -1.283  -2.698  1.00  0.00     0.026 A 
ATOM     82  C   UNL     1      -2.371   0.701  -1.573  1.00  0.00     0.046 A 
ATOM     83  C   UNL     1      -3.845  -0.516  -3.602  1.00  0.00     0.004 A 
ATOM     84  C   UNL     1      -3.104   1.472  -2.476  1.00  0.00     0.043 A 
ATOM     85  C   UNL     1      -3.845   0.869  -3.488  1.00  0.00     0.020 A 
ATOM     86  Cl  UNL     1      -3.103   3.188  -2.331  1.00  0.00    -0.084 Cl
ENDBRANCH  79  80
ENDBRANCH  66  72
ENDBRANCH  63  65
ENDBRANCH  62  63
ENDBRANCH  61  62
ENDBRANCH   1  61
TORSDOF 13
