REMARK SMILES COc1ccc(S(=O)(=O)Nc2c(C)cccc2C(=O)OCCOC(=O)c2ccc(-c3c4nc(c(-c5c(F)cccc5F)c5ccc([nH]5)c(-c5c(F)cccc5F)c5nc(c(-c6c(F)cccc6F)c6ccc3[nH]6)C=C5)C=C4)cc2)cc1
REMARK SMILES IDX 21 1 20 2 18 3 19 4 17 5 11 6 12 7 13 8 14 9 16 10 15 11
REMARK SMILES IDX 10 12 7 14 8 15 9 16 6 17 3 18 4 19 81 20 5 21 80 22 2 23
REMARK SMILES IDX 1 24 22 25 23 26 24 27 25 28 26 29 27 30 79 31 28 32 78 33
REMARK SMILES IDX 29 34 30 35 31 36 72 37 32 38 77 39 71 40 73 41 33 42 76 43
REMARK SMILES IDX 70 44 69 45 34 47 60 48 43 49 59 50 44 51 47 52 58 53 74 54
REMARK SMILES IDX 45 55 46 56 57 58 75 59 48 60 35 61 36 62 41 63 37 64 38 65
REMARK SMILES IDX 40 66 42 67 39 68 61 69 62 70 67 71 63 72 64 73 66 74 68 75
REMARK SMILES IDX 65 76 49 77 50 78 55 79 51 80 52 81 54 82 56 83 53 84
REMARK H PARENT 10 13 73 46 47 57
REMARK Flexibility Score: inf
ROOT
ATOM      1  C   UNL     1       2.255  -4.822   5.464  1.00  0.00     0.275 C 
ENDROOT
BRANCH   1   2
ATOM      2  O   UNL     1       3.309  -5.176   4.541  1.00  0.00    -0.458 OA
BRANCH   2   3
ATOM      3  C   UNL     1       3.550  -4.241   3.591  1.00  0.00     0.340 C 
ATOM      4  O   UNL     1       2.986  -3.164   3.495  1.00  0.00    -0.246 OA
BRANCH   3   5
ATOM      5  C   UNL     1       4.530  -4.690   2.582  1.00  0.00     0.084 A 
ATOM      6  C   UNL     1       4.307  -5.862   1.841  1.00  0.00     0.066 A 
ATOM      7  C   UNL     1       5.133  -6.140   0.735  1.00  0.00    -0.026 A 
ATOM      8  C   UNL     1       4.998  -7.369  -0.119  1.00  0.00     0.046 C 
ATOM      9  C   UNL     1       6.152  -5.230   0.384  1.00  0.00     0.005 A 
ATOM     10  C   UNL     1       5.574  -3.820   2.236  1.00  0.00     0.018 A 
ATOM     11  C   UNL     1       6.379  -4.083   1.135  1.00  0.00     0.001 A 
BRANCH   6  12
ATOM     12  N   UNL     1       3.220  -6.721   2.197  1.00  0.00    -0.278 N 
ATOM     13  H   UNL     1       3.350  -7.392   2.906  1.00  0.00     0.180 HD
BRANCH  12  14
ATOM     14  S   UNL     1       1.716  -6.611   1.432  1.00  0.00     0.261 S 
ATOM     15  O   UNL     1       0.790  -7.222   2.368  1.00  0.00    -0.201 OA
ATOM     16  O   UNL     1       1.836  -7.095   0.076  1.00  0.00    -0.201 OA
BRANCH  14  17
ATOM     17  C   UNL     1       1.305  -4.881   1.337  1.00  0.00     0.088 A 
ATOM     18  C   UNL     1       0.664  -2.159   1.135  1.00  0.00     0.118 A 
ATOM     19  C   UNL     1      -0.023  -2.986   2.031  1.00  0.00     0.048 A 
ATOM     20  C   UNL     1       1.662  -2.707   0.327  1.00  0.00     0.048 A 
ATOM     21  C   UNL     1       0.289  -4.347   2.134  1.00  0.00     0.026 A 
ATOM     22  C   UNL     1       1.966  -4.070   0.408  1.00  0.00     0.026 A 
BRANCH  18  23
ATOM     23  O   UNL     1       0.269  -0.849   1.141  1.00  0.00    -0.497 OA
ATOM     24  C   UNL     1       0.876   0.008   0.182  1.00  0.00     0.278 C 
ENDBRANCH  18  23
ENDBRANCH  14  17
ENDBRANCH  12  14
ENDBRANCH   6  12
ENDBRANCH   3   5
ENDBRANCH   2   3
ENDBRANCH   1   2
BRANCH   1  25
ATOM     25  C   UNL     1       2.771  -4.100   6.712  1.00  0.00     0.275 C 
BRANCH  25  26
ATOM     26  O   UNL     1       3.238  -2.769   6.419  1.00  0.00    -0.458 OA
BRANCH  26  27
ATOM     27  C   UNL     1       4.564  -2.678   6.182  1.00  0.00     0.338 C 
ATOM     28  O   UNL     1       5.386  -3.580   6.212  1.00  0.00    -0.246 OA
BRANCH  27  29
ATOM     29  C   UNL     1       4.939  -1.315   5.781  1.00  0.00     0.060 A 
ATOM     30  C   UNL     1       4.933  -1.000   4.426  1.00  0.00     0.016 A 
ATOM     31  C   UNL     1       5.536  -0.451   6.694  1.00  0.00     0.016 A 
ATOM     32  C   UNL     1       5.642   0.086   3.948  1.00  0.00     0.010 A 
ATOM     33  C   UNL     1       6.144   0.718   6.224  1.00  0.00     0.010 A 
ATOM     34  C   UNL     1       6.244   0.969   4.842  1.00  0.00    -0.014 A 
BRANCH  34  35
ATOM     35  C   UNL     1       7.028   2.111   4.319  1.00  0.00     0.031 A 
ATOM     36  C   UNL     1       8.480   2.232   4.677  1.00  0.00     0.074 A 
ATOM     37  C   UNL     1       6.449   3.012   3.501  1.00  0.00     0.049 A 
ATOM     38  N   UNL     1       9.283   3.255   4.544  1.00  0.00    -0.248 NA
ATOM     39  C   UNL     1       9.109   1.047   5.284  1.00  0.00     0.031 C 
ATOM     40  C   UNL     1       5.073   2.949   3.001  1.00  0.00     0.029 A 
ATOM     41  N   UNL     1       6.949   4.162   2.946  1.00  0.00    -0.354 N 
ATOM     42  C   UNL     1      10.487   2.863   5.116  1.00  0.00     0.074 A 
ATOM     43  C   UNL     1      10.313   1.508   5.591  1.00  0.00     0.031 C 
ATOM     44  C   UNL     1       4.847   3.997   2.196  1.00  0.00     0.029 A 
ATOM     45  C   UNL     1       6.019   4.861   2.215  1.00  0.00     0.049 A 
ATOM     46  H   UNL     1       7.881   4.457   3.060  1.00  0.00     0.167 HD
ATOM     47  C   UNL     1      11.627   3.584   5.238  1.00  0.00     0.037 A 
ATOM     48  C   UNL     1       6.080   6.092   1.679  1.00  0.00     0.037 A 
ATOM     49  C   UNL     1      11.785   4.915   4.712  1.00  0.00     0.049 A 
ATOM     50  C   UNL     1       7.330   6.897   1.879  1.00  0.00     0.074 A 
ATOM     51  C   UNL     1      12.888   5.746   4.777  1.00  0.00     0.029 A 
ATOM     52  N   UNL     1      10.806   5.601   4.005  1.00  0.00    -0.354 N 
ATOM     53  N   UNL     1       8.438   6.561   2.495  1.00  0.00    -0.248 NA
ATOM     54  C   UNL     1       7.332   8.259   1.333  1.00  0.00     0.031 C 
ATOM     55  C   UNL     1      12.563   6.951   4.143  1.00  0.00     0.029 A 
ATOM     56  C   UNL     1      11.275   6.851   3.639  1.00  0.00     0.049 A 
ATOM     57  H   UNL     1       9.910   5.251   3.797  1.00  0.00     0.167 HD
ATOM     58  C   UNL     1       9.278   7.661   2.395  1.00  0.00     0.074 A 
ATOM     59  C   UNL     1       8.553   8.668   1.645  1.00  0.00     0.031 C 
ATOM     60  C   UNL     1      10.532   7.827   2.881  1.00  0.00     0.037 A 
BRANCH  47  61
ATOM     61  C   UNL     1      12.758   2.969   6.012  1.00  0.00     0.057 A 
ATOM     62  C   UNL     1      13.502   1.887   5.525  1.00  0.00     0.134 A 
ATOM     63  C   UNL     1      13.107   3.475   7.271  1.00  0.00     0.134 A 
ATOM     64  F   UNL     1      13.210   1.341   4.335  1.00  0.00    -0.206 F 
ATOM     65  C   UNL     1      14.533   1.313   6.274  1.00  0.00     0.040 A 
ATOM     66  C   UNL     1      14.153   2.929   8.017  1.00  0.00     0.040 A 
ATOM     67  F   UNL     1      12.437   4.511   7.799  1.00  0.00    -0.206 F 
ATOM     68  C   UNL     1      14.864   1.838   7.522  1.00  0.00     0.006 A 
ENDBRANCH  47  61
BRANCH  48  69
ATOM     69  C   UNL     1       4.905   6.649   0.962  1.00  0.00     0.057 A 
ATOM     70  C   UNL     1       4.943   6.876  -0.418  1.00  0.00     0.134 A 
ATOM     71  C   UNL     1       3.711   6.948   1.631  1.00  0.00     0.134 A 
ATOM     72  F   UNL     1       6.063   6.627  -1.113  1.00  0.00    -0.206 F 
ATOM     73  C   UNL     1       3.840   7.387  -1.105  1.00  0.00     0.040 A 
ATOM     74  C   UNL     1       2.591   7.431   0.953  1.00  0.00     0.040 A 
ATOM     75  F   UNL     1       3.607   6.748   2.954  1.00  0.00    -0.206 F 
ATOM     76  C   UNL     1       2.657   7.658  -0.419  1.00  0.00     0.006 A 
ENDBRANCH  48  69
BRANCH  60  77
ATOM     77  C   UNL     1      11.210   9.126   2.569  1.00  0.00     0.057 A 
ATOM     78  C   UNL     1      10.846  10.322   3.199  1.00  0.00     0.134 A 
ATOM     79  C   UNL     1      12.261   9.171   1.644  1.00  0.00     0.134 A 
ATOM     80  F   UNL     1       9.836  10.346   4.081  1.00  0.00    -0.206 F 
ATOM     81  C   UNL     1      11.491  11.524   2.903  1.00  0.00     0.040 A 
ATOM     82  C   UNL     1      12.931  10.361   1.361  1.00  0.00     0.040 A 
ATOM     83  F   UNL     1      12.660   8.057   1.012  1.00  0.00    -0.206 F 
ATOM     84  C   UNL     1      12.541  11.543   1.987  1.00  0.00     0.006 A 
ENDBRANCH  60  77
ENDBRANCH  34  35
ENDBRANCH  27  29
ENDBRANCH  26  27
ENDBRANCH  25  26
ENDBRANCH   1  25
TORSDOF 15
