REMARK SMILES Cc1ccc(-c2cc(Cl)cc3c2O[C@H](C(F)(F)F)C(C(=O)OCCOC(=O)c2ccc(-c4c5nc(c(-c6c(F)cccc6F)c6ccc([nH]6)c(-c6c(F)cccc6F)c6nc(c(-c7c(F)cccc7F)c7ccc4[nH]7)C=C6)C=C5)cc2)=C3)cc1
REMARK SMILES IDX 24 1 23 2 22 3 20 4 21 5 19 6 6 7 7 8 12 9 8 10 11 11 13 12
REMARK SMILES IDX 9 13 10 14 82 15 14 16 5 17 1 18 2 19 3 20 84 21 4 22 83 23
REMARK SMILES IDX 15 24 16 25 17 26 18 27 25 28 26 29 27 30 28 31 29 32 81 33
REMARK SMILES IDX 30 34 80 35 31 36 32 37 33 38 74 39 34 40 79 41 73 42 75 43
REMARK SMILES IDX 35 44 78 45 72 46 71 47 36 49 62 50 45 51 61 52 46 53 49 54
REMARK SMILES IDX 60 55 76 56 47 57 48 58 59 60 77 61 50 62 37 63 38 64 43 65
REMARK SMILES IDX 39 66 40 67 42 68 44 69 41 70 63 71 64 72 69 73 65 74 66 75
REMARK SMILES IDX 68 76 70 77 67 78 51 79 52 80 57 81 53 82 54 83 56 84 58 85
REMARK SMILES IDX 55 86
REMARK H PARENT 75 48 49 59
REMARK Flexibility Score: inf
ROOT
ATOM      1  C   UNL     1      -1.558  -4.455   3.844  1.00  0.00     0.275 C 
ENDROOT
BRANCH   1   2
ATOM      2  C   UNL     1      -2.144  -3.352   4.820  1.00  0.00     0.275 C 
BRANCH   2   3
ATOM      3  O   UNL     1      -3.152  -2.005   4.238  1.00  0.00    -0.459 OA
BRANCH   3   4
ATOM      4  C   UNL     1      -3.355  -0.740   2.719  1.00  0.00     0.338 C 
ATOM      5  O   UNL     1      -2.436  -0.156   2.050  1.00  0.00    -0.246 OA
BRANCH   4   6
ATOM      6  C   UNL     1      -4.747  -0.015   2.456  1.00  0.00     0.087 C 
ATOM      7  C   UNL     1      -3.373  -0.785  -0.880  1.00  0.00     0.026 A 
ATOM      8  C   UNL     1      -3.897  -0.103  -2.003  1.00  0.00     0.033 A 
ATOM      9  C   UNL     1      -4.325  -1.072   0.113  1.00  0.00     0.135 A 
ATOM     10  C   UNL     1      -5.245   0.300  -2.075  1.00  0.00     0.042 A 
ATOM     11  C   UNL     1      -5.537  -0.419   0.156  1.00  0.00     0.019 A 
ATOM     12  O   UNL     1      -4.244  -1.931   1.167  1.00  0.00    -0.475 OA
ATOM     13  Cl  UNL     1      -5.769   1.262  -3.403  1.00  0.00    -0.084 Cl
ATOM     14  C   UNL     1      -6.089   0.152  -0.979  1.00  0.00     0.032 A 
ATOM     15  C   UNL     1      -5.713   0.140   1.498  1.00  0.00     0.027 C 
ATOM     16  C   UNL     1      -4.283  -1.430   2.958  1.00  0.00     0.316 C 
BRANCH   7  17
ATOM     17  C   UNL     1      -1.875  -0.801  -0.683  1.00  0.00    -0.015 A 
ATOM     18  C   UNL     1       2.444  -0.398   0.058  1.00  0.00     0.044 C 
ATOM     19  C   UNL     1       0.963  -0.544  -0.159  1.00  0.00    -0.051 A 
ATOM     20  C   UNL     1       0.291  -1.768  -0.020  1.00  0.00     0.004 A 
ATOM     21  C   UNL     1       0.222   0.547  -0.584  1.00  0.00     0.004 A 
ATOM     22  C   UNL     1      -1.106  -1.892  -0.268  1.00  0.00     0.009 A 
ATOM     23  C   UNL     1      -1.147   0.404  -0.855  1.00  0.00     0.009 A 
ENDBRANCH   7  17
BRANCH  16  24
ATOM     24  C   UNL     1      -4.926  -2.440   4.812  1.00  0.00     0.430 C 
ATOM     25  F   UNL     1      -5.935  -1.863   5.658  1.00  0.00    -0.167 F 
ATOM     26  F   UNL     1      -5.494  -3.734   4.671  1.00  0.00    -0.167 F 
ATOM     27  F   UNL     1      -4.055  -2.639   5.880  1.00  0.00    -0.167 F 
ENDBRANCH  16  24
ENDBRANCH   4   6
ENDBRANCH   3   4
ENDBRANCH   2   3
ENDBRANCH   1   2
BRANCH   1  28
ATOM     28  O   UNL     1      -2.260  -4.988   2.660  1.00  0.00    -0.458 OA
BRANCH  28  29
ATOM     29  C   UNL     1      -3.292  -4.487   1.941  1.00  0.00     0.338 C 
ATOM     30  O   UNL     1      -3.816  -4.994   0.970  1.00  0.00    -0.246 OA
BRANCH  29  31
ATOM     31  C   UNL     1      -3.683  -3.209   2.477  1.00  0.00     0.060 A 
ATOM     32  C   UNL     1      -5.576  -2.616   2.784  1.00  0.00     0.016 A 
ATOM     33  C   UNL     1      -2.057  -2.183   2.890  1.00  0.00     0.016 A 
ATOM     34  C   UNL     1      -5.723  -0.995   3.939  1.00  0.00     0.010 A 
ATOM     35  C   UNL     1      -2.154  -0.660   4.148  1.00  0.00     0.010 A 
ATOM     36  C   UNL     1      -4.012  -0.205   4.611  1.00  0.00    -0.014 A 
BRANCH  36  37
ATOM     37  C   UNL     1      -3.810   1.116   5.291  1.00  0.00     0.031 A 
ATOM     38  C   UNL     1      -4.255   1.179   6.694  1.00  0.00     0.074 A 
ATOM     39  C   UNL     1      -2.812   1.918   4.786  1.00  0.00     0.049 A 
ATOM     40  N   UNL     1      -4.675   2.235   7.316  1.00  0.00    -0.248 NA
ATOM     41  C   UNL     1      -4.457  -0.056   7.462  1.00  0.00     0.031 C 
ATOM     42  C   UNL     1      -1.592   2.348   5.503  1.00  0.00     0.029 A 
ATOM     43  N   UNL     1      -2.465   2.241   3.454  1.00  0.00    -0.354 N 
ATOM     44  C   UNL     1      -4.786   1.806   8.633  1.00  0.00     0.074 A 
ATOM     45  C   UNL     1      -5.100   0.412   8.529  1.00  0.00     0.031 C 
ATOM     46  C   UNL     1      -0.778   3.038   4.674  1.00  0.00     0.029 A 
ATOM     47  C   UNL     1      -1.485   3.262   3.432  1.00  0.00     0.049 A 
ATOM     48  H   UNL     1      -2.851   1.815   2.655  1.00  0.00     0.167 HD
ATOM     49  C   UNL     1      -3.970   2.337   9.599  1.00  0.00     0.037 A 
ATOM     50  C   UNL     1      -1.708   4.498   2.873  1.00  0.00     0.037 A 
ATOM     51  C   UNL     1      -3.008   3.261   9.004  1.00  0.00     0.049 A 
ATOM     52  C   UNL     1      -1.847   5.597   3.885  1.00  0.00     0.074 A 
ATOM     53  C   UNL     1      -1.642   3.234   8.792  1.00  0.00     0.029 A 
ATOM     54  N   UNL     1      -3.476   4.328   8.275  1.00  0.00    -0.354 N 
ATOM     55  N   UNL     1      -1.779   5.408   5.165  1.00  0.00    -0.248 NA
ATOM     56  C   UNL     1      -2.400   6.896   3.507  1.00  0.00     0.031 C 
ATOM     57  C   UNL     1      -1.303   4.382   8.014  1.00  0.00     0.029 A 
ATOM     58  C   UNL     1      -2.459   5.108   7.784  1.00  0.00     0.049 A 
ATOM     59  H   UNL     1      -4.431   4.512   8.123  1.00  0.00     0.167 HD
ATOM     60  C   UNL     1      -2.509   6.391   5.769  1.00  0.00     0.074 A 
ATOM     61  C   UNL     1      -2.890   7.289   4.688  1.00  0.00     0.031 C 
ATOM     62  C   UNL     1      -2.831   6.332   7.093  1.00  0.00     0.037 A 
BRANCH  49  63
ATOM     63  C   UNL     1      -3.811   1.877  11.042  1.00  0.00     0.057 A 
ATOM     64  C   UNL     1      -2.996   2.643  11.903  1.00  0.00     0.134 A 
ATOM     65  C   UNL     1      -4.413   0.771  11.675  1.00  0.00     0.134 A 
ATOM     66  F   UNL     1      -2.413   3.778  11.490  1.00  0.00    -0.206 F 
ATOM     67  C   UNL     1      -2.759   2.313  13.244  1.00  0.00     0.040 A 
ATOM     68  C   UNL     1      -4.186   0.429  13.018  1.00  0.00     0.040 A 
ATOM     69  F   UNL     1      -5.276  -0.042  11.064  1.00  0.00    -0.206 F 
ATOM     70  C   UNL     1      -3.353   1.199  13.808  1.00  0.00     0.006 A 
ENDBRANCH  49  63
BRANCH  50  71
ATOM     71  C   UNL     1      -2.722   4.474   1.792  1.00  0.00     0.057 A 
ATOM     72  C   UNL     1      -2.347   4.078   0.511  1.00  0.00     0.134 A 
ATOM     73  C   UNL     1      -4.040   4.276   2.232  1.00  0.00     0.134 A 
ATOM     74  F   UNL     1      -1.124   4.330   0.027  1.00  0.00    -0.206 F 
ATOM     75  C   UNL     1      -3.187   3.259  -0.205  1.00  0.00     0.040 A 
ATOM     76  C   UNL     1      -4.799   3.323   1.610  1.00  0.00     0.040 A 
ATOM     77  F   UNL     1      -4.460   4.726   3.422  1.00  0.00    -0.206 F 
ATOM     78  C   UNL     1      -4.330   2.790   0.421  1.00  0.00     0.006 A 
ENDBRANCH  50  71
BRANCH  62  79
ATOM     79  C   UNL     1      -3.619   7.409   7.795  1.00  0.00     0.057 A 
ATOM     80  C   UNL     1      -3.573   8.747   7.388  1.00  0.00     0.134 A 
ATOM     81  C   UNL     1      -4.388   7.180   8.958  1.00  0.00     0.134 A 
ATOM     82  F   UNL     1      -2.700   9.168   6.461  1.00  0.00    -0.206 F 
ATOM     83  C   UNL     1      -4.375   9.738   7.957  1.00  0.00     0.040 A 
ATOM     84  C   UNL     1      -5.131   8.176   9.588  1.00  0.00     0.040 A 
ATOM     85  F   UNL     1      -4.465   5.991   9.567  1.00  0.00    -0.206 F 
ATOM     86  C   UNL     1      -5.161   9.453   9.062  1.00  0.00     0.006 A 
ENDBRANCH  62  79
ENDBRANCH  36  37
ENDBRANCH  29  31
ENDBRANCH  28  29
ENDBRANCH   1  28
TORSDOF 13
