REMARK SMILES O=C(C[C@H]1COCC[NH2+]1)Nc1cncc(C(=O)OCCOC(=O)c2ccc(-c3c4nc(c(-c5c(F)cccc5F)c5ccc([nH]5)c(-c5c(F)cccc5F)c5nc(c(-c6c(F)cccc6F)c6ccc3[nH]6)C=C5)C=C4)cc2)c1
REMARK SMILES IDX 19 1 18 2 16 3 17 4 15 5 11 6 12 7 78 8 13 9 14 10 10 11
REMARK SMILES IDX 1 12 2 13 3 15 4 16 5 17 9 18 6 19 8 20 7 23 20 24 21 25
REMARK SMILES IDX 22 26 23 27 24 28 25 29 77 30 26 31 76 32 27 33 28 34 29 35
REMARK SMILES IDX 70 36 30 37 75 38 69 39 71 40 31 41 74 42 68 43 67 44 32 46
REMARK SMILES IDX 58 47 41 48 57 49 42 50 45 51 56 52 72 53 43 54 44 55 55 57
REMARK SMILES IDX 73 58 46 59 33 60 34 61 39 62 35 63 36 64 38 65 40 66 37 67
REMARK SMILES IDX 59 68 60 69 65 70 61 71 62 72 64 73 66 74 63 75 47 76 48 77
REMARK SMILES IDX 53 78 49 79 50 80 52 81 54 82 51 83
REMARK H PARENT 10 14 9 21 9 22 71 45 45 56
REMARK Flexibility Score: inf
ROOT
ATOM      1  C   UNL     1      10.737  -5.667   1.323  1.00  0.00     0.275 C 
ENDROOT
BRANCH   1   2
ATOM      2  O   UNL     1       9.394  -5.146   1.251  1.00  0.00    -0.458 OA
BRANCH   2   3
ATOM      3  C   UNL     1       8.442  -5.988   0.776  1.00  0.00     0.339 C 
ATOM      4  O   UNL     1       8.599  -7.138   0.410  1.00  0.00    -0.246 OA
BRANCH   3   5
ATOM      5  C   UNL     1       7.118  -5.346   0.857  1.00  0.00     0.080 A 
ATOM      6  C   UNL     1       5.635  -3.492   0.518  1.00  0.00     0.060 A 
ATOM      7  C   UNL     1       4.614  -4.283   1.046  1.00  0.00     0.137 A 
ATOM      8  C   UNL     1       6.921  -4.025   0.472  1.00  0.00     0.045 A 
ATOM      9  N   UNL     1       4.767  -5.572   1.410  1.00  0.00    -0.262 NA
ATOM     10  C   UNL     1       6.011  -6.081   1.261  1.00  0.00     0.126 A 
BRANCH   6  11
ATOM     11  N   UNL     1       5.293  -2.229   0.007  1.00  0.00    -0.324 N 
ATOM     12  O   UNL     1       7.146  -1.797  -1.329  1.00  0.00    -0.274 OA
ATOM     13  C   UNL     1       6.031  -1.500  -0.906  1.00  0.00     0.230 C 
ATOM     14  H   UNL     1       4.452  -1.829   0.326  1.00  0.00     0.169 HD
BRANCH  13  15
ATOM     15  C   UNL     1       5.362  -0.212  -1.340  1.00  0.00     0.167 C 
BRANCH  15  16
ATOM     16  C   UNL     1       3.923  -0.374  -1.870  1.00  0.00     0.218 C 
ATOM     17  C   UNL     1       3.391   0.984  -2.371  1.00  0.00     0.225 C 
ATOM     18  N   UNL     1       3.792  -1.412  -2.917  1.00  0.00    -0.340 N 
ATOM     19  O   UNL     1       4.084   1.409  -3.549  1.00  0.00    -0.369 OA
ATOM     20  C   UNL     1       4.428  -0.949  -4.168  1.00  0.00     0.289 C 
ATOM     21  H   UNL     1       2.804  -1.597  -3.088  1.00  0.00     0.346 HD
ATOM     22  H   UNL     1       4.253  -2.266  -2.602  1.00  0.00     0.346 HD
ATOM     23  C   UNL     1       3.938   0.444  -4.599  1.00  0.00     0.221 C 
ENDBRANCH  15  16
ENDBRANCH  13  15
ENDBRANCH   6  11
ENDBRANCH   3   5
ENDBRANCH   2   3
ENDBRANCH   1   2
BRANCH   1  24
ATOM     24  C   UNL     1      11.122  -6.018   2.762  1.00  0.00     0.275 C 
BRANCH  24  25
ATOM     25  O   UNL     1      10.374  -7.157   3.228  1.00  0.00    -0.458 OA
BRANCH  25  26
ATOM     26  C   UNL     1       9.339  -6.862   4.044  1.00  0.00     0.338 C 
ATOM     27  O   UNL     1       9.002  -5.764   4.456  1.00  0.00    -0.246 OA
BRANCH  26  28
ATOM     28  C   UNL     1       8.543  -8.067   4.313  1.00  0.00     0.060 A 
ATOM     29  C   UNL     1       7.603  -8.434   3.361  1.00  0.00     0.016 A 
ATOM     30  C   UNL     1       8.552  -8.686   5.557  1.00  0.00     0.016 A 
ATOM     31  C   UNL     1       6.566  -9.296   3.689  1.00  0.00     0.010 A 
ATOM     32  C   UNL     1       7.595  -9.672   5.835  1.00  0.00     0.010 A 
ATOM     33  C   UNL     1       6.557  -9.953   4.923  1.00  0.00    -0.014 A 
BRANCH  33  34
ATOM     34  C   UNL     1       5.456 -10.903   5.258  1.00  0.00     0.031 A 
ATOM     35  C   UNL     1       4.648 -10.718   6.517  1.00  0.00     0.074 A 
ATOM     36  C   UNL     1       5.161 -11.925   4.428  1.00  0.00     0.049 A 
ATOM     37  N   UNL     1       3.796 -11.535   7.084  1.00  0.00    -0.248 NA
ATOM     38  C   UNL     1       4.838  -9.454   7.248  1.00  0.00     0.031 C 
ATOM     39  C   UNL     1       5.814 -12.198   3.145  1.00  0.00     0.029 A 
ATOM     40  N   UNL     1       4.229 -12.929   4.537  1.00  0.00    -0.354 N 
ATOM     41  C   UNL     1       3.398 -10.915   8.263  1.00  0.00     0.074 A 
ATOM     42  C   UNL     1       4.110  -9.657   8.337  1.00  0.00     0.031 C 
ATOM     43  C   UNL     1       5.239 -13.263   2.571  1.00  0.00     0.029 A 
ATOM     44  C   UNL     1       4.257 -13.820   3.490  1.00  0.00     0.049 A 
ATOM     45  H   UNL     1       3.601 -13.004   5.292  1.00  0.00     0.167 HD
ATOM     46  C   UNL     1       2.520 -11.356   9.197  1.00  0.00     0.037 A 
ATOM     47  C   UNL     1       3.613 -14.988   3.308  1.00  0.00     0.037 A 
ATOM     48  C   UNL     1       1.775 -12.585   9.087  1.00  0.00     0.049 A 
ATOM     49  C   UNL     1       2.690 -15.484   4.382  1.00  0.00     0.074 A 
ATOM     50  C   UNL     1       0.847 -13.113   9.969  1.00  0.00     0.029 A 
ATOM     51  N   UNL     1       1.864 -13.472   8.025  1.00  0.00    -0.354 N 
ATOM     52  N   UNL     1       2.361 -14.915   5.516  1.00  0.00    -0.248 NA
ATOM     53  C   UNL     1       2.062 -16.793   4.159  1.00  0.00     0.031 C 
ATOM     54  C   UNL     1       0.413 -14.343   9.464  1.00  0.00     0.029 A 
ATOM     55  C   UNL     1       1.025 -14.555   8.240  1.00  0.00     0.049 A 
ATOM     56  H   UNL     1       2.439 -13.351   7.235  1.00  0.00     0.167 HD
ATOM     57  C   UNL     1       1.473 -15.785   6.133  1.00  0.00     0.074 A 
ATOM     58  C   UNL     1       1.300 -16.910   5.237  1.00  0.00     0.031 C 
ATOM     59  C   UNL     1       0.859 -15.664   7.335  1.00  0.00     0.037 A 
BRANCH  46  60
ATOM     60  C   UNL     1       2.345 -10.527  10.439  1.00  0.00     0.057 A 
ATOM     61  C   UNL     1       1.702  -9.283  10.430  1.00  0.00     0.134 A 
ATOM     62  C   UNL     1       2.806 -11.002  11.675  1.00  0.00     0.134 A 
ATOM     63  F   UNL     1       1.245  -8.762   9.281  1.00  0.00    -0.206 F 
ATOM     64  C   UNL     1       1.549  -8.530  11.597  1.00  0.00     0.040 A 
ATOM     65  C   UNL     1       2.631 -10.273  12.853  1.00  0.00     0.040 A 
ATOM     66  F   UNL     1       3.424 -12.190  11.761  1.00  0.00    -0.206 F 
ATOM     67  C   UNL     1       2.008  -9.028  12.814  1.00  0.00     0.006 A 
ENDBRANCH  46  60
BRANCH  47  68
ATOM     68  C   UNL     1       3.865 -15.792   2.084  1.00  0.00     0.057 A 
ATOM     69  C   UNL     1       2.864 -15.989   1.127  1.00  0.00     0.134 A 
ATOM     70  C   UNL     1       5.114 -16.380   1.839  1.00  0.00     0.134 A 
ATOM     71  F   UNL     1       1.640 -15.472   1.314  1.00  0.00    -0.206 F 
ATOM     72  C   UNL     1       3.089 -16.750  -0.022  1.00  0.00     0.040 A 
ATOM     73  C   UNL     1       5.363 -17.115   0.679  1.00  0.00     0.040 A 
ATOM     74  F   UNL     1       6.118 -16.228   2.714  1.00  0.00    -0.206 F 
ATOM     75  C   UNL     1       4.346 -17.308  -0.252  1.00  0.00     0.006 A 
ENDBRANCH  47  68
BRANCH  59  76
ATOM     76  C   UNL     1      -0.092 -16.756   7.727  1.00  0.00     0.057 A 
ATOM     77  C   UNL     1       0.353 -18.033   8.092  1.00  0.00     0.134 A 
ATOM     78  C   UNL     1      -1.472 -16.517   7.762  1.00  0.00     0.134 A 
ATOM     79  F   UNL     1       1.661 -18.332   8.063  1.00  0.00    -0.206 F 
ATOM     80  C   UNL     1      -0.543 -19.041   8.453  1.00  0.00     0.040 A 
ATOM     81  C   UNL     1      -2.375 -17.508   8.150  1.00  0.00     0.040 A 
ATOM     82  F   UNL     1      -1.964 -15.314   7.431  1.00  0.00    -0.206 F 
ATOM     83  C   UNL     1      -1.911 -18.777   8.489  1.00  0.00     0.006 A 
ENDBRANCH  59  76
ENDBRANCH  33  34
ENDBRANCH  26  28
ENDBRANCH  25  26
ENDBRANCH  24  25
ENDBRANCH   1  24
TORSDOF 14
