REMARK SMILES O=C(OCCOC(=O)[C@H]1O[C@@H](Oc2c(-c3cc(O)c(O)c(O)c3)oc3cc(O)cc(O)c3c2=O)[C@H](O)[C@@H](O)[C@@H]1O)c1ccc(-c2c3nc(c(-c4c(F)cccc4F)c4ccc([nH]4)c(-c4c(F)cccc4F)c4nc(c(-c5c(F)cccc5F)c5ccc2[nH]5)C=C4)C=C3)cc1
REMARK SMILES IDX 5 1 4 2 3 3 2 4 1 5 41 6 42 7 94 8 43 9 93 10 44 11 45 12
REMARK SMILES IDX 46 13 87 14 47 15 92 16 86 17 88 18 48 19 91 20 85 21 84 22
REMARK SMILES IDX 49 24 75 25 58 26 74 27 59 28 62 29 73 30 89 31 60 32 61 33
REMARK SMILES IDX 72 35 90 36 63 37 50 38 51 39 56 40 52 41 53 42 55 43 57 44
REMARK SMILES IDX 54 45 76 46 77 47 82 48 78 49 79 50 81 51 83 52 80 53 64 54
REMARK SMILES IDX 65 55 70 56 66 57 67 58 69 59 71 60 68 61 6 62 7 63 8 64
REMARK SMILES IDX 9 65 10 66 39 67 11 68 37 69 35 70 40 71 12 73 13 74 14 75
REMARK SMILES IDX 33 76 24 77 32 78 34 79 25 80 30 81 26 82 29 83 27 84 15 85
REMARK SMILES IDX 16 86 23 87 17 88 21 89 19 90 18 91 22 93 20 95 31 97 28 99
REMARK SMILES IDX 38 101 36 103
REMARK H PARENT 88 23 62 34 40 72 18 92 22 94 20 96 31 98 28 100 38 102 36 104
REMARK Flexibility Score: inf
ROOT
ATOM      1  C   UNL     1       4.842  -2.791  -3.642  1.00  0.00     0.274 C 
ENDROOT
BRANCH   1   2
ATOM      2  C   UNL     1       4.129  -2.727  -4.991  1.00  0.00     0.275 C 
BRANCH   2   3
ATOM      3  O   UNL     1       2.867  -2.046  -4.984  1.00  0.00    -0.458 OA
BRANCH   3   4
ATOM      4  C   UNL     1       1.657  -2.526  -4.621  1.00  0.00     0.338 C 
ATOM      5  O   UNL     1       0.647  -1.878  -4.900  1.00  0.00    -0.246 OA
BRANCH   4   6
ATOM      6  C   UNL     1       1.481  -3.751  -3.781  1.00  0.00     0.060 A 
ATOM      7  C   UNL     1       2.195  -4.951  -3.886  1.00  0.00     0.016 A 
ATOM      8  C   UNL     1       0.474  -3.676  -2.814  1.00  0.00     0.016 A 
ATOM      9  C   UNL     1       1.962  -6.020  -2.999  1.00  0.00     0.010 A 
ATOM     10  C   UNL     1       0.245  -4.731  -1.931  1.00  0.00     0.010 A 
ATOM     11  C   UNL     1       0.985  -5.918  -2.009  1.00  0.00    -0.014 A 
BRANCH  11  12
ATOM     12  C   UNL     1       0.589  -7.045  -1.118  1.00  0.00     0.031 A 
ATOM     13  C   UNL     1      -0.832  -7.532  -1.231  1.00  0.00     0.074 A 
ATOM     14  C   UNL     1       1.382  -7.471  -0.113  1.00  0.00     0.049 A 
ATOM     15  N   UNL     1      -1.578  -8.124  -0.337  1.00  0.00    -0.248 NA
ATOM     16  C   UNL     1      -1.528  -7.206  -2.487  1.00  0.00     0.031 C 
ATOM     17  C   UNL     1       2.747  -7.011   0.142  1.00  0.00     0.029 A 
ATOM     18  N   UNL     1       1.117  -8.317   0.944  1.00  0.00    -0.354 N 
ATOM     19  C   UNL     1      -2.847  -8.201  -0.911  1.00  0.00     0.074 A 
ATOM     20  C   UNL     1      -2.775  -7.540  -2.195  1.00  0.00     0.031 C 
ATOM     21  C   UNL     1       3.159  -7.483   1.333  1.00  0.00     0.029 A 
ATOM     22  C   UNL     1       2.081  -8.260   1.934  1.00  0.00     0.049 A 
ATOM     23  H   UNL     1       0.326  -8.901   0.989  1.00  0.00     0.167 HD
ATOM     24  C   UNL     1      -3.962  -8.793  -0.422  1.00  0.00     0.037 A 
ATOM     25  C   UNL     1       2.046  -8.681   3.216  1.00  0.00     0.037 A 
ATOM     26  C   UNL     1      -3.983  -9.537   0.808  1.00  0.00     0.049 A 
ATOM     27  C   UNL     1       0.799  -9.350   3.740  1.00  0.00     0.074 A 
ATOM     28  C   UNL     1      -4.982 -10.352   1.309  1.00  0.00     0.029 A 
ATOM     29  N   UNL     1      -2.947  -9.559   1.725  1.00  0.00    -0.354 N 
ATOM     30  N   UNL     1      -0.360  -9.507   3.146  1.00  0.00    -0.248 NA
ATOM     31  C   UNL     1       0.843  -9.854   5.121  1.00  0.00     0.031 C 
ATOM     32  C   UNL     1      -4.559 -10.844   2.548  1.00  0.00     0.029 A 
ATOM     33  C   UNL     1      -3.283 -10.365   2.794  1.00  0.00     0.049 A 
ATOM     34  H   UNL     1      -2.097  -9.071   1.629  1.00  0.00     0.167 HD
ATOM     35  C   UNL     1      -1.165 -10.171   4.067  1.00  0.00     0.074 A 
ATOM     36  C   UNL     1      -0.373 -10.359   5.263  1.00  0.00     0.031 C 
ATOM     37  C   UNL     1      -2.441 -10.603   3.934  1.00  0.00     0.037 A 
BRANCH  24  38
ATOM     38  C   UNL     1      -5.233  -8.710  -1.221  1.00  0.00     0.057 A 
ATOM     39  C   UNL     1      -5.377  -9.344  -2.462  1.00  0.00     0.134 A 
ATOM     40  C   UNL     1      -6.354  -8.042  -0.709  1.00  0.00     0.134 A 
ATOM     41  F   UNL     1      -4.346 -10.004  -3.011  1.00  0.00    -0.206 F 
ATOM     42  C   UNL     1      -6.575  -9.292  -3.177  1.00  0.00     0.040 A 
ATOM     43  C   UNL     1      -7.567  -8.009  -1.400  1.00  0.00     0.040 A 
ATOM     44  F   UNL     1      -6.291  -7.418   0.478  1.00  0.00    -0.206 F 
ATOM     45  C   UNL     1      -7.677  -8.630  -2.642  1.00  0.00     0.006 A 
ENDBRANCH  24  38
BRANCH  25  46
ATOM     46  C   UNL     1       3.108  -8.299   4.185  1.00  0.00     0.057 A 
ATOM     47  C   UNL     1       3.995  -9.240   4.716  1.00  0.00     0.134 A 
ATOM     48  C   UNL     1       3.152  -7.001   4.714  1.00  0.00     0.134 A 
ATOM     49  F   UNL     1       3.962 -10.510   4.289  1.00  0.00    -0.206 F 
ATOM     50  C   UNL     1       4.867  -8.913   5.759  1.00  0.00     0.040 A 
ATOM     51  C   UNL     1       4.034  -6.654   5.737  1.00  0.00     0.040 A 
ATOM     52  F   UNL     1       2.300  -6.063   4.276  1.00  0.00    -0.206 F 
ATOM     53  C   UNL     1       4.886  -7.616   6.273  1.00  0.00     0.006 A 
ENDBRANCH  25  46
BRANCH  37  54
ATOM     54  C   UNL     1      -2.984 -11.482   5.018  1.00  0.00     0.057 A 
ATOM     55  C   UNL     1      -3.461 -10.984   6.233  1.00  0.00     0.134 A 
ATOM     56  C   UNL     1      -3.067 -12.864   4.798  1.00  0.00     0.134 A 
ATOM     57  F   UNL     1      -3.386  -9.673   6.509  1.00  0.00    -0.206 F 
ATOM     58  C   UNL     1      -3.998 -11.835   7.201  1.00  0.00     0.040 A 
ATOM     59  C   UNL     1      -3.620 -13.720   5.747  1.00  0.00     0.040 A 
ATOM     60  F   UNL     1      -2.625 -13.396   3.648  1.00  0.00    -0.206 F 
ATOM     61  C   UNL     1      -4.086 -13.206   6.954  1.00  0.00     0.006 A 
ENDBRANCH  37  54
ENDBRANCH  11  12
ENDBRANCH   4   6
ENDBRANCH   3   4
ENDBRANCH   2   3
ENDBRANCH   1   2
BRANCH   1  62
ATOM     62  O   UNL     1       3.947  -2.877  -2.524  1.00  0.00    -0.460 OA
BRANCH  62  63
ATOM     63  C   UNL     1       3.667  -1.694  -1.905  1.00  0.00     0.338 C 
ATOM     64  O   UNL     1       4.057  -0.598  -2.308  1.00  0.00    -0.249 OA
BRANCH  63  65
ATOM     65  C   UNL     1       2.845  -1.867  -0.617  1.00  0.00     0.263 C 
ATOM     66  O   UNL     1       1.406  -1.842  -0.743  1.00  0.00    -0.322 OA
ATOM     67  C   UNL     1       3.265  -3.140   0.128  1.00  0.00     0.186 C 
ATOM     68  C   UNL     1       0.766  -1.668   0.538  1.00  0.00     0.340 C 
ATOM     69  C   UNL     1       2.677  -3.065   1.530  1.00  0.00     0.181 C 
ATOM     70  C   UNL     1       1.174  -2.796   1.516  1.00  0.00     0.214 C 
BRANCH  67  71
ATOM     71  O   UNL     1       4.684  -3.282   0.268  1.00  0.00    -0.387 OA
ATOM     72  H   UNL     1       5.034  -2.538   0.782  1.00  0.00     0.211 HD
ENDBRANCH  67  71
BRANCH  68  73
ATOM     73  O   UNL     1      -0.669  -1.417   0.545  1.00  0.00    -0.454 OA
BRANCH  73  74
ATOM     74  C   UNL     1      -1.627  -2.188  -0.086  1.00  0.00     0.214 A 
ATOM     75  C   UNL     1      -2.295  -3.217   0.489  1.00  0.00     0.181 A 
ATOM     76  C   UNL     1      -2.252  -1.645  -1.345  1.00  0.00     0.239 A 
ATOM     77  O   UNL     1      -3.304  -3.952  -0.096  1.00  0.00    -0.452 OA
ATOM     78  C   UNL     1      -3.357  -2.426  -1.971  1.00  0.00     0.111 A 
ATOM     79  O   UNL     1      -1.853  -0.579  -1.814  1.00  0.00    -0.285 OA
ATOM     80  C   UNL     1      -3.794  -3.568  -1.308  1.00  0.00     0.146 A 
ATOM     81  C   UNL     1      -3.989  -2.090  -3.179  1.00  0.00     0.134 A 
ATOM     82  C   UNL     1      -4.793  -4.389  -1.841  1.00  0.00     0.094 A 
ATOM     83  C   UNL     1      -4.986  -2.912  -3.731  1.00  0.00     0.093 A 
ATOM     84  C   UNL     1      -5.369  -4.066  -3.059  1.00  0.00     0.123 A 
BRANCH  75  85
ATOM     85  C   UNL     1      -1.981  -3.763   1.811  1.00  0.00     0.029 A 
ATOM     86  C   UNL     1      -1.401  -5.038   1.863  1.00  0.00     0.062 A 
ATOM     87  C   UNL     1      -2.211  -3.046   2.996  1.00  0.00     0.062 A 
ATOM     88  C   UNL     1      -0.898  -5.494   3.065  1.00  0.00     0.162 A 
ATOM     89  C   UNL     1      -1.743  -3.557   4.201  1.00  0.00     0.162 A 
ATOM     90  C   UNL     1      -1.043  -4.752   4.224  1.00  0.00     0.200 A 
BRANCH  88  91
ATOM     91  O   UNL     1      -0.170  -6.632   3.148  1.00  0.00    -0.504 OA
ATOM     92  H   UNL     1      -0.046  -7.166   2.387  1.00  0.00     0.293 HD
ENDBRANCH  88  91
BRANCH  89  93
ATOM     93  O   UNL     1      -1.903  -2.847   5.354  1.00  0.00    -0.504 OA
ATOM     94  H   UNL     1      -1.587  -3.193   6.165  1.00  0.00     0.293 HD
ENDBRANCH  89  93
BRANCH  90  95
ATOM     95  O   UNL     1      -0.432  -5.167   5.376  1.00  0.00    -0.502 OA
ATOM     96  H   UNL     1       0.041  -5.976   5.390  1.00  0.00     0.293 HD
ENDBRANCH  90  95
ENDBRANCH  75  85
BRANCH  81  97
ATOM     97  O   UNL     1      -3.649  -0.950  -3.849  1.00  0.00    -0.507 OA
ATOM     98  H   UNL     1      -4.076  -0.735  -4.654  1.00  0.00     0.293 HD
ENDBRANCH  81  97
BRANCH  84  99
ATOM     99  O   UNL     1      -6.312  -4.914  -3.559  1.00  0.00    -0.508 OA
ATOM    100  H   UNL     1      -6.549  -5.685  -3.082  1.00  0.00     0.293 HD
ENDBRANCH  84  99
ENDBRANCH  73  74
ENDBRANCH  68  73
BRANCH  69 101
ATOM    101  O   UNL     1       3.008  -4.275   2.237  1.00  0.00    -0.387 OA
ATOM    102  H   UNL     1       2.620  -5.035   1.777  1.00  0.00     0.211 HD
ENDBRANCH  69 101
BRANCH  70 103
ATOM    103  O   UNL     1       0.808  -2.452   2.853  1.00  0.00    -0.384 OA
ATOM    104  H   UNL     1       1.292  -1.657   3.126  1.00  0.00     0.211 HD
ENDBRANCH  70 103
ENDBRANCH  63  65
ENDBRANCH  62  63
ENDBRANCH   1  62
TORSDOF 22
