REMARK SMILES C[C@H](NC(=O)N[C@](C)(C(=O)OCCOC(=O)c1ccc(-c2c3nc(c(-c4c(F)cccc4F)c4ccc([nH]4)c(-c4c(F)cccc4F)c4nc(c(-c5c(F)cccc5F)c5ccc2[nH]5)C=C4)C=C3)cc1)C(F)(F)F)C(N)=O
REMARK SMILES IDX 12 1 11 2 9 3 10 4 7 5 8 6 6 7 3 8 4 9 5 11 2 13 1 14 75 15
REMARK SMILES IDX 76 16 77 17 71 20 72 21 73 22 74 23 13 24 14 25 15 26 16 27
REMARK SMILES IDX 17 28 18 29 70 30 19 31 69 32 20 33 21 34 22 35 63 36 23 37
REMARK SMILES IDX 68 38 62 39 64 40 24 41 67 42 61 43 60 44 25 46 51 47 34 48
REMARK SMILES IDX 50 49 35 50 38 51 49 52 65 53 36 54 37 55 48 57 66 58 39 59
REMARK SMILES IDX 26 60 27 61 32 62 28 63 29 64 31 65 33 66 30 67 52 68 53 69
REMARK SMILES IDX 58 70 54 71 55 72 57 73 59 74 56 75 40 76 41 77 46 78 42 79
REMARK SMILES IDX 43 80 45 81 47 82 44 83
REMARK H PARENT 3 10 6 12 76 18 76 19 64 45 38 56
REMARK Flexibility Score: inf
ROOT
ATOM      1  C   UNL     1      -1.057   0.808   1.798  1.00  0.00     0.274 C 
ENDROOT
BRANCH   1   2
ATOM      2  O   UNL     1      -1.610  -0.526   1.756  1.00  0.00    -0.460 OA
BRANCH   2   3
ATOM      3  C   UNL     1      -2.968  -0.648   1.602  1.00  0.00     0.341 C 
ATOM      4  O   UNL     1      -3.715   0.304   1.430  1.00  0.00    -0.249 OA
BRANCH   3   5
ATOM      5  C   UNL     1      -3.375  -2.127   1.566  1.00  0.00     0.232 C 
ATOM      6  C   UNL     1      -2.789  -2.773   0.295  1.00  0.00     0.058 C 
BRANCH   5   7
ATOM      7  N   UNL     1      -2.731  -2.767   2.733  1.00  0.00    -0.315 N 
ATOM      8  N   UNL     1      -2.002  -4.825   3.413  1.00  0.00    -0.327 N 
ATOM      9  C   UNL     1      -3.047  -3.970   3.249  1.00  0.00     0.316 C 
ATOM     10  H   UNL     1      -2.028  -5.411   4.203  1.00  0.00     0.166 HD
ATOM     11  O   UNL     1      -4.181  -4.280   3.581  1.00  0.00    -0.249 OA
ATOM     12  H   UNL     1      -2.005  -2.268   3.173  1.00  0.00     0.166 HD
BRANCH   8  13
ATOM     13  C   UNL     1      -0.834  -4.960   2.523  1.00  0.00     0.169 C 
ATOM     14  C   UNL     1      -1.235  -5.673   1.222  1.00  0.00     0.041 C 
BRANCH  13  15
ATOM     15  C   UNL     1       0.018  -3.667   2.374  1.00  0.00     0.239 C 
ATOM     16  N   UNL     1       0.832  -3.554   1.284  1.00  0.00    -0.368 N 
ATOM     17  O   UNL     1       0.052  -2.781   3.229  1.00  0.00    -0.273 OA
ATOM     18  H   UNL     1       0.823  -4.250   0.588  1.00  0.00     0.159 HD
ATOM     19  H   UNL     1       1.430  -2.777   1.195  1.00  0.00     0.159 HD
ENDBRANCH  13  15
ENDBRANCH   8  13
ENDBRANCH   5   7
BRANCH   5  20
ATOM     20  C   UNL     1      -4.905  -2.189   1.471  1.00  0.00     0.422 C 
ATOM     21  F   UNL     1      -5.347  -1.546   0.356  1.00  0.00    -0.168 F 
ATOM     22  F   UNL     1      -5.341  -3.466   1.336  1.00  0.00    -0.168 F 
ATOM     23  F   UNL     1      -5.528  -1.643   2.534  1.00  0.00    -0.168 F 
ENDBRANCH   5  20
ENDBRANCH   3   5
ENDBRANCH   2   3
ENDBRANCH   1   2
BRANCH   1  24
ATOM     24  C   UNL     1      -0.285   1.116   0.516  1.00  0.00     0.275 C 
BRANCH  24  25
ATOM     25  O   UNL     1      -1.220   1.166  -0.572  1.00  0.00    -0.458 OA
BRANCH  25  26
ATOM     26  C   UNL     1      -0.938   0.401  -1.650  1.00  0.00     0.338 C 
ATOM     27  O   UNL     1       0.072  -0.240  -1.871  1.00  0.00    -0.246 OA
BRANCH  26  28
ATOM     28  C   UNL     1      -2.121   0.394  -2.529  1.00  0.00     0.060 A 
ATOM     29  C   UNL     1      -3.354   0.018  -1.998  1.00  0.00     0.016 A 
ATOM     30  C   UNL     1      -1.999   0.659  -3.889  1.00  0.00     0.016 A 
ATOM     31  C   UNL     1      -4.449  -0.184  -2.826  1.00  0.00     0.010 A 
ATOM     32  C   UNL     1      -3.130   0.563  -4.707  1.00  0.00     0.010 A 
ATOM     33  C   UNL     1      -4.360   0.113  -4.188  1.00  0.00    -0.014 A 
BRANCH  33  34
ATOM     34  C   UNL     1      -5.535  -0.080  -5.077  1.00  0.00     0.031 A 
ATOM     35  C   UNL     1      -5.431  -1.008  -6.253  1.00  0.00     0.074 A 
ATOM     36  C   UNL     1      -6.696   0.559  -4.835  1.00  0.00     0.049 A 
ATOM     37  N   UNL     1      -6.223  -1.128  -7.287  1.00  0.00    -0.248 NA
ATOM     38  C   UNL     1      -4.270  -1.913  -6.276  1.00  0.00     0.031 C 
ATOM     39  C   UNL     1      -6.971   1.425  -3.686  1.00  0.00     0.029 A 
ATOM     40  N   UNL     1      -7.869   0.574  -5.546  1.00  0.00    -0.354 N 
ATOM     41  C   UNL     1      -5.621  -2.065  -8.116  1.00  0.00     0.074 A 
ATOM     42  C   UNL     1      -4.405  -2.495  -7.459  1.00  0.00     0.031 C 
ATOM     43  C   UNL     1      -8.239   1.855  -3.752  1.00  0.00     0.029 A 
ATOM     44  C   UNL     1      -8.835   1.379  -4.994  1.00  0.00     0.049 A 
ATOM     45  H   UNL     1      -8.005   0.057  -6.373  1.00  0.00     0.167 HD
ATOM     46  C   UNL     1      -6.042  -2.512  -9.322  1.00  0.00     0.037 A 
ATOM     47  C   UNL     1     -10.046   1.738  -5.460  1.00  0.00     0.037 A 
ATOM     48  C   UNL     1      -7.283  -2.125  -9.938  1.00  0.00     0.049 A 
ATOM     49  C   UNL     1     -10.482   1.254  -6.811  1.00  0.00     0.074 A 
ATOM     50  C   UNL     1      -7.797  -2.508 -11.165  1.00  0.00     0.029 A 
ATOM     51  N   UNL     1      -8.219  -1.283  -9.357  1.00  0.00    -0.354 N 
ATOM     52  N   UNL     1      -9.855   0.460  -7.645  1.00  0.00    -0.248 NA
ATOM     53  C   UNL     1     -11.777   1.744  -7.303  1.00  0.00     0.031 C 
ATOM     54  C   UNL     1      -9.038  -1.881 -11.333  1.00  0.00     0.029 A 
ATOM     55  C   UNL     1      -9.308  -1.133 -10.198  1.00  0.00     0.049 A 
ATOM     56  H   UNL     1      -8.123  -0.855  -8.475  1.00  0.00     0.167 HD
ATOM     57  C   UNL     1     -10.679   0.350  -8.756  1.00  0.00     0.074 A 
ATOM     58  C   UNL     1     -11.859   1.145  -8.483  1.00  0.00     0.031 C 
ATOM     59  C   UNL     1     -10.473  -0.340  -9.903  1.00  0.00     0.037 A 
BRANCH  46  60
ATOM     60  C   UNL     1      -5.125  -3.431 -10.072  1.00  0.00     0.057 A 
ATOM     61  C   UNL     1      -4.954  -4.773  -9.715  1.00  0.00     0.134 A 
ATOM     62  C   UNL     1      -4.407  -2.958 -11.179  1.00  0.00     0.134 A 
ATOM     63  F   UNL     1      -5.596  -5.280  -8.652  1.00  0.00    -0.206 F 
ATOM     64  C   UNL     1      -4.085  -5.609 -10.420  1.00  0.00     0.040 A 
ATOM     65  C   UNL     1      -3.552  -3.789 -11.904  1.00  0.00     0.040 A 
ATOM     66  F   UNL     1      -4.525  -1.681 -11.573  1.00  0.00    -0.206 F 
ATOM     67  C   UNL     1      -3.385  -5.118 -11.521  1.00  0.00     0.006 A 
ENDBRANCH  46  60
BRANCH  47  68
ATOM     68  C   UNL     1     -10.903   2.647  -4.660  1.00  0.00     0.057 A 
ATOM     69  C   UNL     1     -12.070   2.180  -4.045  1.00  0.00     0.134 A 
ATOM     70  C   UNL     1     -10.569   3.994  -4.474  1.00  0.00     0.134 A 
ATOM     71  F   UNL     1     -12.455   0.906  -4.208  1.00  0.00    -0.206 F 
ATOM     72  C   UNL     1     -12.874   3.021  -3.274  1.00  0.00     0.040 A 
ATOM     73  C   UNL     1     -11.350   4.839  -3.686  1.00  0.00     0.040 A 
ATOM     74  F   UNL     1      -9.462   4.501  -5.038  1.00  0.00    -0.206 F 
ATOM     75  C   UNL     1     -12.509   4.353  -3.085  1.00  0.00     0.006 A 
ENDBRANCH  47  68
BRANCH  59  76
ATOM     76  C   UNL     1     -11.558  -0.283 -10.932  1.00  0.00     0.057 A 
ATOM     77  C   UNL     1     -11.729   0.836 -11.756  1.00  0.00     0.134 A 
ATOM     78  C   UNL     1     -12.418  -1.372 -11.123  1.00  0.00     0.134 A 
ATOM     79  F   UNL     1     -10.945   1.914 -11.610  1.00  0.00    -0.206 F 
ATOM     80  C   UNL     1     -12.731   0.876 -12.726  1.00  0.00     0.040 A 
ATOM     81  C   UNL     1     -13.411  -1.350 -12.101  1.00  0.00     0.040 A 
ATOM     82  F   UNL     1     -12.299  -2.473 -10.367  1.00  0.00    -0.206 F 
ATOM     83  C   UNL     1     -13.572  -0.222 -12.904  1.00  0.00     0.006 A 
ENDBRANCH  59  76
ENDBRANCH  33  34
ENDBRANCH  26  28
ENDBRANCH  25  26
ENDBRANCH  24  25
ENDBRANCH   1  24
TORSDOF 15
