REMARK SMILES NC(=O)c1ccccc1NC(=O)[C@@H]1CC=CC[C@@H]1C(=O)OCCOC(=O)c1ccc(-c2c3nc(c(-c4c(F)cccc4F)c4ccc([nH]4)c(-c4c(F)cccc4F)c4nc(c(-c5c(F)cccc5F)c5ccc2[nH]5)C=C4)C=C3)cc1
REMARK SMILES IDX 22 1 21 2 19 3 20 4 18 5 13 6 14 7 15 8 17 9 16 10 11 11
REMARK SMILES IDX 10 12 12 14 9 15 4 16 5 17 6 18 8 19 7 20 2 21 1 22 3 25
REMARK SMILES IDX 23 26 24 27 25 28 26 29 27 30 28 31 80 32 29 33 79 34 30 35
REMARK SMILES IDX 31 36 32 37 73 38 33 39 78 40 72 41 74 42 34 43 77 44 71 45
REMARK SMILES IDX 70 46 35 48 61 49 44 50 60 51 45 52 48 53 59 54 75 55 46 56
REMARK SMILES IDX 47 57 58 59 76 60 49 61 36 62 37 63 42 64 38 65 39 66 41 67
REMARK SMILES IDX 43 68 40 69 62 70 63 71 68 72 64 73 65 74 67 75 69 76 66 77
REMARK SMILES IDX 50 78 51 79 56 80 52 81 53 82 55 83 57 84 54 85
REMARK H PARENT 10 13 1 23 1 24 74 47 48 58
REMARK Flexibility Score: inf
ROOT
ATOM      1  C   UNL     1       7.652  -4.259   4.840  1.00  0.00     0.274 C 
ENDROOT
BRANCH   1   2
ATOM      2  O   UNL     1       6.626  -3.468   4.206  1.00  0.00    -0.462 OA
BRANCH   2   3
ATOM      3  C   UNL     1       5.709  -2.849   4.987  1.00  0.00     0.310 C 
ATOM      4  O   UNL     1       5.699  -2.897   6.213  1.00  0.00    -0.252 OA
BRANCH   3   5
ATOM      5  C   UNL     1       4.701  -2.015   4.191  1.00  0.00     0.116 C 
ATOM      6  C   UNL     1       4.299  -2.585   2.818  1.00  0.00     0.097 C 
ATOM      7  C   UNL     1       5.475  -2.521   1.821  1.00  0.00     0.041 C 
ATOM      8  C   UNL     1       6.102  -1.157   1.803  1.00  0.00    -0.030 C 
ATOM      9  C   UNL     1       5.117  -0.547   4.019  1.00  0.00     0.043 C 
ATOM     10  C   UNL     1       5.919  -0.260   2.781  1.00  0.00    -0.030 C 
BRANCH   6  11
ATOM     11  C   UNL     1       3.637  -3.941   2.967  1.00  0.00     0.228 C 
ATOM     12  N   UNL     1       3.024  -4.579   1.935  1.00  0.00    -0.325 N 
ATOM     13  H   UNL     1       2.613  -5.433   2.200  1.00  0.00     0.169 HD
ATOM     14  O   UNL     1       3.619  -4.526   4.055  1.00  0.00    -0.274 OA
BRANCH  12  15
ATOM     15  C   UNL     1       2.850  -4.284   0.566  1.00  0.00     0.053 A 
ATOM     16  C   UNL     1       2.716  -5.362  -0.328  1.00  0.00     0.063 A 
ATOM     17  C   UNL     1       2.916  -5.168  -1.701  1.00  0.00     0.016 A 
ATOM     18  C   UNL     1       3.135  -3.887  -2.201  1.00  0.00     0.001 A 
ATOM     19  C   UNL     1       2.898  -2.996   0.031  1.00  0.00     0.027 A 
ATOM     20  C   UNL     1       3.074  -2.797  -1.341  1.00  0.00     0.002 A 
BRANCH  16  21
ATOM     21  C   UNL     1       2.406  -6.740   0.130  1.00  0.00     0.250 C 
ATOM     22  N   UNL     1       1.471  -6.844   1.129  1.00  0.00    -0.366 N 
ATOM     23  H   UNL     1       1.220  -7.729   1.479  1.00  0.00     0.159 HD
ATOM     24  H   UNL     1       1.052  -6.032   1.497  1.00  0.00     0.159 HD
ATOM     25  O   UNL     1       2.917  -7.725  -0.376  1.00  0.00    -0.269 OA
ENDBRANCH  16  21
ENDBRANCH  12  15
ENDBRANCH   6  11
ENDBRANCH   3   5
ENDBRANCH   2   3
ENDBRANCH   1   2
BRANCH   1  26
ATOM     26  C   UNL     1       8.984  -3.519   4.765  1.00  0.00     0.275 C 
BRANCH  26  27
ATOM     27  O   UNL     1       8.891  -2.339   5.580  1.00  0.00    -0.458 OA
BRANCH  27  28
ATOM     28  C   UNL     1       9.117  -1.162   4.961  1.00  0.00     0.338 C 
ATOM     29  O   UNL     1       9.541  -0.984   3.825  1.00  0.00    -0.246 OA
BRANCH  28  30
ATOM     30  C   UNL     1       8.738  -0.056   5.856  1.00  0.00     0.060 A 
ATOM     31  C   UNL     1       7.521  -0.095   6.531  1.00  0.00     0.016 A 
ATOM     32  C   UNL     1       9.528   1.089   5.927  1.00  0.00     0.016 A 
ATOM     33  C   UNL     1       7.022   1.043   7.152  1.00  0.00     0.010 A 
ATOM     34  C   UNL     1       9.095   2.179   6.689  1.00  0.00     0.010 A 
ATOM     35  C   UNL     1       7.821   2.183   7.284  1.00  0.00    -0.014 A 
BRANCH  35  36
ATOM     36  C   UNL     1       7.338   3.357   8.063  1.00  0.00     0.031 A 
ATOM     37  C   UNL     1       7.346   4.733   7.451  1.00  0.00     0.074 A 
ATOM     38  C   UNL     1       6.923   3.193   9.337  1.00  0.00     0.049 A 
ATOM     39  N   UNL     1       7.213   5.897   8.035  1.00  0.00    -0.248 NA
ATOM     40  C   UNL     1       7.550   4.816   5.995  1.00  0.00     0.031 C 
ATOM     41  C   UNL     1       6.830   1.913  10.046  1.00  0.00     0.029 A 
ATOM     42  N   UNL     1       6.514   4.111  10.273  1.00  0.00    -0.354 N 
ATOM     43  C   UNL     1       7.392   6.847   7.036  1.00  0.00     0.074 A 
ATOM     44  C   UNL     1       7.626   6.126   5.804  1.00  0.00     0.031 C 
ATOM     45  C   UNL     1       6.372   2.122  11.287  1.00  0.00     0.029 A 
ATOM     46  C   UNL     1       6.248   3.555  11.502  1.00  0.00     0.049 A 
ATOM     47  H   UNL     1       6.421   5.073  10.082  1.00  0.00     0.167 HD
ATOM     48  C   UNL     1       7.373   8.196   7.149  1.00  0.00     0.037 A 
ATOM     49  C   UNL     1       6.004   4.129  12.694  1.00  0.00     0.037 A 
ATOM     50  C   UNL     1       7.069   8.900   8.369  1.00  0.00     0.049 A 
ATOM     51  C   UNL     1       6.002   5.624  12.791  1.00  0.00     0.074 A 
ATOM     52  C   UNL     1       6.970  10.266   8.573  1.00  0.00     0.029 A 
ATOM     53  N   UNL     1       6.804   8.293   9.586  1.00  0.00    -0.354 N 
ATOM     54  N   UNL     1       6.204   6.512  11.848  1.00  0.00    -0.248 NA
ATOM     55  C   UNL     1       5.759   6.199  14.120  1.00  0.00     0.031 C 
ATOM     56  C   UNL     1       6.686  10.486   9.925  1.00  0.00     0.029 A 
ATOM     57  C   UNL     1       6.562   9.257  10.551  1.00  0.00     0.049 A 
ATOM     58  H   UNL     1       6.789   7.321   9.742  1.00  0.00     0.167 HD
ATOM     59  C   UNL     1       6.101   7.749  12.466  1.00  0.00     0.074 A 
ATOM     60  C   UNL     1       5.795   7.498  13.859  1.00  0.00     0.031 C 
ATOM     61  C   UNL     1       6.253   8.984  11.930  1.00  0.00     0.037 A 
BRANCH  48  62
ATOM     62  C   UNL     1       7.723   9.015   5.940  1.00  0.00     0.057 A 
ATOM     63  C   UNL     1       6.842   9.182   4.866  1.00  0.00     0.134 A 
ATOM     64  C   UNL     1       8.937   9.715   5.896  1.00  0.00     0.134 A 
ATOM     65  F   UNL     1       5.669   8.532   4.840  1.00  0.00    -0.206 F 
ATOM     66  C   UNL     1       7.158  10.013   3.788  1.00  0.00     0.040 A 
ATOM     67  C   UNL     1       9.254  10.565   4.835  1.00  0.00     0.040 A 
ATOM     68  F   UNL     1       9.824   9.603   6.896  1.00  0.00    -0.206 F 
ATOM     69  C   UNL     1       8.363  10.716   3.776  1.00  0.00     0.006 A 
ENDBRANCH  48  62
BRANCH  49  70
ATOM     70  C   UNL     1       5.817   3.283  13.901  1.00  0.00     0.057 A 
ATOM     71  C   UNL     1       4.582   3.209  14.553  1.00  0.00     0.134 A 
ATOM     72  C   UNL     1       6.872   2.527  14.431  1.00  0.00     0.134 A 
ATOM     73  F   UNL     1       3.540   3.926  14.107  1.00  0.00    -0.206 F 
ATOM     74  C   UNL     1       4.405   2.429  15.697  1.00  0.00     0.040 A 
ATOM     75  C   UNL     1       6.701   1.718  15.554  1.00  0.00     0.040 A 
ATOM     76  F   UNL     1       8.081   2.549  13.850  1.00  0.00    -0.206 F 
ATOM     77  C   UNL     1       5.466   1.674  16.196  1.00  0.00     0.006 A 
ENDBRANCH  49  70
BRANCH  61  78
ATOM     78  C   UNL     1       6.052  10.148  12.851  1.00  0.00     0.057 A 
ATOM     79  C   UNL     1       6.999  10.489  13.824  1.00  0.00     0.134 A 
ATOM     80  C   UNL     1       4.904  10.942  12.753  1.00  0.00     0.134 A 
ATOM     81  F   UNL     1       8.112   9.755  13.978  1.00  0.00    -0.206 F 
ATOM     82  C   UNL     1       6.798  11.567  14.687  1.00  0.00     0.040 A 
ATOM     83  C   UNL     1       4.704  12.038  13.592  1.00  0.00     0.040 A 
ATOM     84  F   UNL     1       3.962  10.669  11.837  1.00  0.00    -0.206 F 
ATOM     85  C   UNL     1       5.650  12.348  14.568  1.00  0.00     0.006 A 
ENDBRANCH  61  78
ENDBRANCH  35  36
ENDBRANCH  28  30
ENDBRANCH  27  28
ENDBRANCH  26  27
ENDBRANCH   1  26
TORSDOF 14
