REMARK SMILES C[C@H](NC(=O)c1cc(S(=O)(=O)N(C)C)cs1)C(=O)OCCOC(=O)c1ccc(-c2c3nc(c(-c4c(F)cccc4F)c4ccc([nH]4)c(-c4c(F)cccc4F)c4nc(c(-c5c(F)cccc5F)c5ccc2[nH]5)C=C4)C=C3)cc1
REMARK SMILES IDX 20 1 19 2 17 3 18 4 2 5 1 6 3 7 4 8 5 10 6 11 7 12 16 13
REMARK SMILES IDX 8 14 15 15 9 16 10 17 11 18 12 19 13 20 14 21 21 22 22 23
REMARK SMILES IDX 23 24 24 25 25 26 26 27 78 28 27 29 77 30 28 31 29 32 30 33
REMARK SMILES IDX 71 34 31 35 76 36 70 37 72 38 32 39 75 40 69 41 68 42 33 44
REMARK SMILES IDX 59 45 42 46 58 47 43 48 46 49 57 50 73 51 44 52 45 53 56 55
REMARK SMILES IDX 74 56 47 57 34 58 35 59 40 60 36 61 37 62 39 63 41 64 38 65
REMARK SMILES IDX 60 66 61 67 66 68 62 69 63 70 65 71 67 72 64 73 48 74 49 75
REMARK SMILES IDX 54 76 50 77 51 78 53 79 55 80 52 81
REMARK H PARENT 3 9 72 43 46 54
REMARK Flexibility Score: inf
ROOT
ATOM      1  C   UNL     1      -2.970   0.166  -1.958  1.00  0.00     0.274 C 
ENDROOT
BRANCH   1   2
ATOM      2  O   UNL     1      -1.554   0.016  -1.684  1.00  0.00    -0.461 OA
BRANCH   2   3
ATOM      3  C   UNL     1      -0.829   1.164  -1.768  1.00  0.00     0.328 C 
ATOM      4  O   UNL     1      -1.271   2.228  -2.195  1.00  0.00    -0.250 OA
BRANCH   3   5
ATOM      5  C   UNL     1       0.630   1.035  -1.292  1.00  0.00     0.189 C 
ATOM      6  C   UNL     1       1.521   1.300  -2.504  1.00  0.00     0.043 C 
BRANCH   5   7
ATOM      7  N   UNL     1       1.070  -0.198  -0.626  1.00  0.00    -0.338 N 
ATOM      8  C   UNL     1       1.669  -0.324   0.617  1.00  0.00     0.262 C 
ATOM      9  H   UNL     1       0.921  -1.035  -1.123  1.00  0.00     0.164 HD
ATOM     10  O   UNL     1       2.274  -1.360   0.880  1.00  0.00    -0.268 OA
BRANCH   8  11
ATOM     11  C   UNL     1       1.491   0.759   1.560  1.00  0.00     0.093 A 
ATOM     12  C   UNL     1       0.422   0.967   2.409  1.00  0.00     0.047 A 
ATOM     13  S   UNL     1       2.697   1.876   1.874  1.00  0.00    -0.137 S 
ATOM     14  C   UNL     1       0.144   2.549   2.769  1.00  0.00     0.094 A 
ATOM     15  C   UNL     1       1.625   2.861   2.804  1.00  0.00     0.087 A 
BRANCH  14  16
ATOM     16  S   UNL     1      -1.917   3.874   3.123  1.00  0.00     0.243 S 
ATOM     17  O   UNL     1      -1.968   4.653   4.376  1.00  0.00    -0.207 OA
ATOM     18  O   UNL     1      -2.264   4.703   1.952  1.00  0.00    -0.207 OA
BRANCH  16  19
ATOM     19  N   UNL     1      -3.631   3.017   3.365  1.00  0.00    -0.204 NA
ATOM     20  C   UNL     1      -3.916   2.495   4.764  1.00  0.00     0.124 C 
ATOM     21  C   UNL     1      -4.663   4.133   3.188  1.00  0.00     0.124 C 
ENDBRANCH  16  19
ENDBRANCH  14  16
ENDBRANCH   8  11
ENDBRANCH   5   7
ENDBRANCH   3   5
ENDBRANCH   2   3
ENDBRANCH   1   2
BRANCH   1  22
ATOM     22  C   UNL     1      -3.775   0.363  -0.672  1.00  0.00     0.275 C 
BRANCH  22  23
ATOM     23  O   UNL     1      -3.194   1.415   0.116  1.00  0.00    -0.458 OA
BRANCH  23  24
ATOM     24  C   UNL     1      -2.310   0.935   1.007  1.00  0.00     0.338 C 
ATOM     25  O   UNL     1      -2.046  -0.240   1.215  1.00  0.00    -0.246 OA
BRANCH  24  26
ATOM     26  C   UNL     1      -1.665   1.996   1.785  1.00  0.00     0.060 A 
ATOM     27  C   UNL     1      -0.756   3.383   1.090  1.00  0.00     0.016 A 
ATOM     28  C   UNL     1      -1.561   1.653   3.570  1.00  0.00     0.016 A 
ATOM     29  C   UNL     1       0.097   4.554   2.199  1.00  0.00     0.010 A 
ATOM     30  C   UNL     1      -0.648   2.756   4.671  1.00  0.00     0.010 A 
ATOM     31  C   UNL     1       0.172   4.263   4.016  1.00  0.00    -0.014 A 
BRANCH  31  32
ATOM     32  C   UNL     1       0.824   5.250   4.955  1.00  0.00     0.031 A 
ATOM     33  C   UNL     1       1.355   4.793   6.294  1.00  0.00     0.074 A 
ATOM     34  C   UNL     1       0.877   6.564   4.651  1.00  0.00     0.049 A 
ATOM     35  N   UNL     1       1.647   5.498   7.358  1.00  0.00    -0.248 NA
ATOM     36  C   UNL     1       1.456   3.347   6.524  1.00  0.00     0.031 C 
ATOM     37  C   UNL     1       0.267   7.213   3.491  1.00  0.00     0.029 A 
ATOM     38  N   UNL     1       1.505   7.607   5.287  1.00  0.00    -0.354 N 
ATOM     39  C   UNL     1       1.794   4.571   8.386  1.00  0.00     0.074 A 
ATOM     40  C   UNL     1       1.426   3.286   7.845  1.00  0.00     0.031 C 
ATOM     41  C   UNL     1       0.705   8.474   3.389  1.00  0.00     0.029 A 
ATOM     42  C   UNL     1       1.491   8.782   4.569  1.00  0.00     0.049 A 
ATOM     43  H   UNL     1       1.926   7.521   6.173  1.00  0.00     0.167 HD
ATOM     44  C   UNL     1       2.289   4.749   9.634  1.00  0.00     0.037 A 
ATOM     45  C   UNL     1       2.028   9.984   4.849  1.00  0.00     0.037 A 
ATOM     46  C   UNL     1       2.874   5.993  10.055  1.00  0.00     0.049 A 
ATOM     47  C   UNL     1       2.708  10.138   6.178  1.00  0.00     0.074 A 
ATOM     48  C   UNL     1       3.528   6.293  11.233  1.00  0.00     0.029 A 
ATOM     49  N   UNL     1       2.929   7.131   9.259  1.00  0.00    -0.354 N 
ATOM     50  N   UNL     1       2.835   9.259   7.145  1.00  0.00    -0.248 NA
ATOM     51  C   UNL     1       3.304  11.445   6.465  1.00  0.00     0.031 C 
ATOM     52  C   UNL     1       3.958   7.623  11.159  1.00  0.00     0.029 A 
ATOM     53  C   UNL     1       3.618   8.133   9.914  1.00  0.00     0.049 A 
ATOM     54  H   UNL     1       2.534   7.212   8.360  1.00  0.00     0.167 HD
ATOM     55  C   UNL     1       3.547   9.897   8.148  1.00  0.00     0.074 A 
ATOM     56  C   UNL     1       3.845  11.229   7.656  1.00  0.00     0.031 C 
ATOM     57  C   UNL     1       3.915   9.434   9.368  1.00  0.00     0.037 A 
BRANCH  44  58
ATOM     58  C   UNL     1       2.270   3.572  10.579  1.00  0.00     0.057 A 
ATOM     59  C   UNL     1       2.979   2.385  10.331  1.00  0.00     0.134 A 
ATOM     60  C   UNL     1       1.494   3.610  11.745  1.00  0.00     0.134 A 
ATOM     61  F   UNL     1       3.747   2.266   9.237  1.00  0.00    -0.206 F 
ATOM     62  C   UNL     1       2.852   1.262  11.154  1.00  0.00     0.040 A 
ATOM     63  C   UNL     1       1.397   2.510  12.603  1.00  0.00     0.040 A 
ATOM     64  F   UNL     1       0.804   4.714  12.070  1.00  0.00    -0.206 F 
ATOM     65  C   UNL     1       2.059   1.324  12.296  1.00  0.00     0.006 A 
ENDBRANCH  44  58
BRANCH  45  66
ATOM     66  C   UNL     1       1.973  11.095   3.858  1.00  0.00     0.057 A 
ATOM     67  C   UNL     1       3.142  11.573   3.249  1.00  0.00     0.134 A 
ATOM     68  C   UNL     1       0.766  11.689   3.466  1.00  0.00     0.134 A 
ATOM     69  F   UNL     1       4.335  11.058   3.582  1.00  0.00    -0.206 F 
ATOM     70  C   UNL     1       3.116  12.607   2.309  1.00  0.00     0.040 A 
ATOM     71  C   UNL     1       0.721  12.698   2.499  1.00  0.00     0.040 A 
ATOM     72  F   UNL     1      -0.396  11.276   3.993  1.00  0.00    -0.206 F 
ATOM     73  C   UNL     1       1.900  13.166   1.925  1.00  0.00     0.006 A 
ENDBRANCH  45  66
BRANCH  57  74
ATOM     74  C   UNL     1       4.746  10.356  10.205  1.00  0.00     0.057 A 
ATOM     75  C   UNL     1       4.213  11.505  10.799  1.00  0.00     0.134 A 
ATOM     76  C   UNL     1       6.099  10.071  10.427  1.00  0.00     0.134 A 
ATOM     77  F   UNL     1       2.926  11.835  10.609  1.00  0.00    -0.206 F 
ATOM     78  C   UNL     1       5.008  12.362  11.557  1.00  0.00     0.040 A 
ATOM     79  C   UNL     1       6.895  10.901  11.213  1.00  0.00     0.040 A 
ATOM     80  F   UNL     1       6.663   8.977   9.893  1.00  0.00    -0.206 F 
ATOM     81  C   UNL     1       6.352  12.057  11.771  1.00  0.00     0.006 A 
ENDBRANCH  57  74
ENDBRANCH  31  32
ENDBRANCH  24  26
ENDBRANCH  23  24
ENDBRANCH  22  23
ENDBRANCH   1  22
TORSDOF 15
