REMARK SMILES C[C@@H](Sc1ccccc1[N+](=O)[O-])[C@@H](C)C(=O)OCCOC(=O)c1ccc(-c2c3nc(c(-c4c(F)cccc4F)c4ccc([nH]4)c(-c4c(F)cccc4F)c4nc(c(-c5c(F)cccc5F)c5ccc2[nH]5)C=C4)C=C3)cc1
REMARK SMILES IDX 18 1 17 2 15 3 16 4 13 5 14 6 2 7 1 8 3 9 4 10 5 11 9 12
REMARK SMILES IDX 6 13 8 14 7 15 10 16 11 17 12 18 19 19 20 20 21 21 22 22
REMARK SMILES IDX 23 23 24 24 76 25 25 26 75 27 26 28 27 29 28 30 69 31 29 32
REMARK SMILES IDX 74 33 68 34 70 35 30 36 73 37 67 38 66 39 31 41 57 42 40 43
REMARK SMILES IDX 56 44 41 45 44 46 55 47 71 48 42 49 43 50 54 52 72 53 45 54
REMARK SMILES IDX 32 55 33 56 38 57 34 58 35 59 37 60 39 61 36 62 58 63 59 64
REMARK SMILES IDX 64 65 60 66 61 67 63 68 65 69 62 70 46 71 47 72 52 73 48 74
REMARK SMILES IDX 49 75 51 76 53 77 50 78
REMARK H PARENT 70 40 44 51
REMARK Flexibility Score: inf
ROOT
ATOM      1  C   UNL     1      -1.661  -4.908  -0.833  1.00  0.00     0.274 C 
ENDROOT
BRANCH   1   2
ATOM      2  O   UNL     1      -0.964  -3.646  -0.893  1.00  0.00    -0.462 OA
BRANCH   2   3
ATOM      3  C   UNL     1      -1.704  -2.561  -0.543  1.00  0.00     0.309 C 
ATOM      4  O   UNL     1      -2.892  -2.597  -0.235  1.00  0.00    -0.252 OA
BRANCH   3   5
ATOM      5  C   UNL     1      -0.954  -1.246  -0.678  1.00  0.00     0.109 C 
ATOM      6  C   UNL     1      -1.370  -0.665  -2.032  1.00  0.00     0.021 C 
BRANCH   5   7
ATOM      7  C   UNL     1       0.582  -1.332  -0.459  1.00  0.00     0.063 C 
ATOM      8  C   UNL     1       1.296  -0.065  -0.935  1.00  0.00     0.020 C 
BRANCH   7   9
ATOM      9  S   UNL     1       0.897  -1.559   1.357  1.00  0.00    -0.115 SA
BRANCH   9  10
ATOM     10  C   UNL     1       2.667  -1.771   1.451  1.00  0.00     0.085 A 
ATOM     11  C   UNL     1       3.179  -3.066   1.288  1.00  0.00     0.022 A 
ATOM     12  C   UNL     1       3.582  -0.751   1.759  1.00  0.00     0.282 A 
ATOM     13  C   UNL     1       4.555  -3.316   1.393  1.00  0.00     0.002 A 
ATOM     14  C   UNL     1       4.963  -0.985   1.845  1.00  0.00     0.087 A 
ATOM     15  C   UNL     1       5.446  -2.277   1.661  1.00  0.00     0.007 A 
BRANCH  12  16
ATOM     16  N   UNL     1       3.135   0.607   2.002  1.00  0.00     0.063 N 
ATOM     17  O   UNL     1       3.517   1.470   1.199  1.00  0.00    -0.258 OA
ATOM     18  O   UNL     1       2.454   0.814   3.014  1.00  0.00    -0.258 OA
ENDBRANCH  12  16
ENDBRANCH   9  10
ENDBRANCH   7   9
ENDBRANCH   5   7
ENDBRANCH   3   5
ENDBRANCH   2   3
ENDBRANCH   1   2
BRANCH   1  19
ATOM     19  C   UNL     1      -1.461  -5.577   0.526  1.00  0.00     0.275 C 
BRANCH  19  20
ATOM     20  O   UNL     1      -1.936  -4.703   1.562  1.00  0.00    -0.458 OA
BRANCH  20  21
ATOM     21  C   UNL     1      -1.230  -4.725   2.714  1.00  0.00     0.338 C 
ATOM     22  O   UNL     1      -0.306  -5.470   2.993  1.00  0.00    -0.246 OA
BRANCH  21  23
ATOM     23  C   UNL     1      -1.754  -3.697   3.636  1.00  0.00     0.060 A 
ATOM     24  C   UNL     1      -1.986  -2.392   3.198  1.00  0.00     0.016 A 
ATOM     25  C   UNL     1      -1.919  -4.018   4.984  1.00  0.00     0.016 A 
ATOM     26  C   UNL     1      -2.294  -1.387   4.113  1.00  0.00     0.010 A 
ATOM     27  C   UNL     1      -2.312  -3.028   5.889  1.00  0.00     0.010 A 
ATOM     28  C   UNL     1      -2.465  -1.695   5.469  1.00  0.00    -0.014 A 
BRANCH  28  29
ATOM     29  C   UNL     1      -2.751  -0.618   6.453  1.00  0.00     0.031 A 
ATOM     30  C   UNL     1      -1.756  -0.302   7.537  1.00  0.00     0.074 A 
ATOM     31  C   UNL     1      -3.896   0.086   6.372  1.00  0.00     0.049 A 
ATOM     32  N   UNL     1      -1.872   0.513   8.556  1.00  0.00    -0.248 NA
ATOM     33  C   UNL     1      -0.467  -1.007   7.476  1.00  0.00     0.031 C 
ATOM     34  C   UNL     1      -4.935  -0.097   5.357  1.00  0.00     0.029 A 
ATOM     35  N   UNL     1      -4.375   1.103   7.159  1.00  0.00    -0.354 N 
ATOM     36  C   UNL     1      -0.691   0.389   9.276  1.00  0.00     0.074 A 
ATOM     37  C   UNL     1       0.123  -0.591   8.588  1.00  0.00     0.031 C 
ATOM     38  C   UNL     1      -5.914   0.797   5.566  1.00  0.00     0.029 A 
ATOM     39  C   UNL     1      -5.600   1.577   6.759  1.00  0.00     0.049 A 
ATOM     40  H   UNL     1      -3.887   1.459   7.936  1.00  0.00     0.167 HD
ATOM     41  C   UNL     1      -0.316   1.035  10.406  1.00  0.00     0.037 A 
ATOM     42  C   UNL     1      -6.391   2.521   7.302  1.00  0.00     0.037 A 
ATOM     43  C   UNL     1      -1.100   2.047  11.065  1.00  0.00     0.049 A 
ATOM     44  C   UNL     1      -5.950   3.227   8.551  1.00  0.00     0.074 A 
ATOM     45  C   UNL     1      -0.798   2.764  12.211  1.00  0.00     0.029 A 
ATOM     46  N   UNL     1      -2.333   2.500  10.624  1.00  0.00    -0.354 N 
ATOM     47  N   UNL     1      -4.849   3.071   9.244  1.00  0.00    -0.248 NA
ATOM     48  C   UNL     1      -6.867   4.239   9.096  1.00  0.00     0.031 C 
ATOM     49  C   UNL     1      -1.860   3.638  12.474  1.00  0.00     0.029 A 
ATOM     50  C   UNL     1      -2.807   3.486  11.474  1.00  0.00     0.049 A 
ATOM     51  H   UNL     1      -2.803   2.170   9.824  1.00  0.00     0.167 HD
ATOM     52  C   UNL     1      -4.931   3.973  10.296  1.00  0.00     0.074 A 
ATOM     53  C   UNL     1      -6.183   4.685  10.141  1.00  0.00     0.031 C 
ATOM     54  C   UNL     1      -4.051   4.189  11.302  1.00  0.00     0.037 A 
BRANCH  41  55
ATOM     55  C   UNL     1       0.999   0.650  11.015  1.00  0.00     0.057 A 
ATOM     56  C   UNL     1       2.220   1.052  10.459  1.00  0.00     0.134 A 
ATOM     57  C   UNL     1       1.042  -0.111  12.190  1.00  0.00     0.134 A 
ATOM     58  F   UNL     1       2.247   1.770   9.327  1.00  0.00    -0.206 F 
ATOM     59  C   UNL     1       3.438   0.694  11.040  1.00  0.00     0.040 A 
ATOM     60  C   UNL     1       2.253  -0.457  12.792  1.00  0.00     0.040 A 
ATOM     61  F   UNL     1      -0.092  -0.524  12.776  1.00  0.00    -0.206 F 
ATOM     62  C   UNL     1       3.456  -0.059  12.213  1.00  0.00     0.006 A 
ENDBRANCH  41  55
BRANCH  42  63
ATOM     63  C   UNL     1      -7.689   2.850   6.665  1.00  0.00     0.057 A 
ATOM     64  C   UNL     1      -7.872   4.061   5.989  1.00  0.00     0.134 A 
ATOM     65  C   UNL     1      -8.772   1.966   6.716  1.00  0.00     0.134 A 
ATOM     66  F   UNL     1      -6.876   4.957   5.927  1.00  0.00    -0.206 F 
ATOM     67  C   UNL     1      -9.092   4.387   5.394  1.00  0.00     0.040 A 
ATOM     68  C   UNL     1      -9.990   2.269   6.107  1.00  0.00     0.040 A 
ATOM     69  F   UNL     1      -8.656   0.789   7.349  1.00  0.00    -0.206 F 
ATOM     70  C   UNL     1     -10.153   3.485   5.447  1.00  0.00     0.006 A 
ENDBRANCH  42  63
BRANCH  54  71
ATOM     71  C   UNL     1      -4.401   5.259  12.291  1.00  0.00     0.057 A 
ATOM     72  C   UNL     1      -5.380   5.062  13.273  1.00  0.00     0.134 A 
ATOM     73  C   UNL     1      -3.743   6.494  12.267  1.00  0.00     0.134 A 
ATOM     74  F   UNL     1      -6.055   3.905  13.338  1.00  0.00    -0.206 F 
ATOM     75  C   UNL     1      -5.710   6.068  14.182  1.00  0.00     0.040 A 
ATOM     76  C   UNL     1      -4.050   7.501  13.184  1.00  0.00     0.040 A 
ATOM     77  F   UNL     1      -2.792   6.742  11.355  1.00  0.00    -0.206 F 
ATOM     78  C   UNL     1      -5.041   7.291  14.141  1.00  0.00     0.006 A 
ENDBRANCH  54  71
ENDBRANCH  28  29
ENDBRANCH  21  23
ENDBRANCH  20  21
ENDBRANCH  19  20
ENDBRANCH   1  19
TORSDOF 15
