REMARK SMILES Cc1cccc([C@@H](CC(=O)OCCOC(=O)c2ccc(-c3c4nc(c(-c5c(F)cccc5F)c5ccc([nH]5)c(-c5c(F)cccc5F)c5nc(c(-c6c(F)cccc6F)c6ccc3[nH]6)C=C5)C=C4)cc2)NC(=O)OC(C)(C)C)c1
REMARK SMILES IDX 12 1 11 2 9 3 10 4 8 5 7 6 6 7 1 8 2 9 3 10 79 11 4 12 5 13
REMARK SMILES IDX 71 14 72 15 73 17 74 18 75 19 76 20 77 21 78 22 13 23 14 24
REMARK SMILES IDX 15 25 16 26 17 27 18 28 70 29 19 30 69 31 20 32 21 33 22 34
REMARK SMILES IDX 63 35 23 36 68 37 62 38 64 39 24 40 67 41 61 42 60 43 25 45
REMARK SMILES IDX 51 46 34 47 50 48 35 49 38 50 49 51 65 52 36 53 37 54 48 56
REMARK SMILES IDX 66 57 39 58 26 59 27 60 32 61 28 62 29 63 31 64 33 65 30 66
REMARK SMILES IDX 52 67 53 68 58 69 54 70 55 71 57 72 59 73 56 74 40 75 41 76
REMARK SMILES IDX 46 77 42 78 43 79 45 80 47 81 44 82
REMARK H PARENT 71 16 64 44 38 55
REMARK Flexibility Score: inf
ROOT
ATOM      1  C   UNL     1      -4.092  -1.548   0.035  1.00  0.00     0.274 C 
ENDROOT
BRANCH   1   2
ATOM      2  O   UNL     1      -2.984  -0.774  -0.469  1.00  0.00    -0.462 OA
BRANCH   2   3
ATOM      3  C   UNL     1      -2.567   0.202   0.349  1.00  0.00     0.308 C 
ATOM      4  O   UNL     1      -2.972   0.271   1.503  1.00  0.00    -0.252 OA
BRANCH   3   5
ATOM      5  C   UNL     1      -1.632   1.220  -0.281  1.00  0.00     0.152 C 
BRANCH   5   6
ATOM      6  C   UNL     1      -0.882   1.978   0.853  1.00  0.00     0.127 C 
BRANCH   6   7
ATOM      7  C   UNL     1       0.169   0.961   1.321  1.00  0.00    -0.025 A 
ATOM      8  C   UNL     1       3.333  -0.280  -0.375  1.00  0.00     0.044 C 
ATOM      9  C   UNL     1       2.050  -0.252   0.394  1.00  0.00    -0.051 A 
ATOM     10  C   UNL     1       1.464  -1.451   0.816  1.00  0.00     0.003 A 
ATOM     11  C   UNL     1       1.390   0.956   0.635  1.00  0.00     0.009 A 
ATOM     12  C   UNL     1       0.346  -1.430   1.639  1.00  0.00     0.001 A 
ATOM     13  C   UNL     1      -0.230  -0.212   1.984  1.00  0.00     0.006 A 
ENDBRANCH   6   7
BRANCH   6  14
ATOM     14  N   UNL     1      -1.824   2.401   1.874  1.00  0.00    -0.314 N 
ATOM     15  C   UNL     1      -2.075   3.576   2.481  1.00  0.00     0.408 C 
ATOM     16  H   UNL     1      -2.405   1.672   2.189  1.00  0.00     0.167 HD
ATOM     17  O   UNL     1      -2.976   3.657   3.296  1.00  0.00    -0.225 OA
BRANCH  15  18
ATOM     18  O   UNL     1      -1.211   4.559   2.145  1.00  0.00    -0.444 OA
BRANCH  18  19
ATOM     19  C   UNL     1      -1.170   5.717   3.014  1.00  0.00     0.106 C 
ATOM     20  C   UNL     1      -2.477   6.524   2.996  1.00  0.00     0.056 C 
ATOM     21  C   UNL     1      -0.779   5.289   4.438  1.00  0.00     0.056 C 
ATOM     22  C   UNL     1      -0.051   6.593   2.440  1.00  0.00     0.056 C 
ENDBRANCH  18  19
ENDBRANCH  15  18
ENDBRANCH   6  14
ENDBRANCH   5   6
ENDBRANCH   3   5
ENDBRANCH   2   3
ENDBRANCH   1   2
BRANCH   1  23
ATOM     23  C   UNL     1      -5.167  -0.943   1.031  1.00  0.00     0.275 C 
BRANCH  23  24
ATOM     24  O   UNL     1      -5.516   0.503   1.279  1.00  0.00    -0.458 OA
BRANCH  24  25
ATOM     25  C   UNL     1      -5.470   1.734   0.688  1.00  0.00     0.338 C 
ATOM     26  O   UNL     1      -5.731   2.771   1.280  1.00  0.00    -0.246 OA
BRANCH  25  27
ATOM     27  C   UNL     1      -5.104   1.788  -0.728  1.00  0.00     0.060 A 
ATOM     28  C   UNL     1      -4.496   2.849  -1.426  1.00  0.00     0.016 A 
ATOM     29  C   UNL     1      -5.338   0.617  -1.373  1.00  0.00     0.016 A 
ATOM     30  C   UNL     1      -4.080   2.629  -2.753  1.00  0.00     0.010 A 
ATOM     31  C   UNL     1      -4.478   0.294  -2.364  1.00  0.00     0.010 A 
ATOM     32  C   UNL     1      -4.076   1.311  -3.203  1.00  0.00    -0.014 A 
BRANCH  32  33
ATOM     33  C   UNL     1      -4.055   0.754  -4.550  1.00  0.00     0.031 A 
ATOM     34  C   UNL     1      -2.792   0.521  -5.240  1.00  0.00     0.074 A 
ATOM     35  C   UNL     1      -5.227   0.131  -4.868  1.00  0.00     0.049 A 
ATOM     36  N   UNL     1      -2.575   0.825  -6.469  1.00  0.00    -0.248 NA
ATOM     37  C   UNL     1      -1.650  -0.123  -4.584  1.00  0.00     0.031 C 
ATOM     38  C   UNL     1      -5.623  -0.823  -5.881  1.00  0.00     0.029 A 
ATOM     39  N   UNL     1      -6.429   0.291  -4.142  1.00  0.00    -0.354 N 
ATOM     40  C   UNL     1      -1.513   0.033  -6.847  1.00  0.00     0.074 A 
ATOM     41  C   UNL     1      -0.832  -0.335  -5.625  1.00  0.00     0.031 C 
ATOM     42  C   UNL     1      -6.976  -0.806  -5.967  1.00  0.00     0.029 A 
ATOM     43  C   UNL     1      -7.492   0.182  -5.018  1.00  0.00     0.049 A 
ATOM     44  H   UNL     1      -6.497   0.455  -3.174  1.00  0.00     0.167 HD
ATOM     45  C   UNL     1      -1.529  -0.585  -8.065  1.00  0.00     0.037 A 
ATOM     46  C   UNL     1      -8.151   1.355  -5.232  1.00  0.00     0.037 A 
ATOM     47  C   UNL     1      -2.871  -0.495  -8.651  1.00  0.00     0.049 A 
ATOM     48  C   UNL     1      -7.741   1.895  -6.577  1.00  0.00     0.074 A 
ATOM     49  C   UNL     1      -3.888  -1.428  -8.780  1.00  0.00     0.029 A 
ATOM     50  N   UNL     1      -3.466   0.746  -8.853  1.00  0.00    -0.354 N 
ATOM     51  N   UNL     1      -6.663   1.523  -7.211  1.00  0.00    -0.248 NA
ATOM     52  C   UNL     1      -8.546   2.830  -7.344  1.00  0.00     0.031 C 
ATOM     53  C   UNL     1      -5.099  -0.737  -9.046  1.00  0.00     0.029 A 
ATOM     54  C   UNL     1      -4.827   0.620  -9.055  1.00  0.00     0.049 A 
ATOM     55  H   UNL     1      -2.980   1.603  -8.853  1.00  0.00     0.167 HD
ATOM     56  C   UNL     1      -6.639   2.076  -8.457  1.00  0.00     0.074 A 
ATOM     57  C   UNL     1      -7.845   2.886  -8.491  1.00  0.00     0.031 C 
ATOM     58  C   UNL     1      -5.638   1.797  -9.348  1.00  0.00     0.037 A 
BRANCH  45  59
ATOM     59  C   UNL     1      -0.462  -1.535  -8.559  1.00  0.00     0.057 A 
ATOM     60  C   UNL     1      -0.737  -2.545  -9.502  1.00  0.00     0.134 A 
ATOM     61  C   UNL     1       0.898  -1.421  -8.209  1.00  0.00     0.134 A 
ATOM     62  F   UNL     1      -1.967  -2.747  -9.989  1.00  0.00    -0.206 F 
ATOM     63  C   UNL     1       0.243  -3.401 -10.020  1.00  0.00     0.040 A 
ATOM     64  C   UNL     1       1.888  -2.287  -8.704  1.00  0.00     0.040 A 
ATOM     65  F   UNL     1       1.328  -0.439  -7.402  1.00  0.00    -0.206 F 
ATOM     66  C   UNL     1       1.562  -3.281  -9.615  1.00  0.00     0.006 A 
ENDBRANCH  45  59
BRANCH  46  67
ATOM     67  C   UNL     1      -8.357   2.149  -3.957  1.00  0.00     0.057 A 
ATOM     68  C   UNL     1      -9.024   1.525  -2.873  1.00  0.00     0.134 A 
ATOM     69  C   UNL     1      -7.679   3.334  -3.644  1.00  0.00     0.134 A 
ATOM     70  F   UNL     1      -9.675   0.366  -3.064  1.00  0.00    -0.206 F 
ATOM     71  C   UNL     1      -8.957   2.001  -1.555  1.00  0.00     0.040 A 
ATOM     72  C   UNL     1      -7.627   3.836  -2.327  1.00  0.00     0.040 A 
ATOM     73  F   UNL     1      -6.982   3.990  -4.582  1.00  0.00    -0.206 F 
ATOM     74  C   UNL     1      -8.241   3.156  -1.275  1.00  0.00     0.006 A 
ENDBRANCH  46  67
BRANCH  58  75
ATOM     75  C   UNL     1      -5.355   2.531 -10.636  1.00  0.00     0.057 A 
ATOM     76  C   UNL     1      -5.813   3.819 -10.931  1.00  0.00     0.134 A 
ATOM     77  C   UNL     1      -4.457   1.989 -11.591  1.00  0.00     0.134 A 
ATOM     78  F   UNL     1      -6.551   4.527 -10.069  1.00  0.00    -0.206 F 
ATOM     79  C   UNL     1      -5.475   4.483 -12.116  1.00  0.00     0.040 A 
ATOM     80  C   UNL     1      -4.044   2.678 -12.730  1.00  0.00     0.040 A 
ATOM     81  F   UNL     1      -3.910   0.772 -11.457  1.00  0.00    -0.206 F 
ATOM     82  C   UNL     1      -4.575   3.922 -13.011  1.00  0.00     0.006 A 
ENDBRANCH  58  75
ENDBRANCH  32  33
ENDBRANCH  25  27
ENDBRANCH  24  25
ENDBRANCH  23  24
ENDBRANCH   1  23
TORSDOF 16
