REMARK SMILES CCc1c(C(=O)NCC(=O)OCCOC(=O)c2ccc(-c3c4nc(c(-c5c(F)cccc5F)c5ccc([nH]5)c(-c5c(F)cccc5F)c5nc(c(-c6c(F)cccc6F)c6ccc3[nH]6)C=C5)C=C4)cc2)nnn1-c1ccc(Cl)cc1
REMARK SMILES IDX 12 1 11 2 9 3 10 4 8 5 7 6 5 7 6 8 4 10 3 11 73 12 71 13
REMARK SMILES IDX 72 14 2 15 1 16 74 17 75 18 80 19 76 20 79 21 77 22 78 23
REMARK SMILES IDX 13 24 14 25 15 26 16 27 17 28 18 29 70 30 19 31 69 32 20 33
REMARK SMILES IDX 21 34 22 35 63 36 23 37 68 38 62 39 64 40 24 41 67 42 61 43
REMARK SMILES IDX 60 44 25 46 51 47 34 48 50 49 35 50 38 51 49 52 65 53 36 54
REMARK SMILES IDX 37 55 48 57 66 58 39 59 26 60 27 61 32 62 28 63 29 64 31 65
REMARK SMILES IDX 33 66 30 67 52 68 53 69 58 70 54 71 55 72 57 73 59 74 56 75
REMARK SMILES IDX 40 76 41 77 46 78 42 79 43 80 45 81 47 82 44 83
REMARK H PARENT 7 9 64 45 38 56
REMARK Flexibility Score: inf
ROOT
ATOM      1  C   UNL     1      -1.845   1.631   1.810  1.00  0.00     0.274 C 
ENDROOT
BRANCH   1   2
ATOM      2  O   UNL     1      -0.565   0.974   1.876  1.00  0.00    -0.461 OA
BRANCH   2   3
ATOM      3  C   UNL     1       0.378   1.372   0.973  1.00  0.00     0.325 C 
ATOM      4  O   UNL     1       0.163   2.115   0.021  1.00  0.00    -0.250 OA
BRANCH   3   5
ATOM      5  C   UNL     1       1.762   0.802   1.278  1.00  0.00     0.239 C 
BRANCH   5   6
ATOM      6  N   UNL     1       1.818   0.117   2.532  1.00  0.00    -0.340 N 
ATOM      7  C   UNL     1       1.624  -1.170   2.911  1.00  0.00     0.274 C 
ATOM      8  O   UNL     1       1.746  -1.324   4.134  1.00  0.00    -0.267 OA
ATOM      9  H   UNL     1       2.048   0.710   3.284  1.00  0.00     0.164 HD
BRANCH   7  10
ATOM     10  C   UNL     1       1.352  -2.339   2.050  1.00  0.00     0.174 A 
ATOM     11  C   UNL     1       0.878  -2.686   0.765  1.00  0.00     0.077 A 
ATOM     12  N   UNL     1       0.843  -4.100   0.839  1.00  0.00    -0.217 N 
ATOM     13  N   UNL     1       1.511  -3.525   2.770  1.00  0.00    -0.124 NA
ATOM     14  N   UNL     1       1.097  -4.546   2.066  1.00  0.00    -0.061 NA
BRANCH  11  15
ATOM     15  C   UNL     1       0.219  -2.111  -0.473  1.00  0.00     0.055 C 
ATOM     16  C   UNL     1       0.619  -0.860  -1.195  1.00  0.00     0.011 C 
ENDBRANCH  11  15
BRANCH  12  17
ATOM     17  C   UNL     1       0.324  -4.991  -0.126  1.00  0.00     0.067 A 
ATOM     18  C   UNL     1      -0.936  -5.560   0.090  1.00  0.00     0.030 A 
ATOM     19  C   UNL     1       0.990  -5.136  -1.348  1.00  0.00     0.030 A 
ATOM     20  C   UNL     1      -1.569  -6.215  -0.967  1.00  0.00     0.023 A 
ATOM     21  C   UNL     1       0.350  -5.795  -2.396  1.00  0.00     0.023 A 
ATOM     22  C   UNL     1      -0.932  -6.312  -2.207  1.00  0.00     0.041 A 
ATOM     23  Cl  UNL     1      -1.753  -7.043  -3.531  1.00  0.00    -0.084 Cl
ENDBRANCH  12  17
ENDBRANCH   7  10
ENDBRANCH   5   6
ENDBRANCH   3   5
ENDBRANCH   2   3
ENDBRANCH   1   2
BRANCH   1  24
ATOM     24  C   UNL     1      -1.859   2.930   2.615  1.00  0.00     0.275 C 
BRANCH  24  25
ATOM     25  O   UNL     1      -1.025   3.918   2.009  1.00  0.00    -0.458 OA
BRANCH  25  26
ATOM     26  C   UNL     1       0.271   3.876   2.373  1.00  0.00     0.338 C 
ATOM     27  O   UNL     1       0.799   3.087   3.157  1.00  0.00    -0.246 OA
BRANCH  26  28
ATOM     28  C   UNL     1       1.020   4.933   1.699  1.00  0.00     0.060 A 
ATOM     29  C   UNL     1       2.417   4.888   1.791  1.00  0.00     0.016 A 
ATOM     30  C   UNL     1       0.342   6.053   1.207  1.00  0.00     0.016 A 
ATOM     31  C   UNL     1       3.125   6.052   1.602  1.00  0.00     0.010 A 
ATOM     32  C   UNL     1       1.047   7.218   1.034  1.00  0.00     0.010 A 
ATOM     33  C   UNL     1       2.410   7.218   1.330  1.00  0.00    -0.014 A 
BRANCH  33  34
ATOM     34  C   UNL     1       3.112   8.477   1.443  1.00  0.00     0.031 A 
ATOM     35  C   UNL     1       3.911   8.861   0.263  1.00  0.00     0.074 A 
ATOM     36  C   UNL     1       2.902   9.276   2.506  1.00  0.00     0.049 A 
ATOM     37  N   UNL     1       5.173   9.129   0.201  1.00  0.00    -0.248 NA
ATOM     38  C   UNL     1       3.226   8.859  -1.040  1.00  0.00     0.031 C 
ATOM     39  C   UNL     1       1.889   9.118   3.557  1.00  0.00     0.029 A 
ATOM     40  N   UNL     1       3.466  10.476   2.800  1.00  0.00    -0.354 N 
ATOM     41  C   UNL     1       5.402   9.522  -1.113  1.00  0.00     0.074 A 
ATOM     42  C   UNL     1       4.220   9.186  -1.862  1.00  0.00     0.031 C 
ATOM     43  C   UNL     1       1.762  10.285   4.226  1.00  0.00     0.029 A 
ATOM     44  C   UNL     1       2.756  11.222   3.727  1.00  0.00     0.049 A 
ATOM     45  H   UNL     1       4.305  10.788   2.390  1.00  0.00     0.167 HD
ATOM     46  C   UNL     1       6.442  10.331  -1.442  1.00  0.00     0.037 A 
ATOM     47  C   UNL     1       2.918  12.541   3.988  1.00  0.00     0.037 A 
ATOM     48  C   UNL     1       7.482  10.302  -0.450  1.00  0.00     0.049 A 
ATOM     49  C   UNL     1       4.232  12.955   3.434  1.00  0.00     0.074 A 
ATOM     50  C   UNL     1       8.266   9.307   0.103  1.00  0.00     0.029 A 
ATOM     51  N   UNL     1       7.621  11.385   0.382  1.00  0.00    -0.354 N 
ATOM     52  N   UNL     1       5.386  12.599   3.922  1.00  0.00    -0.248 NA
ATOM     53  C   UNL     1       4.263  13.446   2.063  1.00  0.00     0.031 C 
ATOM     54  C   UNL     1       8.441   9.683   1.467  1.00  0.00     0.029 A 
ATOM     55  C   UNL     1       7.781  10.898   1.653  1.00  0.00     0.049 A 
ATOM     56  H   UNL     1       7.608  12.333   0.115  1.00  0.00     0.167 HD
ATOM     57  C   UNL     1       6.202  12.421   2.814  1.00  0.00     0.074 A 
ATOM     58  C   UNL     1       5.492  13.062   1.712  1.00  0.00     0.031 C 
ATOM     59  C   UNL     1       7.234  11.527   2.832  1.00  0.00     0.037 A 
BRANCH  46  60
ATOM     60  C   UNL     1       6.331  11.411  -2.484  1.00  0.00     0.057 A 
ATOM     61  C   UNL     1       7.491  12.059  -2.937  1.00  0.00     0.134 A 
ATOM     62  C   UNL     1       5.114  12.026  -2.853  1.00  0.00     0.134 A 
ATOM     63  F   UNL     1       8.707  11.590  -2.619  1.00  0.00    -0.206 F 
ATOM     64  C   UNL     1       7.443  13.255  -3.662  1.00  0.00     0.040 A 
ATOM     65  C   UNL     1       5.054  13.187  -3.625  1.00  0.00     0.040 A 
ATOM     66  F   UNL     1       3.928  11.597  -2.402  1.00  0.00    -0.206 F 
ATOM     67  C   UNL     1       6.223  13.823  -4.008  1.00  0.00     0.006 A 
ENDBRANCH  46  60
BRANCH  47  68
ATOM     68  C   UNL     1       1.901  13.524   4.422  1.00  0.00     0.057 A 
ATOM     69  C   UNL     1       2.278  14.759   4.965  1.00  0.00     0.134 A 
ATOM     70  C   UNL     1       0.542  13.387   4.085  1.00  0.00     0.134 A 
ATOM     71  F   UNL     1       3.559  15.002   5.278  1.00  0.00    -0.206 F 
ATOM     72  C   UNL     1       1.363  15.804   5.145  1.00  0.00     0.040 A 
ATOM     73  C   UNL     1      -0.385  14.416   4.273  1.00  0.00     0.040 A 
ATOM     74  F   UNL     1       0.082  12.282   3.480  1.00  0.00    -0.206 F 
ATOM     75  C   UNL     1       0.027  15.636   4.792  1.00  0.00     0.006 A 
ENDBRANCH  47  68
BRANCH  59  76
ATOM     76  C   UNL     1       7.636  10.952   4.161  1.00  0.00     0.057 A 
ATOM     77  C   UNL     1       6.793  10.161   4.957  1.00  0.00     0.134 A 
ATOM     78  C   UNL     1       8.961  11.092   4.588  1.00  0.00     0.134 A 
ATOM     79  F   UNL     1       5.542   9.878   4.574  1.00  0.00    -0.206 F 
ATOM     80  C   UNL     1       7.235   9.585   6.152  1.00  0.00     0.040 A 
ATOM     81  C   UNL     1       9.424  10.492   5.761  1.00  0.00     0.040 A 
ATOM     82  F   UNL     1       9.842  11.781   3.845  1.00  0.00    -0.206 F 
ATOM     83  C   UNL     1       8.556   9.747   6.555  1.00  0.00     0.006 A 
ENDBRANCH  59  76
ENDBRANCH  33  34
ENDBRANCH  26  28
ENDBRANCH  25  26
ENDBRANCH  24  25
ENDBRANCH   1  24
TORSDOF 15
