REMARK SMILES Cc1ccc(C(=O)N2CCCC[C@@H]2C(=O)OCCOC(=O)c2ccc(-c3c4nc(c(-c5c(F)cccc5F)c5ccc([nH]5)c(-c5c(F)cccc5F)c5nc(c(-c6c(F)cccc6F)c6ccc3[nH]6)C=C5)C=C4)cc2)cc1S(=O)(=O)N1CCCCC1
REMARK SMILES IDX 17 1 16 2 14 3 15 4 13 5 8 6 9 7 10 8 12 9 11 10 6 11 7 12
REMARK SMILES IDX 5 13 1 14 2 15 3 16 77 17 4 18 76 19 78 20 79 21 80 22 81 23
REMARK SMILES IDX 82 24 86 25 83 26 85 27 84 28 18 29 19 30 20 31 21 32 22 33
REMARK SMILES IDX 23 34 75 35 24 36 74 37 25 38 26 39 27 40 68 41 28 42 73 43
REMARK SMILES IDX 67 44 69 45 29 46 72 47 66 48 65 49 30 51 56 52 39 53 55 54
REMARK SMILES IDX 40 55 43 56 54 57 70 58 41 59 42 60 53 62 71 63 44 64 31 65
REMARK SMILES IDX 32 66 37 67 33 68 34 69 36 70 38 71 35 72 57 73 58 74 63 75
REMARK SMILES IDX 59 76 60 77 62 78 64 79 61 80 45 81 46 82 51 83 47 84 48 85
REMARK SMILES IDX 50 86 52 87 49 88
REMARK H PARENT 69 50 43 61
REMARK Flexibility Score: inf
ROOT
ATOM      1  C   UNL     1      -3.836  -0.819  -4.864  1.00  0.00     0.274 C 
ENDROOT
BRANCH   1   2
ATOM      2  O   UNL     1      -3.643   0.016  -3.305  1.00  0.00    -0.461 OA
BRANCH   2   3
ATOM      3  C   UNL     1      -2.979   1.577  -2.485  1.00  0.00     0.328 C 
ATOM      4  O   UNL     1      -1.913   2.178  -2.789  1.00  0.00    -0.250 OA
BRANCH   3   5
ATOM      5  C   UNL     1      -3.920   2.548  -1.371  1.00  0.00     0.195 C 
ATOM      6  N   UNL     1      -3.840   1.902  -0.116  1.00  0.00    -0.325 N 
ATOM      7  C   UNL     1      -4.638   2.372   1.057  1.00  0.00     0.121 C 
ATOM      8  C   UNL     1      -6.054   2.786   0.744  1.00  0.00     0.022 C 
ATOM      9  C   UNL     1      -5.319   3.219  -1.585  1.00  0.00     0.037 C 
ATOM     10  C   UNL     1      -5.990   3.831  -0.351  1.00  0.00     0.005 C 
BRANCH   6  11
ATOM     11  C   UNL     1      -2.604   1.348   0.176  1.00  0.00     0.254 C 
ATOM     12  O   UNL     1      -2.463   1.387   1.425  1.00  0.00    -0.269 OA
BRANCH  11  13
ATOM     13  C   UNL     1      -1.405   0.408  -1.068  1.00  0.00     0.041 A 
ATOM     14  C   UNL     1       1.065  -0.538   2.710  1.00  0.00     0.046 C 
ATOM     15  C   UNL     1      -0.162  -0.517   1.891  1.00  0.00    -0.031 A 
ATOM     16  C   UNL     1      -0.779  -2.018   0.936  1.00  0.00     0.005 A 
ATOM     17  C   UNL     1      -0.025   1.141   1.286  1.00  0.00     0.086 A 
ATOM     18  C   UNL     1      -1.353  -1.650  -0.894  1.00  0.00     0.014 A 
ATOM     19  C   UNL     1      -0.621   1.559  -0.101  1.00  0.00     0.035 A 
BRANCH  17  20
ATOM     20  S   UNL     1       1.296   2.674   1.868  1.00  0.00     0.243 S 
ATOM     21  O   UNL     1       0.804   3.858   1.174  1.00  0.00    -0.207 OA
ATOM     22  O   UNL     1       1.348   2.627   3.314  1.00  0.00    -0.207 OA
BRANCH  20  23
ATOM     23  N   UNL     1       3.154   2.473   1.215  1.00  0.00    -0.198 NA
ATOM     24  C   UNL     1       4.089   2.531   2.362  1.00  0.00     0.102 C 
ATOM     25  C   UNL     1       3.736   3.450   0.126  1.00  0.00     0.102 C 
ATOM     26  C   UNL     1       5.571   2.511   1.905  1.00  0.00     0.017 C 
ATOM     27  C   UNL     1       5.080   2.883  -0.485  1.00  0.00     0.017 C 
ATOM     28  C   UNL     1       5.829   2.000   0.489  1.00  0.00     0.003 C 
ENDBRANCH  20  23
ENDBRANCH  17  20
ENDBRANCH  11  13
ENDBRANCH   6  11
ENDBRANCH   3   5
ENDBRANCH   2   3
ENDBRANCH   1   2
BRANCH   1  29
ATOM     29  C   UNL     1      -3.361  -0.186  -6.324  1.00  0.00     0.275 C 
BRANCH  29  30
ATOM     30  O   UNL     1      -2.935   1.203  -6.570  1.00  0.00    -0.458 OA
BRANCH  30  31
ATOM     31  C   UNL     1      -3.212   2.188  -5.690  1.00  0.00     0.338 C 
ATOM     32  O   UNL     1      -2.930   3.367  -5.755  1.00  0.00    -0.246 OA
BRANCH  31  33
ATOM     33  C   UNL     1      -3.475   1.474  -4.491  1.00  0.00     0.060 A 
ATOM     34  C   UNL     1      -4.924   1.289  -3.370  1.00  0.00     0.016 A 
ATOM     35  C   UNL     1      -1.983   0.458  -4.197  1.00  0.00     0.016 A 
ATOM     36  C   UNL     1      -4.717   0.251  -1.803  1.00  0.00     0.010 A 
ATOM     37  C   UNL     1      -1.986  -0.655  -2.834  1.00  0.00     0.010 A 
ATOM     38  C   UNL     1      -3.159  -0.626  -1.361  1.00  0.00    -0.014 A 
BRANCH  38  39
ATOM     39  C   UNL     1      -1.981  -0.596   0.346  1.00  0.00     0.031 A 
ATOM     40  C   UNL     1      -2.937  -1.596   1.468  1.00  0.00     0.074 A 
ATOM     41  C   UNL     1      -0.081  -0.649  -0.135  1.00  0.00     0.049 A 
ATOM     42  N   UNL     1      -2.474  -2.351   2.457  1.00  0.00    -0.248 NA
ATOM     43  C   UNL     1      -4.312  -1.970   1.142  1.00  0.00     0.031 C 
ATOM     44  C   UNL     1       0.778  -2.273  -0.503  1.00  0.00     0.029 A 
ATOM     45  N   UNL     1       0.823  -0.242  -1.292  1.00  0.00    -0.354 N 
ATOM     46  C   UNL     1      -3.172  -3.549   2.386  1.00  0.00     0.074 A 
ATOM     47  C   UNL     1      -4.445  -3.116   1.834  1.00  0.00     0.031 C 
ATOM     48  C   UNL     1       1.852  -2.270  -1.262  1.00  0.00     0.029 A 
ATOM     49  C   UNL     1       2.083  -0.922  -1.398  1.00  0.00     0.049 A 
ATOM     50  H   UNL     1       0.555   0.454  -1.935  1.00  0.00     0.167 HD
ATOM     51  C   UNL     1      -2.570  -4.800   2.465  1.00  0.00     0.037 A 
ATOM     52  C   UNL     1       3.232  -0.399  -0.930  1.00  0.00     0.037 A 
ATOM     53  C   UNL     1      -1.058  -4.814   2.398  1.00  0.00     0.049 A 
ATOM     54  C   UNL     1       3.491  -1.169   0.651  1.00  0.00     0.074 A 
ATOM     55  C   UNL     1      -0.187  -5.446   1.502  1.00  0.00     0.029 A 
ATOM     56  N   UNL     1      -0.215  -4.001   3.177  1.00  0.00    -0.354 N 
ATOM     57  N   UNL     1       2.958  -2.349   1.081  1.00  0.00    -0.248 NA
ATOM     58  C   UNL     1       4.340  -0.726   1.786  1.00  0.00     0.031 C 
ATOM     59  C   UNL     1       1.151  -5.014   1.731  1.00  0.00     0.029 A 
ATOM     60  C   UNL     1       1.145  -4.082   2.747  1.00  0.00     0.049 A 
ATOM     61  H   UNL     1      -0.524  -3.444   3.928  1.00  0.00     0.167 HD
ATOM     62  C   UNL     1       3.099  -2.555   2.492  1.00  0.00     0.074 A 
ATOM     63  C   UNL     1       4.097  -1.561   2.820  1.00  0.00     0.031 C 
ATOM     64  C   UNL     1       2.232  -3.273   3.363  1.00  0.00     0.037 A 
BRANCH  51  65
ATOM     65  C   UNL     1      -3.288  -6.185   2.355  1.00  0.00     0.057 A 
ATOM     66  C   UNL     1      -2.554  -7.381   2.582  1.00  0.00     0.134 A 
ATOM     67  C   UNL     1      -4.647  -6.442   2.083  1.00  0.00     0.134 A 
ATOM     68  F   UNL     1      -1.257  -7.365   2.919  1.00  0.00    -0.206 F 
ATOM     69  C   UNL     1      -3.100  -8.675   2.516  1.00  0.00     0.040 A 
ATOM     70  C   UNL     1      -5.218  -7.732   2.060  1.00  0.00     0.040 A 
ATOM     71  F   UNL     1      -5.532  -5.486   1.814  1.00  0.00    -0.206 F 
ATOM     72  C   UNL     1      -4.446  -8.857   2.272  1.00  0.00     0.006 A 
ENDBRANCH  51  65
BRANCH  52  73
ATOM     73  C   UNL     1       3.060   0.967  -1.783  1.00  0.00     0.057 A 
ATOM     74  C   UNL     1       3.241   1.079  -3.182  1.00  0.00     0.134 A 
ATOM     75  C   UNL     1       2.069   1.885  -1.442  1.00  0.00     0.134 A 
ATOM     76  F   UNL     1       4.096   0.257  -3.803  1.00  0.00    -0.206 F 
ATOM     77  C   UNL     1       2.478   1.967  -4.043  1.00  0.00     0.040 A 
ATOM     78  C   UNL     1       1.300   2.790  -2.221  1.00  0.00     0.040 A 
ATOM     79  F   UNL     1       1.663   1.734  -0.217  1.00  0.00    -0.206 F 
ATOM     80  C   UNL     1       1.476   2.803  -3.567  1.00  0.00     0.006 A 
ENDBRANCH  52  73
BRANCH  64  81
ATOM     81  C   UNL     1       2.153  -3.167   4.935  1.00  0.00     0.057 A 
ATOM     82  C   UNL     1       2.558  -2.079   5.731  1.00  0.00     0.134 A 
ATOM     83  C   UNL     1       1.514  -4.190   5.694  1.00  0.00     0.134 A 
ATOM     84  F   UNL     1       2.922  -0.910   5.190  1.00  0.00    -0.206 F 
ATOM     85  C   UNL     1       2.545  -2.114   7.146  1.00  0.00     0.040 A 
ATOM     86  C   UNL     1       1.424  -4.202   7.096  1.00  0.00     0.040 A 
ATOM     87  F   UNL     1       0.916  -5.238   5.109  1.00  0.00    -0.206 F 
ATOM     88  C   UNL     1       2.013  -3.196   7.834  1.00  0.00     0.006 A 
ENDBRANCH  64  81
ENDBRANCH  38  39
ENDBRANCH  31  33
ENDBRANCH  30  31
ENDBRANCH  29  30
ENDBRANCH   1  29
TORSDOF 15
