REMARK SMILES CC1=C(CCC(=O)OCCOC(=O)c2ccc(-c3c4nc(c(-c5c(F)cccc5F)c5ccc([nH]5)c(-c5c(F)cccc5F)c5nc(c(-c6c(F)cccc6F)c6ccc3[nH]6)C=C5)C=C4)cc2)N=N[C@H]1C
REMARK SMILES IDX 9 1 8 2 6 3 7 4 5 5 4 6 3 7 1 8 2 9 70 10 68 11 69 12 71 13
REMARK SMILES IDX 10 14 11 15 12 16 13 17 14 18 15 19 67 20 16 21 66 22 17 23
REMARK SMILES IDX 18 24 19 25 60 26 20 27 65 28 59 29 61 30 21 31 64 32 58 33
REMARK SMILES IDX 57 34 22 36 48 37 31 38 47 39 32 40 35 41 46 42 62 43 33 44
REMARK SMILES IDX 34 45 45 47 63 48 36 49 23 50 24 51 29 52 25 53 26 54 28 55
REMARK SMILES IDX 30 56 27 57 49 58 50 59 55 60 51 61 52 62 54 63 56 64 53 65
REMARK SMILES IDX 37 66 38 67 43 68 39 69 40 70 42 71 44 72 41 73
REMARK H PARENT 61 35 35 46
REMARK Flexibility Score: inf
ROOT
ATOM      1  C   UNL     1       2.177  -5.525   2.930  1.00  0.00     0.274 C 
ENDROOT
BRANCH   1   2
ATOM      2  O   UNL     1       2.386  -4.368   2.103  1.00  0.00    -0.462 OA
BRANCH   2   3
ATOM      3  C   UNL     1       3.114  -4.524   0.971  1.00  0.00     0.306 C 
ATOM      4  O   UNL     1       3.729  -5.540   0.668  1.00  0.00    -0.252 OA
BRANCH   3   5
ATOM      5  C   UNL     1       3.161  -3.250   0.156  1.00  0.00     0.129 C 
BRANCH   5   6
ATOM      6  C   UNL     1       1.830  -2.754  -0.416  1.00  0.00     0.070 C 
BRANCH   6   7
ATOM      7  C   UNL     1       0.928  -2.102   0.588  1.00  0.00     0.064 C 
ATOM      8  C   UNL     1       1.190   0.358  -0.038  1.00  0.00     0.044 C 
ATOM      9  C   UNL     1       0.701  -0.796   0.747  1.00  0.00    -0.024 C 
ATOM     10  C   UNL     1      -0.192  -0.690   1.933  1.00  0.00     0.153 C 
ATOM     11  N   UNL     1       0.198  -2.857   1.471  1.00  0.00    -0.160 NA
ATOM     12  N   UNL     1      -0.456  -2.116   2.256  1.00  0.00    -0.181 NA
ATOM     13  C   UNL     1       0.493  -0.042   3.129  1.00  0.00     0.040 C 
ENDBRANCH   6   7
ENDBRANCH   5   6
ENDBRANCH   3   5
ENDBRANCH   2   3
ENDBRANCH   1   2
BRANCH   1  14
ATOM     14  C   UNL     1       0.950  -6.324   2.502  1.00  0.00     0.275 C 
BRANCH  14  15
ATOM     15  O   UNL     1       1.229  -7.190   1.396  1.00  0.00    -0.458 OA
BRANCH  15  16
ATOM     16  C   UNL     1       0.907  -6.682   0.186  1.00  0.00     0.338 C 
ATOM     17  O   UNL     1       0.606  -5.532  -0.071  1.00  0.00    -0.246 OA
BRANCH  16  18
ATOM     18  C   UNL     1       0.796  -7.750  -0.812  1.00  0.00     0.060 A 
ATOM     19  C   UNL     1       0.750  -7.378  -2.160  1.00  0.00     0.016 A 
ATOM     20  C   UNL     1       0.530  -9.063  -0.408  1.00  0.00     0.016 A 
ATOM     21  C   UNL     1       0.347  -8.310  -3.099  1.00  0.00     0.010 A 
ATOM     22  C   UNL     1       0.124  -9.992  -1.347  1.00  0.00     0.010 A 
ATOM     23  C   UNL     1      -0.008  -9.599  -2.679  1.00  0.00    -0.014 A 
BRANCH  23  24
ATOM     24  C   UNL     1      -0.423 -10.555  -3.694  1.00  0.00     0.031 A 
ATOM     25  C   UNL     1       0.653 -10.970  -4.624  1.00  0.00     0.074 A 
ATOM     26  C   UNL     1      -1.639 -11.132  -3.730  1.00  0.00     0.049 A 
ATOM     27  N   UNL     1       0.695 -10.809  -5.904  1.00  0.00    -0.248 NA
ATOM     28  C   UNL     1       1.867 -11.568  -4.048  1.00  0.00     0.031 C 
ATOM     29  C   UNL     1      -2.689 -11.053  -2.711  1.00  0.00     0.029 A 
ATOM     30  N   UNL     1      -2.158 -11.997  -4.654  1.00  0.00    -0.354 N 
ATOM     31  C   UNL     1       1.859 -11.444  -6.326  1.00  0.00     0.074 A 
ATOM     32  C   UNL     1       2.602 -11.781  -5.140  1.00  0.00     0.031 C 
ATOM     33  C   UNL     1      -3.630 -11.988  -2.971  1.00  0.00     0.029 A 
ATOM     34  C   UNL     1      -3.324 -12.624  -4.243  1.00  0.00     0.049 A 
ATOM     35  H   UNL     1      -1.741 -12.159  -5.531  1.00  0.00     0.167 HD
ATOM     36  C   UNL     1       2.005 -11.858  -7.612  1.00  0.00     0.037 A 
ATOM     37  C   UNL     1      -3.992 -13.611  -4.883  1.00  0.00     0.037 A 
ATOM     38  C   UNL     1       1.019 -11.278  -8.481  1.00  0.00     0.049 A 
ATOM     39  C   UNL     1      -3.623 -13.585  -6.315  1.00  0.00     0.074 A 
ATOM     40  C   UNL     1       0.847 -10.104  -9.177  1.00  0.00     0.029 A 
ATOM     41  N   UNL     1      -0.184 -11.927  -8.470  1.00  0.00    -0.354 N 
ATOM     42  N   UNL     1      -3.984 -12.642  -7.138  1.00  0.00    -0.248 NA
ATOM     43  C   UNL     1      -2.608 -14.503  -6.822  1.00  0.00     0.031 C 
ATOM     44  C   UNL     1      -0.548 -10.006  -9.467  1.00  0.00     0.029 A 
ATOM     45  C   UNL     1      -1.188 -11.122  -8.937  1.00  0.00     0.049 A 
ATOM     46  H   UNL     1      -0.312 -12.854  -8.164  1.00  0.00     0.167 HD
ATOM     47  C   UNL     1      -2.963 -12.594  -8.063  1.00  0.00     0.074 A 
ATOM     48  C   UNL     1      -2.265 -13.864  -7.944  1.00  0.00     0.031 C 
ATOM     49  C   UNL     1      -2.560 -11.407  -8.594  1.00  0.00     0.037 A 
BRANCH  36  50
ATOM     50  C   UNL     1       2.732 -13.114  -8.021  1.00  0.00     0.057 A 
ATOM     51  C   UNL     1       3.009 -13.337  -9.381  1.00  0.00     0.134 A 
ATOM     52  C   UNL     1       2.872 -14.239  -7.184  1.00  0.00     0.134 A 
ATOM     53  F   UNL     1       2.885 -12.348 -10.279  1.00  0.00    -0.206 F 
ATOM     54  C   UNL     1       3.348 -14.601  -9.878  1.00  0.00     0.040 A 
ATOM     55  C   UNL     1       3.259 -15.494  -7.662  1.00  0.00     0.040 A 
ATOM     56  F   UNL     1       2.537 -14.207  -5.887  1.00  0.00    -0.206 F 
ATOM     57  C   UNL     1       3.471 -15.686  -9.018  1.00  0.00     0.006 A 
ENDBRANCH  36  50
BRANCH  37  58
ATOM     58  C   UNL     1      -4.862 -14.669  -4.334  1.00  0.00     0.057 A 
ATOM     59  C   UNL     1      -5.801 -15.329  -5.139  1.00  0.00     0.134 A 
ATOM     60  C   UNL     1      -4.604 -15.245  -3.079  1.00  0.00     0.134 A 
ATOM     61  F   UNL     1      -6.092 -14.870  -6.365  1.00  0.00    -0.206 F 
ATOM     62  C   UNL     1      -6.421 -16.516  -4.736  1.00  0.00     0.040 A 
ATOM     63  C   UNL     1      -5.223 -16.425  -2.660  1.00  0.00     0.040 A 
ATOM     64  F   UNL     1      -3.677 -14.727  -2.259  1.00  0.00    -0.206 F 
ATOM     65  C   UNL     1      -6.122 -17.075  -3.498  1.00  0.00     0.006 A 
ENDBRANCH  37  58
BRANCH  49  66
ATOM     66  C   UNL     1      -3.558 -10.296  -8.604  1.00  0.00     0.057 A 
ATOM     67  C   UNL     1      -4.025  -9.651  -7.452  1.00  0.00     0.134 A 
ATOM     68  C   UNL     1      -4.042  -9.843  -9.835  1.00  0.00     0.134 A 
ATOM     69  F   UNL     1      -3.558  -9.976  -6.239  1.00  0.00    -0.206 F 
ATOM     70  C   UNL     1      -4.976  -8.629  -7.523  1.00  0.00     0.040 A 
ATOM     71  C   UNL     1      -4.968  -8.803  -9.921  1.00  0.00     0.040 A 
ATOM     72  F   UNL     1      -3.604 -10.393 -10.979  1.00  0.00    -0.206 F 
ATOM     73  C   UNL     1      -5.449  -8.202  -8.761  1.00  0.00     0.006 A 
ENDBRANCH  49  66
ENDBRANCH  23  24
ENDBRANCH  16  18
ENDBRANCH  15  16
ENDBRANCH  14  15
ENDBRANCH   1  14
TORSDOF 13
