REMARK SMILES COC(=O)c1ccccc1-c1ccc(/C=C(\C#N)C(=O)OCCOC(=O)c2ccc(-c3c4nc(c(-c5c(F)cccc5F)c5ccc([nH]5)c(-c5c(F)cccc5F)c5nc(c(-c6c(F)cccc6F)c6ccc3[nH]6)C=C5)C=C4)cc2)o1
REMARK SMILES IDX 22 1 21 2 19 3 20 4 16 5 15 6 14 7 11 8 12 9 81 10 13 11
REMARK SMILES IDX 10 12 5 13 6 14 7 15 9 16 8 17 3 18 4 19 2 20 1 21 17 22
REMARK SMILES IDX 18 23 23 24 24 25 25 26 26 27 27 28 28 29 80 30 29 31 79 32
REMARK SMILES IDX 30 33 31 34 32 35 73 36 33 37 78 38 72 39 74 40 34 41 77 42
REMARK SMILES IDX 71 43 70 44 35 46 61 47 44 48 60 49 45 50 48 51 59 52 75 53
REMARK SMILES IDX 46 54 47 55 58 57 76 58 49 59 36 60 37 61 42 62 38 63 39 64
REMARK SMILES IDX 41 65 43 66 40 67 62 68 63 69 68 70 64 71 65 72 67 73 69 74
REMARK SMILES IDX 66 75 50 76 51 77 56 78 52 79 53 80 55 81 57 82 54 83
REMARK H PARENT 74 45 48 56
REMARK Flexibility Score: inf
ROOT
ATOM      1  C   UNL     1      -6.180  -4.664   3.994  1.00  0.00     0.275 C 
ENDROOT
BRANCH   1   2
ATOM      2  O   UNL     1      -5.154  -4.295   3.051  1.00  0.00    -0.458 OA
BRANCH   2   3
ATOM      3  C   UNL     1      -5.490  -3.319   2.175  1.00  0.00     0.349 C 
ATOM      4  O   UNL     1      -6.585  -2.784   2.080  1.00  0.00    -0.245 OA
BRANCH   3   5
ATOM      5  C   UNL     1      -4.345  -2.961   1.322  1.00  0.00     0.141 C 
ATOM      6  C   UNL     1      -4.238  -1.710   0.827  1.00  0.00     0.074 C 
BRANCH   6   7
ATOM      7  C   UNL     1      -3.371  -1.327  -0.243  1.00  0.00     0.129 A 
ATOM      8  C   UNL     1      -1.946  -1.506  -1.951  1.00  0.00     0.135 A 
ATOM      9  C   UNL     1      -2.213  -0.163  -1.817  1.00  0.00     0.051 A 
ATOM     10  O   UNL     1      -2.650  -2.203  -1.022  1.00  0.00    -0.457 OA
ATOM     11  C   UNL     1      -3.119  -0.050  -0.733  1.00  0.00     0.051 A 
BRANCH   8  12
ATOM     12  C   UNL     1      -1.084  -2.293  -2.824  1.00  0.00     0.032 A 
ATOM     13  C   UNL     1       0.282  -2.005  -3.000  1.00  0.00     0.071 A 
ATOM     14  C   UNL     1       1.053  -2.721  -3.930  1.00  0.00     0.016 A 
ATOM     15  C   UNL     1       0.478  -3.755  -4.666  1.00  0.00     0.001 A 
ATOM     16  C   UNL     1      -1.638  -3.353  -3.561  1.00  0.00     0.013 A 
ATOM     17  C   UNL     1      -0.864  -4.077  -4.475  1.00  0.00     0.001 A 
BRANCH  13  18
ATOM     18  C   UNL     1       0.973  -0.946  -2.235  1.00  0.00     0.338 C 
ATOM     19  O   UNL     1       1.692  -0.103  -2.742  1.00  0.00    -0.246 OA
BRANCH  18  20
ATOM     20  O   UNL     1       0.719  -1.109  -0.914  1.00  0.00    -0.465 OA
ATOM     21  C   UNL     1       1.247  -0.078  -0.083  1.00  0.00     0.282 C 
ENDBRANCH  18  20
ENDBRANCH  13  18
ENDBRANCH   8  12
ENDBRANCH   6   7
BRANCH   5  22
ATOM     22  C   UNL     1      -3.635  -4.113   0.630  1.00  0.00     0.107 C 
ATOM     23  N   UNL     1      -3.047  -5.069   0.055  1.00  0.00    -0.192 NA
ENDBRANCH   5  22
ENDBRANCH   3   5
ENDBRANCH   2   3
ENDBRANCH   1   2
BRANCH   1  24
ATOM     24  C   UNL     1      -5.951  -3.969   5.336  1.00  0.00     0.275 C 
BRANCH  24  25
ATOM     25  O   UNL     1      -6.089  -2.541   5.199  1.00  0.00    -0.458 OA
BRANCH  25  26
ATOM     26  C   UNL     1      -4.925  -1.854   5.147  1.00  0.00     0.338 C 
ATOM     27  O   UNL     1      -3.794  -2.301   5.219  1.00  0.00    -0.246 OA
BRANCH  26  28
ATOM     28  C   UNL     1      -5.181  -0.431   4.883  1.00  0.00     0.060 A 
ATOM     29  C   UNL     1      -5.640  -0.053   3.625  1.00  0.00     0.016 A 
ATOM     30  C   UNL     1      -4.776   0.538   5.793  1.00  0.00     0.016 A 
ATOM     31  C   UNL     1      -5.556   1.270   3.210  1.00  0.00     0.010 A 
ATOM     32  C   UNL     1      -4.835   1.886   5.426  1.00  0.00     0.010 A 
ATOM     33  C   UNL     1      -5.182   2.267   4.114  1.00  0.00    -0.014 A 
BRANCH  33  34
ATOM     34  C   UNL     1      -5.113   3.696   3.701  1.00  0.00     0.031 A 
ATOM     35  C   UNL     1      -3.855   4.477   3.962  1.00  0.00     0.074 A 
ATOM     36  C   UNL     1      -6.164   4.310   3.122  1.00  0.00     0.049 A 
ATOM     37  N   UNL     1      -3.684   5.771   4.040  1.00  0.00    -0.248 NA
ATOM     38  C   UNL     1      -2.630   3.693   4.188  1.00  0.00     0.031 C 
ATOM     39  C   UNL     1      -7.418   3.671   2.715  1.00  0.00     0.029 A 
ATOM     40  N   UNL     1      -6.348   5.631   2.788  1.00  0.00    -0.354 N 
ATOM     41  C   UNL     1      -2.360   5.953   4.417  1.00  0.00     0.074 A 
ATOM     42  C   UNL     1      -1.763   4.639   4.524  1.00  0.00     0.031 C 
ATOM     43  C   UNL     1      -8.228   4.590   2.170  1.00  0.00     0.029 A 
ATOM     44  C   UNL     1      -7.607   5.900   2.304  1.00  0.00     0.049 A 
ATOM     45  H   UNL     1      -5.648   6.316   2.886  1.00  0.00     0.167 HD
ATOM     46  C   UNL     1      -1.714   7.116   4.670  1.00  0.00     0.037 A 
ATOM     47  C   UNL     1      -8.228   7.071   2.073  1.00  0.00     0.037 A 
ATOM     48  C   UNL     1      -2.305   8.415   4.486  1.00  0.00     0.049 A 
ATOM     49  C   UNL     1      -7.513   8.351   2.392  1.00  0.00     0.074 A 
ATOM     50  C   UNL     1      -1.745   9.660   4.714  1.00  0.00     0.029 A 
ATOM     51  N   UNL     1      -3.585   8.634   4.000  1.00  0.00    -0.354 N 
ATOM     52  N   UNL     1      -6.302   8.521   2.865  1.00  0.00    -0.248 NA
ATOM     53  C   UNL     1      -8.258   9.598   2.179  1.00  0.00     0.031 C 
ATOM     54  C   UNL     1      -2.696  10.632   4.386  1.00  0.00     0.029 A 
ATOM     55  C   UNL     1      -3.833   9.993   3.919  1.00  0.00     0.049 A 
ATOM     56  H   UNL     1      -4.223   7.927   3.749  1.00  0.00     0.167 HD
ATOM     57  C   UNL     1      -6.133   9.893   2.988  1.00  0.00     0.074 A 
ATOM     58  C   UNL     1      -7.363  10.509   2.535  1.00  0.00     0.031 C 
ATOM     59  C   UNL     1      -5.057  10.580   3.440  1.00  0.00     0.037 A 
BRANCH  46  60
ATOM     60  C   UNL     1      -0.321   7.036   5.218  1.00  0.00     0.057 A 
ATOM     61  C   UNL     1       0.777   6.674   4.431  1.00  0.00     0.134 A 
ATOM     62  C   UNL     1      -0.075   7.361   6.560  1.00  0.00     0.134 A 
ATOM     63  F   UNL     1       0.608   6.334   3.144  1.00  0.00    -0.206 F 
ATOM     64  C   UNL     1       2.068   6.620   4.962  1.00  0.00     0.040 A 
ATOM     65  C   UNL     1       1.213   7.333   7.096  1.00  0.00     0.040 A 
ATOM     66  F   UNL     1      -1.084   7.719   7.369  1.00  0.00    -0.206 F 
ATOM     67  C   UNL     1       2.289   6.957   6.296  1.00  0.00     0.006 A 
ENDBRANCH  46  60
BRANCH  47  68
ATOM     68  C   UNL     1      -9.630   7.079   1.583  1.00  0.00     0.057 A 
ATOM     69  C   UNL     1      -9.938   7.498   0.284  1.00  0.00     0.134 A 
ATOM     70  C   UNL     1     -10.690   6.646   2.390  1.00  0.00     0.134 A 
ATOM     71  F   UNL     1      -8.968   7.943  -0.528  1.00  0.00    -0.206 F 
ATOM     72  C   UNL     1     -11.249   7.488  -0.194  1.00  0.00     0.040 A 
ATOM     73  C   UNL     1     -12.002   6.605   1.916  1.00  0.00     0.040 A 
ATOM     74  F   UNL     1     -10.460   6.227   3.643  1.00  0.00    -0.206 F 
ATOM     75  C   UNL     1     -12.284   7.032   0.620  1.00  0.00     0.006 A 
ENDBRANCH  47  68
BRANCH  59  76
ATOM     76  C   UNL     1      -5.138  12.075   3.409  1.00  0.00     0.057 A 
ATOM     77  C   UNL     1      -5.852  12.794   4.373  1.00  0.00     0.134 A 
ATOM     78  C   UNL     1      -4.442  12.799   2.434  1.00  0.00     0.134 A 
ATOM     79  F   UNL     1      -6.550  12.153   5.322  1.00  0.00    -0.206 F 
ATOM     80  C   UNL     1      -5.876  14.189   4.364  1.00  0.00     0.040 A 
ATOM     81  C   UNL     1      -4.444  14.194   2.426  1.00  0.00     0.040 A 
ATOM     82  F   UNL     1      -3.736  12.163   1.487  1.00  0.00    -0.206 F 
ATOM     83  C   UNL     1      -5.164  14.892   3.393  1.00  0.00     0.006 A 
ENDBRANCH  59  76
ENDBRANCH  33  34
ENDBRANCH  26  28
ENDBRANCH  25  26
ENDBRANCH  24  25
ENDBRANCH   1  24
TORSDOF 16
