REMARK SMILES CC(C)Cc1cc2c(cc1Cl)C=C(C(=O)OCCOC(=O)c1ccc(-c3c4nc(c(-c5c(F)cccc5F)c5ccc([nH]5)c(-c5c(F)cccc5F)c5nc(c(-c6c(F)cccc6F)c6ccc3[nH]6)C=C5)C=C4)cc1)[C@@H](C(F)(F)F)O2
REMARK SMILES IDX 17 1 16 2 14 3 15 4 13 5 5 6 6 7 10 8 7 9 9 10 11 11 8 12
REMARK SMILES IDX 81 13 12 14 76 15 4 16 2 17 1 18 3 19 77 20 78 21 79 22
REMARK SMILES IDX 80 23 18 24 19 25 20 26 21 27 22 28 23 29 75 30 24 31 74 32
REMARK SMILES IDX 25 33 26 34 27 35 68 36 28 37 73 38 67 39 69 40 29 41 72 42
REMARK SMILES IDX 66 43 65 44 30 46 56 47 39 48 55 49 40 50 43 51 54 52 70 53
REMARK SMILES IDX 41 54 42 55 53 57 71 58 44 59 31 60 32 61 37 62 33 63 34 64
REMARK SMILES IDX 36 65 38 66 35 67 57 68 58 69 63 70 59 71 60 72 62 73 64 74
REMARK SMILES IDX 61 75 45 76 46 77 51 78 47 79 48 80 50 81 52 82 49 83
REMARK H PARENT 69 45 43 56
REMARK Flexibility Score: inf
ROOT
ATOM      1  C   UNL     1      -2.228  -9.170   1.732  1.00  0.00     0.275 C 
ENDROOT
BRANCH   1   2
ATOM      2  O   UNL     1      -1.746  -7.811   1.663  1.00  0.00    -0.459 OA
BRANCH   2   3
ATOM      3  C   UNL     1      -2.563  -6.918   1.058  1.00  0.00     0.338 C 
ATOM      4  O   UNL     1      -3.646  -7.153   0.543  1.00  0.00    -0.246 OA
BRANCH   3   5
ATOM      5  C   UNL     1      -1.998  -5.557   1.168  1.00  0.00     0.087 C 
ATOM      6  C   UNL     1      -1.253  -0.588   1.429  1.00  0.00    -0.025 A 
ATOM      7  C   UNL     1      -0.408  -1.710   1.339  1.00  0.00     0.052 A 
ATOM      8  C   UNL     1      -2.622  -0.815   1.663  1.00  0.00     0.045 A 
ATOM      9  C   UNL     1      -0.924  -3.005   1.337  1.00  0.00     0.128 A 
ATOM     10  C   UNL     1      -3.134  -2.111   1.708  1.00  0.00     0.032 A 
ATOM     11  Cl  UNL     1      -3.745   0.483   1.884  1.00  0.00    -0.084 Cl
ATOM     12  C   UNL     1      -2.289  -3.201   1.494  1.00  0.00     0.019 A 
ATOM     13  O   UNL     1      -0.028  -4.025   1.180  1.00  0.00    -0.475 OA
ATOM     14  C   UNL     1      -2.830  -4.540   1.419  1.00  0.00     0.027 C 
ATOM     15  C   UNL     1      -0.542  -5.349   0.860  1.00  0.00     0.316 C 
BRANCH   6  16
ATOM     16  C   UNL     1      -0.748   0.831   1.238  1.00  0.00     0.040 C 
BRANCH  16  17
ATOM     17  C   UNL     1       0.756   1.059   0.979  1.00  0.00    -0.013 C 
ATOM     18  C   UNL     1       1.202   0.590  -0.412  1.00  0.00     0.008 C 
ATOM     19  C   UNL     1       1.073   2.553   1.112  1.00  0.00     0.008 C 
ENDBRANCH  16  17
ENDBRANCH   6  16
BRANCH  15  20
ATOM     20  C   UNL     1      -0.280  -5.657  -0.625  1.00  0.00     0.430 C 
ATOM     21  F   UNL     1       1.010  -5.429  -0.964  1.00  0.00    -0.167 F 
ATOM     22  F   UNL     1      -0.534  -6.958  -0.910  1.00  0.00    -0.167 F 
ATOM     23  F   UNL     1      -1.055  -4.910  -1.445  1.00  0.00    -0.167 F 
ENDBRANCH  15  20
ENDBRANCH   3   5
ENDBRANCH   2   3
ENDBRANCH   1   2
BRANCH   1  24
ATOM     24  C   UNL     1      -2.692  -9.523   3.147  1.00  0.00     0.275 C 
BRANCH  24  25
ATOM     25  O   UNL     1      -3.893  -8.803   3.484  1.00  0.00    -0.458 OA
BRANCH  25  26
ATOM     26  C   UNL     1      -3.716  -7.732   4.290  1.00  0.00     0.338 C 
ATOM     27  O   UNL     1      -2.674  -7.331   4.778  1.00  0.00    -0.246 OA
BRANCH  26  28
ATOM     28  C   UNL     1      -4.975  -6.983   4.394  1.00  0.00     0.060 A 
ATOM     29  C   UNL     1      -5.775  -7.018   5.527  1.00  0.00     0.016 A 
ATOM     30  C   UNL     1      -5.264  -6.088   3.374  1.00  0.00     0.016 A 
ATOM     31  C   UNL     1      -6.877  -6.154   5.605  1.00  0.00     0.010 A 
ATOM     32  C   UNL     1      -6.248  -5.120   3.526  1.00  0.00     0.010 A 
ATOM     33  C   UNL     1      -7.108  -5.164   4.623  1.00  0.00    -0.014 A 
BRANCH  33  34
ATOM     34  C   UNL     1      -8.241  -4.195   4.731  1.00  0.00     0.031 A 
ATOM     35  C   UNL     1      -9.238  -4.021   3.603  1.00  0.00     0.074 A 
ATOM     36  C   UNL     1      -8.363  -3.437   5.841  1.00  0.00     0.049 A 
ATOM     37  N   UNL     1     -10.303  -3.256   3.550  1.00  0.00    -0.248 NA
ATOM     38  C   UNL     1      -8.990  -4.760   2.353  1.00  0.00     0.031 C 
ATOM     39  C   UNL     1      -7.414  -3.404   6.957  1.00  0.00     0.029 A 
ATOM     40  N   UNL     1      -9.349  -2.561   6.227  1.00  0.00    -0.354 N 
ATOM     41  C   UNL     1     -10.826  -3.412   2.270  1.00  0.00     0.074 A 
ATOM     42  C   UNL     1      -9.916  -4.267   1.546  1.00  0.00     0.031 C 
ATOM     43  C   UNL     1      -7.905  -2.627   7.934  1.00  0.00     0.029 A 
ATOM     44  C   UNL     1      -9.179  -2.067   7.499  1.00  0.00     0.049 A 
ATOM     45  H   UNL     1     -10.104  -2.311   5.648  1.00  0.00     0.167 HD
ATOM     46  C   UNL     1     -11.984  -2.935   1.751  1.00  0.00     0.037 A 
ATOM     47  C   UNL     1      -9.969  -1.266   8.240  1.00  0.00     0.037 A 
ATOM     48  C   UNL     1     -12.921  -2.128   2.485  1.00  0.00     0.049 A 
ATOM     49  C   UNL     1     -11.269  -0.783   7.659  1.00  0.00     0.074 A 
ATOM     50  C   UNL     1     -14.162  -1.665   2.084  1.00  0.00     0.029 A 
ATOM     51  N   UNL     1     -12.719  -1.668   3.776  1.00  0.00    -0.354 N 
ATOM     52  N   UNL     1     -11.798  -1.034   6.486  1.00  0.00    -0.248 NA
ATOM     53  C   UNL     1     -12.085   0.093   8.511  1.00  0.00     0.031 C 
ATOM     54  C   UNL     1     -14.693  -0.889   3.120  1.00  0.00     0.029 A 
ATOM     55  C   UNL     1     -13.804  -0.911   4.183  1.00  0.00     0.049 A 
ATOM     56  H   UNL     1     -11.921  -1.852   4.324  1.00  0.00     0.167 HD
ATOM     57  C   UNL     1     -13.017  -0.369   6.469  1.00  0.00     0.074 A 
ATOM     58  C   UNL     1     -13.161   0.272   7.759  1.00  0.00     0.031 C 
ATOM     59  C   UNL     1     -13.933  -0.287   5.473  1.00  0.00     0.037 A 
BRANCH  46  60
ATOM     60  C   UNL     1     -12.319  -3.307   0.332  1.00  0.00     0.057 A 
ATOM     61  C   UNL     1     -12.363  -2.336  -0.677  1.00  0.00     0.134 A 
ATOM     62  C   UNL     1     -12.634  -4.624  -0.032  1.00  0.00     0.134 A 
ATOM     63  F   UNL     1     -12.087  -1.052  -0.402  1.00  0.00    -0.206 F 
ATOM     64  C   UNL     1     -12.702  -2.662  -1.992  1.00  0.00     0.040 A 
ATOM     65  C   UNL     1     -12.943  -4.968  -1.349  1.00  0.00     0.040 A 
ATOM     66  F   UNL     1     -12.605  -5.607   0.882  1.00  0.00    -0.206 F 
ATOM     67  C   UNL     1     -12.984  -3.984  -2.333  1.00  0.00     0.006 A 
ENDBRANCH  46  60
BRANCH  47  68
ATOM     68  C   UNL     1      -9.583  -0.898   9.628  1.00  0.00     0.057 A 
ATOM     69  C   UNL     1      -8.501  -0.050   9.889  1.00  0.00     0.134 A 
ATOM     70  C   UNL     1     -10.318  -1.359  10.728  1.00  0.00     0.134 A 
ATOM     71  F   UNL     1      -7.748   0.417   8.883  1.00  0.00    -0.206 F 
ATOM     72  C   UNL     1      -8.168   0.331  11.190  1.00  0.00     0.040 A 
ATOM     73  C   UNL     1     -10.015  -0.961  12.031  1.00  0.00     0.040 A 
ATOM     74  F   UNL     1     -11.376  -2.163  10.544  1.00  0.00    -0.206 F 
ATOM     75  C   UNL     1      -8.935  -0.114  12.265  1.00  0.00     0.006 A 
ENDBRANCH  47  68
BRANCH  59  76
ATOM     76  C   UNL     1     -15.181   0.494   5.758  1.00  0.00     0.057 A 
ATOM     77  C   UNL     1     -16.413  -0.158   5.900  1.00  0.00     0.134 A 
ATOM     78  C   UNL     1     -15.169   1.890   5.876  1.00  0.00     0.134 A 
ATOM     79  F   UNL     1     -16.495  -1.492   5.788  1.00  0.00    -0.206 F 
ATOM     80  C   UNL     1     -17.587   0.551   6.152  1.00  0.00     0.040 A 
ATOM     81  C   UNL     1     -16.332   2.607   6.158  1.00  0.00     0.040 A 
ATOM     82  F   UNL     1     -14.019   2.572   5.763  1.00  0.00    -0.206 F 
ATOM     83  C   UNL     1     -17.547   1.937   6.291  1.00  0.00     0.006 A 
ENDBRANCH  59  76
ENDBRANCH  33  34
ENDBRANCH  26  28
ENDBRANCH  25  26
ENDBRANCH  24  25
ENDBRANCH   1  24
TORSDOF 14
