REMARK SMILES O=C(OCCOC(=O)c1ccc(-c2c3nc(c(-c4c(F)cccc4F)c4ccc([nH]4)c(-c4c(F)cccc4F)c4nc(c(-c5c(F)cccc5F)c5ccc2[nH]5)C=C4)C=C3)cc1)C1=Cc2cc(Cl)cc(-c3ccc(O)cc3)c2O[C@@H]1C(F)(F)F
REMARK SMILES IDX 4 1 3 2 2 3 1 4 63 5 64 6 80 7 65 8 79 9 66 10 78 11 67 12
REMARK SMILES IDX 70 13 68 14 69 15 81 16 82 17 83 18 84 19 71 20 72 21 77 22
REMARK SMILES IDX 73 23 76 24 74 25 75 26 5 28 6 29 7 30 8 31 9 32 10 33 62 34
REMARK SMILES IDX 11 35 61 36 12 37 13 38 14 39 55 40 15 41 60 42 54 43 56 44
REMARK SMILES IDX 16 45 59 46 53 47 52 48 17 50 43 51 26 52 42 53 27 54 30 55
REMARK SMILES IDX 41 56 57 57 28 58 29 59 40 61 58 62 31 63 18 64 19 65 24 66
REMARK SMILES IDX 20 67 21 68 23 69 25 70 22 71 44 72 45 73 50 74 46 75 47 76
REMARK SMILES IDX 49 77 51 78 48 79 32 80 33 81 38 82 34 83 35 84 37 85 39 86
REMARK SMILES IDX 36 87
REMARK H PARENT 75 27 56 49 30 60
REMARK Flexibility Score: inf
ROOT
ATOM      1  C   UNL     1       3.982  -0.653  -1.043  1.00  0.00     0.275 C 
ENDROOT
BRANCH   1   2
ATOM      2  O   UNL     1       3.189  -1.975  -1.341  1.00  0.00    -0.459 OA
BRANCH   2   3
ATOM      3  C   UNL     1       3.372  -2.926  -0.420  1.00  0.00     0.338 C 
ATOM      4  O   UNL     1       2.854  -4.004  -0.282  1.00  0.00    -0.246 OA
BRANCH   3   5
ATOM      5  C   UNL     1       4.125  -2.088   0.472  1.00  0.00     0.087 C 
ATOM      6  C   UNL     1       5.512  -1.936  -0.015  1.00  0.00     0.027 C 
ATOM      7  C   UNL     1       2.832  -0.658   0.608  1.00  0.00     0.316 C 
ATOM      8  C   UNL     1       6.155  -0.387  -0.698  1.00  0.00     0.019 A 
ATOM      9  O   UNL     1       3.490   0.989  -0.145  1.00  0.00    -0.475 OA
ATOM     10  C   UNL     1       7.371  -0.459  -1.326  1.00  0.00     0.032 A 
ATOM     11  C   UNL     1       5.163   1.044  -0.872  1.00  0.00     0.135 A 
ATOM     12  C   UNL     1       7.704   0.664  -2.083  1.00  0.00     0.042 A 
ATOM     13  C   UNL     1       5.569   2.087  -1.675  1.00  0.00     0.026 A 
ATOM     14  Cl  UNL     1       9.189   0.602  -2.975  1.00  0.00    -0.084 Cl
ATOM     15  C   UNL     1       6.870   1.839  -2.240  1.00  0.00     0.033 A 
BRANCH   7  16
ATOM     16  C   UNL     1       2.201  -1.035   1.994  1.00  0.00     0.430 C 
ATOM     17  F   UNL     1       0.988  -0.493   2.163  1.00  0.00    -0.167 F 
ATOM     18  F   UNL     1       1.971  -2.385   1.999  1.00  0.00    -0.167 F 
ATOM     19  F   UNL     1       2.970  -0.864   3.083  1.00  0.00    -0.167 F 
ENDBRANCH   7  16
BRANCH  13  20
ATOM     20  C   UNL     1       4.872   3.275  -2.144  1.00  0.00    -0.014 A 
ATOM     21  C   UNL     1       4.499   3.346  -3.504  1.00  0.00     0.012 A 
ATOM     22  C   UNL     1       4.812   4.444  -1.378  1.00  0.00     0.012 A 
ATOM     23  C   UNL     1       4.105   4.551  -4.085  1.00  0.00     0.047 A 
ATOM     24  C   UNL     1       4.413   5.656  -1.959  1.00  0.00     0.047 A 
ATOM     25  C   UNL     1       4.072   5.699  -3.309  1.00  0.00     0.115 A 
BRANCH  25  26
ATOM     26  O   UNL     1       3.719   6.864  -3.922  1.00  0.00    -0.508 OA
ATOM     27  H   UNL     1       3.494   6.864  -4.832  1.00  0.00     0.293 HD
ENDBRANCH  25  26
ENDBRANCH  13  20
ENDBRANCH   3   5
ENDBRANCH   2   3
ENDBRANCH   1   2
BRANCH   1  28
ATOM     28  C   UNL     1       4.716  -0.016   0.885  1.00  0.00     0.275 C 
BRANCH  28  29
ATOM     29  O   UNL     1       3.879   0.901   2.032  1.00  0.00    -0.458 OA
BRANCH  29  30
ATOM     30  C   UNL     1       3.147   2.040   2.210  1.00  0.00     0.338 C 
ATOM     31  O   UNL     1       2.883   2.931   1.428  1.00  0.00    -0.246 OA
BRANCH  30  32
ATOM     32  C   UNL     1       2.441   1.825   3.514  1.00  0.00     0.060 A 
ATOM     33  C   UNL     1       1.054   1.604   3.508  1.00  0.00     0.016 A 
ATOM     34  C   UNL     1       3.194   1.468   4.635  1.00  0.00     0.016 A 
ATOM     35  C   UNL     1       0.467   0.829   4.527  1.00  0.00     0.010 A 
ATOM     36  C   UNL     1       2.603   0.717   5.656  1.00  0.00     0.010 A 
ATOM     37  C   UNL     1       1.251   0.337   5.582  1.00  0.00    -0.014 A 
BRANCH  37  38
ATOM     38  C   UNL     1       0.625  -0.332   6.754  1.00  0.00     0.031 A 
ATOM     39  C   UNL     1       0.173   0.584   7.853  1.00  0.00     0.074 A 
ATOM     40  C   UNL     1       0.516  -1.669   6.899  1.00  0.00     0.049 A 
ATOM     41  N   UNL     1      -0.362   0.308   9.012  1.00  0.00    -0.248 NA
ATOM     42  C   UNL     1       0.392   2.020   7.609  1.00  0.00     0.031 C 
ATOM     43  C   UNL     1       0.929  -2.681   5.926  1.00  0.00     0.029 A 
ATOM     44  N   UNL     1       0.027  -2.412   7.953  1.00  0.00    -0.354 N 
ATOM     45  C   UNL     1      -0.550   1.538   9.625  1.00  0.00     0.074 A 
ATOM     46  C   UNL     1      -0.004   2.549   8.751  1.00  0.00     0.031 C 
ATOM     47  C   UNL     1       0.677  -3.907   6.429  1.00  0.00     0.029 A 
ATOM     48  C   UNL     1       0.095  -3.775   7.764  1.00  0.00     0.049 A 
ATOM     49  H   UNL     1      -0.339  -2.003   8.770  1.00  0.00     0.167 HD
ATOM     50  C   UNL     1      -1.150   1.817  10.804  1.00  0.00     0.037 A 
ATOM     51  C   UNL     1      -0.280  -4.785   8.580  1.00  0.00     0.037 A 
ATOM     52  C   UNL     1      -1.658   0.818  11.695  1.00  0.00     0.049 A 
ATOM     53  C   UNL     1      -0.887  -4.456   9.929  1.00  0.00     0.074 A 
ATOM     54  C   UNL     1      -2.282   0.986  12.916  1.00  0.00     0.029 A 
ATOM     55  N   UNL     1      -1.579  -0.547  11.461  1.00  0.00    -0.354 N 
ATOM     56  N   UNL     1      -1.145  -3.285  10.462  1.00  0.00    -0.248 NA
ATOM     57  C   UNL     1      -1.266  -5.593  10.785  1.00  0.00     0.031 C 
ATOM     58  C   UNL     1      -2.544  -0.284  13.443  1.00  0.00     0.029 A 
ATOM     59  C   UNL     1      -2.129  -1.237  12.524  1.00  0.00     0.049 A 
ATOM     60  H   UNL     1      -1.190  -0.962  10.658  1.00  0.00     0.167 HD
ATOM     61  C   UNL     1      -1.761  -3.544  11.683  1.00  0.00     0.074 A 
ATOM     62  C   UNL     1      -1.839  -4.984  11.814  1.00  0.00     0.031 C 
ATOM     63  C   UNL     1      -2.226  -2.672  12.612  1.00  0.00     0.037 A 
BRANCH  50  64
ATOM     64  C   UNL     1      -1.243   3.267  11.164  1.00  0.00     0.057 A 
ATOM     65  C   UNL     1      -2.063   4.148  10.442  1.00  0.00     0.134 A 
ATOM     66  C   UNL     1      -0.428   3.810  12.162  1.00  0.00     0.134 A 
ATOM     67  F   UNL     1      -2.838   3.692   9.445  1.00  0.00    -0.206 F 
ATOM     68  C   UNL     1      -2.027   5.524  10.665  1.00  0.00     0.040 A 
ATOM     69  C   UNL     1      -0.408   5.181  12.416  1.00  0.00     0.040 A 
ATOM     70  F   UNL     1       0.387   3.023  12.880  1.00  0.00    -0.206 F 
ATOM     71  C   UNL     1      -1.196   6.044  11.655  1.00  0.00     0.006 A 
ENDBRANCH  50  64
BRANCH  51  72
ATOM     72  C   UNL     1      -0.144  -6.214   8.171  1.00  0.00     0.057 A 
ATOM     73  C   UNL     1      -1.278  -7.009   7.942  1.00  0.00     0.134 A 
ATOM     74  C   UNL     1       1.101  -6.849   8.092  1.00  0.00     0.134 A 
ATOM     75  F   UNL     1      -2.504  -6.475   8.039  1.00  0.00    -0.206 F 
ATOM     76  C   UNL     1      -1.181  -8.379   7.682  1.00  0.00     0.040 A 
ATOM     77  C   UNL     1       1.214  -8.215   7.809  1.00  0.00     0.040 A 
ATOM     78  F   UNL     1       2.229  -6.158   8.313  1.00  0.00    -0.206 F 
ATOM     79  C   UNL     1       0.070  -8.986   7.614  1.00  0.00     0.006 A 
ENDBRANCH  51  72
BRANCH  63  80
ATOM     80  C   UNL     1      -2.923  -3.237  13.816  1.00  0.00     0.057 A 
ATOM     81  C   UNL     1      -2.230  -3.891  14.841  1.00  0.00     0.134 A 
ATOM     82  C   UNL     1      -4.301  -3.047  13.985  1.00  0.00     0.134 A 
ATOM     83  F   UNL     1      -0.910  -4.112  14.738  1.00  0.00    -0.206 F 
ATOM     84  C   UNL     1      -2.886  -4.351  15.985  1.00  0.00     0.040 A 
ATOM     85  C   UNL     1      -4.963  -3.476  15.136  1.00  0.00     0.040 A 
ATOM     86  F   UNL     1      -5.022  -2.415  13.046  1.00  0.00    -0.206 F 
ATOM     87  C   UNL     1      -4.254  -4.135  16.139  1.00  0.00     0.006 A 
ENDBRANCH  63  80
ENDBRANCH  37  38
ENDBRANCH  30  32
ENDBRANCH  29  30
ENDBRANCH  28  29
ENDBRANCH   1  28
TORSDOF 14
