REMARK SMILES Cc1ccc(-c2ccc(/C=C(\C#N)C3N=c4ccccc4=N3)o2)cc1C(=O)OCCOC(=O)c1ccc(-c2c3nc(c(-c4c(F)cccc4F)c4ccc([nH]4)c(-c4c(F)cccc4F)c4nc(c(-c5c(F)cccc5F)c5ccc2[nH]5)C=C4)C=C3)cc1
REMARK SMILES IDX 29 1 28 2 26 3 27 4 25 5 1 6 2 7 3 8 4 9 24 10 5 11 6 12
REMARK SMILES IDX 7 13 23 14 8 15 9 16 10 17 11 18 12 19 13 20 14 21 15 22
REMARK SMILES IDX 22 23 16 24 21 25 17 26 20 27 18 28 19 29 30 30 31 31 32 32
REMARK SMILES IDX 33 33 34 34 35 35 87 36 36 37 86 38 37 39 38 40 39 41 80 42
REMARK SMILES IDX 40 43 85 44 79 45 81 46 41 47 84 48 78 49 77 50 42 52 68 53
REMARK SMILES IDX 51 54 67 55 52 56 55 57 66 58 82 59 53 60 54 61 65 63 83 64
REMARK SMILES IDX 56 65 43 66 44 67 49 68 45 69 46 70 48 71 50 72 47 73 69 74
REMARK SMILES IDX 70 75 75 76 71 77 72 78 74 79 76 80 73 81 57 82 58 83 63 84
REMARK SMILES IDX 59 85 60 86 62 87 64 88 61 89
REMARK H PARENT 81 51 55 62
REMARK Flexibility Score: inf
ROOT
ATOM      1  C   UNL     1       3.073   2.730  -1.983  1.00  0.00     0.275 C 
ENDROOT
BRANCH   1   2
ATOM      2  O   UNL     1       1.920   1.858  -2.050  1.00  0.00    -0.458 OA
BRANCH   2   3
ATOM      3  C   UNL     1       1.786   1.122  -0.913  1.00  0.00     0.338 C 
ATOM      4  O   UNL     1       2.508   1.251   0.066  1.00  0.00    -0.246 OA
BRANCH   3   5
ATOM      5  C   UNL     1       0.761   0.047  -0.891  1.00  0.00     0.063 A 
ATOM      6  C   UNL     1       2.644  -1.627  -0.382  1.00  0.00     0.045 C 
ATOM      7  C   UNL     1       1.192  -1.228  -0.471  1.00  0.00    -0.037 A 
ATOM      8  C   UNL     1       0.228  -2.186  -0.131  1.00  0.00     0.005 A 
ATOM      9  C   UNL     1      -1.135  -1.870  -0.129  1.00  0.00     0.012 A 
ATOM     10  C   UNL     1      -0.622   0.331  -0.969  1.00  0.00     0.028 A 
ATOM     11  C   UNL     1      -1.586  -0.609  -0.531  1.00  0.00     0.018 A 
BRANCH  11  12
ATOM     12  C   UNL     1      -3.022  -0.293  -0.470  1.00  0.00     0.134 A 
ATOM     13  C   UNL     1      -3.856   0.495  -1.228  1.00  0.00     0.051 A 
ATOM     14  O   UNL     1      -3.758  -0.878   0.538  1.00  0.00    -0.457 OA
ATOM     15  C   UNL     1      -5.151   0.368  -0.670  1.00  0.00     0.051 A 
ATOM     16  C   UNL     1      -5.080  -0.473   0.437  1.00  0.00     0.128 A 
BRANCH  16  17
ATOM     17  C   UNL     1      -6.181  -0.860   1.271  1.00  0.00     0.066 C 
ATOM     18  C   UNL     1      -6.139  -1.509   2.455  1.00  0.00     0.080 C 
BRANCH  18  19
ATOM     19  C   UNL     1      -4.926  -1.907   3.078  1.00  0.00     0.099 C 
ATOM     20  N   UNL     1      -3.964  -2.272   3.636  1.00  0.00    -0.193 NA
ENDBRANCH  18  19
BRANCH  18  21
ATOM     21  C   UNL     1      -7.434  -1.860   3.181  1.00  0.00     0.263 C 
ATOM     22  N   UNL     1      -7.677  -3.328   3.109  1.00  0.00    -0.251 NA
ATOM     23  N   UNL     1      -7.421  -1.408   4.601  1.00  0.00    -0.251 NA
ATOM     24  C   UNL     1      -7.763  -3.665   4.349  1.00  0.00     0.086 A 
ATOM     25  C   UNL     1      -7.617  -2.503   5.254  1.00  0.00     0.086 A 
ATOM     26  C   UNL     1      -7.964  -5.002   4.920  1.00  0.00     0.030 A 
ATOM     27  C   UNL     1      -7.701  -2.712   6.705  1.00  0.00     0.030 A 
ATOM     28  C   UNL     1      -8.000  -5.108   6.255  1.00  0.00     0.002 A 
ATOM     29  C   UNL     1      -7.876  -3.968   7.143  1.00  0.00     0.002 A 
ENDBRANCH  18  21
ENDBRANCH  16  17
ENDBRANCH  11  12
ENDBRANCH   3   5
ENDBRANCH   2   3
ENDBRANCH   1   2
BRANCH   1  30
ATOM     30  C   UNL     1       2.915   4.096  -2.670  1.00  0.00     0.275 C 
BRANCH  30  31
ATOM     31  O   UNL     1       1.615   4.748  -2.724  1.00  0.00    -0.458 OA
BRANCH  31  32
ATOM     32  C   UNL     1       0.545   4.491  -1.937  1.00  0.00     0.338 C 
ATOM     33  O   UNL     1      -0.599   4.458  -2.369  1.00  0.00    -0.246 OA
BRANCH  32  34
ATOM     34  C   UNL     1       0.819   4.267  -0.512  1.00  0.00     0.060 A 
ATOM     35  C   UNL     1      -0.055   3.450   0.228  1.00  0.00     0.016 A 
ATOM     36  C   UNL     1       1.994   4.763   0.038  1.00  0.00     0.016 A 
ATOM     37  C   UNL     1       0.285   3.053   1.507  1.00  0.00     0.010 A 
ATOM     38  C   UNL     1       2.430   4.220   1.209  1.00  0.00     0.010 A 
ATOM     39  C   UNL     1       1.532   3.451   1.968  1.00  0.00    -0.014 A 
BRANCH  39  40
ATOM     40  C   UNL     1       1.869   3.483   3.372  1.00  0.00     0.031 A 
ATOM     41  C   UNL     1       2.450   2.276   3.976  1.00  0.00     0.074 A 
ATOM     42  C   UNL     1       1.759   4.769   3.797  1.00  0.00     0.049 A 
ATOM     43  N   UNL     1       2.453   2.024   5.231  1.00  0.00    -0.248 NA
ATOM     44  C   UNL     1       3.027   1.164   3.216  1.00  0.00     0.031 C 
ATOM     45  C   UNL     1       2.277   5.522   4.920  1.00  0.00     0.029 A 
ATOM     46  N   UNL     1       0.934   5.722   3.152  1.00  0.00    -0.354 N 
ATOM     47  C   UNL     1       3.417   1.052   5.439  1.00  0.00     0.074 A 
ATOM     48  C   UNL     1       3.554   0.393   4.175  1.00  0.00     0.031 C 
ATOM     49  C   UNL     1       1.500   6.617   5.096  1.00  0.00     0.029 A 
ATOM     50  C   UNL     1       0.403   6.550   4.132  1.00  0.00     0.049 A 
ATOM     51  H   UNL     1       0.768   5.786   2.183  1.00  0.00     0.167 HD
ATOM     52  C   UNL     1       4.138   1.123   6.596  1.00  0.00     0.037 A 
ATOM     53  C   UNL     1      -0.921   6.357   4.408  1.00  0.00     0.037 A 
ATOM     54  C   UNL     1       3.634   2.266   7.361  1.00  0.00     0.049 A 
ATOM     55  C   UNL     1      -1.011   5.636   5.733  1.00  0.00     0.074 A 
ATOM     56  C   UNL     1       4.060   3.581   7.434  1.00  0.00     0.029 A 
ATOM     57  N   UNL     1       2.307   2.253   7.773  1.00  0.00    -0.354 N 
ATOM     58  N   UNL     1      -0.175   4.711   6.141  1.00  0.00    -0.248 NA
ATOM     59  C   UNL     1      -1.930   6.082   6.771  1.00  0.00     0.031 C 
ATOM     60  C   UNL     1       2.935   4.371   7.813  1.00  0.00     0.029 A 
ATOM     61  C   UNL     1       1.827   3.542   7.917  1.00  0.00     0.049 A 
ATOM     62  H   UNL     1       1.781   1.438   7.941  1.00  0.00     0.167 HD
ATOM     63  C   UNL     1      -0.352   4.525   7.488  1.00  0.00     0.074 A 
ATOM     64  C   UNL     1      -1.473   5.390   7.825  1.00  0.00     0.031 C 
ATOM     65  C   UNL     1       0.439   3.753   8.294  1.00  0.00     0.037 A 
BRANCH  52  66
ATOM     66  C   UNL     1       5.437   0.427   6.953  1.00  0.00     0.057 A 
ATOM     67  C   UNL     1       6.142   0.834   8.110  1.00  0.00     0.134 A 
ATOM     68  C   UNL     1       6.071  -0.603   6.236  1.00  0.00     0.134 A 
ATOM     69  F   UNL     1       5.657   1.773   8.935  1.00  0.00    -0.206 F 
ATOM     70  C   UNL     1       7.379   0.298   8.494  1.00  0.00     0.040 A 
ATOM     71  C   UNL     1       7.311  -1.152   6.612  1.00  0.00     0.040 A 
ATOM     72  F   UNL     1       5.532  -1.151   5.144  1.00  0.00    -0.206 F 
ATOM     73  C   UNL     1       7.974  -0.698   7.742  1.00  0.00     0.006 A 
ENDBRANCH  52  66
BRANCH  53  74
ATOM     74  C   UNL     1      -1.759   6.125   3.172  1.00  0.00     0.057 A 
ATOM     75  C   UNL     1      -1.648   7.055   2.108  1.00  0.00     0.134 A 
ATOM     76  C   UNL     1      -2.423   4.935   2.867  1.00  0.00     0.134 A 
ATOM     77  F   UNL     1      -1.054   8.243   2.311  1.00  0.00    -0.206 F 
ATOM     78  C   UNL     1      -2.041   6.764   0.795  1.00  0.00     0.040 A 
ATOM     79  C   UNL     1      -2.861   4.647   1.558  1.00  0.00     0.040 A 
ATOM     80  F   UNL     1      -2.592   3.986   3.798  1.00  0.00    -0.206 F 
ATOM     81  C   UNL     1      -2.632   5.542   0.511  1.00  0.00     0.006 A 
ENDBRANCH  53  74
BRANCH  65  82
ATOM     82  C   UNL     1      -0.041   3.171   9.601  1.00  0.00     0.057 A 
ATOM     83  C   UNL     1      -1.397   2.995   9.912  1.00  0.00     0.134 A 
ATOM     84  C   UNL     1       0.862   2.596  10.524  1.00  0.00     0.134 A 
ATOM     85  F   UNL     1      -2.372   3.329   9.056  1.00  0.00    -0.206 F 
ATOM     86  C   UNL     1      -1.822   2.410  11.105  1.00  0.00     0.040 A 
ATOM     87  C   UNL     1       0.445   1.919  11.668  1.00  0.00     0.040 A 
ATOM     88  F   UNL     1       2.191   2.629  10.347  1.00  0.00    -0.206 F 
ATOM     89  C   UNL     1      -0.901   1.859  11.983  1.00  0.00     0.006 A 
ENDBRANCH  65  82
ENDBRANCH  39  40
ENDBRANCH  32  34
ENDBRANCH  31  32
ENDBRANCH  30  31
ENDBRANCH   1  30
TORSDOF 15
