REMARK SMILES CSCC[C@H](NC(=O)N[C@@H]1CCCCC1(C)C)C(=O)OCCOC(=O)c1ccc(-c2c3nc(c(-c4c(F)cccc4F)c4ccc([nH]4)c(-c4c(F)cccc4F)c4nc(c(-c5c(F)cccc5F)c5ccc2[nH]5)C=C4)C=C3)cc1
REMARK SMILES IDX 21 1 20 2 18 3 19 4 5 5 4 6 3 7 2 8 1 9 6 10 7 11 8 13 9 14
REMARK SMILES IDX 10 16 11 17 15 18 12 19 14 20 16 21 17 22 13 23 22 24 23 25
REMARK SMILES IDX 24 26 25 27 26 28 27 29 79 30 28 31 78 32 29 33 30 34 31 35
REMARK SMILES IDX 72 36 32 37 77 38 71 39 73 40 33 41 76 42 70 43 69 44 34 46
REMARK SMILES IDX 60 47 43 48 59 49 44 50 47 51 58 52 74 53 45 54 46 55 57 57
REMARK SMILES IDX 75 58 48 59 35 60 36 61 41 62 37 63 38 64 40 65 42 66 39 67
REMARK SMILES IDX 61 68 62 69 67 70 63 71 64 72 66 73 68 74 65 75 49 76 50 77
REMARK SMILES IDX 55 78 51 79 52 80 54 81 56 82 53 83
REMARK H PARENT 6 12 9 15 73 45 47 56
REMARK Flexibility Score: inf
ROOT
ATOM      1  C   UNL     1       1.001  -4.106  -5.236  1.00  0.00     0.274 C 
ENDROOT
BRANCH   1   2
ATOM      2  O   UNL     1       1.080  -4.577  -3.840  1.00  0.00    -0.461 OA
BRANCH   2   3
ATOM      3  C   UNL     1       2.214  -4.297  -3.109  1.00  0.00     0.328 C 
ATOM      4  O   UNL     1       3.260  -3.976  -3.676  1.00  0.00    -0.250 OA
BRANCH   3   5
ATOM      5  C   UNL     1       2.030  -4.089  -1.470  1.00  0.00     0.194 C 
BRANCH   5   6
ATOM      6  C   UNL     1       3.452  -4.091  -0.843  1.00  0.00     0.048 C 
BRANCH   6   7
ATOM      7  C   UNL     1       3.561  -3.649   0.620  1.00  0.00     0.072 C 
BRANCH   7   8
ATOM      8  S   UNL     1       4.009  -5.032   1.722  1.00  0.00    -0.165 SA
ATOM      9  C   UNL     1       2.471  -5.218   2.658  1.00  0.00     0.085 C 
ENDBRANCH   7   8
ENDBRANCH   6   7
ENDBRANCH   5   6
BRANCH   5  10
ATOM     10  N   UNL     1       0.977  -4.654  -0.450  1.00  0.00    -0.325 N 
ATOM     11  C   UNL     1      -0.128  -4.410   0.312  1.00  0.00     0.315 C 
ATOM     12  H   UNL     1       1.222  -5.594  -0.291  1.00  0.00     0.166 HD
ATOM     13  O   UNL     1      -0.359  -5.283   1.163  1.00  0.00    -0.249 OA
ATOM     14  N   UNL     1      -1.044  -3.402   0.321  1.00  0.00    -0.335 N 
ATOM     15  H   UNL     1      -1.623  -3.493   1.112  1.00  0.00     0.165 HD
BRANCH  14  16
ATOM     16  C   UNL     1      -1.476  -2.168  -0.491  1.00  0.00     0.089 C 
ATOM     17  C   UNL     1      -2.897  -2.259  -1.094  1.00  0.00     0.025 C 
ATOM     18  C   UNL     1      -0.381  -1.999  -1.496  1.00  0.00    -0.015 C 
ATOM     19  C   UNL     1      -3.205  -3.555  -1.811  1.00  0.00     0.002 C 
ATOM     20  C   UNL     1      -0.711  -3.295  -2.376  1.00  0.00     0.008 C 
ATOM     21  C   UNL     1      -0.020  -0.975  -2.558  1.00  0.00     0.013 C 
ATOM     22  C   UNL     1       0.750  -1.485  -0.485  1.00  0.00     0.013 C 
ATOM     23  C   UNL     1      -1.941  -4.231  -2.247  1.00  0.00     0.001 C 
ENDBRANCH  14  16
ENDBRANCH   5  10
ENDBRANCH   3   5
ENDBRANCH   2   3
ENDBRANCH   1   2
BRANCH   1  24
ATOM     24  C   UNL     1      -0.469  -3.867  -5.772  1.00  0.00     0.275 C 
BRANCH  24  25
ATOM     25  O   UNL     1      -0.983  -2.506  -5.545  1.00  0.00    -0.458 OA
BRANCH  25  26
ATOM     26  C   UNL     1      -2.352  -2.304  -5.651  1.00  0.00     0.338 C 
ATOM     27  O   UNL     1      -3.141  -3.122  -6.051  1.00  0.00    -0.246 OA
BRANCH  26  28
ATOM     28  C   UNL     1      -2.786  -0.967  -5.062  1.00  0.00     0.060 A 
ATOM     29  C   UNL     1      -1.842  -0.028  -4.703  1.00  0.00     0.016 A 
ATOM     30  C   UNL     1      -4.119  -0.658  -4.739  1.00  0.00     0.016 A 
ATOM     31  C   UNL     1      -2.153   0.975  -3.779  1.00  0.00     0.010 A 
ATOM     32  C   UNL     1      -4.458   0.542  -4.038  1.00  0.00     0.010 A 
ATOM     33  C   UNL     1      -3.462   1.387  -3.531  1.00  0.00    -0.014 A 
BRANCH  33  34
ATOM     34  C   UNL     1      -3.669   2.756  -2.920  1.00  0.00     0.031 A 
ATOM     35  C   UNL     1      -4.653   3.042  -1.806  1.00  0.00     0.074 A 
ATOM     36  C   UNL     1      -2.914   3.796  -3.361  1.00  0.00     0.049 A 
ATOM     37  N   UNL     1      -5.112   4.202  -1.393  1.00  0.00    -0.248 NA
ATOM     38  C   UNL     1      -5.171   1.898  -1.042  1.00  0.00     0.031 C 
ATOM     39  C   UNL     1      -1.843   3.713  -4.365  1.00  0.00     0.029 A 
ATOM     40  N   UNL     1      -2.907   5.133  -3.023  1.00  0.00    -0.354 N 
ATOM     41  C   UNL     1      -6.016   3.930  -0.371  1.00  0.00     0.074 A 
ATOM     42  C   UNL     1      -6.009   2.490  -0.194  1.00  0.00     0.031 C 
ATOM     43  C   UNL     1      -1.233   4.891  -4.487  1.00  0.00     0.029 A 
ATOM     44  C   UNL     1      -2.010   5.873  -3.762  1.00  0.00     0.049 A 
ATOM     45  H   UNL     1      -3.485   5.519  -2.325  1.00  0.00     0.167 HD
ATOM     46  C   UNL     1      -6.793   4.800   0.328  1.00  0.00     0.037 A 
ATOM     47  C   UNL     1      -1.880   7.195  -3.974  1.00  0.00     0.037 A 
ATOM     48  C   UNL     1      -6.772   6.237   0.160  1.00  0.00     0.049 A 
ATOM     49  C   UNL     1      -2.838   8.125  -3.315  1.00  0.00     0.074 A 
ATOM     50  C   UNL     1      -7.557   7.197   0.783  1.00  0.00     0.029 A 
ATOM     51  N   UNL     1      -5.914   6.925  -0.686  1.00  0.00    -0.354 N 
ATOM     52  N   UNL     1      -3.795   7.846  -2.468  1.00  0.00    -0.248 NA
ATOM     53  C   UNL     1      -2.726   9.544  -3.668  1.00  0.00     0.031 C 
ATOM     54  C   UNL     1      -7.206   8.456   0.279  1.00  0.00     0.029 A 
ATOM     55  C   UNL     1      -6.168   8.288  -0.621  1.00  0.00     0.049 A 
ATOM     56  H   UNL     1      -5.225   6.507  -1.251  1.00  0.00     0.167 HD
ATOM     57  C   UNL     1      -4.404   9.055  -2.182  1.00  0.00     0.074 A 
ATOM     58  C   UNL     1      -3.692  10.073  -2.930  1.00  0.00     0.031 C 
ATOM     59  C   UNL     1      -5.464   9.294  -1.374  1.00  0.00     0.037 A 
BRANCH  46  60
ATOM     60  C   UNL     1      -7.806   4.231   1.287  1.00  0.00     0.057 A 
ATOM     61  C   UNL     1      -7.458   3.724   2.545  1.00  0.00     0.134 A 
ATOM     62  C   UNL     1      -9.171   4.260   0.964  1.00  0.00     0.134 A 
ATOM     63  F   UNL     1      -6.173   3.668   2.923  1.00  0.00    -0.206 F 
ATOM     64  C   UNL     1      -8.427   3.247   3.434  1.00  0.00     0.040 A 
ATOM     65  C   UNL     1     -10.149   3.805   1.851  1.00  0.00     0.040 A 
ATOM     66  F   UNL     1      -9.579   4.751  -0.216  1.00  0.00    -0.206 F 
ATOM     67  C   UNL     1      -9.778   3.291   3.090  1.00  0.00     0.006 A 
ENDBRANCH  46  60
BRANCH  47  68
ATOM     68  C   UNL     1      -0.887   7.676  -4.972  1.00  0.00     0.057 A 
ATOM     69  C   UNL     1       0.252   8.383  -4.582  1.00  0.00     0.134 A 
ATOM     70  C   UNL     1      -1.023   7.369  -6.336  1.00  0.00     0.134 A 
ATOM     71  F   UNL     1       0.426   8.726  -3.298  1.00  0.00    -0.206 F 
ATOM     72  C   UNL     1       1.229   8.755  -5.508  1.00  0.00     0.040 A 
ATOM     73  C   UNL     1      -0.037   7.701  -7.265  1.00  0.00     0.040 A 
ATOM     74  F   UNL     1      -2.089   6.681  -6.774  1.00  0.00    -0.206 F 
ATOM     75  C   UNL     1       1.093   8.399  -6.850  1.00  0.00     0.006 A 
ENDBRANCH  47  68
BRANCH  59  76
ATOM     76  C   UNL     1      -5.886  10.724  -1.241  1.00  0.00     0.057 A 
ATOM     77  C   UNL     1      -6.574  11.386  -2.266  1.00  0.00     0.134 A 
ATOM     78  C   UNL     1      -5.579  11.453  -0.086  1.00  0.00     0.134 A 
ATOM     79  F   UNL     1      -6.870  10.748  -3.409  1.00  0.00    -0.206 F 
ATOM     80  C   UNL     1      -6.922  12.733  -2.155  1.00  0.00     0.040 A 
ATOM     81  C   UNL     1      -5.941  12.793   0.045  1.00  0.00     0.040 A 
ATOM     82  F   UNL     1      -4.916  10.876   0.927  1.00  0.00    -0.206 F 
ATOM     83  C   UNL     1      -6.609  13.439  -0.995  1.00  0.00     0.006 A 
ENDBRANCH  59  76
ENDBRANCH  33  34
ENDBRANCH  26  28
ENDBRANCH  25  26
ENDBRANCH  24  25
ENDBRANCH   1  24
TORSDOF 16
