REMARK SMILES O=C(OCCOC(=O)[C@H]1CC2=c3ccccc3=N[C@H]2[C@@H](c2ccccc2)[NH2+]1)c1ccc(-c2c3nc(c(-c4c(F)cccc4F)c4ccc([nH]4)c(-c4c(F)cccc4F)c4nc(c(-c5c(F)cccc5F)c5ccc2[nH]5)C=C4)C=C3)cc1
REMARK SMILES IDX 4 1 3 2 2 3 1 4 28 5 29 6 81 7 30 8 80 9 31 10 32 11 33 12
REMARK SMILES IDX 74 13 34 14 79 15 73 16 75 17 35 18 78 19 72 20 71 21 36 23
REMARK SMILES IDX 62 24 45 25 61 26 46 27 49 28 60 29 76 30 47 31 48 32 59 34
REMARK SMILES IDX 77 35 50 36 37 37 38 38 43 39 39 40 40 41 42 42 44 43 41 44
REMARK SMILES IDX 63 45 64 46 69 47 65 48 66 49 68 50 70 51 67 52 51 53 52 54
REMARK SMILES IDX 57 55 53 56 54 57 56 58 58 59 55 60 5 61 6 62 7 63 8 64 9 65
REMARK SMILES IDX 10 66 27 67 11 68 20 69 12 72 19 73 13 74 17 75 18 76 14 77
REMARK SMILES IDX 16 78 15 79 21 80 22 81 26 82 23 83 25 84 24 85
REMARK H PARENT 75 22 49 33 27 70 27 71
REMARK Flexibility Score: inf
ROOT
ATOM      1  C   UNL     1       3.857   0.124  -1.742  1.00  0.00     0.275 C 
ENDROOT
BRANCH   1   2
ATOM      2  O   UNL     1       3.658  -0.906  -0.759  1.00  0.00    -0.458 OA
BRANCH   2   3
ATOM      3  C   UNL     1       3.409  -0.723   0.553  1.00  0.00     0.338 C 
ATOM      4  O   UNL     1       2.579  -1.444   1.111  1.00  0.00    -0.246 OA
BRANCH   3   5
ATOM      5  C   UNL     1       4.189   0.252   1.385  1.00  0.00     0.060 A 
ATOM      6  C   UNL     1       3.736   0.411   2.692  1.00  0.00     0.016 A 
ATOM      7  C   UNL     1       5.344   0.961   1.026  1.00  0.00     0.016 A 
ATOM      8  C   UNL     1       4.358   1.317   3.549  1.00  0.00     0.010 A 
ATOM      9  C   UNL     1       5.959   1.887   1.914  1.00  0.00     0.010 A 
ATOM     10  C   UNL     1       5.442   2.123   3.189  1.00  0.00    -0.014 A 
BRANCH  10  11
ATOM     11  C   UNL     1       5.875   3.185   4.178  1.00  0.00     0.031 A 
ATOM     12  C   UNL     1       5.877   4.663   3.827  1.00  0.00     0.074 A 
ATOM     13  C   UNL     1       6.050   2.864   5.484  1.00  0.00     0.049 A 
ATOM     14  N   UNL     1       5.991   5.706   4.624  1.00  0.00    -0.248 NA
ATOM     15  C   UNL     1       5.756   5.024   2.410  1.00  0.00     0.031 C 
ATOM     16  C   UNL     1       6.081   1.502   6.024  1.00  0.00     0.029 A 
ATOM     17  N   UNL     1       6.150   3.658   6.608  1.00  0.00    -0.354 N 
ATOM     18  C   UNL     1       5.902   6.831   3.809  1.00  0.00     0.074 A 
ATOM     19  C   UNL     1       5.816   6.349   2.454  1.00  0.00     0.031 C 
ATOM     20  C   UNL     1       6.062   1.556   7.364  1.00  0.00     0.029 A 
ATOM     21  C   UNL     1       6.131   2.951   7.790  1.00  0.00     0.049 A 
ATOM     22  H   UNL     1       6.228   4.639   6.569  1.00  0.00     0.167 HD
ATOM     23  C   UNL     1       5.864   8.145   4.145  1.00  0.00     0.037 A 
ATOM     24  C   UNL     1       6.184   3.353   9.078  1.00  0.00     0.037 A 
ATOM     25  C   UNL     1       6.007   8.667   5.478  1.00  0.00     0.049 A 
ATOM     26  C   UNL     1       6.297   4.812   9.410  1.00  0.00     0.074 A 
ATOM     27  C   UNL     1       6.070   9.995   5.875  1.00  0.00     0.029 A 
ATOM     28  N   UNL     1       6.115   7.903   6.622  1.00  0.00    -0.354 N 
ATOM     29  N   UNL     1       6.190   5.849   8.620  1.00  0.00    -0.248 NA
ATOM     30  C   UNL     1       6.580   5.155  10.814  1.00  0.00     0.031 C 
ATOM     31  C   UNL     1       6.228  10.034   7.261  1.00  0.00     0.029 A 
ATOM     32  C   UNL     1       6.272   8.732   7.721  1.00  0.00     0.049 A 
ATOM     33  H   UNL     1       6.084   6.919   6.652  1.00  0.00     0.167 HD
ATOM     34  C   UNL     1       6.410   6.960   9.423  1.00  0.00     0.074 A 
ATOM     35  C   UNL     1       6.609   6.479  10.771  1.00  0.00     0.031 C 
ATOM     36  C   UNL     1       6.469   8.262   9.062  1.00  0.00     0.037 A 
BRANCH  23  37
ATOM     37  C   UNL     1       5.647   9.171   3.068  1.00  0.00     0.057 A 
ATOM     38  C   UNL     1       6.675   9.581   2.215  1.00  0.00     0.134 A 
ATOM     39  C   UNL     1       4.447   9.894   3.028  1.00  0.00     0.134 A 
ATOM     40  F   UNL     1       7.860   8.953   2.226  1.00  0.00    -0.206 F 
ATOM     41  C   UNL     1       6.516  10.670   1.353  1.00  0.00     0.040 A 
ATOM     42  C   UNL     1       4.287  11.002   2.194  1.00  0.00     0.040 A 
ATOM     43  F   UNL     1       3.424   9.564   3.833  1.00  0.00    -0.206 F 
ATOM     44  C   UNL     1       5.322  11.389   1.347  1.00  0.00     0.006 A 
ENDBRANCH  23  37
BRANCH  24  45
ATOM     45  C   UNL     1       6.228   2.342  10.170  1.00  0.00     0.057 A 
ATOM     46  C   UNL     1       7.321   1.474  10.296  1.00  0.00     0.134 A 
ATOM     47  C   UNL     1       5.214   2.242  11.129  1.00  0.00     0.134 A 
ATOM     48  F   UNL     1       8.337   1.534   9.422  1.00  0.00    -0.206 F 
ATOM     49  C   UNL     1       7.388   0.520  11.309  1.00  0.00     0.040 A 
ATOM     50  C   UNL     1       5.285   1.314  12.170  1.00  0.00     0.040 A 
ATOM     51  F   UNL     1       4.161   3.072  11.091  1.00  0.00    -0.206 F 
ATOM     52  C   UNL     1       6.369   0.442  12.255  1.00  0.00     0.006 A 
ENDBRANCH  24  45
BRANCH  36  53
ATOM     53  C   UNL     1       6.784   9.264  10.129  1.00  0.00     0.057 A 
ATOM     54  C   UNL     1       5.803  10.128  10.626  1.00  0.00     0.134 A 
ATOM     55  C   UNL     1       8.082   9.389  10.640  1.00  0.00     0.134 A 
ATOM     56  F   UNL     1       4.545  10.070  10.165  1.00  0.00    -0.206 F 
ATOM     57  C   UNL     1       6.100  11.079  11.604  1.00  0.00     0.040 A 
ATOM     58  C   UNL     1       8.387  10.322  11.632  1.00  0.00     0.040 A 
ATOM     59  F   UNL     1       9.065   8.587  10.204  1.00  0.00    -0.206 F 
ATOM     60  C   UNL     1       7.394  11.172  12.115  1.00  0.00     0.006 A 
ENDBRANCH  36  53
ENDBRANCH  10  11
ENDBRANCH   3   5
ENDBRANCH   2   3
ENDBRANCH   1   2
BRANCH   1  61
ATOM     61  C   UNL     1       2.724   1.133  -1.885  1.00  0.00     0.274 C 
BRANCH  61  62
ATOM     62  O   UNL     1       2.550   1.942  -0.716  1.00  0.00    -0.458 OA
BRANCH  62  63
ATOM     63  C   UNL     1       1.275   2.056  -0.241  1.00  0.00     0.365 C 
ATOM     64  O   UNL     1       0.354   1.280  -0.524  1.00  0.00    -0.245 OA
BRANCH  63  65
ATOM     65  C   UNL     1       1.051   3.363   0.522  1.00  0.00     0.298 C 
ATOM     66  C   UNL     1       0.023   3.247   1.708  1.00  0.00     0.111 C 
ATOM     67  N   UNL     1       2.336   4.026   0.869  1.00  0.00    -0.326 N 
ATOM     68  C   UNL     1       0.183   4.171   2.980  1.00  0.00    -0.024 C 
ATOM     69  C   UNL     1       1.929   5.242   1.587  1.00  0.00     0.243 C 
ATOM     70  H   UNL     1       2.861   4.261   0.027  1.00  0.00     0.347 HD
ATOM     71  H   UNL     1       2.947   3.429   1.426  1.00  0.00     0.347 HD
ATOM     72  C   UNL     1       0.064   3.533   4.147  1.00  0.00     0.002 A 
ATOM     73  C   UNL     1       1.559   4.850   3.036  1.00  0.00     0.196 C 
ATOM     74  C   UNL     1      -0.835   3.640   5.255  1.00  0.00     0.010 A 
ATOM     75  C   UNL     1       1.469   3.167   4.427  1.00  0.00     0.066 A 
ATOM     76  N   UNL     1       2.384   3.773   3.717  1.00  0.00    -0.270 NA
ATOM     77  C   UNL     1      -0.586   2.864   6.324  1.00  0.00     0.001 A 
ATOM     78  C   UNL     1       1.549   2.076   5.440  1.00  0.00     0.028 A 
ATOM     79  C   UNL     1       0.529   1.935   6.305  1.00  0.00     0.002 A 
BRANCH  69  80
ATOM     80  C   UNL     1       2.589   6.534   1.138  1.00  0.00     0.012 A 
ATOM     81  C   UNL     1       1.983   7.744   1.522  1.00  0.00     0.010 A 
ATOM     82  C   UNL     1       3.495   6.564   0.062  1.00  0.00     0.010 A 
ATOM     83  C   UNL     1       2.193   8.912   0.787  1.00  0.00     0.001 A 
ATOM     84  C   UNL     1       3.755   7.751  -0.629  1.00  0.00     0.001 A 
ATOM     85  C   UNL     1       3.078   8.916  -0.287  1.00  0.00     0.000 A 
ENDBRANCH  69  80
ENDBRANCH  63  65
ENDBRANCH  62  63
ENDBRANCH  61  62
ENDBRANCH   1  61
TORSDOF 12
