REMARK SMILES COc1ccc2cc([C@H](C)C(=O)OCCOC(=O)c3ccc(-c4c5nc(c(-c6c(F)cccc6F)c6ccc([nH]6)c(-c6c(F)cccc6F)c6nc(c(-c7c(F)cccc7F)c7ccc4[nH]7)C=C6)C=C5)cc3)ccc2c1
REMARK SMILES IDX 14 1 13 2 11 3 12 4 9 5 10 6 8 7 3 8 4 9 76 10 5 11 75 12
REMARK SMILES IDX 6 13 74 14 7 15 73 16 2 17 1 18 15 19 16 20 17 21 18 22
REMARK SMILES IDX 19 23 20 24 72 25 21 26 71 27 22 28 23 29 24 30 65 31 25 32
REMARK SMILES IDX 70 33 64 34 66 35 26 36 69 37 63 38 62 39 27 41 53 42 36 43
REMARK SMILES IDX 52 44 37 45 40 46 51 47 67 48 38 49 39 50 50 52 68 53 41 54
REMARK SMILES IDX 28 55 29 56 34 57 30 58 31 59 33 60 35 61 32 62 54 63 55 64
REMARK SMILES IDX 60 65 56 66 57 67 59 68 61 69 58 70 42 71 43 72 48 73 44 74
REMARK SMILES IDX 45 75 47 76 49 77 46 78
REMARK H PARENT 66 40 40 51
REMARK Flexibility Score: inf
ROOT
ATOM      1  C   UNL     1       4.858  -7.188  -5.434  1.00  0.00     0.274 C 
ENDROOT
BRANCH   1   2
ATOM      2  O   UNL     1       3.904  -6.131  -5.652  1.00  0.00    -0.462 OA
BRANCH   2   3
ATOM      3  C   UNL     1       3.045  -6.305  -6.692  1.00  0.00     0.313 C 
ATOM      4  O   UNL     1       3.075  -7.260  -7.463  1.00  0.00    -0.252 OA
BRANCH   3   5
ATOM      5  C   UNL     1       2.048  -5.158  -6.845  1.00  0.00     0.126 C 
ATOM      6  C   UNL     1       1.638  -4.483  -5.534  1.00  0.00     0.025 C 
BRANCH   5   7
ATOM      7  C   UNL     1       2.526  -4.212  -7.928  1.00  0.00    -0.033 A 
ATOM      8  C   UNL     1       3.660  -2.131 -12.418  1.00  0.00     0.119 A 
ATOM      9  C   UNL     1       2.789  -3.184 -12.692  1.00  0.00     0.047 A 
ATOM     10  C   UNL     1       4.030  -1.864 -11.098  1.00  0.00     0.055 A 
ATOM     11  C   UNL     1       2.278  -3.954 -11.645  1.00  0.00     0.012 A 
ATOM     12  C   UNL     1       3.521  -2.624 -10.034  1.00  0.00    -0.015 A 
ATOM     13  C   UNL     1       2.636  -3.685 -10.315  1.00  0.00    -0.018 A 
ATOM     14  C   UNL     1       3.881  -2.362  -8.703  1.00  0.00     0.009 A 
ATOM     15  C   UNL     1       2.150  -4.466  -9.259  1.00  0.00     0.013 A 
ATOM     16  C   UNL     1       3.394  -3.151  -7.659  1.00  0.00     0.005 A 
BRANCH   8  17
ATOM     17  O   UNL     1       4.242  -1.328 -13.360  1.00  0.00    -0.497 OA
ATOM     18  C   UNL     1       3.480  -1.132 -14.546  1.00  0.00     0.278 C 
ENDBRANCH   8  17
ENDBRANCH   5   7
ENDBRANCH   3   5
ENDBRANCH   2   3
ENDBRANCH   1   2
BRANCH   1  19
ATOM     19  C   UNL     1       4.360  -8.199  -4.395  1.00  0.00     0.275 C 
BRANCH  19  20
ATOM     20  O   UNL     1       3.283  -9.011  -4.899  1.00  0.00    -0.458 OA
BRANCH  20  21
ATOM     21  C   UNL     1       2.042  -8.511  -4.694  1.00  0.00     0.338 C 
ATOM     22  O   UNL     1       1.746  -7.488  -4.101  1.00  0.00    -0.246 OA
BRANCH  21  23
ATOM     23  C   UNL     1       1.050  -9.316  -5.423  1.00  0.00     0.060 A 
ATOM     24  C   UNL     1       0.288  -8.684  -6.410  1.00  0.00     0.016 A 
ATOM     25  C   UNL     1       0.804 -10.645  -5.078  1.00  0.00     0.016 A 
ATOM     26  C   UNL     1      -0.733  -9.371  -7.054  1.00  0.00     0.010 A 
ATOM     27  C   UNL     1      -0.227 -11.335  -5.722  1.00  0.00     0.010 A 
ATOM     28  C   UNL     1      -1.009 -10.696  -6.701  1.00  0.00    -0.014 A 
BRANCH  28  29
ATOM     29  C   UNL     1      -2.169 -11.386  -7.306  1.00  0.00     0.031 A 
ATOM     30  C   UNL     1      -3.423 -11.562  -6.502  1.00  0.00     0.074 A 
ATOM     31  C   UNL     1      -2.105 -11.827  -8.574  1.00  0.00     0.049 A 
ATOM     32  N   UNL     1      -4.509 -12.228  -6.797  1.00  0.00    -0.248 NA
ATOM     33  C   UNL     1      -3.458 -10.897  -5.189  1.00  0.00     0.031 C 
ATOM     34  C   UNL     1      -0.962 -11.655  -9.471  1.00  0.00     0.029 A 
ATOM     35  N   UNL     1      -3.022 -12.517  -9.324  1.00  0.00    -0.354 N 
ATOM     36  C   UNL     1      -5.346 -12.087  -5.699  1.00  0.00     0.074 A 
ATOM     37  C   UNL     1      -4.641 -11.277  -4.728  1.00  0.00     0.031 C 
ATOM     38  C   UNL     1      -1.245 -12.232 -10.651  1.00  0.00     0.029 A 
ATOM     39  C   UNL     1      -2.565 -12.852 -10.573  1.00  0.00     0.049 A 
ATOM     40  H   UNL     1      -3.922 -12.749  -8.997  1.00  0.00     0.167 HD
ATOM     41  C   UNL     1      -6.590 -12.591  -5.519  1.00  0.00     0.037 A 
ATOM     42  C   UNL     1      -3.135 -13.605 -11.532  1.00  0.00     0.037 A 
ATOM     43  C   UNL     1      -7.290 -13.382  -6.495  1.00  0.00     0.049 A 
ATOM     44  C   UNL     1      -4.491 -14.204 -11.286  1.00  0.00     0.074 A 
ATOM     45  C   UNL     1      -8.553 -13.940  -6.411  1.00  0.00     0.029 A 
ATOM     46  N   UNL     1      -6.783 -13.725  -7.740  1.00  0.00    -0.354 N 
ATOM     47  N   UNL     1      -5.266 -14.089 -10.234  1.00  0.00    -0.248 NA
ATOM     48  C   UNL     1      -5.048 -15.046 -12.354  1.00  0.00     0.031 C 
ATOM     49  C   UNL     1      -8.798 -14.648  -7.593  1.00  0.00     0.029 A 
ATOM     50  C   UNL     1      -7.702 -14.499  -8.428  1.00  0.00     0.049 A 
ATOM     51  H   UNL     1      -5.900 -13.457  -8.084  1.00  0.00     0.167 HD
ATOM     52  C   UNL     1      -6.408 -14.825 -10.520  1.00  0.00     0.074 A 
ATOM     53  C   UNL     1      -6.229 -15.375 -11.849  1.00  0.00     0.031 C 
ATOM     54  C   UNL     1      -7.506 -15.029  -9.753  1.00  0.00     0.037 A 
BRANCH  41  55
ATOM     55  C   UNL     1      -7.254 -12.328  -4.202  1.00  0.00     0.057 A 
ATOM     56  C   UNL     1      -7.780 -11.072  -3.874  1.00  0.00     0.134 A 
ATOM     57  C   UNL     1      -7.382 -13.351  -3.255  1.00  0.00     0.134 A 
ATOM     58  F   UNL     1      -7.673 -10.046  -4.731  1.00  0.00    -0.206 F 
ATOM     59  C   UNL     1      -8.395 -10.839  -2.643  1.00  0.00     0.040 A 
ATOM     60  C   UNL     1      -8.013 -13.136  -2.029  1.00  0.00     0.040 A 
ATOM     61  F   UNL     1      -6.899 -14.577  -3.508  1.00  0.00    -0.206 F 
ATOM     62  C   UNL     1      -8.517 -11.875  -1.718  1.00  0.00     0.006 A 
ENDBRANCH  41  55
BRANCH  42  63
ATOM     63  C   UNL     1      -2.410 -13.857 -12.801  1.00  0.00     0.057 A 
ATOM     64  C   UNL     1      -2.830 -13.277 -14.002  1.00  0.00     0.134 A 
ATOM     65  C   UNL     1      -1.280 -14.683 -12.841  1.00  0.00     0.134 A 
ATOM     66  F   UNL     1      -3.919 -12.495 -14.030  1.00  0.00    -0.206 F 
ATOM     67  C   UNL     1      -2.157 -13.515 -15.202  1.00  0.00     0.040 A 
ATOM     68  C   UNL     1      -0.584 -14.912 -14.029  1.00  0.00     0.040 A 
ATOM     69  F   UNL     1      -0.829 -15.269 -11.722  1.00  0.00    -0.206 F 
ATOM     70  C   UNL     1      -1.026 -14.330 -15.215  1.00  0.00     0.006 A 
ENDBRANCH  42  63
BRANCH  54  71
ATOM     71  C   UNL     1      -8.610 -15.851 -10.345  1.00  0.00     0.057 A 
ATOM     72  C   UNL     1      -8.519 -17.245 -10.440  1.00  0.00     0.134 A 
ATOM     73  C   UNL     1      -9.792 -15.244 -10.785  1.00  0.00     0.134 A 
ATOM     74  F   UNL     1      -7.407 -17.883 -10.047  1.00  0.00    -0.206 F 
ATOM     75  C   UNL     1      -9.563 -18.006 -10.969  1.00  0.00     0.040 A 
ATOM     76  C   UNL     1     -10.849 -15.996 -11.297  1.00  0.00     0.040 A 
ATOM     77  F   UNL     1      -9.941 -13.912 -10.714  1.00  0.00    -0.206 F 
ATOM     78  C   UNL     1     -10.734 -17.381 -11.393  1.00  0.00     0.006 A 
ENDBRANCH  54  71
ENDBRANCH  28  29
ENDBRANCH  21  23
ENDBRANCH  20  21
ENDBRANCH  19  20
ENDBRANCH   1  19
TORSDOF 13
