REMARK SMILES O=C(OCCOC(=O)C1(C[C@@H]2COc3ccccc32)CC[NH2+]CC1)c1ccc(-c2c3nc(c(-c4c(F)cccc4F)c4ccc([nH]4)c(-c4c(F)cccc4F)c4nc(c(-c5c(F)cccc5F)c5ccc2[nH]5)C=C4)C=C3)cc1
REMARK SMILES IDX 4 1 3 2 2 3 1 4 25 5 26 6 78 7 27 8 77 9 28 10 29 11 30 12
REMARK SMILES IDX 71 13 31 14 76 15 70 16 72 17 32 18 75 19 69 20 68 21 33 23
REMARK SMILES IDX 59 24 42 25 58 26 43 27 46 28 57 29 73 30 44 31 45 32 56 34
REMARK SMILES IDX 74 35 47 36 34 37 35 38 40 39 36 40 37 41 39 42 41 43 38 44
REMARK SMILES IDX 60 45 61 46 66 47 62 48 63 49 65 50 67 51 64 52 48 53 49 54
REMARK SMILES IDX 54 55 50 56 51 57 53 58 55 59 52 60 5 61 6 62 7 63 8 64 9 65
REMARK SMILES IDX 20 66 24 67 21 68 23 69 22 70 10 73 11 74 12 75 19 76 13 77
REMARK SMILES IDX 14 78 18 79 15 80 17 81 16 82
REMARK H PARENT 72 22 46 33 22 71 22 72
REMARK Flexibility Score: inf
ROOT
ATOM      1  C   UNL     1       9.237  -2.979   5.136  1.00  0.00     0.275 C 
ENDROOT
BRANCH   1   2
ATOM      2  O   UNL     1      10.274  -1.992   5.286  1.00  0.00    -0.458 OA
BRANCH   2   3
ATOM      3  C   UNL     1      10.428  -0.780   4.698  1.00  0.00     0.338 C 
ATOM      4  O   UNL     1      11.300  -0.024   5.121  1.00  0.00    -0.246 OA
BRANCH   3   5
ATOM      5  C   UNL     1       9.513  -0.259   3.634  1.00  0.00     0.060 A 
ATOM      6  C   UNL     1       8.805  -1.028   2.720  1.00  0.00     0.016 A 
ATOM      7  C   UNL     1       9.339   1.131   3.568  1.00  0.00     0.016 A 
ATOM      8  C   UNL     1       7.758  -0.460   1.974  1.00  0.00     0.010 A 
ATOM      9  C   UNL     1       8.250   1.693   2.875  1.00  0.00     0.010 A 
ATOM     10  C   UNL     1       7.345   0.874   2.178  1.00  0.00    -0.014 A 
BRANCH  10  11
ATOM     11  C   UNL     1       5.928   1.538   1.471  1.00  0.00     0.031 A 
ATOM     12  C   UNL     1       6.960   2.505   0.229  1.00  0.00     0.074 A 
ATOM     13  C   UNL     1       4.074   1.514   1.709  1.00  0.00     0.049 A 
ATOM     14  N   UNL     1       6.517   3.453  -0.591  1.00  0.00    -0.248 NA
ATOM     15  C   UNL     1       8.426   2.360   0.046  1.00  0.00     0.031 C 
ATOM     16  C   UNL     1       2.952   1.095   2.833  1.00  0.00     0.029 A 
ATOM     17  N   UNL     1       2.875   2.044   0.883  1.00  0.00    -0.354 N 
ATOM     18  C   UNL     1       7.505   3.869  -1.411  1.00  0.00     0.074 A 
ATOM     19  C   UNL     1       8.712   3.303  -0.860  1.00  0.00     0.031 C 
ATOM     20  C   UNL     1       1.668   1.105   2.466  1.00  0.00     0.029 A 
ATOM     21  C   UNL     1       1.594   1.804   1.236  1.00  0.00     0.049 A 
ATOM     22  H   UNL     1       3.053   2.574   0.072  1.00  0.00     0.167 HD
ATOM     23  C   UNL     1       7.310   4.548  -2.566  1.00  0.00     0.037 A 
ATOM     24  C   UNL     1       0.510   2.305   0.631  1.00  0.00     0.037 A 
ATOM     25  C   UNL     1       5.994   4.845  -3.142  1.00  0.00     0.049 A 
ATOM     26  C   UNL     1       0.726   3.067  -0.649  1.00  0.00     0.074 A 
ATOM     27  C   UNL     1       5.741   5.370  -4.396  1.00  0.00     0.029 A 
ATOM     28  N   UNL     1       4.725   4.598  -2.570  1.00  0.00    -0.354 N 
ATOM     29  N   UNL     1       1.852   3.497  -1.192  1.00  0.00    -0.248 NA
ATOM     30  C   UNL     1      -0.476   3.355  -1.417  1.00  0.00     0.031 C 
ATOM     31  C   UNL     1       4.357   5.409  -4.596  1.00  0.00     0.029 A 
ATOM     32  C   UNL     1       3.702   4.886  -3.484  1.00  0.00     0.049 A 
ATOM     33  H   UNL     1       4.580   4.269  -1.654  1.00  0.00     0.167 HD
ATOM     34  C   UNL     1       1.503   4.101  -2.391  1.00  0.00     0.074 A 
ATOM     35  C   UNL     1       0.047   3.951  -2.479  1.00  0.00     0.031 C 
ATOM     36  C   UNL     1       2.252   4.707  -3.359  1.00  0.00     0.037 A 
BRANCH  23  37
ATOM     37  C   UNL     1       8.552   4.887  -3.334  1.00  0.00     0.057 A 
ATOM     38  C   UNL     1       9.363   3.893  -3.898  1.00  0.00     0.134 A 
ATOM     39  C   UNL     1       8.949   6.218  -3.511  1.00  0.00     0.134 A 
ATOM     40  F   UNL     1       9.036   2.597  -3.777  1.00  0.00    -0.206 F 
ATOM     41  C   UNL     1      10.554   4.203  -4.555  1.00  0.00     0.040 A 
ATOM     42  C   UNL     1      10.123   6.543  -4.195  1.00  0.00     0.040 A 
ATOM     43  F   UNL     1       8.208   7.223  -3.021  1.00  0.00    -0.206 F 
ATOM     44  C   UNL     1      10.937   5.534  -4.705  1.00  0.00     0.006 A 
ENDBRANCH  23  37
BRANCH  24  45
ATOM     45  C   UNL     1      -0.793   2.104   1.293  1.00  0.00     0.057 A 
ATOM     46  C   UNL     1      -1.676   1.106   0.883  1.00  0.00     0.134 A 
ATOM     47  C   UNL     1      -1.073   2.775   2.493  1.00  0.00     0.134 A 
ATOM     48  F   UNL     1      -1.450   0.426  -0.250  1.00  0.00    -0.206 F 
ATOM     49  C   UNL     1      -2.790   0.766   1.653  1.00  0.00     0.040 A 
ATOM     50  C   UNL     1      -2.165   2.426   3.285  1.00  0.00     0.040 A 
ATOM     51  F   UNL     1      -0.229   3.708   2.959  1.00  0.00    -0.206 F 
ATOM     52  C   UNL     1      -3.025   1.415   2.866  1.00  0.00     0.006 A 
ENDBRANCH  24  45
BRANCH  36  53
ATOM     53  C   UNL     1       1.413   5.200  -4.522  1.00  0.00     0.057 A 
ATOM     54  C   UNL     1       0.595   6.335  -4.412  1.00  0.00     0.134 A 
ATOM     55  C   UNL     1       1.352   4.471  -5.718  1.00  0.00     0.134 A 
ATOM     56  F   UNL     1       0.573   7.048  -3.276  1.00  0.00    -0.206 F 
ATOM     57  C   UNL     1      -0.289   6.696  -5.431  1.00  0.00     0.040 A 
ATOM     58  C   UNL     1       0.498   4.845  -6.757  1.00  0.00     0.040 A 
ATOM     59  F   UNL     1       2.105   3.374  -5.886  1.00  0.00    -0.206 F 
ATOM     60  C   UNL     1      -0.338   5.950  -6.608  1.00  0.00     0.006 A 
ENDBRANCH  36  53
ENDBRANCH  10  11
ENDBRANCH   3   5
ENDBRANCH   2   3
ENDBRANCH   1   2
BRANCH   1  61
ATOM     61  C   UNL     1       7.914  -2.644   5.811  1.00  0.00     0.274 C 
BRANCH  61  62
ATOM     62  O   UNL     1       7.507  -1.273   5.647  1.00  0.00    -0.462 OA
BRANCH  62  63
ATOM     63  C   UNL     1       7.528  -0.527   6.780  1.00  0.00     0.312 C 
ATOM     64  O   UNL     1       8.106  -0.892   7.797  1.00  0.00    -0.252 OA
BRANCH  63  65
ATOM     65  C   UNL     1       6.620   0.717   6.699  1.00  0.00     0.079 C 
ATOM     66  C   UNL     1       7.107   1.881   5.859  1.00  0.00     0.080 C 
ATOM     67  C   UNL     1       6.505   1.265   8.154  1.00  0.00     0.080 C 
ATOM     68  C   UNL     1       8.327   2.626   6.366  1.00  0.00     0.261 C 
ATOM     69  C   UNL     1       7.805   1.961   8.603  1.00  0.00     0.261 C 
ATOM     70  N   UNL     1       8.108   3.092   7.727  1.00  0.00    -0.346 N 
ATOM     71  H   UNL     1       7.326   3.746   7.738  1.00  0.00     0.346 HD
ATOM     72  H   UNL     1       8.954   3.555   8.060  1.00  0.00     0.346 HD
BRANCH  65  73
ATOM     73  C   UNL     1       5.228   0.297   6.151  1.00  0.00     0.031 C 
BRANCH  73  74
ATOM     74  C   UNL     1       4.926   0.039   4.638  1.00  0.00     0.062 C 
ATOM     75  C   UNL     1       5.023  -1.419   4.036  1.00  0.00     0.238 C 
ATOM     76  C   UNL     1       5.227   0.922   3.412  1.00  0.00     0.001 A 
ATOM     77  O   UNL     1       4.781  -1.548   2.597  1.00  0.00    -0.493 OA
ATOM     78  C   UNL     1       5.021  -0.307   2.067  1.00  0.00     0.122 A 
ATOM     79  C   UNL     1       5.149   2.727   3.002  1.00  0.00     0.008 A 
ATOM     80  C   UNL     1       4.839   0.154   0.310  1.00  0.00     0.047 A 
ATOM     81  C   UNL     1       4.900   3.271   1.227  1.00  0.00     0.001 A 
ATOM     82  C   UNL     1       4.780   1.942  -0.153  1.00  0.00     0.004 A 
ENDBRANCH  73  74
ENDBRANCH  65  73
ENDBRANCH  63  65
ENDBRANCH  62  63
ENDBRANCH  61  62
ENDBRANCH   1  61
TORSDOF 13
