REMARK SMILES O=C(OCCOC(=O)c1cccc(NC(=S)N/N=C\c2c[nH]c3ccccc23)c1)c1ccc(-c2c3nc(c(-c4c(F)cccc4F)c4ccc([nH]4)c(-c4c(F)cccc4F)c4nc(c(-c5c(F)cccc5F)c5ccc2[nH]5)C=C4)C=C3)cc1
REMARK SMILES IDX 6 1 5 2 4 3 3 4 2 5 1 6 30 7 31 8 83 9 32 10 82 11 33 12
REMARK SMILES IDX 34 13 35 14 76 15 36 16 81 17 75 18 77 19 37 20 80 21 74 22
REMARK SMILES IDX 73 23 38 25 64 26 47 27 63 28 48 29 51 30 62 31 78 32 49 33
REMARK SMILES IDX 50 34 61 36 79 37 52 38 39 39 40 40 45 41 41 42 42 43 44 44
REMARK SMILES IDX 46 45 43 46 65 47 66 48 71 49 67 50 68 51 70 52 72 53 69 54
REMARK SMILES IDX 53 55 54 56 59 57 55 58 56 59 58 60 60 61 57 62 7 63 8 64
REMARK SMILES IDX 9 65 10 66 29 67 11 68 13 69 12 70 14 71 15 73 16 74 17 75
REMARK SMILES IDX 18 77 19 78 20 79 21 80 28 81 22 82 23 83 27 84 24 86 26 87
REMARK SMILES IDX 25 88
REMARK H PARENT 77 24 51 35 14 72 17 76 22 85
REMARK Flexibility Score: inf
ROOT
ATOM      1  O   UNL     1       3.630   0.797   1.968  1.00  0.00    -0.458 OA
ENDROOT
BRANCH   1   2
ATOM      2  C   UNL     1       4.118   1.916   1.214  1.00  0.00     0.275 C 
BRANCH   2   3
ATOM      3  C   UNL     1       4.063   1.671  -0.298  1.00  0.00     0.275 C 
BRANCH   3   4
ATOM      4  O   UNL     1       2.967   0.847  -0.743  1.00  0.00    -0.458 OA
BRANCH   4   5
ATOM      5  C   UNL     1       2.913  -0.500  -0.891  1.00  0.00     0.338 C 
ATOM      6  O   UNL     1       2.015  -0.990  -1.573  1.00  0.00    -0.246 OA
BRANCH   5   7
ATOM      7  C   UNL     1       3.786  -1.437  -0.117  1.00  0.00     0.060 A 
ATOM      8  C   UNL     1       5.126  -1.220   0.202  1.00  0.00     0.016 A 
ATOM      9  C   UNL     1       3.193  -2.639   0.311  1.00  0.00     0.016 A 
ATOM     10  C   UNL     1       5.826  -2.117   1.015  1.00  0.00     0.010 A 
ATOM     11  C   UNL     1       3.890  -3.541   1.125  1.00  0.00     0.010 A 
ATOM     12  C   UNL     1       5.210  -3.273   1.501  1.00  0.00    -0.014 A 
BRANCH  12  13
ATOM     13  C   UNL     1       6.007  -4.247   2.285  1.00  0.00     0.031 A 
ATOM     14  C   UNL     1       6.469  -5.505   1.605  1.00  0.00     0.074 A 
ATOM     15  C   UNL     1       6.407  -3.965   3.542  1.00  0.00     0.049 A 
ATOM     16  N   UNL     1       7.242  -6.453   2.066  1.00  0.00    -0.248 NA
ATOM     17  C   UNL     1       6.048  -5.696   0.206  1.00  0.00     0.031 C 
ATOM     18  C   UNL     1       6.119  -2.731   4.277  1.00  0.00     0.029 A 
ATOM     19  N   UNL     1       7.150  -4.704   4.429  1.00  0.00    -0.354 N 
ATOM     20  C   UNL     1       7.471  -7.300   0.990  1.00  0.00     0.074 A 
ATOM     21  C   UNL     1       6.670  -6.820  -0.114  1.00  0.00     0.031 C 
ATOM     22  C   UNL     1       6.640  -2.818   5.515  1.00  0.00     0.029 A 
ATOM     23  C   UNL     1       7.304  -4.110   5.661  1.00  0.00     0.049 A 
ATOM     24  H   UNL     1       7.538  -5.580   4.204  1.00  0.00     0.167 HD
ATOM     25  C   UNL     1       8.326  -8.345   0.910  1.00  0.00     0.037 A 
ATOM     26  C   UNL     1       7.886  -4.581   6.784  1.00  0.00     0.037 A 
ATOM     27  C   UNL     1       9.079  -8.854   2.022  1.00  0.00     0.049 A 
ATOM     28  C   UNL     1       8.495  -5.948   6.760  1.00  0.00     0.074 A 
ATOM     29  C   UNL     1       9.975  -9.907   2.054  1.00  0.00     0.029 A 
ATOM     30  N   UNL     1       8.997  -8.356   3.312  1.00  0.00    -0.354 N 
ATOM     31  N   UNL     1       8.713  -6.733   5.736  1.00  0.00    -0.248 NA
ATOM     32  C   UNL     1       8.926  -6.498   8.052  1.00  0.00     0.031 C 
ATOM     33  C   UNL     1      10.401 -10.075   3.378  1.00  0.00     0.029 A 
ATOM     34  C   UNL     1       9.803  -9.099   4.158  1.00  0.00     0.049 A 
ATOM     35  H   UNL     1       8.447  -7.587   3.587  1.00  0.00     0.167 HD
ATOM     36  C   UNL     1       9.394  -7.828   6.245  1.00  0.00     0.074 A 
ATOM     37  C   UNL     1       9.498  -7.631   7.676  1.00  0.00     0.031 C 
ATOM     38  C   UNL     1       9.927  -8.876   5.574  1.00  0.00     0.037 A 
BRANCH  25  39
ATOM     39  C   UNL     1       8.507  -8.969  -0.440  1.00  0.00     0.057 A 
ATOM     40  C   UNL     1       9.209  -8.302  -1.454  1.00  0.00     0.134 A 
ATOM     41  C   UNL     1       7.990 -10.234  -0.734  1.00  0.00     0.134 A 
ATOM     42  F   UNL     1       9.713  -7.076  -1.240  1.00  0.00    -0.206 F 
ATOM     43  C   UNL     1       9.375  -8.865  -2.720  1.00  0.00     0.040 A 
ATOM     44  C   UNL     1       8.166 -10.816  -1.991  1.00  0.00     0.040 A 
ATOM     45  F   UNL     1       7.306 -10.923   0.192  1.00  0.00    -0.206 F 
ATOM     46  C   UNL     1       8.856 -10.129  -2.989  1.00  0.00     0.006 A 
ENDBRANCH  25  39
BRANCH  26  47
ATOM     47  C   UNL     1       7.761  -3.864   8.078  1.00  0.00     0.057 A 
ATOM     48  C   UNL     1       8.815  -3.298   8.788  1.00  0.00     0.134 A 
ATOM     49  C   UNL     1       6.523  -3.901   8.712  1.00  0.00     0.134 A 
ATOM     50  F   UNL     1      10.061  -3.344   8.297  1.00  0.00    -0.206 F 
ATOM     51  C   UNL     1       8.618  -2.752  10.063  1.00  0.00     0.040 A 
ATOM     52  C   UNL     1       6.282  -3.304   9.946  1.00  0.00     0.040 A 
ATOM     53  F   UNL     1       5.565  -4.633   8.141  1.00  0.00    -0.206 F 
ATOM     54  C   UNL     1       7.343  -2.730  10.633  1.00  0.00     0.006 A 
ENDBRANCH  26  47
BRANCH  38  55
ATOM     55  C   UNL     1      10.800  -9.796   6.367  1.00  0.00     0.057 A 
ATOM     56  C   UNL     1      10.288 -10.715   7.288  1.00  0.00     0.134 A 
ATOM     57  C   UNL     1      12.192  -9.727   6.218  1.00  0.00     0.134 A 
ATOM     58  F   UNL     1       8.966 -10.802   7.499  1.00  0.00    -0.206 F 
ATOM     59  C   UNL     1      11.134 -11.516   8.056  1.00  0.00     0.040 A 
ATOM     60  C   UNL     1      13.045 -10.542   6.958  1.00  0.00     0.040 A 
ATOM     61  F   UNL     1      12.743  -8.861   5.353  1.00  0.00    -0.206 F 
ATOM     62  C   UNL     1      12.516 -11.434   7.888  1.00  0.00     0.006 A 
ENDBRANCH  38  55
ENDBRANCH  12  13
ENDBRANCH   5   7
ENDBRANCH   4   5
ENDBRANCH   3   4
ENDBRANCH   2   3
ENDBRANCH   1   2
BRANCH   1  63
ATOM     63  C   UNL     1       2.322   0.910   2.336  1.00  0.00     0.338 C 
ATOM     64  O   UNL     1       1.632   1.897   2.267  1.00  0.00    -0.246 OA
BRANCH  63  65
ATOM     65  C   UNL     1       1.788  -0.434   2.651  1.00  0.00     0.062 A 
ATOM     66  C   UNL     1       0.580  -0.787   2.037  1.00  0.00     0.016 A 
ATOM     67  C   UNL     1       2.459  -1.343   3.472  1.00  0.00     0.041 A 
ATOM     68  C   UNL     1       0.034  -2.048   2.244  1.00  0.00     0.003 A 
ATOM     69  C   UNL     1       1.887  -2.599   3.698  1.00  0.00     0.041 A 
ATOM     70  C   UNL     1       0.682  -2.947   3.082  1.00  0.00     0.026 A 
BRANCH  69  71
ATOM     71  N   UNL     1       2.595  -3.565   4.422  1.00  0.00    -0.331 N 
ATOM     72  H   UNL     1       3.571  -3.444   4.470  1.00  0.00     0.169 HD
BRANCH  71  73
ATOM     73  C   UNL     1       2.093  -4.653   5.068  1.00  0.00     0.191 C 
ATOM     74  S   UNL     1       3.006  -6.059   5.104  1.00  0.00    -0.039 S 
BRANCH  73  75
ATOM     75  N   UNL     1       0.943  -4.566   5.814  1.00  0.00    -0.254 N 
ATOM     76  H   UNL     1       0.642  -5.400   6.240  1.00  0.00     0.193 HD
BRANCH  75  77
ATOM     77  N   UNL     1       0.151  -3.449   6.042  1.00  0.00    -0.181 NA
ATOM     78  C   UNL     1       0.401  -2.657   7.059  1.00  0.00     0.143 C 
BRANCH  78  79
ATOM     79  C   UNL     1       1.589  -2.765   7.879  1.00  0.00     0.020 A 
ATOM     80  C   UNL     1       2.858  -2.711   7.340  1.00  0.00     0.093 A 
ATOM     81  C   UNL     1       1.816  -3.294   9.180  1.00  0.00     0.008 A 
ATOM     82  N   UNL     1       3.355  -3.921   7.749  1.00  0.00    -0.361 N 
ATOM     83  C   UNL     1       2.767  -4.279   8.934  1.00  0.00     0.046 A 
ATOM     84  C   UNL     1       1.332  -3.173  10.492  1.00  0.00     0.011 A 
ATOM     85  H   UNL     1       4.030  -4.452   7.266  1.00  0.00     0.166 HD
ATOM     86  C   UNL     1       3.047  -5.334   9.797  1.00  0.00     0.027 A 
ATOM     87  C   UNL     1       1.809  -4.077  11.460  1.00  0.00     0.001 A 
ATOM     88  C   UNL     1       2.579  -5.186  11.098  1.00  0.00     0.002 A 
ENDBRANCH  78  79
ENDBRANCH  75  77
ENDBRANCH  73  75
ENDBRANCH  71  73
ENDBRANCH  69  71
ENDBRANCH  63  65
ENDBRANCH   1  63
TORSDOF 16
