REMARK SMILES O=CN1CCC[C@@H](C(=O)OCCOC(=O)c2ccc(-c3c4nc(c(-c5c(F)cccc5F)c5ccc([nH]5)c(-c5c(F)cccc5F)c5nc(c(-c6c(F)cccc6F)c6ccc3[nH]6)C=C5)C=C4)cc2)C1
REMARK SMILES IDX 12 1 11 2 10 3 8 4 9 5 7 6 3 7 4 8 70 9 5 10 6 11 2 12 1 13
REMARK SMILES IDX 13 14 14 15 15 16 16 17 17 18 69 19 18 20 68 21 19 22 20 23
REMARK SMILES IDX 21 24 62 25 22 26 67 27 61 28 63 29 23 30 66 31 60 32 59 33
REMARK SMILES IDX 24 35 50 36 33 37 49 38 34 39 37 40 48 41 64 42 35 43 36 44
REMARK SMILES IDX 47 46 65 47 38 48 25 49 26 50 31 51 27 52 28 53 30 54 32 55
REMARK SMILES IDX 29 56 51 57 52 58 57 59 53 60 54 61 56 62 58 63 55 64 39 65
REMARK SMILES IDX 40 66 45 67 41 68 42 69 44 70 46 71 43 72
REMARK H PARENT 63 34 37 45
REMARK Flexibility Score: inf
ROOT
ATOM      1  C   UNL     1       3.030   0.247  -7.292  1.00  0.00     0.275 C 
ENDROOT
BRANCH   1   2
ATOM      2  C   UNL     1       2.156  -0.563  -6.339  1.00  0.00     0.274 C 
BRANCH   2   3
ATOM      3  O   UNL     1       2.447  -0.211  -4.970  1.00  0.00    -0.462 OA
BRANCH   3   4
ATOM      4  C   UNL     1       3.178  -1.112  -4.260  1.00  0.00     0.310 C 
ATOM      5  O   UNL     1       3.581  -2.186  -4.688  1.00  0.00    -0.252 OA
BRANCH   4   6
ATOM      6  C   UNL     1       3.416  -0.626  -2.844  1.00  0.00     0.119 C 
ATOM      7  N   UNL     1       2.567  -0.946  -0.566  1.00  0.00    -0.344 N 
ATOM      8  C   UNL     1       3.795  -1.537  -0.066  1.00  0.00     0.119 C 
ATOM      9  C   UNL     1       2.279  -1.162  -1.977  1.00  0.00     0.134 C 
ATOM     10  C   UNL     1       4.972  -0.935  -0.819  1.00  0.00     0.022 C 
ATOM     11  C   UNL     1       4.797  -1.089  -2.330  1.00  0.00     0.019 C 
BRANCH   7  12
ATOM     12  C   UNL     1       1.833  -0.056   0.185  1.00  0.00     0.339 C 
ATOM     13  O   UNL     1       0.874   0.592  -0.213  1.00  0.00    -0.279 OA
ENDBRANCH   7  12
ENDBRANCH   4   6
ENDBRANCH   3   4
ENDBRANCH   2   3
ENDBRANCH   1   2
BRANCH   1  14
ATOM     14  O   UNL     1       4.410  -0.100  -7.080  1.00  0.00    -0.458 OA
BRANCH  14  15
ATOM     15  C   UNL     1       5.228   0.921  -6.739  1.00  0.00     0.338 C 
ATOM     16  O   UNL     1       4.954   2.104  -6.654  1.00  0.00    -0.246 OA
BRANCH  15  17
ATOM     17  C   UNL     1       6.570   0.391  -6.450  1.00  0.00     0.060 A 
ATOM     18  C   UNL     1       6.742  -0.525  -5.414  1.00  0.00     0.016 A 
ATOM     19  C   UNL     1       7.676   0.900  -7.128  1.00  0.00     0.016 A 
ATOM     20  C   UNL     1       8.024  -0.862  -4.986  1.00  0.00     0.010 A 
ATOM     21  C   UNL     1       8.959   0.482  -6.763  1.00  0.00     0.010 A 
ATOM     22  C   UNL     1       9.152  -0.373  -5.662  1.00  0.00    -0.014 A 
BRANCH  22  23
ATOM     23  C   UNL     1      10.527  -0.716  -5.201  1.00  0.00     0.031 A 
ATOM     24  C   UNL     1      11.489   0.376  -4.809  1.00  0.00     0.074 A 
ATOM     25  C   UNL     1      10.927  -2.001  -5.124  1.00  0.00     0.049 A 
ATOM     26  N   UNL     1      12.776   0.304  -4.581  1.00  0.00    -0.248 NA
ATOM     27  C   UNL     1      10.931   1.730  -4.669  1.00  0.00     0.031 C 
ATOM     28  C   UNL     1      10.099  -3.170  -5.425  1.00  0.00     0.029 A 
ATOM     29  N   UNL     1      12.138  -2.539  -4.760  1.00  0.00    -0.354 N 
ATOM     30  C   UNL     1      13.193   1.607  -4.338  1.00  0.00     0.074 A 
ATOM     31  C   UNL     1      12.020   2.450  -4.434  1.00  0.00     0.031 C 
ATOM     32  C   UNL     1      10.810  -4.285  -5.193  1.00  0.00     0.029 A 
ATOM     33  C   UNL     1      12.167  -3.911  -4.810  1.00  0.00     0.049 A 
ATOM     34  H   UNL     1      12.911  -1.993  -4.489  1.00  0.00     0.167 HD
ATOM     35  C   UNL     1      14.440   2.060  -4.066  1.00  0.00     0.037 A 
ATOM     36  C   UNL     1      13.180  -4.776  -4.612  1.00  0.00     0.037 A 
ATOM     37  C   UNL     1      15.597   1.219  -3.902  1.00  0.00     0.049 A 
ATOM     38  C   UNL     1      14.554  -4.252  -4.313  1.00  0.00     0.074 A 
ATOM     39  C   UNL     1      16.901   1.589  -3.619  1.00  0.00     0.029 A 
ATOM     40  N   UNL     1      15.582  -0.164  -3.981  1.00  0.00    -0.354 N 
ATOM     41  N   UNL     1      14.950  -3.011  -4.170  1.00  0.00    -0.248 NA
ATOM     42  C   UNL     1      15.627  -5.247  -4.177  1.00  0.00     0.031 C 
ATOM     43  C   UNL     1      17.679   0.428  -3.542  1.00  0.00     0.029 A 
ATOM     44  C   UNL     1      16.853  -0.664  -3.752  1.00  0.00     0.049 A 
ATOM     45  H   UNL     1      14.785  -0.711  -4.171  1.00  0.00     0.167 HD
ATOM     46  C   UNL     1      16.316  -3.075  -3.932  1.00  0.00     0.074 A 
ATOM     47  C   UNL     1      16.677  -4.478  -3.924  1.00  0.00     0.031 C 
ATOM     48  C   UNL     1      17.195  -2.061  -3.748  1.00  0.00     0.037 A 
BRANCH  35  49
ATOM     49  C   UNL     1      14.627   3.543  -3.959  1.00  0.00     0.057 A 
ATOM     50  C   UNL     1      14.234   4.263  -2.825  1.00  0.00     0.134 A 
ATOM     51  C   UNL     1      15.246   4.253  -4.997  1.00  0.00     0.134 A 
ATOM     52  F   UNL     1      13.623   3.642  -1.805  1.00  0.00    -0.206 F 
ATOM     53  C   UNL     1      14.437   5.641  -2.733  1.00  0.00     0.040 A 
ATOM     54  C   UNL     1      15.471   5.627  -4.908  1.00  0.00     0.040 A 
ATOM     55  F   UNL     1      15.649   3.620  -6.109  1.00  0.00    -0.206 F 
ATOM     56  C   UNL     1      15.062   6.326  -3.774  1.00  0.00     0.006 A 
ENDBRANCH  35  49
BRANCH  36  57
ATOM     57  C   UNL     1      12.938  -6.234  -4.732  1.00  0.00     0.057 A 
ATOM     58  C   UNL     1      12.930  -7.058  -3.602  1.00  0.00     0.134 A 
ATOM     59  C   UNL     1      12.699  -6.834  -5.974  1.00  0.00     0.134 A 
ATOM     60  F   UNL     1      13.176  -6.542  -2.389  1.00  0.00    -0.206 F 
ATOM     61  C   UNL     1      12.697  -8.430  -3.702  1.00  0.00     0.040 A 
ATOM     62  C   UNL     1      12.442  -8.201  -6.086  1.00  0.00     0.040 A 
ATOM     63  F   UNL     1      12.694  -6.095  -7.093  1.00  0.00    -0.206 F 
ATOM     64  C   UNL     1      12.444  -9.003  -4.947  1.00  0.00     0.006 A 
ENDBRANCH  36  57
BRANCH  48  65
ATOM     65  C   UNL     1      18.624  -2.436  -3.511  1.00  0.00     0.057 A 
ATOM     66  C   UNL     1      19.461  -2.826  -4.563  1.00  0.00     0.134 A 
ATOM     67  C   UNL     1      19.175  -2.380  -2.225  1.00  0.00     0.134 A 
ATOM     68  F   UNL     1      18.985  -2.912  -5.814  1.00  0.00    -0.206 F 
ATOM     69  C   UNL     1      20.797  -3.163  -4.341  1.00  0.00     0.040 A 
ATOM     70  C   UNL     1      20.514  -2.699  -1.994  1.00  0.00     0.040 A 
ATOM     71  F   UNL     1      18.424  -2.010  -1.178  1.00  0.00    -0.206 F 
ATOM     72  C   UNL     1      21.328  -3.096  -3.054  1.00  0.00     0.006 A 
ENDBRANCH  48  65
ENDBRANCH  22  23
ENDBRANCH  15  17
ENDBRANCH  14  15
ENDBRANCH   1  14
TORSDOF 12
