REMARK SMILES O=C(CN1C(=O)/C(=C/c2cccs2)SC1=S)Nc1ccc(O)cc1C(=O)OCCOC(=O)c1ccc(-c2c3nc(c(-c4c(F)cccc4F)c4ccc([nH]4)c(-c4c(F)cccc4F)c4nc(c(-c5c(F)cccc5F)c5ccc2[nH]5)C=C4)C=C3)cc1
REMARK SMILES IDX 28 1 27 2 25 3 26 4 24 5 18 6 19 7 20 8 23 9 21 10 17 11
REMARK SMILES IDX 1 12 2 13 3 15 4 16 5 17 15 18 6 19 7 20 14 21 16 22 8 23
REMARK SMILES IDX 9 24 10 25 13 26 11 27 12 28 22 29 29 31 30 32 31 33 32 34
REMARK SMILES IDX 33 35 34 36 86 37 35 38 85 39 36 40 37 41 38 42 79 43 39 44
REMARK SMILES IDX 84 45 78 46 80 47 40 48 83 49 77 50 76 51 41 53 67 54 50 55
REMARK SMILES IDX 66 56 51 57 54 58 65 59 81 60 52 61 53 62 64 64 82 65 55 66
REMARK SMILES IDX 42 67 43 68 48 69 44 70 45 71 47 72 49 73 46 74 68 75 69 76
REMARK SMILES IDX 74 77 70 78 71 79 73 80 75 81 72 82 56 83 57 84 62 85 58 86
REMARK SMILES IDX 59 87 61 88 63 89 60 90
REMARK H PARENT 17 14 22 30 80 52 54 63
REMARK Flexibility Score: inf
ROOT
ATOM      1  C   UNL     1       5.579   2.922   1.346  1.00  0.00     0.275 C 
ENDROOT
BRANCH   1   2
ATOM      2  O   UNL     1       4.403   2.109   1.561  1.00  0.00    -0.458 OA
BRANCH   2   3
ATOM      3  C   UNL     1       4.086   1.907   2.869  1.00  0.00     0.340 C 
ATOM      4  O   UNL     1       4.759   2.271   3.821  1.00  0.00    -0.246 OA
BRANCH   3   5
ATOM      5  C   UNL     1       2.748   1.272   3.040  1.00  0.00     0.087 A 
ATOM      6  C   UNL     1       2.063   0.514   2.066  1.00  0.00     0.056 A 
ATOM      7  C   UNL     1       0.791   0.014   2.403  1.00  0.00     0.031 A 
ATOM      8  C   UNL     1       0.198   0.271   3.645  1.00  0.00     0.048 A 
ATOM      9  C   UNL     1       2.155   1.491   4.302  1.00  0.00     0.064 A 
ATOM     10  C   UNL     1       0.882   1.021   4.581  1.00  0.00     0.116 A 
BRANCH   6  11
ATOM     11  N   UNL     1       2.632   0.289   0.781  1.00  0.00    -0.324 N 
ATOM     12  O   UNL     1       1.181  -1.288  -0.109  1.00  0.00    -0.273 OA
ATOM     13  C   UNL     1       2.120  -0.500  -0.231  1.00  0.00     0.244 C 
ATOM     14  H   UNL     1       3.484   0.747   0.592  1.00  0.00     0.170 HD
BRANCH  13  15
ATOM     15  C   UNL     1       2.872  -0.478  -1.566  1.00  0.00     0.227 C 
BRANCH  15  16
ATOM     16  N   UNL     1       3.808   0.612  -1.837  1.00  0.00    -0.283 N 
ATOM     17  C   UNL     1       3.284   1.883  -2.008  1.00  0.00     0.266 C 
ATOM     18  C   UNL     1       5.130   0.439  -2.189  1.00  0.00     0.148 C 
ATOM     19  O   UNL     1       2.124   2.203  -1.792  1.00  0.00    -0.268 OA
ATOM     20  C   UNL     1       4.322   2.811  -2.521  1.00  0.00     0.081 C 
ATOM     21  S   UNL     1       5.800   1.964  -2.752  1.00  0.00    -0.054 SA
ATOM     22  S   UNL     1       6.039  -0.956  -2.150  1.00  0.00    -0.052 S 
ATOM     23  C   UNL     1       4.063   4.107  -2.741  1.00  0.00     0.040 C 
BRANCH  23  24
ATOM     24  C   UNL     1       5.013   4.997  -3.312  1.00  0.00     0.028 A 
ATOM     25  C   UNL     1       5.481   5.045  -4.614  1.00  0.00     0.020 A 
ATOM     26  S   UNL     1       5.716   6.246  -2.366  1.00  0.00    -0.144 S 
ATOM     27  C   UNL     1       6.435   6.081  -4.822  1.00  0.00     0.012 A 
ATOM     28  C   UNL     1       6.666   6.803  -3.674  1.00  0.00     0.065 A 
ENDBRANCH  23  24
ENDBRANCH  15  16
ENDBRANCH  13  15
ENDBRANCH   6  11
BRANCH  10  29
ATOM     29  O   UNL     1       0.335   1.341   5.785  1.00  0.00    -0.508 OA
ATOM     30  H   UNL     1      -0.524   1.039   6.005  1.00  0.00     0.293 HD
ENDBRANCH  10  29
ENDBRANCH   3   5
ENDBRANCH   2   3
ENDBRANCH   1   2
BRANCH   1  31
ATOM     31  C   UNL     1       5.175   4.355   1.007  1.00  0.00     0.275 C 
BRANCH  31  32
ATOM     32  O   UNL     1       4.433   4.924   2.098  1.00  0.00    -0.458 OA
BRANCH  32  33
ATOM     33  C   UNL     1       3.333   5.630   1.758  1.00  0.00     0.338 C 
ATOM     34  O   UNL     1       2.923   5.874   0.629  1.00  0.00    -0.246 OA
BRANCH  33  35
ATOM     35  C   UNL     1       2.666   6.101   2.981  1.00  0.00     0.060 A 
ATOM     36  C   UNL     1       2.221   5.174   3.923  1.00  0.00     0.016 A 
ATOM     37  C   UNL     1       2.418   7.461   3.163  1.00  0.00     0.016 A 
ATOM     38  C   UNL     1       1.497   5.598   5.036  1.00  0.00     0.010 A 
ATOM     39  C   UNL     1       1.744   7.892   4.311  1.00  0.00     0.010 A 
ATOM     40  C   UNL     1       1.255   6.964   5.248  1.00  0.00    -0.014 A 
BRANCH  40  41
ATOM     41  C   UNL     1       0.453   7.405   6.423  1.00  0.00     0.031 A 
ATOM     42  C   UNL     1      -0.879   8.079   6.222  1.00  0.00     0.074 A 
ATOM     43  C   UNL     1       0.896   7.173   7.675  1.00  0.00     0.049 A 
ATOM     44  N   UNL     1      -1.685   8.604   7.112  1.00  0.00    -0.248 NA
ATOM     45  C   UNL     1      -1.366   8.186   4.838  1.00  0.00     0.031 C 
ATOM     46  C   UNL     1       2.154   6.507   8.018  1.00  0.00     0.029 A 
ATOM     47  N   UNL     1       0.329   7.457   8.893  1.00  0.00    -0.354 N 
ATOM     48  C   UNL     1      -2.750   9.135   6.394  1.00  0.00     0.074 A 
ATOM     49  C   UNL     1      -2.483   8.882   4.995  1.00  0.00     0.031 C 
ATOM     50  C   UNL     1       2.240   6.393   9.352  1.00  0.00     0.029 A 
ATOM     51  C   UNL     1       1.078   7.029   9.963  1.00  0.00     0.049 A 
ATOM     52  H   UNL     1      -0.534   7.922   8.990  1.00  0.00     0.167 HD
ATOM     53  C   UNL     1      -3.854   9.771   6.858  1.00  0.00     0.037 A 
ATOM     54  C   UNL     1       0.863   7.150  11.287  1.00  0.00     0.037 A 
ATOM     55  C   UNL     1      -4.148   9.985   8.251  1.00  0.00     0.049 A 
ATOM     56  C   UNL     1      -0.367   7.864  11.774  1.00  0.00     0.074 A 
ATOM     57  C   UNL     1      -5.243  10.618   8.815  1.00  0.00     0.029 A 
ATOM     58  N   UNL     1      -3.351   9.556   9.301  1.00  0.00    -0.354 N 
ATOM     59  N   UNL     1      -1.344   8.395  11.081  1.00  0.00    -0.248 NA
ATOM     60  C   UNL     1      -0.516   8.005  13.230  1.00  0.00     0.031 C 
ATOM     61  C   UNL     1      -5.097  10.592  10.207  1.00  0.00     0.029 A 
ATOM     62  C   UNL     1      -3.929   9.912  10.509  1.00  0.00     0.049 A 
ATOM     63  H   UNL     1      -2.501   9.070   9.203  1.00  0.00     0.167 HD
ATOM     64  C   UNL     1      -2.226   8.925  12.013  1.00  0.00     0.074 A 
ATOM     65  C   UNL     1      -1.682   8.628  13.322  1.00  0.00     0.031 C 
ATOM     66  C   UNL     1      -3.378   9.607  11.803  1.00  0.00     0.037 A 
BRANCH  53  67
ATOM     67  C   UNL     1      -4.824  10.300   5.843  1.00  0.00     0.057 A 
ATOM     68  C   UNL     1      -5.683   9.456   5.128  1.00  0.00     0.134 A 
ATOM     69  C   UNL     1      -4.925  11.677   5.607  1.00  0.00     0.134 A 
ATOM     70  F   UNL     1      -5.626   8.127   5.297  1.00  0.00    -0.206 F 
ATOM     71  C   UNL     1      -6.596   9.962   4.200  1.00  0.00     0.040 A 
ATOM     72  C   UNL     1      -5.849  12.197   4.700  1.00  0.00     0.040 A 
ATOM     73  F   UNL     1      -4.136  12.541   6.264  1.00  0.00    -0.206 F 
ATOM     74  C   UNL     1      -6.685  11.337   3.990  1.00  0.00     0.006 A 
ENDBRANCH  53  67
BRANCH  54  75
ATOM     75  C   UNL     1       1.842   6.593  12.254  1.00  0.00     0.057 A 
ATOM     76  C   UNL     1       1.521   5.489  13.053  1.00  0.00     0.134 A 
ATOM     77  C   UNL     1       3.112   7.159  12.415  1.00  0.00     0.134 A 
ATOM     78  F   UNL     1       0.309   4.921  12.964  1.00  0.00    -0.206 F 
ATOM     79  C   UNL     1       2.422   4.976  13.987  1.00  0.00     0.040 A 
ATOM     80  C   UNL     1       4.033   6.640  13.326  1.00  0.00     0.040 A 
ATOM     81  F   UNL     1       3.479   8.219  11.681  1.00  0.00    -0.206 F 
ATOM     82  C   UNL     1       3.686   5.549  14.120  1.00  0.00     0.006 A 
ENDBRANCH  54  75
BRANCH  66  83
ATOM     83  C   UNL     1      -4.133  10.055  13.018  1.00  0.00     0.057 A 
ATOM     84  C   UNL     1      -3.693  11.128  13.803  1.00  0.00     0.134 A 
ATOM     85  C   UNL     1      -5.318   9.414  13.400  1.00  0.00     0.134 A 
ATOM     86  F   UNL     1      -2.558  11.773  13.497  1.00  0.00    -0.206 F 
ATOM     87  C   UNL     1      -4.393  11.532  14.941  1.00  0.00     0.040 A 
ATOM     88  C   UNL     1      -6.037   9.823  14.524  1.00  0.00     0.040 A 
ATOM     89  F   UNL     1      -5.796   8.383  12.687  1.00  0.00    -0.206 F 
ATOM     90  C   UNL     1      -5.571  10.881  15.302  1.00  0.00     0.006 A 
ENDBRANCH  66  83
ENDBRANCH  40  41
ENDBRANCH  33  35
ENDBRANCH  32  33
ENDBRANCH  31  32
ENDBRANCH   1  31
TORSDOF 16
