REMARK SMILES C[C@H](CCC(=O)OCCOC(=O)c1ccc(-c2c3nc(c(-c4c(F)cccc4F)c4ccc([nH]4)c(-c4c(F)cccc4F)c4nc(c(-c5c(F)cccc5F)c5ccc2[nH]5)C=C4)C=C3)cc1)[C@@H]1CC[C@H]2[C@@H]3C[C@H](O)[C@@H]4C[C@H](O)CC[C@]4(C)[C@H]3CC[C@]21C
REMARK SMILES IDX 8 1 7 2 5 3 6 4 4 5 3 6 2 7 1 8 67 9 68 10 86 11 69 12 70 13
REMARK SMILES IDX 85 14 87 15 71 16 84 17 72 18 83 19 73 20 81 21 75 22 80 23
REMARK SMILES IDX 82 24 76 25 79 26 77 27 74 28 78 30 9 32 10 33 11 34 12 35
REMARK SMILES IDX 13 36 14 37 66 38 15 39 65 40 16 41 17 42 18 43 59 44 19 45
REMARK SMILES IDX 64 46 58 47 60 48 20 49 63 50 57 51 56 52 21 54 47 55 30 56
REMARK SMILES IDX 46 57 31 58 34 59 45 60 61 61 32 62 33 63 44 65 62 66 35 67
REMARK SMILES IDX 22 68 23 69 28 70 24 71 25 72 27 73 29 74 26 75 48 76 49 77
REMARK SMILES IDX 54 78 50 79 51 80 53 81 55 82 52 83 36 84 37 85 42 86 38 87
REMARK SMILES IDX 39 88 41 89 43 90 40 91
REMARK H PARENT 74 29 78 31 60 53 34 64
REMARK Flexibility Score: inf
ROOT
ATOM      1  C   UNL     1      -0.168  -1.514  -3.171  1.00  0.00     0.274 C 
ENDROOT
BRANCH   1   2
ATOM      2  O   UNL     1      -0.216  -0.719  -1.969  1.00  0.00    -0.462 OA
BRANCH   2   3
ATOM      3  C   UNL     1       0.890  -0.006  -1.638  1.00  0.00     0.305 C 
ATOM      4  O   UNL     1       1.943  -0.005  -2.261  1.00  0.00    -0.252 OA
BRANCH   3   5
ATOM      5  C   UNL     1       0.665   0.791  -0.368  1.00  0.00     0.123 C 
BRANCH   5   6
ATOM      6  C   UNL     1       0.103   2.195  -0.576  1.00  0.00     0.015 C 
BRANCH   6   7
ATOM      7  C   UNL     1      -1.409   2.402  -0.512  1.00  0.00    -0.010 C 
ATOM      8  C   UNL     1      -2.166   1.465  -1.491  1.00  0.00     0.008 C 
BRANCH   7   9
ATOM      9  C   UNL     1      -2.132   2.246   0.826  1.00  0.00    -0.002 C 
ATOM     10  C   UNL     1      -3.401   3.266   0.850  1.00  0.00     0.005 C 
ATOM     11  C   UNL     1      -1.746   2.253   2.344  1.00  0.00    -0.026 C 
ATOM     12  C   UNL     1      -4.003   3.173   2.301  1.00  0.00     0.005 C 
ATOM     13  C   UNL     1      -3.245   1.947   2.792  1.00  0.00    -0.001 C 
ATOM     14  C   UNL     1      -0.756   1.272   3.044  1.00  0.00     0.007 C 
ATOM     15  C   UNL     1      -1.179   3.664   2.696  1.00  0.00     0.012 C 
ATOM     16  C   UNL     1      -3.502   0.463   3.153  1.00  0.00    -0.001 C 
ATOM     17  C   UNL     1      -1.235   0.036   3.854  1.00  0.00     0.005 C 
ATOM     18  C   UNL     1      -4.941  -0.007   2.998  1.00  0.00     0.036 C 
ATOM     19  C   UNL     1      -2.712   0.013   4.362  1.00  0.00    -0.001 C 
ATOM     20  C   UNL     1      -4.917  -1.518   3.054  1.00  0.00     0.118 C 
ATOM     21  C   UNL     1      -3.198  -1.383   5.013  1.00  0.00    -0.024 C 
ATOM     22  C   UNL     1      -4.552  -1.994   4.458  1.00  0.00     0.026 C 
ATOM     23  C   UNL     1      -3.343  -1.199   6.551  1.00  0.00     0.010 C 
ATOM     24  C   UNL     1      -2.118  -2.488   4.827  1.00  0.00     0.012 C 
ATOM     25  C   UNL     1      -5.757  -1.968   5.433  1.00  0.00     0.038 C 
ATOM     26  C   UNL     1      -4.525  -0.318   6.954  1.00  0.00     0.032 C 
ATOM     27  C   UNL     1      -5.860  -0.784   6.386  1.00  0.00     0.114 C 
BRANCH  20  28
ATOM     28  O   UNL     1      -6.164  -2.038   2.610  1.00  0.00    -0.393 OA
ATOM     29  H   UNL     1      -6.873  -1.718   3.190  1.00  0.00     0.210 HD
ENDBRANCH  20  28
BRANCH  27  30
ATOM     30  O   UNL     1      -6.513   0.329   5.785  1.00  0.00    -0.393 OA
ATOM     31  H   UNL     1      -5.976   0.660   5.048  1.00  0.00     0.210 HD
ENDBRANCH  27  30
ENDBRANCH   7   9
ENDBRANCH   6   7
ENDBRANCH   5   6
ENDBRANCH   3   5
ENDBRANCH   2   3
ENDBRANCH   1   2
BRANCH   1  32
ATOM     32  C   UNL     1      -0.671  -0.723  -4.377  1.00  0.00     0.275 C 
BRANCH  32  33
ATOM     33  O   UNL     1       0.339   0.224  -4.761  1.00  0.00    -0.458 OA
BRANCH  33  34
ATOM     34  C   UNL     1      -0.032   1.520  -4.795  1.00  0.00     0.338 C 
ATOM     35  O   UNL     1      -1.139   2.001  -4.652  1.00  0.00    -0.246 OA
BRANCH  34  36
ATOM     36  C   UNL     1       1.150   2.328  -5.096  1.00  0.00     0.060 A 
ATOM     37  C   UNL     1       2.004   2.741  -4.072  1.00  0.00     0.016 A 
ATOM     38  C   UNL     1       1.343   2.743  -6.411  1.00  0.00     0.016 A 
ATOM     39  C   UNL     1       3.046   3.616  -4.355  1.00  0.00     0.010 A 
ATOM     40  C   UNL     1       2.411   3.583  -6.702  1.00  0.00     0.010 A 
ATOM     41  C   UNL     1       3.251   4.041  -5.672  1.00  0.00    -0.014 A 
BRANCH  41  42
ATOM     42  C   UNL     1       4.318   5.010  -5.990  1.00  0.00     0.031 A 
ATOM     43  C   UNL     1       3.944   6.405  -6.388  1.00  0.00     0.074 A 
ATOM     44  C   UNL     1       5.602   4.617  -5.963  1.00  0.00     0.049 A 
ATOM     45  N   UNL     1       4.695   7.354  -6.880  1.00  0.00    -0.248 NA
ATOM     46  C   UNL     1       2.529   6.776  -6.220  1.00  0.00     0.031 C 
ATOM     47  C   UNL     1       6.074   3.295  -5.551  1.00  0.00     0.029 A 
ATOM     48  N   UNL     1       6.742   5.289  -6.314  1.00  0.00    -0.354 N 
ATOM     49  C   UNL     1       3.842   8.424  -7.110  1.00  0.00     0.074 A 
ATOM     50  C   UNL     1       2.514   8.004  -6.718  1.00  0.00     0.031 C 
ATOM     51  C   UNL     1       7.409   3.248  -5.686  1.00  0.00     0.029 A 
ATOM     52  C   UNL     1       7.872   4.514  -6.244  1.00  0.00     0.049 A 
ATOM     53  H   UNL     1       6.751   6.235  -6.589  1.00  0.00     0.167 HD
ATOM     54  C   UNL     1       4.147   9.646  -7.605  1.00  0.00     0.037 A 
ATOM     55  C   UNL     1       9.133   4.786  -6.628  1.00  0.00     0.037 A 
ATOM     56  C   UNL     1       5.476  10.050  -7.981  1.00  0.00     0.049 A 
ATOM     57  C   UNL     1       9.436   6.130  -7.226  1.00  0.00     0.074 A 
ATOM     58  C   UNL     1       5.900  11.268  -8.480  1.00  0.00     0.029 A 
ATOM     59  N   UNL     1       6.598   9.237  -7.896  1.00  0.00    -0.354 N 
ATOM     60  N   UNL     1       8.627   7.138  -7.448  1.00  0.00    -0.248 NA
ATOM     61  C   UNL     1      10.826   6.373  -7.633  1.00  0.00     0.031 C 
ATOM     62  C   UNL     1       7.273  11.179  -8.736  1.00  0.00     0.029 A 
ATOM     63  C   UNL     1       7.712   9.921  -8.351  1.00  0.00     0.049 A 
ATOM     64  H   UNL     1       6.601   8.311  -7.562  1.00  0.00     0.167 HD
ATOM     65  C   UNL     1       9.412   8.144  -7.994  1.00  0.00     0.074 A 
ATOM     66  C   UNL     1      10.764   7.626  -8.063  1.00  0.00     0.031 C 
ATOM     67  C   UNL     1       9.049   9.386  -8.400  1.00  0.00     0.037 A 
BRANCH  54  68
ATOM     68  C   UNL     1       3.016  10.612  -7.799  1.00  0.00     0.057 A 
ATOM     69  C   UNL     1       2.368  11.224  -6.718  1.00  0.00     0.134 A 
ATOM     70  C   UNL     1       2.574  10.940  -9.087  1.00  0.00     0.134 A 
ATOM     71  F   UNL     1       2.731  10.940  -5.458  1.00  0.00    -0.206 F 
ATOM     72  C   UNL     1       1.306  12.109  -6.911  1.00  0.00     0.040 A 
ATOM     73  C   UNL     1       1.530  11.842  -9.293  1.00  0.00     0.040 A 
ATOM     74  F   UNL     1       3.152  10.390 -10.166  1.00  0.00    -0.206 F 
ATOM     75  C   UNL     1       0.887  12.424  -8.202  1.00  0.00     0.006 A 
ENDBRANCH  54  68
BRANCH  55  76
ATOM     76  C   UNL     1      10.189   3.757  -6.473  1.00  0.00     0.057 A 
ATOM     77  C   UNL     1      11.203   3.903  -5.521  1.00  0.00     0.134 A 
ATOM     78  C   UNL     1      10.203   2.601  -7.262  1.00  0.00     0.134 A 
ATOM     79  F   UNL     1      11.251   4.999  -4.749  1.00  0.00    -0.206 F 
ATOM     80  C   UNL     1      12.203   2.942  -5.367  1.00  0.00     0.040 A 
ATOM     81  C   UNL     1      11.183   1.620  -7.102  1.00  0.00     0.040 A 
ATOM     82  F   UNL     1       9.254   2.400  -8.188  1.00  0.00    -0.206 F 
ATOM     83  C   UNL     1      12.190   1.792  -6.155  1.00  0.00     0.006 A 
ENDBRANCH  55  76
BRANCH  67  84
ATOM     84  C   UNL     1      10.138  10.281  -8.911  1.00  0.00     0.057 A 
ATOM     85  C   UNL     1      10.718  10.096 -10.171  1.00  0.00     0.134 A 
ATOM     86  C   UNL     1      10.578  11.369  -8.146  1.00  0.00     0.134 A 
ATOM     87  F   UNL     1      10.349   9.063 -10.945  1.00  0.00    -0.206 F 
ATOM     88  C   UNL     1      11.713  10.951 -10.646  1.00  0.00     0.040 A 
ATOM     89  C   UNL     1      11.554  12.246  -8.621  1.00  0.00     0.040 A 
ATOM     90  F   UNL     1      10.056  11.605  -6.933  1.00  0.00    -0.206 F 
ATOM     91  C   UNL     1      12.128  12.035  -9.873  1.00  0.00     0.006 A 
ENDBRANCH  67  84
ENDBRANCH  41  42
ENDBRANCH  34  36
ENDBRANCH  33  34
ENDBRANCH  32  33
ENDBRANCH   1  32
TORSDOF 16
