REMARK SMILES C[C@H]1OCC[C@@H]1C(=O)Nc1sc2c(c1C(=O)OCCOC(=O)c1ccc(-c3c4nc(c(-c5c(F)cccc5F)c5ccc([nH]5)c(-c5c(F)cccc5F)c5nc(c(-c6c(F)cccc6F)c6ccc3[nH]6)C=C5)C=C4)cc1)CCC2
REMARK SMILES IDX 18 1 17 2 15 3 16 4 14 5 10 6 11 7 12 8 13 9 79 10 77 11
REMARK SMILES IDX 78 12 9 13 7 14 8 15 6 17 1 18 2 19 3 20 4 21 5 22 19 23
REMARK SMILES IDX 20 24 21 25 22 26 23 27 24 28 76 29 25 30 75 31 26 32 27 33
REMARK SMILES IDX 28 34 69 35 29 36 74 37 68 38 70 39 30 40 73 41 67 42 66 43
REMARK SMILES IDX 31 45 57 46 40 47 56 48 41 49 44 50 55 51 71 52 42 53 43 54
REMARK SMILES IDX 54 56 72 57 45 58 32 59 33 60 38 61 34 62 35 63 37 64 39 65
REMARK SMILES IDX 36 66 58 67 59 68 64 69 60 70 61 71 63 72 65 73 62 74 46 75
REMARK SMILES IDX 47 76 52 77 48 78 49 79 51 80 53 81 50 82
REMARK H PARENT 9 16 70 44 44 55
REMARK Flexibility Score: inf
ROOT
ATOM      1  C   UNL     1      -4.843  -0.214  -0.025  1.00  0.00     0.275 C 
ENDROOT
BRANCH   1   2
ATOM      2  O   UNL     1      -4.044   0.212   1.098  1.00  0.00    -0.458 OA
BRANCH   2   3
ATOM      3  C   UNL     1      -3.361  -0.769   1.754  1.00  0.00     0.341 C 
ATOM      4  O   UNL     1      -3.428  -1.960   1.467  1.00  0.00    -0.246 OA
BRANCH   3   5
ATOM      5  C   UNL     1      -2.505  -0.257   2.819  1.00  0.00     0.098 A 
ATOM      6  C   UNL     1      -1.287  -0.836   3.154  1.00  0.00     0.110 A 
ATOM      7  S   UNL     1      -0.596  -0.243   4.605  1.00  0.00    -0.122 S 
ATOM      8  C   UNL     1      -1.613   1.074   4.515  1.00  0.00     0.011 A 
ATOM      9  C   UNL     1      -2.571   0.979   3.537  1.00  0.00    -0.017 A 
ATOM     10  C   UNL     1      -1.552   2.387   5.192  1.00  0.00     0.047 C 
ATOM     11  C   UNL     1      -3.301   2.271   3.409  1.00  0.00     0.038 C 
ATOM     12  C   UNL     1      -2.341   3.252   4.168  1.00  0.00     0.010 C 
BRANCH   6  13
ATOM     13  N   UNL     1      -0.485  -1.729   2.484  1.00  0.00    -0.317 N 
ATOM     14  C   UNL     1       0.571  -1.290   1.720  1.00  0.00     0.230 C 
ATOM     15  O   UNL     1       1.604  -1.972   1.769  1.00  0.00    -0.274 OA
ATOM     16  H   UNL     1      -0.668  -2.693   2.553  1.00  0.00     0.170 HD
BRANCH  14  17
ATOM     17  C   UNL     1       0.512  -0.118   0.729  1.00  0.00     0.110 C 
ATOM     18  C   UNL     1       2.839   0.616   0.021  1.00  0.00     0.039 C 
ATOM     19  C   UNL     1       1.633   0.910   0.905  1.00  0.00     0.127 C 
ATOM     20  O   UNL     1       1.098   2.187   0.467  1.00  0.00    -0.378 OA
ATOM     21  C   UNL     1      -0.124   1.922  -0.231  1.00  0.00     0.161 C 
ATOM     22  C   UNL     1      -0.695   0.756   0.527  1.00  0.00     0.044 C 
ENDBRANCH  14  17
ENDBRANCH   6  13
ENDBRANCH   3   5
ENDBRANCH   2   3
ENDBRANCH   1   2
BRANCH   1  23
ATOM     23  C   UNL     1      -4.041  -0.169  -1.317  1.00  0.00     0.275 C 
BRANCH  23  24
ATOM     24  O   UNL     1      -3.152  -1.290  -1.435  1.00  0.00    -0.458 OA
BRANCH  24  25
ATOM     25  C   UNL     1      -2.234  -1.054  -2.394  1.00  0.00     0.338 C 
ATOM     26  O   UNL     1      -2.106  -0.011  -3.024  1.00  0.00    -0.246 OA
BRANCH  25  27
ATOM     27  C   UNL     1      -1.301  -2.163  -2.629  1.00  0.00     0.060 A 
ATOM     28  C   UNL     1      -0.365  -2.437  -1.633  1.00  0.00     0.016 A 
ATOM     29  C   UNL     1      -0.992  -2.342  -3.977  1.00  0.00     0.016 A 
ATOM     30  C   UNL     1       0.975  -2.538  -1.996  1.00  0.00     0.010 A 
ATOM     31  C   UNL     1       0.331  -2.495  -4.336  1.00  0.00     0.010 A 
ATOM     32  C   UNL     1       1.324  -2.452  -3.347  1.00  0.00    -0.014 A 
BRANCH  32  33
ATOM     33  C   UNL     1       2.736  -2.472  -3.764  1.00  0.00     0.031 A 
ATOM     34  C   UNL     1       3.455  -3.752  -3.471  1.00  0.00     0.074 A 
ATOM     35  C   UNL     1       3.185  -1.516  -4.615  1.00  0.00     0.049 A 
ATOM     36  N   UNL     1       4.723  -3.968  -3.303  1.00  0.00    -0.248 NA
ATOM     37  C   UNL     1       2.623  -4.966  -3.307  1.00  0.00     0.031 C 
ATOM     38  C   UNL     1       2.426  -0.339  -5.069  1.00  0.00     0.029 A 
ATOM     39  N   UNL     1       4.297  -1.484  -5.418  1.00  0.00    -0.354 N 
ATOM     40  C   UNL     1       4.851  -5.355  -3.213  1.00  0.00     0.074 A 
ATOM     41  C   UNL     1       3.534  -5.904  -3.079  1.00  0.00     0.031 C 
ATOM     42  C   UNL     1       2.946   0.104  -6.230  1.00  0.00     0.029 A 
ATOM     43  C   UNL     1       4.107  -0.703  -6.561  1.00  0.00     0.049 A 
ATOM     44  H   UNL     1       5.135  -1.958  -5.211  1.00  0.00     0.167 HD
ATOM     45  C   UNL     1       5.993  -5.999  -3.561  1.00  0.00     0.037 A 
ATOM     46  C   UNL     1       4.754  -0.789  -7.751  1.00  0.00     0.037 A 
ATOM     47  C   UNL     1       7.159  -5.189  -3.378  1.00  0.00     0.049 A 
ATOM     48  C   UNL     1       5.971  -1.606  -7.562  1.00  0.00     0.074 A 
ATOM     49  C   UNL     1       7.756  -4.569  -2.300  1.00  0.00     0.029 A 
ATOM     50  N   UNL     1       7.770  -4.690  -4.496  1.00  0.00    -0.354 N 
ATOM     51  N   UNL     1       7.041  -1.223  -6.931  1.00  0.00    -0.248 NA
ATOM     52  C   UNL     1       5.890  -3.033  -7.843  1.00  0.00     0.031 C 
ATOM     53  C   UNL     1       8.424  -3.433  -2.836  1.00  0.00     0.029 A 
ATOM     54  C   UNL     1       8.201  -3.423  -4.213  1.00  0.00     0.049 A 
ATOM     55  H   UNL     1       7.881  -5.161  -5.353  1.00  0.00     0.167 HD
ATOM     56  C   UNL     1       7.543  -2.383  -6.366  1.00  0.00     0.074 A 
ATOM     57  C   UNL     1       6.899  -3.470  -7.089  1.00  0.00     0.031 C 
ATOM     58  C   UNL     1       8.203  -2.346  -5.174  1.00  0.00     0.037 A 
BRANCH  45  59
ATOM     59  C   UNL     1       5.968  -7.212  -4.460  1.00  0.00     0.057 A 
ATOM     60  C   UNL     1       7.135  -7.972  -4.634  1.00  0.00     0.134 A 
ATOM     61  C   UNL     1       4.933  -7.477  -5.385  1.00  0.00     0.134 A 
ATOM     62  F   UNL     1       8.200  -7.785  -3.840  1.00  0.00    -0.206 F 
ATOM     63  C   UNL     1       7.279  -8.889  -5.683  1.00  0.00     0.040 A 
ATOM     64  C   UNL     1       5.046  -8.428  -6.400  1.00  0.00     0.040 A 
ATOM     65  F   UNL     1       3.800  -6.763  -5.418  1.00  0.00    -0.206 F 
ATOM     66  C   UNL     1       6.234  -9.116  -6.572  1.00  0.00     0.006 A 
ENDBRANCH  45  59
BRANCH  46  67
ATOM     67  C   UNL     1       4.274  -0.428  -9.112  1.00  0.00     0.057 A 
ATOM     68  C   UNL     1       5.175  -0.251 -10.174  1.00  0.00     0.134 A 
ATOM     69  C   UNL     1       2.915  -0.471  -9.470  1.00  0.00     0.134 A 
ATOM     70  F   UNL     1       6.498  -0.249  -9.954  1.00  0.00    -0.206 F 
ATOM     71  C   UNL     1       4.752  -0.129 -11.505  1.00  0.00     0.040 A 
ATOM     72  C   UNL     1       2.477  -0.327 -10.792  1.00  0.00     0.040 A 
ATOM     73  F   UNL     1       1.964  -0.739  -8.565  1.00  0.00    -0.206 F 
ATOM     74  C   UNL     1       3.398  -0.168 -11.818  1.00  0.00     0.006 A 
ENDBRANCH  46  67
BRANCH  58  75
ATOM     75  C   UNL     1       8.712  -1.016  -4.703  1.00  0.00     0.057 A 
ATOM     76  C   UNL     1       7.887   0.072  -4.384  1.00  0.00     0.134 A 
ATOM     77  C   UNL     1      10.080  -0.876  -4.444  1.00  0.00     0.134 A 
ATOM     78  F   UNL     1       6.555  -0.009  -4.503  1.00  0.00    -0.206 F 
ATOM     79  C   UNL     1       8.409   1.265  -3.879  1.00  0.00     0.040 A 
ATOM     80  C   UNL     1      10.609   0.297  -3.903  1.00  0.00     0.040 A 
ATOM     81  F   UNL     1      10.921  -1.898  -4.670  1.00  0.00    -0.206 F 
ATOM     82  C   UNL     1       9.774   1.378  -3.631  1.00  0.00     0.006 A 
ENDBRANCH  58  75
ENDBRANCH  32  33
ENDBRANCH  25  27
ENDBRANCH  24  25
ENDBRANCH  23  24
ENDBRANCH   1  23
TORSDOF 13
