REMARK SMILES CC(C)c1ccc(NC(=O)C[C@H]2SC[C@@H](C(=O)OCCOC(=O)c3ccc(-c4c5nc(c(-c6c(F)cccc6F)c6ccc([nH]6)c(-c6c(F)cccc6F)c6nc(c(-c7c(F)cccc7F)c7ccc4[nH]7)C=C6)C=C5)cc3)NC2=O)cc1
REMARK SMILES IDX 19 1 18 2 16 3 17 4 15 5 12 6 13 7 79 8 14 9 78 10 80 11
REMARK SMILES IDX 11 13 9 14 8 15 10 17 7 18 4 19 5 20 82 21 6 22 81 23 2 24
REMARK SMILES IDX 1 25 3 26 20 27 21 28 22 29 23 30 24 31 25 32 77 33 26 34
REMARK SMILES IDX 76 35 27 36 28 37 29 38 70 39 30 40 75 41 69 42 71 43 31 44
REMARK SMILES IDX 74 45 68 46 67 47 32 49 58 50 41 51 57 52 42 53 45 54 56 55
REMARK SMILES IDX 72 56 43 57 44 58 55 60 73 61 46 62 33 63 34 64 39 65 35 66
REMARK SMILES IDX 36 67 38 68 40 69 37 70 59 71 60 72 65 73 61 74 62 75 64 76
REMARK SMILES IDX 66 77 63 78 47 79 48 80 53 81 49 82 50 83 52 84 54 85 51 86
REMARK H PARENT 78 12 8 16 71 48 45 59
REMARK Flexibility Score: inf
ROOT
ATOM      1  C   UNL     1       1.009   3.242   4.003  1.00  0.00     0.274 C 
ENDROOT
BRANCH   1   2
ATOM      2  O   UNL     1       0.415   3.286   2.690  1.00  0.00    -0.461 OA
BRANCH   2   3
ATOM      3  C   UNL     1      -0.933   3.097   2.670  1.00  0.00     0.329 C 
ATOM      4  O   UNL     1      -1.644   3.085   3.663  1.00  0.00    -0.250 OA
BRANCH   3   5
ATOM      5  C   UNL     1      -1.431   2.757   1.266  1.00  0.00     0.202 C 
ATOM      6  C   UNL     1      -4.338   2.393   2.017  1.00  0.00     0.145 C 
ATOM      7  S   UNL     1      -4.080   3.806   0.859  1.00  0.00    -0.145 SA
ATOM      8  C   UNL     1      -3.317   1.264   1.907  1.00  0.00     0.234 C 
ATOM      9  C   UNL     1      -2.268   3.859   0.643  1.00  0.00     0.107 C 
ATOM     10  N   UNL     1      -2.094   1.472   1.350  1.00  0.00    -0.341 N 
ATOM     11  O   UNL     1      -3.551   0.115   2.284  1.00  0.00    -0.274 OA
ATOM     12  H   UNL     1      -1.624   0.692   0.977  1.00  0.00     0.164 HD
BRANCH   6  13
ATOM     13  C   UNL     1      -4.711   2.908   3.412  1.00  0.00     0.124 C 
BRANCH  13  14
ATOM     14  C   UNL     1      -4.784   1.945   4.587  1.00  0.00     0.226 C 
ATOM     15  N   UNL     1      -5.612   0.862   4.614  1.00  0.00    -0.326 N 
ATOM     16  H   UNL     1      -5.659   0.377   5.469  1.00  0.00     0.169 HD
ATOM     17  O   UNL     1      -4.102   2.152   5.599  1.00  0.00    -0.275 OA
BRANCH  15  18
ATOM     18  C   UNL     1      -6.401   0.357   3.581  1.00  0.00     0.041 A 
ATOM     19  C   UNL     1      -7.347  -0.590   1.129  1.00  0.00    -0.045 A 
ATOM     20  C   UNL     1      -7.737   0.671   1.601  1.00  0.00     0.006 A 
ATOM     21  C   UNL     1      -6.617  -1.427   1.989  1.00  0.00     0.006 A 
ATOM     22  C   UNL     1      -7.262   1.147   2.826  1.00  0.00     0.026 A 
ATOM     23  C   UNL     1      -6.180  -0.971   3.229  1.00  0.00     0.026 A 
BRANCH  19  24
ATOM     24  C   UNL     1      -7.601  -1.069  -0.291  1.00  0.00     0.013 C 
ATOM     25  C   UNL     1      -8.576  -2.246  -0.302  1.00  0.00     0.012 C 
ATOM     26  C   UNL     1      -8.058   0.016  -1.271  1.00  0.00     0.012 C 
ENDBRANCH  19  24
ENDBRANCH  15  18
ENDBRANCH  13  14
ENDBRANCH   6  13
ENDBRANCH   3   5
ENDBRANCH   2   3
ENDBRANCH   1   2
BRANCH   1  27
ATOM     27  C   UNL     1       1.175   4.624   4.642  1.00  0.00     0.275 C 
BRANCH  27  28
ATOM     28  O   UNL     1      -0.076   5.183   5.088  1.00  0.00    -0.458 OA
BRANCH  28  29
ATOM     29  C   UNL     1      -0.707   5.973   4.190  1.00  0.00     0.338 C 
ATOM     30  O   UNL     1      -0.280   6.292   3.085  1.00  0.00    -0.246 OA
BRANCH  29  31
ATOM     31  C   UNL     1      -2.095   6.266   4.615  1.00  0.00     0.060 A 
ATOM     32  C   UNL     1      -3.067   6.225   3.614  1.00  0.00     0.016 A 
ATOM     33  C   UNL     1      -2.470   6.559   5.930  1.00  0.00     0.016 A 
ATOM     34  C   UNL     1      -4.412   6.391   3.921  1.00  0.00     0.010 A 
ATOM     35  C   UNL     1      -3.826   6.785   6.232  1.00  0.00     0.010 A 
ATOM     36  C   UNL     1      -4.806   6.682   5.231  1.00  0.00    -0.014 A 
BRANCH  36  37
ATOM     37  C   UNL     1      -6.248   6.925   5.478  1.00  0.00     0.031 A 
ATOM     38  C   UNL     1      -6.871   8.204   4.998  1.00  0.00     0.074 A 
ATOM     39  C   UNL     1      -7.034   5.949   5.969  1.00  0.00     0.049 A 
ATOM     40  N   UNL     1      -8.119   8.594   5.061  1.00  0.00    -0.248 NA
ATOM     41  C   UNL     1      -5.973   9.158   4.328  1.00  0.00     0.031 C 
ATOM     42  C   UNL     1      -6.583   4.611   6.341  1.00  0.00     0.029 A 
ATOM     43  N   UNL     1      -8.389   5.922   6.197  1.00  0.00    -0.354 N 
ATOM     44  C   UNL     1      -8.157   9.832   4.435  1.00  0.00     0.074 A 
ATOM     45  C   UNL     1      -6.814  10.121   3.981  1.00  0.00     0.031 C 
ATOM     46  C   UNL     1      -7.646   3.881   6.720  1.00  0.00     0.029 A 
ATOM     47  C   UNL     1      -8.845   4.717   6.676  1.00  0.00     0.049 A 
ATOM     48  H   UNL     1      -8.978   6.693   6.033  1.00  0.00     0.167 HD
ATOM     49  C   UNL     1      -9.210  10.668   4.277  1.00  0.00     0.037 A 
ATOM     50  C   UNL     1     -10.082   4.345   7.061  1.00  0.00     0.037 A 
ATOM     51  C   UNL     1     -10.531  10.418   4.784  1.00  0.00     0.049 A 
ATOM     52  C   UNL     1     -11.207   5.348   7.007  1.00  0.00     0.074 A 
ATOM     53  C   UNL     1     -11.626  11.264   4.795  1.00  0.00     0.029 A 
ATOM     54  N   UNL     1     -10.934   9.234   5.380  1.00  0.00    -0.354 N 
ATOM     55  N   UNL     1     -11.215   6.559   6.505  1.00  0.00    -0.248 NA
ATOM     56  C   UNL     1     -12.489   4.941   7.603  1.00  0.00     0.031 C 
ATOM     57  C   UNL     1     -12.681  10.605   5.435  1.00  0.00     0.029 A 
ATOM     58  C   UNL     1     -12.256   9.331   5.778  1.00  0.00     0.049 A 
ATOM     59  H   UNL     1     -10.363   8.441   5.502  1.00  0.00     0.167 HD
ATOM     60  C   UNL     1     -12.495   7.055   6.723  1.00  0.00     0.074 A 
ATOM     61  C   UNL     1     -13.248   6.004   7.373  1.00  0.00     0.031 C 
ATOM     62  C   UNL     1     -12.997   8.278   6.423  1.00  0.00     0.037 A 
BRANCH  49  63
ATOM     63  C   UNL     1      -8.930  11.976   3.606  1.00  0.00     0.057 A 
ATOM     64  C   UNL     1      -8.763  12.078   2.220  1.00  0.00     0.134 A 
ATOM     65  C   UNL     1      -8.800  13.145   4.367  1.00  0.00     0.134 A 
ATOM     66  F   UNL     1      -8.849  10.988   1.442  1.00  0.00    -0.206 F 
ATOM     67  C   UNL     1      -8.454  13.297   1.615  1.00  0.00     0.040 A 
ATOM     68  C   UNL     1      -8.511  14.372   3.771  1.00  0.00     0.040 A 
ATOM     69  F   UNL     1      -8.943  13.108   5.700  1.00  0.00    -0.206 F 
ATOM     70  C   UNL     1      -8.330  14.449   2.391  1.00  0.00     0.006 A 
ENDBRANCH  49  63
BRANCH  50  71
ATOM     71  C   UNL     1     -10.330   2.981   7.599  1.00  0.00     0.057 A 
ATOM     72  C   UNL     1     -11.172   2.080   6.937  1.00  0.00     0.134 A 
ATOM     73  C   UNL     1      -9.786   2.571   8.823  1.00  0.00     0.134 A 
ATOM     74  F   UNL     1     -11.755   2.426   5.779  1.00  0.00    -0.206 F 
ATOM     75  C   UNL     1     -11.477   0.829   7.479  1.00  0.00     0.040 A 
ATOM     76  C   UNL     1     -10.059   1.314   9.363  1.00  0.00     0.040 A 
ATOM     77  F   UNL     1      -8.986   3.393   9.518  1.00  0.00    -0.206 F 
ATOM     78  C   UNL     1     -10.915   0.442   8.694  1.00  0.00     0.006 A 
ENDBRANCH  50  71
BRANCH  62  79
ATOM     79  C   UNL     1     -14.429   8.550   6.783  1.00  0.00     0.057 A 
ATOM     80  C   UNL     1     -14.828   8.758   8.110  1.00  0.00     0.134 A 
ATOM     81  C   UNL     1     -15.407   8.667   5.788  1.00  0.00     0.134 A 
ATOM     82  F   UNL     1     -13.942   8.650   9.111  1.00  0.00    -0.206 F 
ATOM     83  C   UNL     1     -16.152   9.059   8.434  1.00  0.00     0.040 A 
ATOM     84  C   UNL     1     -16.729   8.991   6.098  1.00  0.00     0.040 A 
ATOM     85  F   UNL     1     -15.090   8.489   4.497  1.00  0.00    -0.206 F 
ATOM     86  C   UNL     1     -17.105   9.184   7.425  1.00  0.00     0.006 A 
ENDBRANCH  62  79
ENDBRANCH  36  37
ENDBRANCH  29  31
ENDBRANCH  28  29
ENDBRANCH  27  28
ENDBRANCH   1  27
TORSDOF 15
