REMARK SMILES Nc1cccc(C(=O)N2CCC[C@H]2C(=O)OCCOC(=O)c2ccc(-c3c4nc(c(-c5c(F)cccc5F)c5ccc([nH]5)c(-c5c(F)cccc5F)c5nc(c(-c6c(F)cccc6F)c6ccc3[nH]6)C=C5)C=C4)cc2)c1
REMARK SMILES IDX 17 1 16 2 14 3 15 4 13 5 9 6 10 7 11 8 12 9 7 10 8 11 6 12
REMARK SMILES IDX 2 13 3 14 76 15 4 16 5 17 1 18 18 21 19 22 20 23 21 24 22 25
REMARK SMILES IDX 23 26 75 27 24 28 74 29 25 30 26 31 27 32 68 33 28 34 73 35
REMARK SMILES IDX 67 36 69 37 29 38 72 39 66 40 65 41 30 43 56 44 39 45 55 46
REMARK SMILES IDX 40 47 43 48 54 49 70 50 41 51 42 52 53 54 71 55 44 56 31 57
REMARK SMILES IDX 32 58 37 59 33 60 34 61 36 62 38 63 35 64 57 65 58 66 63 67
REMARK SMILES IDX 59 68 60 69 62 70 64 71 61 72 45 73 46 74 51 75 47 76 48 77
REMARK SMILES IDX 50 78 52 79 49 80
REMARK H PARENT 1 19 1 20 69 42 43 53
REMARK Flexibility Score: inf
ROOT
ATOM      1  C   UNL     1      -4.432   6.083  -0.501  1.00  0.00     0.274 C 
ENDROOT
BRANCH   1   2
ATOM      2  O   UNL     1      -3.121   5.537  -0.733  1.00  0.00    -0.461 OA
BRANCH   2   3
ATOM      3  C   UNL     1      -2.177   5.915   0.165  1.00  0.00     0.328 C 
ATOM      4  O   UNL     1      -2.277   6.877   0.924  1.00  0.00    -0.250 OA
BRANCH   3   5
ATOM      5  C   UNL     1      -0.957   4.992   0.198  1.00  0.00     0.195 C 
ATOM      6  N   UNL     1      -0.836   3.885  -0.748  1.00  0.00    -0.325 N 
ATOM      7  C   UNL     1       0.273   4.100  -1.657  1.00  0.00     0.121 C 
ATOM      8  C   UNL     1       1.238   4.936  -0.833  1.00  0.00     0.024 C 
ATOM      9  C   UNL     1       0.316   5.823  -0.004  1.00  0.00     0.039 C 
BRANCH   6  10
ATOM     10  C   UNL     1      -1.561   2.734  -0.494  1.00  0.00     0.254 C 
ATOM     11  O   UNL     1      -2.722   2.796  -0.091  1.00  0.00    -0.269 OA
BRANCH  10  12
ATOM     12  C   UNL     1      -0.901   1.397  -0.501  1.00  0.00     0.042 A 
ATOM     13  C   UNL     1       1.033  -0.021  -0.045  1.00  0.00     0.032 A 
ATOM     14  C   UNL     1       0.200  -1.140  -0.066  1.00  0.00     0.025 A 
ATOM     15  C   UNL     1       0.463   1.244  -0.215  1.00  0.00     0.039 A 
ATOM     16  C   UNL     1      -1.166  -1.007  -0.325  1.00  0.00     0.003 A 
ATOM     17  C   UNL     1      -1.714   0.256  -0.550  1.00  0.00     0.014 A 
BRANCH  13  18
ATOM     18  N   UNL     1       2.369  -0.143   0.303  1.00  0.00    -0.399 N 
ATOM     19  H   UNL     1       2.768  -1.035   0.423  1.00  0.00     0.156 HD
ATOM     20  H   UNL     1       2.920   0.663   0.431  1.00  0.00     0.156 HD
ENDBRANCH  13  18
ENDBRANCH  10  12
ENDBRANCH   6  10
ENDBRANCH   3   5
ENDBRANCH   2   3
ENDBRANCH   1   2
BRANCH   1  21
ATOM     21  C   UNL     1      -5.195   5.198   0.484  1.00  0.00     0.275 C 
BRANCH  21  22
ATOM     22  O   UNL     1      -4.526   5.211   1.759  1.00  0.00    -0.458 OA
BRANCH  22  23
ATOM     23  C   UNL     1      -4.560   4.043   2.438  1.00  0.00     0.338 C 
ATOM     24  O   UNL     1      -5.160   3.026   2.133  1.00  0.00    -0.246 OA
BRANCH  23  25
ATOM     25  C   UNL     1      -3.863   4.196   3.732  1.00  0.00     0.060 A 
ATOM     26  C   UNL     1      -2.588   4.760   3.844  1.00  0.00     0.016 A 
ATOM     27  C   UNL     1      -4.507   3.696   4.865  1.00  0.00     0.016 A 
ATOM     28  C   UNL     1      -1.933   4.767   5.079  1.00  0.00     0.010 A 
ATOM     29  C   UNL     1      -3.880   3.760   6.107  1.00  0.00     0.010 A 
ATOM     30  C   UNL     1      -2.576   4.267   6.221  1.00  0.00    -0.014 A 
BRANCH  30  31
ATOM     31  C   UNL     1      -1.906   4.236   7.545  1.00  0.00     0.031 A 
ATOM     32  C   UNL     1      -1.585   2.915   8.188  1.00  0.00     0.074 A 
ATOM     33  C   UNL     1      -1.650   5.384   8.198  1.00  0.00     0.049 A 
ATOM     34  N   UNL     1      -1.190   2.662   9.410  1.00  0.00    -0.248 NA
ATOM     35  C   UNL     1      -1.742   1.719   7.345  1.00  0.00     0.031 C 
ATOM     36  C   UNL     1      -1.898   6.728   7.675  1.00  0.00     0.029 A 
ATOM     37  N   UNL     1      -1.145   5.601   9.455  1.00  0.00    -0.354 N 
ATOM     38  C   UNL     1      -1.085   1.279   9.494  1.00  0.00     0.074 A 
ATOM     39  C   UNL     1      -1.465   0.746   8.203  1.00  0.00     0.031 C 
ATOM     40  C   UNL     1      -1.546   7.630   8.605  1.00  0.00     0.029 A 
ATOM     41  C   UNL     1      -1.104   6.928   9.806  1.00  0.00     0.049 A 
ATOM     42  H   UNL     1      -0.843   4.876  10.048  1.00  0.00     0.167 HD
ATOM     43  C   UNL     1      -0.707   0.525  10.553  1.00  0.00     0.037 A 
ATOM     44  C   UNL     1      -0.784   7.511  10.976  1.00  0.00     0.037 A 
ATOM     45  C   UNL     1      -0.308   1.060  11.829  1.00  0.00     0.049 A 
ATOM     46  C   UNL     1      -0.400   6.653  12.146  1.00  0.00     0.074 A 
ATOM     47  C   UNL     1       0.114   0.380  12.958  1.00  0.00     0.029 A 
ATOM     48  N   UNL     1      -0.278   2.411  12.141  1.00  0.00    -0.354 N 
ATOM     49  N   UNL     1      -0.318   5.347  12.220  1.00  0.00    -0.248 NA
ATOM     50  C   UNL     1      -0.074   7.349  13.399  1.00  0.00     0.031 C 
ATOM     51  C   UNL     1       0.373   1.319  13.963  1.00  0.00     0.029 A 
ATOM     52  C   UNL     1       0.144   2.585  13.448  1.00  0.00     0.049 A 
ATOM     53  H   UNL     1      -0.521   3.139  11.524  1.00  0.00     0.167 HD
ATOM     54  C   UNL     1       0.080   5.064  13.519  1.00  0.00     0.074 A 
ATOM     55  C   UNL     1       0.237   6.336  14.195  1.00  0.00     0.031 C 
ATOM     56  C   UNL     1       0.294   3.859  14.101  1.00  0.00     0.037 A 
BRANCH  43  57
ATOM     57  C   UNL     1      -0.726  -0.965  10.384  1.00  0.00     0.057 A 
ATOM     58  C   UNL     1       0.249  -1.637   9.638  1.00  0.00     0.134 A 
ATOM     59  C   UNL     1      -1.714  -1.740  11.005  1.00  0.00     0.134 A 
ATOM     60  F   UNL     1       1.216  -0.952   9.008  1.00  0.00    -0.206 F 
ATOM     61  C   UNL     1       0.233  -3.027   9.501  1.00  0.00     0.040 A 
ATOM     62  C   UNL     1      -1.729  -3.131  10.892  1.00  0.00     0.040 A 
ATOM     63  F   UNL     1      -2.675  -1.158  11.738  1.00  0.00    -0.206 F 
ATOM     64  C   UNL     1      -0.755  -3.778  10.134  1.00  0.00     0.006 A 
ENDBRANCH  43  57
BRANCH  44  65
ATOM     65  C   UNL     1      -0.837   8.988  11.098  1.00  0.00     0.057 A 
ATOM     66  C   UNL     1       0.336   9.746  11.175  1.00  0.00     0.134 A 
ATOM     67  C   UNL     1      -2.057   9.675  11.123  1.00  0.00     0.134 A 
ATOM     68  F   UNL     1       1.532   9.140  11.178  1.00  0.00    -0.206 F 
ATOM     69  C   UNL     1       0.299  11.137  11.275  1.00  0.00     0.040 A 
ATOM     70  C   UNL     1      -2.108  11.067  11.200  1.00  0.00     0.040 A 
ATOM     71  F   UNL     1      -3.215   9.003  11.050  1.00  0.00    -0.206 F 
ATOM     72  C   UNL     1      -0.926  11.802  11.280  1.00  0.00     0.006 A 
ENDBRANCH  44  65
BRANCH  56  73
ATOM     73  C   UNL     1       0.745   3.867  15.530  1.00  0.00     0.057 A 
ATOM     74  C   UNL     1      -0.145   4.124  16.579  1.00  0.00     0.134 A 
ATOM     75  C   UNL     1       2.077   3.591  15.858  1.00  0.00     0.134 A 
ATOM     76  F   UNL     1      -1.431   4.409  16.326  1.00  0.00    -0.206 F 
ATOM     77  C   UNL     1       0.280   4.123  17.908  1.00  0.00     0.040 A 
ATOM     78  C   UNL     1       2.510   3.569  17.184  1.00  0.00     0.040 A 
ATOM     79  F   UNL     1       2.977   3.333  14.897  1.00  0.00    -0.206 F 
ATOM     80  C   UNL     1       1.610   3.841  18.214  1.00  0.00     0.006 A 
ENDBRANCH  56  73
ENDBRANCH  30  31
ENDBRANCH  23  25
ENDBRANCH  22  23
ENDBRANCH  21  22
ENDBRANCH   1  21
TORSDOF 14
