REMARK SMILES CC(C)c1cc(N2CCC(C(=O)OCCOC(=O)c3ccc(-c4c5nc(c(-c6c(F)cccc6F)c6ccc([nH]6)c(-c6c(F)cccc6F)c6nc(c(-c7c(F)cccc7F)c7ccc4[nH]7)C=C6)C=C5)cc3)CC2)nc(-c2ccc(F)cc2)n1
REMARK SMILES IDX 14 1 13 2 11 3 12 4 10 5 7 6 8 7 74 8 9 9 73 10 6 11 4 12
REMARK SMILES IDX 5 13 84 14 76 15 75 16 2 17 1 18 3 19 77 20 78 21 83 22
REMARK SMILES IDX 79 23 82 24 80 25 81 26 15 27 16 28 17 29 18 30 19 31 20 32
REMARK SMILES IDX 72 33 21 34 71 35 22 36 23 37 24 38 65 39 25 40 70 41 64 42
REMARK SMILES IDX 66 43 26 44 69 45 63 46 62 47 27 49 53 50 36 51 52 52 37 53
REMARK SMILES IDX 40 54 51 55 67 56 38 57 39 58 50 60 68 61 41 62 28 63 29 64
REMARK SMILES IDX 34 65 30 66 31 67 33 68 35 69 32 70 54 71 55 72 60 73 56 74
REMARK SMILES IDX 57 75 59 76 61 77 58 78 42 79 43 80 48 81 44 82 45 83 47 84
REMARK SMILES IDX 49 85 46 86
REMARK H PARENT 66 48 40 59
REMARK Flexibility Score: inf
ROOT
ATOM      1  C   UNL     1      -9.532  -4.044   2.011  1.00  0.00     0.274 C 
ENDROOT
BRANCH   1   2
ATOM      2  O   UNL     1      -8.166  -3.658   1.775  1.00  0.00    -0.462 OA
BRANCH   2   3
ATOM      3  C   UNL     1      -7.208  -4.542   2.147  1.00  0.00     0.309 C 
ATOM      4  O   UNL     1      -7.410  -5.584   2.760  1.00  0.00    -0.252 OA
BRANCH   3   5
ATOM      5  C   UNL     1      -5.825  -4.136   1.685  1.00  0.00     0.103 C 
ATOM      6  N   UNL     1      -3.476  -2.623   1.269  1.00  0.00    -0.356 N 
ATOM      7  C   UNL     1      -4.387  -2.788   0.147  1.00  0.00     0.119 C 
ATOM      8  C   UNL     1      -3.486  -3.570   2.371  1.00  0.00     0.119 C 
ATOM      9  C   UNL     1      -5.807  -3.014   0.642  1.00  0.00     0.037 C 
ATOM     10  C   UNL     1      -4.920  -3.779   2.864  1.00  0.00     0.037 C 
BRANCH   6  11
ATOM     11  C   UNL     1      -2.807  -1.426   1.392  1.00  0.00     0.132 A 
ATOM     12  C   UNL     1      -0.788  -0.200   1.469  1.00  0.00     0.049 A 
ATOM     13  C   UNL     1      -1.428  -1.424   1.476  1.00  0.00     0.071 A 
ATOM     14  N   UNL     1      -1.474   0.957   1.414  1.00  0.00    -0.233 NA
ATOM     15  C   UNL     1      -2.816   0.860   1.394  1.00  0.00     0.161 A 
ATOM     16  N   UNL     1      -3.513  -0.287   1.364  1.00  0.00    -0.211 NA
BRANCH  12  17
ATOM     17  C   UNL     1       0.725  -0.138   1.432  1.00  0.00     0.032 C 
ATOM     18  C   UNL     1       1.203   0.045  -0.008  1.00  0.00     0.014 C 
ATOM     19  C   UNL     1       1.273   0.970   2.333  1.00  0.00     0.014 C 
ENDBRANCH  12  17
BRANCH  15  20
ATOM     20  C   UNL     1      -3.575   2.112   1.446  1.00  0.00     0.019 A 
ATOM     21  C   UNL     1      -3.312   3.158   0.542  1.00  0.00     0.015 A 
ATOM     22  C   UNL     1      -4.572   2.310   2.421  1.00  0.00     0.015 A 
ATOM     23  C   UNL     1      -4.021   4.360   0.609  1.00  0.00     0.040 A 
ATOM     24  C   UNL     1      -5.269   3.518   2.501  1.00  0.00     0.040 A 
ATOM     25  C   UNL     1      -4.988   4.530   1.592  1.00  0.00     0.123 A 
ATOM     26  F   UNL     1      -5.657   5.688   1.666  1.00  0.00    -0.207 F 
ENDBRANCH  15  20
ENDBRANCH   6  11
ENDBRANCH   3   5
ENDBRANCH   2   3
ENDBRANCH   1   2
BRANCH   1  27
ATOM     27  C   UNL     1     -10.205  -4.421   0.692  1.00  0.00     0.275 C 
BRANCH  27  28
ATOM     28  O   UNL     1      -9.600  -5.604   0.132  1.00  0.00    -0.458 OA
BRANCH  28  29
ATOM     29  C   UNL     1      -8.811  -5.407  -0.950  1.00  0.00     0.338 C 
ATOM     30  O   UNL     1      -8.569  -4.363  -1.525  1.00  0.00    -0.246 OA
BRANCH  29  31
ATOM     31  C   UNL     1      -8.175  -6.683  -1.308  1.00  0.00     0.060 A 
ATOM     32  C   UNL     1      -6.886  -6.938  -0.839  1.00  0.00     0.016 A 
ATOM     33  C   UNL     1      -8.815  -7.589  -2.153  1.00  0.00     0.016 A 
ATOM     34  C   UNL     1      -6.228  -8.110  -1.201  1.00  0.00     0.010 A 
ATOM     35  C   UNL     1      -8.161  -8.775  -2.503  1.00  0.00     0.010 A 
ATOM     36  C   UNL     1      -6.864  -9.043  -2.029  1.00  0.00    -0.014 A 
BRANCH  36  37
ATOM     37  C   UNL     1      -6.175 -10.306  -2.388  1.00  0.00     0.031 A 
ATOM     38  C   UNL     1      -5.658 -10.520  -3.780  1.00  0.00     0.074 A 
ATOM     39  C   UNL     1      -6.017 -11.263  -1.453  1.00  0.00     0.049 A 
ATOM     40  N   UNL     1      -5.134 -11.596  -4.309  1.00  0.00    -0.248 NA
ATOM     41  C   UNL     1      -5.742  -9.375  -4.699  1.00  0.00     0.031 C 
ATOM     42  C   UNL     1      -6.440 -11.157  -0.056  1.00  0.00     0.029 A 
ATOM     43  N   UNL     1      -5.466 -12.516  -1.542  1.00  0.00    -0.354 N 
ATOM     44  C   UNL     1      -4.846 -11.268  -5.627  1.00  0.00     0.074 A 
ATOM     45  C   UNL     1      -5.259  -9.894  -5.821  1.00  0.00     0.031 C 
ATOM     46  C   UNL     1      -6.135 -12.299   0.581  1.00  0.00     0.029 A 
ATOM     47  C   UNL     1      -5.544 -13.232  -0.372  1.00  0.00     0.049 A 
ATOM     48  H   UNL     1      -5.054 -12.868  -2.364  1.00  0.00     0.167 HD
ATOM     49  C   UNL     1      -4.289 -12.046  -6.585  1.00  0.00     0.037 A 
ATOM     50  C   UNL     1      -5.212 -14.510  -0.109  1.00  0.00     0.037 A 
ATOM     51  C   UNL     1      -3.859 -13.405  -6.385  1.00  0.00     0.049 A 
ATOM     52  C   UNL     1      -4.656 -15.368  -1.209  1.00  0.00     0.074 A 
ATOM     53  C   UNL     1      -3.252 -14.260  -7.289  1.00  0.00     0.029 A 
ATOM     54  N   UNL     1      -3.993 -14.108  -5.197  1.00  0.00    -0.354 N 
ATOM     55  N   UNL     1      -4.391 -15.049  -2.452  1.00  0.00    -0.248 NA
ATOM     56  C   UNL     1      -4.370 -16.771  -0.874  1.00  0.00     0.031 C 
ATOM     57  C   UNL     1      -3.051 -15.493  -6.658  1.00  0.00     0.029 A 
ATOM     58  C   UNL     1      -3.503 -15.394  -5.353  1.00  0.00     0.049 A 
ATOM     59  H   UNL     1      -4.378 -13.746  -4.367  1.00  0.00     0.167 HD
ATOM     60  C   UNL     1      -3.900 -16.204  -3.044  1.00  0.00     0.074 A 
ATOM     61  C   UNL     1      -3.884 -17.227  -2.020  1.00  0.00     0.031 C 
ATOM     62  C   UNL     1      -3.501 -16.401  -4.324  1.00  0.00     0.037 A 
BRANCH  49  63
ATOM     63  C   UNL     1      -4.132 -11.456  -7.953  1.00  0.00     0.057 A 
ATOM     64  C   UNL     1      -3.114 -10.543  -8.252  1.00  0.00     0.134 A 
ATOM     65  C   UNL     1      -4.975 -11.853  -8.998  1.00  0.00     0.134 A 
ATOM     66  F   UNL     1      -2.281 -10.115  -7.291  1.00  0.00    -0.206 F 
ATOM     67  C   UNL     1      -2.946 -10.037  -9.542  1.00  0.00     0.040 A 
ATOM     68  C   UNL     1      -4.806 -11.368 -10.296  1.00  0.00     0.040 A 
ATOM     69  F   UNL     1      -5.968 -12.728  -8.777  1.00  0.00    -0.206 F 
ATOM     70  C   UNL     1      -3.789 -10.456 -10.570  1.00  0.00     0.006 A 
ENDBRANCH  49  63
BRANCH  50  71
ATOM     71  C   UNL     1      -5.437 -15.071   1.245  1.00  0.00     0.057 A 
ATOM     72  C   UNL     1      -4.365 -15.387   2.086  1.00  0.00     0.134 A 
ATOM     73  C   UNL     1      -6.729 -15.322   1.722  1.00  0.00     0.134 A 
ATOM     74  F   UNL     1      -3.104 -15.192   1.673  1.00  0.00    -0.206 F 
ATOM     75  C   UNL     1      -4.568 -15.944   3.349  1.00  0.00     0.040 A 
ATOM     76  C   UNL     1      -6.948 -15.857   2.992  1.00  0.00     0.040 A 
ATOM     77  F   UNL     1      -7.798 -15.043   0.962  1.00  0.00    -0.206 F 
ATOM     78  C   UNL     1      -5.864 -16.175   3.807  1.00  0.00     0.006 A 
ENDBRANCH  50  71
BRANCH  62  79
ATOM     79  C   UNL     1      -3.006 -17.770  -4.678  1.00  0.00     0.057 A 
ATOM     80  C   UNL     1      -3.889 -18.841  -4.864  1.00  0.00     0.134 A 
ATOM     81  C   UNL     1      -1.640 -18.013  -4.860  1.00  0.00     0.134 A 
ATOM     82  F   UNL     1      -5.208 -18.673  -4.688  1.00  0.00    -0.206 F 
ATOM     83  C   UNL     1      -3.426 -20.113  -5.202  1.00  0.00     0.040 A 
ATOM     84  C   UNL     1      -1.167 -19.276  -5.218  1.00  0.00     0.040 A 
ATOM     85  F   UNL     1      -0.745 -17.026  -4.701  1.00  0.00    -0.206 F 
ATOM     86  C   UNL     1      -2.062 -20.332  -5.385  1.00  0.00     0.006 A 
ENDBRANCH  62  79
ENDBRANCH  36  37
ENDBRANCH  29  31
ENDBRANCH  28  29
ENDBRANCH  27  28
ENDBRANCH   1  27
TORSDOF 14
