REMARK SMILES O=C(OCCOC(=O)c1ccc(-c2ccn(C(F)F)c(=O)c2)cc1O)c1ccc(-c2c3nc(c(-c4c(F)cccc4F)c4ccc([nH]4)c(-c4c(F)cccc4F)c4nc(c(-c5c(F)cccc5F)c5ccc2[nH]5)C=C4)C=C3)cc1
REMARK SMILES IDX 4 1 3 2 2 3 1 4 26 5 27 6 79 7 28 8 78 9 29 10 30 11 31 12
REMARK SMILES IDX 72 13 32 14 77 15 71 16 73 17 33 18 76 19 70 20 69 21 34 23
REMARK SMILES IDX 60 24 43 25 59 26 44 27 47 28 58 29 74 30 45 31 46 32 57 34
REMARK SMILES IDX 75 35 48 36 35 37 36 38 41 39 37 40 38 41 40 42 42 43 39 44
REMARK SMILES IDX 61 45 62 46 67 47 63 48 64 49 66 50 68 51 65 52 49 53 50 54
REMARK SMILES IDX 55 55 51 56 52 57 54 58 56 59 53 60 5 61 6 62 7 63 8 64 9 65
REMARK SMILES IDX 10 66 24 67 11 68 23 69 12 70 25 71 13 73 14 74 22 75 15 76
REMARK SMILES IDX 20 77 16 78 21 79 17 80 18 81 19 82
REMARK H PARENT 73 22 47 33 25 72
REMARK Flexibility Score: inf
ROOT
ATOM      1  C   UNL     1       4.196  -1.041  -0.801  1.00  0.00     0.275 C 
ENDROOT
BRANCH   1   2
ATOM      2  O   UNL     1       3.184  -1.081   0.221  1.00  0.00    -0.458 OA
BRANCH   2   3
ATOM      3  C   UNL     1       3.019  -0.282   1.301  1.00  0.00     0.338 C 
ATOM      4  O   UNL     1       2.246  -0.634   2.191  1.00  0.00    -0.246 OA
BRANCH   3   5
ATOM      5  C   UNL     1       3.601   1.090   1.400  1.00  0.00     0.060 A 
ATOM      6  C   UNL     1       2.795   2.054   2.026  1.00  0.00     0.016 A 
ATOM      7  C   UNL     1       4.870   1.484   0.967  1.00  0.00     0.016 A 
ATOM      8  C   UNL     1       3.198   3.389   2.111  1.00  0.00     0.010 A 
ATOM      9  C   UNL     1       5.279   2.823   1.053  1.00  0.00     0.010 A 
ATOM     10  C   UNL     1       4.436   3.793   1.599  1.00  0.00    -0.014 A 
BRANCH  10  11
ATOM     11  C   UNL     1       4.896   5.191   1.776  1.00  0.00     0.031 A 
ATOM     12  C   UNL     1       5.020   6.146   0.625  1.00  0.00     0.074 A 
ATOM     13  C   UNL     1       5.228   5.593   3.016  1.00  0.00     0.049 A 
ATOM     14  N   UNL     1       5.192   7.444   0.648  1.00  0.00    -0.248 NA
ATOM     15  C   UNL     1       4.927   5.586  -0.730  1.00  0.00     0.031 C 
ATOM     16  C   UNL     1       5.205   4.745   4.209  1.00  0.00     0.029 A 
ATOM     17  N   UNL     1       5.670   6.805   3.472  1.00  0.00    -0.354 N 
ATOM     18  C   UNL     1       5.115   7.865  -0.671  1.00  0.00     0.074 A 
ATOM     19  C   UNL     1       4.966   6.678  -1.484  1.00  0.00     0.031 C 
ATOM     20  C   UNL     1       5.630   5.460   5.261  1.00  0.00     0.029 A 
ATOM     21  C   UNL     1       5.974   6.803   4.810  1.00  0.00     0.049 A 
ATOM     22  H   UNL     1       5.760   7.599   2.898  1.00  0.00     0.167 HD
ATOM     23  C   UNL     1       5.156   9.129  -1.157  1.00  0.00     0.037 A 
ATOM     24  C   UNL     1       6.495   7.773   5.581  1.00  0.00     0.037 A 
ATOM     25  C   UNL     1       5.523  10.279  -0.370  1.00  0.00     0.049 A 
ATOM     26  C   UNL     1       6.751   9.121   4.976  1.00  0.00     0.074 A 
ATOM     27  C   UNL     1       5.658  11.598  -0.767  1.00  0.00     0.029 A 
ATOM     28  N   UNL     1       5.897  10.225   0.966  1.00  0.00    -0.354 N 
ATOM     29  N   UNL     1       6.508   9.541   3.757  1.00  0.00    -0.248 NA
ATOM     30  C   UNL     1       7.350  10.132   5.855  1.00  0.00     0.031 C 
ATOM     31  C   UNL     1       6.201  12.322   0.302  1.00  0.00     0.029 A 
ATOM     32  C   UNL     1       6.342  11.468   1.384  1.00  0.00     0.049 A 
ATOM     33  H   UNL     1       5.852   9.422   1.532  1.00  0.00     0.167 HD
ATOM     34  C   UNL     1       6.897  10.873   3.729  1.00  0.00     0.074 A 
ATOM     35  C   UNL     1       7.384  11.191   5.058  1.00  0.00     0.031 C 
ATOM     36  C   UNL     1       6.853  11.756   2.701  1.00  0.00     0.037 A 
BRANCH  23  37
ATOM     37  C   UNL     1       4.824   9.328  -2.607  1.00  0.00     0.057 A 
ATOM     38  C   UNL     1       5.808   9.662  -3.545  1.00  0.00     0.134 A 
ATOM     39  C   UNL     1       3.499   9.249  -3.061  1.00  0.00     0.134 A 
ATOM     40  F   UNL     1       7.095   9.750  -3.178  1.00  0.00    -0.206 F 
ATOM     41  C   UNL     1       5.486   9.922  -4.879  1.00  0.00     0.040 A 
ATOM     42  C   UNL     1       3.167   9.497  -4.395  1.00  0.00     0.040 A 
ATOM     43  F   UNL     1       2.508   8.916  -2.219  1.00  0.00    -0.206 F 
ATOM     44  C   UNL     1       4.162   9.842  -5.307  1.00  0.00     0.006 A 
ENDBRANCH  23  37
BRANCH  24  45
ATOM     45  C   UNL     1       6.824   7.483   6.997  1.00  0.00     0.057 A 
ATOM     46  C   UNL     1       7.858   6.598   7.330  1.00  0.00     0.134 A 
ATOM     47  C   UNL     1       6.110   8.067   8.047  1.00  0.00     0.134 A 
ATOM     48  F   UNL     1       8.575   6.000   6.367  1.00  0.00    -0.206 F 
ATOM     49  C   UNL     1       8.161   6.294   8.657  1.00  0.00     0.040 A 
ATOM     50  C   UNL     1       6.420   7.792   9.380  1.00  0.00     0.040 A 
ATOM     51  F   UNL     1       5.123   8.937   7.791  1.00  0.00    -0.206 F 
ATOM     52  C   UNL     1       7.444   6.898   9.687  1.00  0.00     0.006 A 
ENDBRANCH  24  45
BRANCH  36  53
ATOM     53  C   UNL     1       7.350  13.142   2.986  1.00  0.00     0.057 A 
ATOM     54  C   UNL     1       6.459  14.217   3.078  1.00  0.00     0.134 A 
ATOM     55  C   UNL     1       8.712  13.409   3.177  1.00  0.00     0.134 A 
ATOM     56  F   UNL     1       5.143  14.031   2.894  1.00  0.00    -0.206 F 
ATOM     57  C   UNL     1       6.903  15.509   3.360  1.00  0.00     0.040 A 
ATOM     58  C   UNL     1       9.165  14.692   3.487  1.00  0.00     0.040 A 
ATOM     59  F   UNL     1       9.615  12.419   3.116  1.00  0.00    -0.206 F 
ATOM     60  C   UNL     1       8.259  15.747   3.576  1.00  0.00     0.006 A 
ENDBRANCH  36  53
ENDBRANCH  10  11
ENDBRANCH   3   5
ENDBRANCH   2   3
ENDBRANCH   1   2
BRANCH   1  61
ATOM     61  C   UNL     1       3.837  -0.192  -2.020  1.00  0.00     0.275 C 
BRANCH  61  62
ATOM     62  O   UNL     1       3.314   1.097  -1.674  1.00  0.00    -0.458 OA
BRANCH  62  63
ATOM     63  C   UNL     1       1.966   1.229  -1.794  1.00  0.00     0.342 C 
ATOM     64  O   UNL     1       1.174   0.363  -2.128  1.00  0.00    -0.246 OA
BRANCH  63  65
ATOM     65  C   UNL     1       1.542   2.553  -1.300  1.00  0.00     0.101 A 
ATOM     66  C   UNL     1       0.568   2.591  -0.295  1.00  0.00     0.020 A 
ATOM     67  C   UNL     1       2.065   3.747  -1.797  1.00  0.00     0.130 A 
ATOM     68  C   UNL     1       0.188   3.813   0.273  1.00  0.00     0.010 A 
ATOM     69  C   UNL     1       1.668   4.969  -1.243  1.00  0.00     0.055 A 
ATOM     70  C   UNL     1       0.754   5.012  -0.179  1.00  0.00    -0.014 A 
BRANCH  67  71
ATOM     71  O   UNL     1       2.958   3.733  -2.831  1.00  0.00    -0.507 OA
ATOM     72  H   UNL     1       3.228   2.918  -3.207  1.00  0.00     0.293 HD
ENDBRANCH  67  71
BRANCH  70  73
ATOM     73  C   UNL     1       0.404   6.315   0.430  1.00  0.00    -0.011 A 
ATOM     74  C   UNL     1      -0.113   7.423  -0.352  1.00  0.00     0.027 A 
ATOM     75  C   UNL     1       0.603   6.500   1.748  1.00  0.00     0.080 A 
ATOM     76  C   UNL     1      -0.387   8.599   0.222  1.00  0.00     0.095 A 
ATOM     77  C   UNL     1       0.284   7.799   2.408  1.00  0.00     0.255 A 
ATOM     78  N   UNL     1      -0.198   8.794   1.577  1.00  0.00    -0.258 N 
ATOM     79  O   UNL     1       0.448   7.892   3.621  1.00  0.00    -0.269 OA
BRANCH  78  80
ATOM     80  C   UNL     1      -0.516  10.060   2.186  1.00  0.00     0.451 C 
ATOM     81  F   UNL     1      -1.488   9.918   3.121  1.00  0.00    -0.185 F 
ATOM     82  F   UNL     1       0.567  10.608   2.786  1.00  0.00    -0.185 F 
ENDBRANCH  78  80
ENDBRANCH  70  73
ENDBRANCH  63  65
ENDBRANCH  62  63
ENDBRANCH  61  62
ENDBRANCH   1  61
TORSDOF 14
