REMARK SMILES O=C(COc1ccccc1/C=C1/SC(=S)N(c2ccc(F)c(Cl)c2)C1=O)OCCOC(=O)c1ccc(-c2c3nc(c(-c4c(F)cccc4F)c4ccc([nH]4)c(-c4c(F)cccc4F)c4nc(c(-c5c(F)cccc5F)c5ccc2[nH]5)C=C4)C=C3)cc1
REMARK SMILES IDX 28 1 27 2 2 3 1 4 3 5 4 6 5 7 6 8 10 9 7 10 9 11 8 12 11 13
REMARK SMILES IDX 12 14 13 15 25 16 14 17 16 18 26 19 15 20 17 21 18 22 24 23
REMARK SMILES IDX 19 24 22 25 20 26 23 27 21 28 29 29 30 30 31 31 32 32 33 33
REMARK SMILES IDX 34 34 86 35 35 36 85 37 36 38 37 39 38 40 79 41 39 42 84 43
REMARK SMILES IDX 78 44 80 45 40 46 83 47 77 48 76 49 41 51 67 52 50 53 66 54
REMARK SMILES IDX 51 55 54 56 65 57 81 58 52 59 53 60 64 62 82 63 55 64 42 65
REMARK SMILES IDX 43 66 48 67 44 68 45 69 47 70 49 71 46 72 68 73 69 74 74 75
REMARK SMILES IDX 70 76 71 77 73 78 75 79 72 80 56 81 57 82 62 83 58 84 59 85
REMARK SMILES IDX 61 86 63 87 60 88
REMARK H PARENT 80 50 54 61
REMARK Flexibility Score: inf
ROOT
ATOM      1  C   UNL     1       4.674   0.857   0.551  1.00  0.00     0.274 C 
ENDROOT
BRANCH   1   2
ATOM      2  O   UNL     1       3.268   0.823   0.223  1.00  0.00    -0.460 OA
BRANCH   2   3
ATOM      3  C   UNL     1       2.486  -0.284   0.276  1.00  0.00     0.344 C 
ATOM      4  O   UNL     1       1.261  -0.180   0.255  1.00  0.00    -0.248 OA
BRANCH   3   5
ATOM      5  C   UNL     1       3.159  -1.642   0.296  1.00  0.00     0.352 C 
BRANCH   5   6
ATOM      6  O   UNL     1       3.906  -1.869  -0.898  1.00  0.00    -0.481 OA
BRANCH   6   7
ATOM      7  C   UNL     1       3.182  -2.636  -1.780  1.00  0.00     0.127 A 
ATOM      8  C   UNL     1       3.376  -4.019  -1.734  1.00  0.00     0.047 A 
ATOM      9  C   UNL     1       2.311  -2.058  -2.723  1.00  0.00     0.018 A 
ATOM     10  C   UNL     1       2.651  -4.848  -2.585  1.00  0.00     0.004 A 
ATOM     11  C   UNL     1       1.570  -2.909  -3.553  1.00  0.00     0.012 A 
ATOM     12  C   UNL     1       1.739  -4.295  -3.483  1.00  0.00     0.001 A 
BRANCH   9  13
ATOM     13  C   UNL     1       2.095  -0.607  -2.844  1.00  0.00     0.033 C 
ATOM     14  C   UNL     1       3.038   0.316  -3.084  1.00  0.00     0.081 C 
ATOM     15  S   UNL     1       2.752   2.009  -2.960  1.00  0.00    -0.054 SA
ATOM     16  C   UNL     1       4.481   0.074  -3.359  1.00  0.00     0.270 C 
ATOM     17  C   UNL     1       4.476   2.382  -2.861  1.00  0.00     0.152 C 
ATOM     18  N   UNL     1       5.218   1.232  -3.099  1.00  0.00    -0.261 N 
ATOM     19  O   UNL     1       4.916  -1.002  -3.749  1.00  0.00    -0.268 OA
ATOM     20  S   UNL     1       4.994   3.952  -2.602  1.00  0.00    -0.051 S 
BRANCH  18  21
ATOM     21  C   UNL     1       6.647   1.154  -3.099  1.00  0.00     0.052 A 
ATOM     22  C   UNL     1       7.311   0.462  -4.127  1.00  0.00     0.030 A 
ATOM     23  C   UNL     1       7.413   1.660  -2.037  1.00  0.00     0.050 A 
ATOM     24  C   UNL     1       8.693   0.268  -4.092  1.00  0.00     0.043 A 
ATOM     25  C   UNL     1       8.793   1.436  -1.987  1.00  0.00     0.078 A 
ATOM     26  C   UNL     1       9.426   0.744  -3.014  1.00  0.00     0.141 A 
ATOM     27  Cl  UNL     1       9.685   1.982  -0.618  1.00  0.00    -0.081 Cl
ATOM     28  F   UNL     1      10.746   0.511  -2.976  1.00  0.00    -0.205 F 
ENDBRANCH  18  21
ENDBRANCH   9  13
ENDBRANCH   6   7
ENDBRANCH   5   6
ENDBRANCH   3   5
ENDBRANCH   2   3
ENDBRANCH   1   2
BRANCH   1  29
ATOM     29  C   UNL     1       4.883   1.418   1.954  1.00  0.00     0.275 C 
BRANCH  29  30
ATOM     30  O   UNL     1       4.368   0.469   2.894  1.00  0.00    -0.458 OA
BRANCH  30  31
ATOM     31  C   UNL     1       3.081   0.675   3.265  1.00  0.00     0.338 C 
ATOM     32  O   UNL     1       2.406   1.669   3.071  1.00  0.00    -0.246 OA
BRANCH  31  33
ATOM     33  C   UNL     1       2.550  -0.609   3.757  1.00  0.00     0.060 A 
ATOM     34  C   UNL     1       1.227  -0.941   3.441  1.00  0.00     0.016 A 
ATOM     35  C   UNL     1       3.348  -1.481   4.507  1.00  0.00     0.016 A 
ATOM     36  C   UNL     1       0.672  -2.114   3.939  1.00  0.00     0.010 A 
ATOM     37  C   UNL     1       2.792  -2.652   5.012  1.00  0.00     0.010 A 
ATOM     38  C   UNL     1       1.437  -2.933   4.779  1.00  0.00    -0.014 A 
BRANCH  38  39
ATOM     39  C   UNL     1       0.743  -3.892   5.659  1.00  0.00     0.031 A 
ATOM     40  C   UNL     1       0.336  -3.401   7.022  1.00  0.00     0.074 A 
ATOM     41  C   UNL     1       0.470  -5.143   5.257  1.00  0.00     0.049 A 
ATOM     42  N   UNL     1      -0.292  -4.027   7.980  1.00  0.00    -0.248 NA
ATOM     43  C   UNL     1       0.697  -2.009   7.348  1.00  0.00     0.031 C 
ATOM     44  C   UNL     1       0.806  -5.707   3.952  1.00  0.00     0.029 A 
ATOM     45  N   UNL     1      -0.156  -6.164   5.920  1.00  0.00    -0.354 N 
ATOM     46  C   UNL     1      -0.402  -3.107   9.016  1.00  0.00     0.074 A 
ATOM     47  C   UNL     1       0.261  -1.897   8.591  1.00  0.00     0.031 C 
ATOM     48  C   UNL     1       0.382  -6.983   3.910  1.00  0.00     0.029 A 
ATOM     49  C   UNL     1      -0.240  -7.322   5.188  1.00  0.00     0.049 A 
ATOM     50  H   UNL     1      -0.512  -6.076   6.833  1.00  0.00     0.167 HD
ATOM     51  C   UNL     1      -1.018  -3.254  10.211  1.00  0.00     0.037 A 
ATOM     52  C   UNL     1      -0.765  -8.514   5.527  1.00  0.00     0.037 A 
ATOM     53  C   UNL     1      -1.666  -4.466  10.626  1.00  0.00     0.049 A 
ATOM     54  C   UNL     1      -1.408  -8.667   6.882  1.00  0.00     0.074 A 
ATOM     55  C   UNL     1      -2.327  -4.732  11.810  1.00  0.00     0.029 A 
ATOM     56  N   UNL     1      -1.726  -5.621   9.860  1.00  0.00    -0.354 N 
ATOM     57  N   UNL     1      -1.547  -7.781   7.840  1.00  0.00    -0.248 NA
ATOM     58  C   UNL     1      -1.981  -9.983   7.195  1.00  0.00     0.031 C 
ATOM     59  C   UNL     1      -2.751  -6.065  11.778  1.00  0.00     0.029 A 
ATOM     60  C   UNL     1      -2.400  -6.611  10.552  1.00  0.00     0.049 A 
ATOM     61  H   UNL     1      -1.345  -5.721   8.958  1.00  0.00     0.167 HD
ATOM     62  C   UNL     1      -2.259  -8.417   8.849  1.00  0.00     0.074 A 
ATOM     63  C   UNL     1      -2.526  -9.763   8.383  1.00  0.00     0.031 C 
ATOM     64  C   UNL     1      -2.664  -7.935  10.051  1.00  0.00     0.037 A 
BRANCH  51  65
ATOM     65  C   UNL     1      -0.984  -2.082  11.146  1.00  0.00     0.057 A 
ATOM     66  C   UNL     1      -1.717  -0.913  10.896  1.00  0.00     0.134 A 
ATOM     67  C   UNL     1      -0.197  -2.115  12.303  1.00  0.00     0.134 A 
ATOM     68  F   UNL     1      -2.471  -0.807   9.791  1.00  0.00    -0.206 F 
ATOM     69  C   UNL     1      -1.647   0.190  11.749  1.00  0.00     0.040 A 
ATOM     70  C   UNL     1      -0.140  -1.028  13.178  1.00  0.00     0.040 A 
ATOM     71  F   UNL     1       0.534  -3.200  12.599  1.00  0.00    -0.206 F 
ATOM     72  C   UNL     1      -0.860   0.131  12.897  1.00  0.00     0.006 A 
ENDBRANCH  51  65
BRANCH  52  73
ATOM     73  C   UNL     1      -0.735  -9.645   4.567  1.00  0.00     0.057 A 
ATOM     74  C   UNL     1      -1.909 -10.122   3.973  1.00  0.00     0.134 A 
ATOM     75  C   UNL     1       0.463 -10.291   4.237  1.00  0.00     0.134 A 
ATOM     76  F   UNL     1      -3.090  -9.557   4.264  1.00  0.00    -0.206 F 
ATOM     77  C   UNL     1      -1.898 -11.214   3.104  1.00  0.00     0.040 A 
ATOM     78  C   UNL     1       0.491 -11.369   3.351  1.00  0.00     0.040 A 
ATOM     79  F   UNL     1       1.623  -9.879   4.767  1.00  0.00    -0.206 F 
ATOM     80  C   UNL     1      -0.694 -11.839   2.788  1.00  0.00     0.006 A 
ENDBRANCH  52  73
BRANCH  64  81
ATOM     81  C   UNL     1      -3.485  -8.848  10.913  1.00  0.00     0.057 A 
ATOM     82  C   UNL     1      -2.927  -9.951  11.569  1.00  0.00     0.134 A 
ATOM     83  C   UNL     1      -4.847  -8.591  11.117  1.00  0.00     0.134 A 
ATOM     84  F   UNL     1      -1.631 -10.256  11.408  1.00  0.00    -0.206 F 
ATOM     85  C   UNL     1      -3.703 -10.786  12.375  1.00  0.00     0.040 A 
ATOM     86  C   UNL     1      -5.626  -9.401  11.942  1.00  0.00     0.040 A 
ATOM     87  F   UNL     1      -5.439  -7.541  10.527  1.00  0.00    -0.206 F 
ATOM     88  C   UNL     1      -5.055 -10.508  12.568  1.00  0.00     0.006 A 
ENDBRANCH  64  81
ENDBRANCH  38  39
ENDBRANCH  31  33
ENDBRANCH  30  31
ENDBRANCH  29  30
ENDBRANCH   1  29
TORSDOF 15
