REMARK SMILES COc1ccc(/C=C(\Sc2nc(C)n[nH]2)C(=O)OCCOC(=O)c2ccc(-c3c4nc(c(-c5c(F)cccc5F)c5ccc([nH]5)c(-c5c(F)cccc5F)c5nc(c(-c6c(F)cccc6F)c6ccc3[nH]6)C=C5)C=C4)cc2)c(OC)c1
REMARK SMILES IDX 19 1 18 2 16 3 17 4 8 5 7 6 6 7 3 8 4 9 81 10 5 11 78 12
REMARK SMILES IDX 2 13 1 14 79 15 80 16 9 17 10 18 11 19 15 20 12 21 14 22
REMARK SMILES IDX 13 24 20 25 21 26 22 27 23 28 24 29 25 30 77 31 26 32 76 33
REMARK SMILES IDX 27 34 28 35 29 36 70 37 30 38 75 39 69 40 71 41 31 42 74 43
REMARK SMILES IDX 68 44 67 45 32 47 58 48 41 49 57 50 42 51 45 52 56 53 72 54
REMARK SMILES IDX 43 55 44 56 55 58 73 59 46 60 33 61 34 62 39 63 35 64 36 65
REMARK SMILES IDX 38 66 40 67 37 68 59 69 60 70 65 71 61 72 62 73 64 74 66 75
REMARK SMILES IDX 63 76 47 77 48 78 53 79 49 80 50 81 52 82 54 83 51 84
REMARK H PARENT 15 23 71 46 45 57
REMARK Flexibility Score: inf
ROOT
ATOM      1  C   UNL     1       1.264   7.162   8.201  1.00  0.00     0.275 C 
ENDROOT
BRANCH   1   2
ATOM      2  O   UNL     1       0.814   6.469   7.028  1.00  0.00    -0.458 OA
BRANCH   2   3
ATOM      3  C   UNL     1       1.762   5.952   6.195  1.00  0.00     0.345 C 
ATOM      4  O   UNL     1       2.960   6.170   6.285  1.00  0.00    -0.246 OA
BRANCH   3   5
ATOM      5  C   UNL     1       1.140   4.995   5.191  1.00  0.00     0.101 C 
ATOM      6  C   UNL     1       1.975   4.000   4.806  1.00  0.00     0.035 C 
BRANCH   6   7
ATOM      7  C   UNL     1       1.809   2.869   3.871  1.00  0.00     0.018 A 
ATOM      8  C   UNL     1       1.236   1.157   1.736  1.00  0.00     0.122 A 
ATOM      9  C   UNL     1       0.377   1.222   2.826  1.00  0.00     0.047 A 
ATOM     10  C   UNL     1       2.473   1.786   1.790  1.00  0.00     0.093 A 
ATOM     11  C   UNL     1       0.674   2.060   3.905  1.00  0.00     0.016 A 
ATOM     12  C   UNL     1       2.789   2.584   2.898  1.00  0.00     0.129 A 
BRANCH   8  13
ATOM     13  O   UNL     1       0.737   0.633   0.577  1.00  0.00    -0.497 OA
ATOM     14  C   UNL     1       1.417  -0.535   0.145  1.00  0.00     0.278 C 
ENDBRANCH   8  13
BRANCH  12  15
ATOM     15  O   UNL     1       4.035   3.153   3.020  1.00  0.00    -0.496 OA
ATOM     16  C   UNL     1       5.082   2.185   2.868  1.00  0.00     0.278 C 
ENDBRANCH  12  15
ENDBRANCH   6   7
BRANCH   5  17
ATOM     17  S   UNL     1      -0.521   5.358   4.838  1.00  0.00    -0.043 SA
BRANCH  17  18
ATOM     18  C   UNL     1      -0.951   4.561   3.395  1.00  0.00     0.188 A 
ATOM     19  N   UNL     1      -1.929   3.696   3.262  1.00  0.00    -0.206 NA
ATOM     20  N   UNL     1      -0.436   4.865   2.176  1.00  0.00    -0.254 N 
ATOM     21  C   UNL     1      -1.931   3.443   1.916  1.00  0.00     0.148 A 
ATOM     22  N   UNL     1      -1.062   4.174   1.202  1.00  0.00    -0.158 NA
ATOM     23  H   UNL     1       0.296   5.505   2.023  1.00  0.00     0.192 HD
ATOM     24  C   UNL     1      -2.790   2.395   1.330  1.00  0.00     0.092 C 
ENDBRANCH  17  18
ENDBRANCH   5  17
ENDBRANCH   3   5
ENDBRANCH   2   3
ENDBRANCH   1   2
BRANCH   1  25
ATOM     25  C   UNL     1       1.320   6.217   9.394  1.00  0.00     0.275 C 
BRANCH  25  26
ATOM     26  O   UNL     1       2.424   5.312   9.303  1.00  0.00    -0.458 OA
BRANCH  26  27
ATOM     27  C   UNL     1       2.146   4.130   8.718  1.00  0.00     0.338 C 
ATOM     28  O   UNL     1       1.163   3.842   8.046  1.00  0.00    -0.246 OA
BRANCH  27  29
ATOM     29  C   UNL     1       3.124   3.128   9.139  1.00  0.00     0.060 A 
ATOM     30  C   UNL     1       3.216   1.945   8.398  1.00  0.00     0.016 A 
ATOM     31  C   UNL     1       3.763   3.272  10.377  1.00  0.00     0.016 A 
ATOM     32  C   UNL     1       3.866   0.860   8.954  1.00  0.00     0.010 A 
ATOM     33  C   UNL     1       4.407   2.188  10.931  1.00  0.00     0.010 A 
ATOM     34  C   UNL     1       4.405   0.975  10.240  1.00  0.00    -0.014 A 
BRANCH  34  35
ATOM     35  C   UNL     1       5.034  -0.194  10.827  1.00  0.00     0.031 A 
ATOM     36  C   UNL     1       6.331  -0.589  10.219  1.00  0.00     0.074 A 
ATOM     37  C   UNL     1       4.571  -0.766  11.955  1.00  0.00     0.049 A 
ATOM     38  N   UNL     1       6.687  -1.741   9.753  1.00  0.00    -0.248 NA
ATOM     39  C   UNL     1       7.343   0.468  10.050  1.00  0.00     0.031 C 
ATOM     40  C   UNL     1       3.506  -0.284  12.839  1.00  0.00     0.029 A 
ATOM     41  N   UNL     1       5.061  -1.847  12.619  1.00  0.00    -0.354 N 
ATOM     42  C   UNL     1       8.021  -1.604   9.380  1.00  0.00     0.074 A 
ATOM     43  C   UNL     1       8.340  -0.204   9.478  1.00  0.00     0.031 C 
ATOM     44  C   UNL     1       3.588  -0.934  14.021  1.00  0.00     0.029 A 
ATOM     45  C   UNL     1       4.624  -1.950  13.930  1.00  0.00     0.049 A 
ATOM     46  H   UNL     1       5.673  -2.498  12.206  1.00  0.00     0.167 HD
ATOM     47  C   UNL     1       8.837  -2.676   9.195  1.00  0.00     0.037 A 
ATOM     48  C   UNL     1       5.144  -2.752  14.890  1.00  0.00     0.037 A 
ATOM     49  C   UNL     1       8.099  -3.884   8.957  1.00  0.00     0.049 A 
ATOM     50  C   UNL     1       5.952  -3.803  14.222  1.00  0.00     0.074 A 
ATOM     51  C   UNL     1       7.184  -4.285   8.003  1.00  0.00     0.029 A 
ATOM     52  N   UNL     1       8.000  -4.804   9.970  1.00  0.00    -0.354 N 
ATOM     53  N   UNL     1       5.456  -4.776  13.511  1.00  0.00    -0.248 NA
ATOM     54  C   UNL     1       7.367  -3.534  14.009  1.00  0.00     0.031 C 
ATOM     55  C   UNL     1       6.254  -5.106   8.704  1.00  0.00     0.029 A 
ATOM     56  C   UNL     1       6.681  -5.178  10.030  1.00  0.00     0.049 A 
ATOM     57  H   UNL     1       8.731  -5.132  10.542  1.00  0.00     0.167 HD
ATOM     58  C   UNL     1       6.364  -4.958  12.478  1.00  0.00     0.074 A 
ATOM     59  C   UNL     1       7.566  -4.243  12.896  1.00  0.00     0.031 C 
ATOM     60  C   UNL     1       5.970  -5.433  11.260  1.00  0.00     0.037 A 
BRANCH  47  61
ATOM     61  C   UNL     1      10.302  -2.666   9.535  1.00  0.00     0.057 A 
ATOM     62  C   UNL     1      11.134  -3.704   9.086  1.00  0.00     0.134 A 
ATOM     63  C   UNL     1      10.864  -1.820  10.513  1.00  0.00     0.134 A 
ATOM     64  F   UNL     1      10.696  -4.595   8.183  1.00  0.00    -0.206 F 
ATOM     65  C   UNL     1      12.418  -3.909   9.604  1.00  0.00     0.040 A 
ATOM     66  C   UNL     1      12.163  -1.984  10.999  1.00  0.00     0.040 A 
ATOM     67  F   UNL     1      10.154  -0.858  11.116  1.00  0.00    -0.206 F 
ATOM     68  C   UNL     1      12.937  -3.048  10.564  1.00  0.00     0.006 A 
ENDBRANCH  47  61
BRANCH  48  69
ATOM     69  C   UNL     1       5.222  -2.501  16.345  1.00  0.00     0.057 A 
ATOM     70  C   UNL     1       5.464  -3.544  17.249  1.00  0.00     0.134 A 
ATOM     71  C   UNL     1       5.312  -1.198  16.867  1.00  0.00     0.134 A 
ATOM     72  F   UNL     1       5.447  -4.819  16.837  1.00  0.00    -0.206 F 
ATOM     73  C   UNL     1       5.789  -3.305  18.591  1.00  0.00     0.040 A 
ATOM     74  C   UNL     1       5.623  -0.946  18.207  1.00  0.00     0.040 A 
ATOM     75  F   UNL     1       5.188  -0.122  16.077  1.00  0.00    -0.206 F 
ATOM     76  C   UNL     1       5.876  -2.002  19.072  1.00  0.00     0.006 A 
ENDBRANCH  48  69
BRANCH  60  77
ATOM     77  C   UNL     1       4.582  -5.995  11.135  1.00  0.00     0.057 A 
ATOM     78  C   UNL     1       3.415  -5.245  11.345  1.00  0.00     0.134 A 
ATOM     79  C   UNL     1       4.418  -7.292  10.634  1.00  0.00     0.134 A 
ATOM     80  F   UNL     1       3.473  -3.960  11.717  1.00  0.00    -0.206 F 
ATOM     81  C   UNL     1       2.143  -5.779  11.116  1.00  0.00     0.040 A 
ATOM     82  C   UNL     1       3.154  -7.825  10.368  1.00  0.00     0.040 A 
ATOM     83  F   UNL     1       5.490  -8.048  10.348  1.00  0.00    -0.206 F 
ATOM     84  C   UNL     1       2.010  -7.072  10.620  1.00  0.00     0.006 A 
ENDBRANCH  60  77
ENDBRANCH  34  35
ENDBRANCH  27  29
ENDBRANCH  26  27
ENDBRANCH  25  26
ENDBRANCH   1  25
TORSDOF 16
