REMARK SMILES COc1ccc(-n2ccnc2C[N@@H+]2CCn3nc(C(=O)OCCOC(=O)c4ccc(-c5c6nc(c(-c7c(F)cccc7F)c7ccc([nH]7)c(-c7c(F)cccc7F)c7nc(c(-c8c(F)cccc8F)c8ccc5[nH]8)C=C7)C=C6)cc4)cc3C2)cc1
REMARK SMILES IDX 22 1 21 2 19 3 20 4 18 5 13 6 14 7 83 8 15 10 82 11 16 12
REMARK SMILES IDX 81 13 17 14 12 15 11 16 7 17 8 18 9 19 10 20 6 21 3 22 4 23
REMARK SMILES IDX 85 24 5 25 84 26 2 27 1 28 23 29 24 30 25 31 26 32 27 33
REMARK SMILES IDX 28 34 80 35 29 36 79 37 30 38 31 39 32 40 73 41 33 42 78 43
REMARK SMILES IDX 72 44 74 45 34 46 77 47 71 48 70 49 35 51 61 52 44 53 60 54
REMARK SMILES IDX 45 55 48 56 59 57 75 58 46 59 47 60 58 62 76 63 49 64 36 65
REMARK SMILES IDX 37 66 42 67 38 68 39 69 41 70 43 71 40 72 62 73 63 74 68 75
REMARK SMILES IDX 64 76 65 77 67 78 69 79 66 80 50 81 51 82 56 83 52 84 53 85
REMARK SMILES IDX 55 86 57 87 54 88
REMARK H PARENT 13 9 74 50 48 61
REMARK Flexibility Score: inf
ROOT
ATOM      1  C   UNL     1      -1.560   1.752  -1.473  1.00  0.00     0.275 C 
ENDROOT
BRANCH   1   2
ATOM      2  O   UNL     1      -1.491   2.627  -0.302  1.00  0.00    -0.457 OA
BRANCH   2   3
ATOM      3  C   UNL     1      -1.943   2.152   0.914  1.00  0.00     0.358 C 
ATOM      4  O   UNL     1      -2.608   1.126   1.020  1.00  0.00    -0.244 OA
BRANCH   3   5
ATOM      5  C   UNL     1      -1.467   2.942   2.094  1.00  0.00     0.170 A 
ATOM      6  N   UNL     1       0.572   6.109   4.522  1.00  0.00    -0.322 N 
ATOM      7  C   UNL     1       1.524   4.993   4.706  1.00  0.00     0.286 C 
ATOM      8  C   UNL     1      -0.828   5.638   4.599  1.00  0.00     0.319 C 
ATOM      9  H   UNL     1       0.834   6.713   5.301  1.00  0.00     0.348 HD
ATOM     10  C   UNL     1       1.020   3.531   4.511  1.00  0.00     0.206 C 
ATOM     11  C   UNL     1      -1.048   4.528   3.631  1.00  0.00     0.094 A 
ATOM     12  N   UNL     1      -0.185   3.484   3.705  1.00  0.00    -0.257 N 
ATOM     13  C   UNL     1      -1.845   4.254   2.534  1.00  0.00     0.067 A 
ATOM     14  N   UNL     1      -0.549   2.436   2.957  1.00  0.00    -0.165 NA
BRANCH   6  15
ATOM     15  C   UNL     1       0.709   6.979   3.330  1.00  0.00     0.339 C 
BRANCH  15  16
ATOM     16  C   UNL     1       2.067   7.418   2.845  1.00  0.00     0.168 A 
ATOM     17  N   UNL     1       2.779   6.750   1.858  1.00  0.00    -0.299 N 
ATOM     18  C   UNL     1       3.854   7.522   1.513  1.00  0.00     0.113 A 
ATOM     19  C   UNL     1       3.770   8.630   2.316  1.00  0.00     0.132 A 
ATOM     20  N   UNL     1       2.676   8.556   3.143  1.00  0.00    -0.236 NA
BRANCH  17  21
ATOM     21  C   UNL     1       2.486   5.499   1.312  1.00  0.00     0.047 A 
ATOM     22  C   UNL     1       1.584   2.970   0.675  1.00  0.00     0.119 A 
ATOM     23  C   UNL     1       1.029   4.112   0.073  1.00  0.00     0.048 A 
ATOM     24  C   UNL     1       2.688   3.105   1.500  1.00  0.00     0.048 A 
ATOM     25  C   UNL     1       1.433   5.387   0.423  1.00  0.00     0.030 A 
ATOM     26  C   UNL     1       3.174   4.378   1.788  1.00  0.00     0.030 A 
BRANCH  22  27
ATOM     27  O   UNL     1       0.988   1.788   0.368  1.00  0.00    -0.497 OA
ATOM     28  C   UNL     1       0.994   0.678   1.264  1.00  0.00     0.278 C 
ENDBRANCH  22  27
ENDBRANCH  17  21
ENDBRANCH  15  16
ENDBRANCH   6  15
ENDBRANCH   3   5
ENDBRANCH   2   3
ENDBRANCH   1   2
BRANCH   1  29
ATOM     29  C   UNL     1      -0.310   1.834  -2.398  1.00  0.00     0.275 C 
BRANCH  29  30
ATOM     30  O   UNL     1       0.661   0.824  -2.058  1.00  0.00    -0.458 OA
BRANCH  30  31
ATOM     31  C   UNL     1       1.963   1.196  -2.114  1.00  0.00     0.338 C 
ATOM     32  O   UNL     1       2.430   2.246  -2.551  1.00  0.00    -0.246 OA
BRANCH  31  33
ATOM     33  C   UNL     1       2.779   0.174  -1.443  1.00  0.00     0.060 A 
ATOM     34  C   UNL     1       3.798   0.590  -0.565  1.00  0.00     0.016 A 
ATOM     35  C   UNL     1       2.522  -1.182  -1.670  1.00  0.00     0.016 A 
ATOM     36  C   UNL     1       4.606  -0.345   0.046  1.00  0.00     0.010 A 
ATOM     37  C   UNL     1       3.376  -2.119  -1.125  1.00  0.00     0.010 A 
ATOM     38  C   UNL     1       4.455  -1.671  -0.352  1.00  0.00    -0.014 A 
BRANCH  38  39
ATOM     39  C   UNL     1       5.656  -2.484  -0.315  1.00  0.00     0.031 A 
ATOM     40  C   UNL     1       5.846  -3.355   0.862  1.00  0.00     0.074 A 
ATOM     41  C   UNL     1       6.427  -2.432  -1.424  1.00  0.00     0.049 A 
ATOM     42  N   UNL     1       6.831  -3.348   1.702  1.00  0.00    -0.248 NA
ATOM     43  C   UNL     1       4.747  -4.256   1.238  1.00  0.00     0.031 C 
ATOM     44  C   UNL     1       6.137  -1.706  -2.673  1.00  0.00     0.029 A 
ATOM     45  N   UNL     1       7.554  -3.126  -1.732  1.00  0.00    -0.354 N 
ATOM     46  C   UNL     1       6.573  -4.394   2.583  1.00  0.00     0.074 A 
ATOM     47  C   UNL     1       5.195  -4.757   2.389  1.00  0.00     0.031 C 
ATOM     48  C   UNL     1       6.908  -2.188  -3.665  1.00  0.00     0.029 A 
ATOM     49  C   UNL     1       7.810  -3.168  -3.106  1.00  0.00     0.049 A 
ATOM     50  H   UNL     1       8.131  -3.554  -1.058  1.00  0.00     0.167 HD
ATOM     51  C   UNL     1       7.580  -5.072   3.198  1.00  0.00     0.037 A 
ATOM     52  C   UNL     1       8.608  -4.082  -3.711  1.00  0.00     0.037 A 
ATOM     53  C   UNL     1       8.811  -4.327   3.169  1.00  0.00     0.049 A 
ATOM     54  C   UNL     1       9.508  -4.618  -2.650  1.00  0.00     0.074 A 
ATOM     55  C   UNL     1       9.207  -3.103   3.671  1.00  0.00     0.029 A 
ATOM     56  N   UNL     1       9.748  -4.668   2.224  1.00  0.00    -0.354 N 
ATOM     57  N   UNL     1      10.415  -3.895  -2.046  1.00  0.00    -0.248 NA
ATOM     58  C   UNL     1       9.052  -5.786  -1.907  1.00  0.00     0.031 C 
ATOM     59  C   UNL     1      10.073  -2.559   2.680  1.00  0.00     0.029 A 
ATOM     60  C   UNL     1      10.217  -3.506   1.665  1.00  0.00     0.049 A 
ATOM     61  H   UNL     1      10.032  -5.582   1.989  1.00  0.00     0.167 HD
ATOM     62  C   UNL     1      10.331  -4.261  -0.707  1.00  0.00     0.074 A 
ATOM     63  C   UNL     1       9.523  -5.478  -0.695  1.00  0.00     0.031 C 
ATOM     64  C   UNL     1      10.660  -3.388   0.293  1.00  0.00     0.037 A 
BRANCH  51  65
ATOM     65  C   UNL     1       7.530  -6.549   3.500  1.00  0.00     0.057 A 
ATOM     66  C   UNL     1       8.521  -7.123   4.312  1.00  0.00     0.134 A 
ATOM     67  C   UNL     1       6.709  -7.473   2.816  1.00  0.00     0.134 A 
ATOM     68  F   UNL     1       9.380  -6.354   4.997  1.00  0.00    -0.206 F 
ATOM     69  C   UNL     1       8.715  -8.509   4.393  1.00  0.00     0.040 A 
ATOM     70  C   UNL     1       6.857  -8.856   2.934  1.00  0.00     0.040 A 
ATOM     71  F   UNL     1       5.790  -7.096   1.920  1.00  0.00    -0.206 F 
ATOM     72  C   UNL     1       7.883  -9.380   3.700  1.00  0.00     0.006 A 
ENDBRANCH  51  65
BRANCH  52  73
ATOM     73  C   UNL     1       8.347  -4.754  -5.008  1.00  0.00     0.057 A 
ATOM     74  C   UNL     1       9.336  -5.516  -5.642  1.00  0.00     0.134 A 
ATOM     75  C   UNL     1       7.052  -4.861  -5.557  1.00  0.00     0.134 A 
ATOM     76  F   UNL     1      10.592  -5.523  -5.173  1.00  0.00    -0.206 F 
ATOM     77  C   UNL     1       9.054  -6.339  -6.743  1.00  0.00     0.040 A 
ATOM     78  C   UNL     1       6.760  -5.664  -6.663  1.00  0.00     0.040 A 
ATOM     79  F   UNL     1       5.997  -4.256  -4.992  1.00  0.00    -0.206 F 
ATOM     80  C   UNL     1       7.761  -6.419  -7.254  1.00  0.00     0.006 A 
ENDBRANCH  52  73
BRANCH  64  81
ATOM     81  C   UNL     1      11.302  -2.079  -0.091  1.00  0.00     0.057 A 
ATOM     82  C   UNL     1      10.652  -1.087  -0.842  1.00  0.00     0.134 A 
ATOM     83  C   UNL     1      12.532  -1.731   0.475  1.00  0.00     0.134 A 
ATOM     84  F   UNL     1       9.421  -1.283  -1.325  1.00  0.00    -0.206 F 
ATOM     85  C   UNL     1      11.219   0.173  -1.058  1.00  0.00     0.040 A 
ATOM     86  C   UNL     1      13.094  -0.464   0.297  1.00  0.00     0.040 A 
ATOM     87  F   UNL     1      13.182  -2.600   1.265  1.00  0.00    -0.206 F 
ATOM     88  C   UNL     1      12.442   0.491  -0.479  1.00  0.00     0.006 A 
ENDBRANCH  64  81
ENDBRANCH  38  39
ENDBRANCH  31  33
ENDBRANCH  30  31
ENDBRANCH  29  30
ENDBRANCH   1  29
TORSDOF 15
