REMARK SMILES CS(=O)(=O)c1ccc(/C=C(/C(=O)OCCOC(=O)c2ccc(-c3c4nc(c(-c5c(F)cccc5F)c5ccc([nH]5)c(-c5c(F)cccc5F)c5nc(c(-c6c(F)cccc6F)c6ccc3[nH]6)C=C5)C=C4)cc2)c2ccc(F)cc2)cc1
REMARK SMILES IDX 14 1 13 2 11 3 12 4 10 5 9 6 8 7 5 8 6 9 81 10 7 11 80 12
REMARK SMILES IDX 2 13 1 14 3 15 4 16 73 17 74 18 79 19 75 20 78 21 76 22
REMARK SMILES IDX 77 23 15 24 16 25 17 26 18 27 19 28 20 29 72 30 21 31 71 32
REMARK SMILES IDX 22 33 23 34 24 35 65 36 25 37 70 38 64 39 66 40 26 41 69 42
REMARK SMILES IDX 63 43 62 44 27 46 53 47 36 48 52 49 37 50 40 51 51 52 67 53
REMARK SMILES IDX 38 54 39 55 50 57 68 58 41 59 28 60 29 61 34 62 30 63 31 64
REMARK SMILES IDX 33 65 35 66 32 67 54 68 55 69 60 70 56 71 57 72 59 73 61 74
REMARK SMILES IDX 58 75 42 76 43 77 48 78 44 79 45 80 47 81 49 82 46 83
REMARK H PARENT 66 45 40 56
REMARK Flexibility Score: inf
ROOT
ATOM      1  C   UNL     1       2.488   7.636   7.272  1.00  0.00     0.275 C 
ENDROOT
BRANCH   1   2
ATOM      2  O   UNL     1       1.966   6.705   6.300  1.00  0.00    -0.458 OA
BRANCH   2   3
ATOM      3  C   UNL     1       2.707   5.582   6.113  1.00  0.00     0.338 C 
ATOM      4  O   UNL     1       3.769   5.330   6.666  1.00  0.00    -0.246 OA
BRANCH   3   5
ATOM      5  C   UNL     1       2.047   4.628   5.171  1.00  0.00     0.067 C 
ATOM      6  C   UNL     1       1.501   5.107   4.030  1.00  0.00     0.024 C 
BRANCH   6   7
ATOM      7  C   UNL     1       1.039   4.325   2.859  1.00  0.00    -0.025 A 
ATOM      8  C   UNL     1       0.477   2.794   0.572  1.00  0.00     0.067 A 
ATOM      9  C   UNL     1       0.076   2.337   1.823  1.00  0.00     0.021 A 
ATOM     10  C   UNL     1       1.075   4.047   0.437  1.00  0.00     0.021 A 
ATOM     11  C   UNL     1       0.333   3.118   2.951  1.00  0.00     0.009 A 
ATOM     12  C   UNL     1       1.354   4.806   1.579  1.00  0.00     0.009 A 
BRANCH   8  13
ATOM     13  S   UNL     1       0.241   1.760  -0.852  1.00  0.00     0.175 S 
ATOM     14  C   UNL     1       1.036   0.229  -0.426  1.00  0.00     0.163 C 
ATOM     15  O   UNL     1       0.987   2.343  -1.944  1.00  0.00    -0.224 OA
ATOM     16  O   UNL     1      -1.189   1.519  -0.960  1.00  0.00    -0.224 OA
ENDBRANCH   8  13
ENDBRANCH   6   7
BRANCH   5  17
ATOM     17  C   UNL     1       2.171   3.184   5.454  1.00  0.00    -0.011 A 
ATOM     18  C   UNL     1       1.133   2.525   6.137  1.00  0.00     0.012 A 
ATOM     19  C   UNL     1       3.272   2.448   4.998  1.00  0.00     0.012 A 
ATOM     20  C   UNL     1       1.173   1.141   6.311  1.00  0.00     0.040 A 
ATOM     21  C   UNL     1       3.318   1.066   5.192  1.00  0.00     0.040 A 
ATOM     22  C   UNL     1       2.264   0.425   5.835  1.00  0.00     0.123 A 
ATOM     23  F   UNL     1       2.301  -0.903   5.998  1.00  0.00    -0.207 F 
ENDBRANCH   5  17
ENDBRANCH   3   5
ENDBRANCH   2   3
ENDBRANCH   1   2
BRANCH   1  24
ATOM     24  C   UNL     1       1.762   7.489   8.608  1.00  0.00     0.275 C 
BRANCH  24  25
ATOM     25  O   UNL     1       2.013   6.184   9.164  1.00  0.00    -0.458 OA
BRANCH  25  26
ATOM     26  C   UNL     1       0.925   5.404   9.347  1.00  0.00     0.338 C 
ATOM     27  O   UNL     1      -0.243   5.702   9.143  1.00  0.00    -0.246 OA
BRANCH  26  28
ATOM     28  C   UNL     1       1.319   4.063   9.815  1.00  0.00     0.060 A 
ATOM     29  C   UNL     1       2.267   3.331   9.109  1.00  0.00     0.016 A 
ATOM     30  C   UNL     1       0.605   3.456  10.848  1.00  0.00     0.016 A 
ATOM     31  C   UNL     1       2.388   1.959   9.335  1.00  0.00     0.010 A 
ATOM     32  C   UNL     1       0.818   2.103  11.146  1.00  0.00     0.010 A 
ATOM     33  C   UNL     1       1.661   1.312  10.347  1.00  0.00    -0.014 A 
BRANCH  33  34
ATOM     34  C   UNL     1       1.718  -0.178  10.510  1.00  0.00     0.031 A 
ATOM     35  C   UNL     1       0.445  -0.996  10.576  1.00  0.00     0.074 A 
ATOM     36  C   UNL     1       2.896  -0.836  10.559  1.00  0.00     0.049 A 
ATOM     37  N   UNL     1       0.277  -2.245  10.941  1.00  0.00    -0.248 NA
ATOM     38  C   UNL     1      -0.807  -0.318  10.204  1.00  0.00     0.031 C 
ATOM     39  C   UNL     1       4.221  -0.224  10.454  1.00  0.00     0.029 A 
ATOM     40  N   UNL     1       3.168  -2.178  10.691  1.00  0.00    -0.354 N 
ATOM     41  C   UNL     1      -1.096  -2.469  10.932  1.00  0.00     0.074 A 
ATOM     42  C   UNL     1      -1.718  -1.233  10.507  1.00  0.00     0.031 C 
ATOM     43  C   UNL     1       5.154  -1.185  10.444  1.00  0.00     0.029 A 
ATOM     44  C   UNL     1       4.510  -2.474  10.668  1.00  0.00     0.049 A 
ATOM     45  H   UNL     1       2.467  -2.862  10.793  1.00  0.00     0.167 HD
ATOM     46  C   UNL     1      -1.776  -3.596  11.254  1.00  0.00     0.037 A 
ATOM     47  C   UNL     1       5.166  -3.635  10.858  1.00  0.00     0.037 A 
ATOM     48  C   UNL     1      -1.161  -4.859  11.574  1.00  0.00     0.049 A 
ATOM     49  C   UNL     1       4.396  -4.875  11.203  1.00  0.00     0.074 A 
ATOM     50  C   UNL     1      -1.773  -6.060  11.899  1.00  0.00     0.029 A 
ATOM     51  N   UNL     1       0.204  -5.097  11.573  1.00  0.00    -0.354 N 
ATOM     52  N   UNL     1       3.101  -5.039  11.313  1.00  0.00    -0.248 NA
ATOM     53  C   UNL     1       5.183  -6.083  11.489  1.00  0.00     0.031 C 
ATOM     54  C   UNL     1      -0.776  -7.018  12.115  1.00  0.00     0.029 A 
ATOM     55  C   UNL     1       0.453  -6.423  11.890  1.00  0.00     0.049 A 
ATOM     56  H   UNL     1       0.894  -4.424  11.376  1.00  0.00     0.167 HD
ATOM     57  C   UNL     1       2.918  -6.364  11.685  1.00  0.00     0.074 A 
ATOM     58  C   UNL     1       4.232  -6.968  11.753  1.00  0.00     0.031 C 
ATOM     59  C   UNL     1       1.762  -7.016  11.958  1.00  0.00     0.037 A 
BRANCH  46  60
ATOM     60  C   UNL     1      -3.275  -3.519  11.315  1.00  0.00     0.057 A 
ATOM     61  C   UNL     1      -4.073  -3.470  10.167  1.00  0.00     0.134 A 
ATOM     62  C   UNL     1      -3.929  -3.558  12.555  1.00  0.00     0.134 A 
ATOM     63  F   UNL     1      -3.512  -3.418   8.950  1.00  0.00    -0.206 F 
ATOM     64  C   UNL     1      -5.468  -3.448  10.250  1.00  0.00     0.040 A 
ATOM     65  C   UNL     1      -5.321  -3.561  12.650  1.00  0.00     0.040 A 
ATOM     66  F   UNL     1      -3.223  -3.616  13.695  1.00  0.00    -0.206 F 
ATOM     67  C   UNL     1      -6.095  -3.502  11.494  1.00  0.00     0.006 A 
ENDBRANCH  46  60
BRANCH  47  68
ATOM     68  C   UNL     1       6.649  -3.661  10.786  1.00  0.00     0.057 A 
ATOM     69  C   UNL     1       7.309  -4.311   9.738  1.00  0.00     0.134 A 
ATOM     70  C   UNL     1       7.438  -3.023  11.751  1.00  0.00     0.134 A 
ATOM     71  F   UNL     1       6.609  -4.964   8.799  1.00  0.00    -0.206 F 
ATOM     72  C   UNL     1       8.703  -4.324   9.651  1.00  0.00     0.040 A 
ATOM     73  C   UNL     1       8.829  -3.003  11.661  1.00  0.00     0.040 A 
ATOM     74  F   UNL     1       6.863  -2.385  12.781  1.00  0.00    -0.206 F 
ATOM     75  C   UNL     1       9.466  -3.658  10.609  1.00  0.00     0.006 A 
ENDBRANCH  47  68
BRANCH  59  76
ATOM     76  C   UNL     1       1.869  -8.461  12.337  1.00  0.00     0.057 A 
ATOM     77  C   UNL     1       2.316  -8.857  13.604  1.00  0.00     0.134 A 
ATOM     78  C   UNL     1       1.506  -9.466  11.433  1.00  0.00     0.134 A 
ATOM     79  F   UNL     1       2.693  -7.940  14.509  1.00  0.00    -0.206 F 
ATOM     80  C   UNL     1       2.418 -10.205  13.952  1.00  0.00     0.040 A 
ATOM     81  C   UNL     1       1.584 -10.817  11.776  1.00  0.00     0.040 A 
ATOM     82  F   UNL     1       1.065  -9.152  10.206  1.00  0.00    -0.206 F 
ATOM     83  C   UNL     1       2.047 -11.189  13.037  1.00  0.00     0.006 A 
ENDBRANCH  59  76
ENDBRANCH  33  34
ENDBRANCH  26  28
ENDBRANCH  25  26
ENDBRANCH  24  25
ENDBRANCH   1  24
TORSDOF 14
