REMARK SMILES Cc1cccc(OC2(C(=O)OCCOC(=O)c3ccc(-c4c5nc(c(-c6c(F)cccc6F)c6ccc([nH]6)c(-c6c(F)cccc6F)c6nc(c(-c7c(F)cccc7F)c7ccc4[nH]7)C=C6)C=C5)cc3)CCN(C(=O)c3cnc[nH]c3=O)CC2)c1
REMARK SMILES IDX 12 1 11 2 9 3 10 4 8 5 71 6 84 7 72 8 83 9 73 10 74 11 75 12
REMARK SMILES IDX 7 13 6 14 1 15 2 16 3 17 85 18 4 19 5 20 76 21 77 22 81 23
REMARK SMILES IDX 78 24 80 25 82 26 79 27 13 29 14 30 15 31 16 32 17 33 18 34
REMARK SMILES IDX 70 35 19 36 69 37 20 38 21 39 22 40 63 41 23 42 68 43 62 44
REMARK SMILES IDX 64 45 24 46 67 47 61 48 60 49 25 51 51 52 34 53 50 54 35 55
REMARK SMILES IDX 38 56 49 57 65 58 36 59 37 60 48 62 66 63 39 64 26 65 27 66
REMARK SMILES IDX 32 67 28 68 29 69 31 70 33 71 30 72 52 73 53 74 58 75 54 76
REMARK SMILES IDX 55 77 57 78 59 79 56 80 40 81 41 82 46 83 42 84 43 85 45 86
REMARK SMILES IDX 47 87 44 88
REMARK H PARENT 80 28 64 50 38 61
REMARK Flexibility Score: inf
ROOT
ATOM      1  C   UNL     1       0.596   5.135  -4.429  1.00  0.00     0.274 C 
ENDROOT
BRANCH   1   2
ATOM      2  O   UNL     1      -0.482   5.270  -3.496  1.00  0.00    -0.459 OA
BRANCH   2   3
ATOM      3  C   UNL     1      -0.207   5.632  -2.241  1.00  0.00     0.350 C 
ATOM      4  O   UNL     1       0.301   6.740  -2.067  1.00  0.00    -0.247 OA
BRANCH   3   5
ATOM      5  C   UNL     1      -0.447   4.499  -0.981  1.00  0.00     0.209 C 
ATOM      6  C   UNL     1       1.301   4.819  -0.419  1.00  0.00     0.082 C 
ATOM      7  C   UNL     1      -0.940   5.549   0.438  1.00  0.00     0.082 C 
ATOM      8  C   UNL     1       1.807   4.634   1.020  1.00  0.00     0.124 C 
ATOM      9  C   UNL     1      -0.431   5.224   1.887  1.00  0.00     0.124 C 
ATOM     10  N   UNL     1       1.005   5.375   1.972  1.00  0.00    -0.338 N 
ATOM     11  C   UNL     1       1.623   6.285   2.810  1.00  0.00     0.261 C 
ATOM     12  O   UNL     1       2.628   6.917   2.498  1.00  0.00    -0.269 OA
BRANCH   5  13
ATOM     13  O   UNL     1      -1.250   2.614  -1.191  1.00  0.00    -0.475 OA
BRANCH  13  14
ATOM     14  C   UNL     1      -0.989   1.029  -0.799  1.00  0.00     0.121 A 
ATOM     15  C   UNL     1       1.963  -1.235   0.233  1.00  0.00     0.044 C 
ATOM     16  C   UNL     1       0.537  -0.855  -0.067  1.00  0.00    -0.047 A 
ATOM     17  C   UNL     1      -0.550  -1.697   0.012  1.00  0.00     0.003 A 
ATOM     18  C   UNL     1       0.292   0.455  -0.472  1.00  0.00     0.050 A 
ATOM     19  C   UNL     1      -1.839  -1.173  -0.220  1.00  0.00     0.004 A 
ATOM     20  C   UNL     1      -2.068   0.187  -0.589  1.00  0.00     0.046 A 
ENDBRANCH  13  14
ENDBRANCH   5  13
BRANCH  11  21
ATOM     21  C   UNL     1       1.072   6.394   4.173  1.00  0.00     0.123 A 
ATOM     22  C   UNL     1       0.368   7.468   4.555  1.00  0.00     0.132 A 
ATOM     23  C   UNL     1       1.346   5.365   5.194  1.00  0.00     0.263 A 
ATOM     24  N   UNL     1      -0.149   7.666   5.814  1.00  0.00    -0.246 NA
ATOM     25  N   UNL     1       0.846   5.637   6.438  1.00  0.00    -0.312 N 
ATOM     26  O   UNL     1       1.964   4.332   4.962  1.00  0.00    -0.269 OA
ATOM     27  C   UNL     1       0.119   6.761   6.695  1.00  0.00     0.199 A 
ATOM     28  H   UNL     1       1.017   5.001   7.170  1.00  0.00     0.171 HD
ENDBRANCH  11  21
ENDBRANCH   3   5
ENDBRANCH   2   3
ENDBRANCH   1   2
BRANCH   1  29
ATOM     29  C   UNL     1       1.919   4.427  -3.961  1.00  0.00     0.275 C 
BRANCH  29  30
ATOM     30  O   UNL     1       1.979   3.015  -3.480  1.00  0.00    -0.458 OA
BRANCH  30  31
ATOM     31  C   UNL     1       1.951   2.551  -2.170  1.00  0.00     0.338 C 
ATOM     32  O   UNL     1       2.868   1.943  -1.649  1.00  0.00    -0.246 OA
BRANCH  31  33
ATOM     33  C   UNL     1       0.606   2.748  -1.533  1.00  0.00     0.060 A 
ATOM     34  C   UNL     1      -0.131   2.906   0.214  1.00  0.00     0.016 A 
ATOM     35  C   UNL     1      -0.446   2.941  -2.910  1.00  0.00     0.016 A 
ATOM     36  C   UNL     1      -1.918   3.465   0.306  1.00  0.00     0.010 A 
ATOM     37  C   UNL     1      -1.996   3.568  -2.741  1.00  0.00     0.010 A 
ATOM     38  C   UNL     1      -2.744   3.965  -1.226  1.00  0.00    -0.014 A 
BRANCH  38  39
ATOM     39  C   UNL     1      -3.777   5.102  -1.603  1.00  0.00     0.031 A 
ATOM     40  C   UNL     1      -3.880   6.537  -1.105  1.00  0.00     0.074 A 
ATOM     41  C   UNL     1      -4.386   5.025  -2.830  1.00  0.00     0.049 A 
ATOM     42  N   UNL     1      -4.992   7.184  -0.863  1.00  0.00    -0.248 NA
ATOM     43  C   UNL     1      -2.732   7.438  -1.038  1.00  0.00     0.031 C 
ATOM     44  C   UNL     1      -4.945   6.091  -3.672  1.00  0.00     0.029 A 
ATOM     45  N   UNL     1      -4.590   3.912  -3.635  1.00  0.00    -0.354 N 
ATOM     46  C   UNL     1      -4.675   8.549  -0.787  1.00  0.00     0.074 A 
ATOM     47  C   UNL     1      -3.245   8.618  -0.688  1.00  0.00     0.031 C 
ATOM     48  C   UNL     1      -5.622   5.548  -4.704  1.00  0.00     0.029 A 
ATOM     49  C   UNL     1      -5.649   4.112  -4.508  1.00  0.00     0.049 A 
ATOM     50  H   UNL     1      -4.052   3.089  -3.591  1.00  0.00     0.167 HD
ATOM     51  C   UNL     1      -5.494   9.570  -1.196  1.00  0.00     0.037 A 
ATOM     52  C   UNL     1      -6.729   3.273  -4.541  1.00  0.00     0.037 A 
ATOM     53  C   UNL     1      -6.532   9.069  -2.074  1.00  0.00     0.049 A 
ATOM     54  C   UNL     1      -7.960   3.991  -4.059  1.00  0.00     0.074 A 
ATOM     55  C   UNL     1      -6.668   9.141  -3.451  1.00  0.00     0.029 A 
ATOM     56  N   UNL     1      -7.482   8.179  -1.618  1.00  0.00    -0.354 N 
ATOM     57  N   UNL     1      -7.915   5.194  -3.569  1.00  0.00    -0.248 NA
ATOM     58  C   UNL     1      -9.305   3.430  -4.016  1.00  0.00     0.031 C 
ATOM     59  C   UNL     1      -7.717   8.279  -3.828  1.00  0.00     0.029 A 
ATOM     60  C   UNL     1      -8.214   7.689  -2.679  1.00  0.00     0.049 A 
ATOM     61  H   UNL     1      -7.617   7.929  -0.676  1.00  0.00     0.167 HD
ATOM     62  C   UNL     1      -9.139   5.556  -3.100  1.00  0.00     0.074 A 
ATOM     63  C   UNL     1      -9.989   4.430  -3.428  1.00  0.00     0.031 C 
ATOM     64  C   UNL     1      -9.299   6.750  -2.465  1.00  0.00     0.037 A 
BRANCH  51  65
ATOM     65  C   UNL     1      -5.180  11.070  -1.118  1.00  0.00     0.057 A 
ATOM     66  C   UNL     1      -5.844  12.022  -1.929  1.00  0.00     0.134 A 
ATOM     67  C   UNL     1      -4.304  11.646  -0.177  1.00  0.00     0.134 A 
ATOM     68  F   UNL     1      -6.795  11.671  -2.804  1.00  0.00    -0.206 F 
ATOM     69  C   UNL     1      -5.599  13.403  -1.869  1.00  0.00     0.040 A 
ATOM     70  C   UNL     1      -4.032  13.027  -0.121  1.00  0.00     0.040 A 
ATOM     71  F   UNL     1      -3.704  10.899   0.761  1.00  0.00    -0.206 F 
ATOM     72  C   UNL     1      -4.676  13.912  -0.974  1.00  0.00     0.006 A 
ENDBRANCH  51  65
BRANCH  52  73
ATOM     73  C   UNL     1      -6.366   1.871  -4.160  1.00  0.00     0.057 A 
ATOM     74  C   UNL     1      -5.563   1.163  -5.076  1.00  0.00     0.134 A 
ATOM     75  C   UNL     1      -6.199   1.593  -2.798  1.00  0.00     0.134 A 
ATOM     76  F   UNL     1      -5.719   1.353  -6.394  1.00  0.00    -0.206 F 
ATOM     77  C   UNL     1      -4.459   0.423  -4.650  1.00  0.00     0.040 A 
ATOM     78  C   UNL     1      -5.082   0.878  -2.368  1.00  0.00     0.040 A 
ATOM     79  F   UNL     1      -6.899   2.260  -1.869  1.00  0.00    -0.206 F 
ATOM     80  C   UNL     1      -4.177   0.343  -3.292  1.00  0.00     0.006 A 
ENDBRANCH  52  73
BRANCH  64  81
ATOM     81  C   UNL     1     -10.504   7.184  -1.686  1.00  0.00     0.057 A 
ATOM     82  C   UNL     1     -11.394   6.296  -1.072  1.00  0.00     0.134 A 
ATOM     83  C   UNL     1     -10.734   8.553  -1.422  1.00  0.00     0.134 A 
ATOM     84  F   UNL     1     -11.208   4.970  -1.116  1.00  0.00    -0.206 F 
ATOM     85  C   UNL     1     -12.494   6.738  -0.330  1.00  0.00     0.040 A 
ATOM     86  C   UNL     1     -11.791   9.002  -0.631  1.00  0.00     0.040 A 
ATOM     87  F   UNL     1      -9.930   9.515  -1.901  1.00  0.00    -0.206 F 
ATOM     88  C   UNL     1     -12.693   8.094  -0.104  1.00  0.00     0.006 A 
ENDBRANCH  64  81
ENDBRANCH  38  39
ENDBRANCH  31  33
ENDBRANCH  30  31
ENDBRANCH  29  30
ENDBRANCH   1  29
TORSDOF 14
