REMARK SMILES C[C@H]1[C@H](C(=O)OCCOC(=O)c2ccc(-c3c4nc(c(-c5c(F)cccc5F)c5ccc([nH]5)c(-c5c(F)cccc5F)c5nc(c(-c6c(F)cccc6F)c6ccc3[nH]6)C=C5)C=C4)cc2)CC[N@@H+]1Cc1ccc(Br)cc1F
REMARK SMILES IDX 7 1 6 2 4 3 5 4 3 5 1 6 2 7 68 8 66 9 67 10 69 12 70 13
REMARK SMILES IDX 71 14 76 15 72 16 75 17 77 18 73 19 74 20 8 21 9 22 10 23
REMARK SMILES IDX 11 24 12 25 13 26 65 27 14 28 64 29 15 30 16 31 17 32 58 33
REMARK SMILES IDX 18 34 63 35 57 36 59 37 19 38 62 39 56 40 55 41 20 43 46 44
REMARK SMILES IDX 29 45 45 46 30 47 33 48 44 49 60 50 31 51 32 52 43 54 61 55
REMARK SMILES IDX 34 56 21 57 22 58 27 59 23 60 24 61 26 62 28 63 25 64 47 65
REMARK SMILES IDX 48 66 53 67 49 68 50 69 52 70 54 71 51 72 35 73 36 74 41 75
REMARK SMILES IDX 37 76 38 77 40 78 42 79 39 80
REMARK H PARENT 68 11 59 42 33 53
REMARK Flexibility Score: inf
ROOT
ATOM      1  C   UNL     1      -0.377   3.088   3.261  1.00  0.00     0.274 C 
ENDROOT
BRANCH   1   2
ATOM      2  O   UNL     1      -0.243   1.990   2.336  1.00  0.00    -0.462 OA
BRANCH   2   3
ATOM      3  C   UNL     1      -0.733   2.165   1.087  1.00  0.00     0.315 C 
ATOM      4  O   UNL     1      -1.349   3.162   0.721  1.00  0.00    -0.252 OA
BRANCH   3   5
ATOM      5  C   UNL     1      -0.420   1.030   0.129  1.00  0.00     0.162 C 
ATOM      6  C   UNL     1       1.730  -0.241  -0.225  1.00  0.00     0.076 C 
ATOM      7  C   UNL     1       0.462  -0.121   0.638  1.00  0.00     0.195 C 
ATOM      8  N   UNL     1      -0.319  -1.354   0.449  1.00  0.00    -0.328 N 
ATOM      9  C   UNL     1      -1.705   0.392  -0.379  1.00  0.00     0.083 C 
ATOM     10  C   UNL     1      -1.367  -1.075  -0.528  1.00  0.00     0.263 C 
ATOM     11  H   UNL     1       0.303  -2.073   0.078  1.00  0.00     0.348 HD
BRANCH   8  12
ATOM     12  C   UNL     1      -0.764  -2.032   1.673  1.00  0.00     0.302 C 
BRANCH  12  13
ATOM     13  C   UNL     1      -1.473  -1.218   2.731  1.00  0.00     0.042 A 
ATOM     14  C   UNL     1      -0.788  -0.810   3.888  1.00  0.00     0.014 A 
ATOM     15  C   UNL     1      -2.821  -0.872   2.611  1.00  0.00     0.133 A 
ATOM     16  C   UNL     1      -1.431  -0.048   4.867  1.00  0.00     0.016 A 
ATOM     17  C   UNL     1      -3.462  -0.082   3.561  1.00  0.00     0.055 A 
ATOM     18  F   UNL     1      -3.532  -1.292   1.555  1.00  0.00    -0.206 F 
ATOM     19  C   UNL     1      -2.760   0.330   4.687  1.00  0.00     0.020 A 
ATOM     20  Br  UNL     1      -3.607   1.423   5.975  1.00  0.00    -0.051 Br
ENDBRANCH  12  13
ENDBRANCH   8  12
ENDBRANCH   3   5
ENDBRANCH   2   3
ENDBRANCH   1   2
BRANCH   1  21
ATOM     21  C   UNL     1       0.994   3.686   3.576  1.00  0.00     0.275 C 
BRANCH  21  22
ATOM     22  O   UNL     1       1.525   4.363   2.424  1.00  0.00    -0.458 OA
BRANCH  22  23
ATOM     23  C   UNL     1       2.272   3.589   1.606  1.00  0.00     0.338 C 
ATOM     24  O   UNL     1       2.603   2.428   1.765  1.00  0.00    -0.246 OA
BRANCH  23  25
ATOM     25  C   UNL     1       2.543   4.337   0.376  1.00  0.00     0.060 A 
ATOM     26  C   UNL     1       1.817   4.016  -0.773  1.00  0.00     0.016 A 
ATOM     27  C   UNL     1       3.553   5.293   0.340  1.00  0.00     0.016 A 
ATOM     28  C   UNL     1       2.120   4.621  -1.984  1.00  0.00     0.010 A 
ATOM     29  C   UNL     1       3.833   5.929  -0.869  1.00  0.00     0.010 A 
ATOM     30  C   UNL     1       3.129   5.585  -2.039  1.00  0.00    -0.014 A 
BRANCH  30  31
ATOM     31  C   UNL     1       3.492   6.218  -3.323  1.00  0.00     0.031 A 
ATOM     32  C   UNL     1       4.832   5.926  -3.926  1.00  0.00     0.074 A 
ATOM     33  C   UNL     1       2.641   7.074  -3.914  1.00  0.00     0.049 A 
ATOM     34  N   UNL     1       5.461   6.551  -4.884  1.00  0.00    -0.248 NA
ATOM     35  C   UNL     1       5.566   4.782  -3.361  1.00  0.00     0.031 C 
ATOM     36  C   UNL     1       1.284   7.374  -3.454  1.00  0.00     0.029 A 
ATOM     37  N   UNL     1       2.805   7.870  -5.018  1.00  0.00    -0.354 N 
ATOM     38  C   UNL     1       6.686   5.909  -5.006  1.00  0.00     0.074 A 
ATOM     39  C   UNL     1       6.710   4.843  -4.028  1.00  0.00     0.031 C 
ATOM     40  C   UNL     1       0.746   8.304  -4.259  1.00  0.00     0.029 A 
ATOM     41  C   UNL     1       1.744   8.713  -5.241  1.00  0.00     0.049 A 
ATOM     42  H   UNL     1       3.604   7.841  -5.593  1.00  0.00     0.167 HD
ATOM     43  C   UNL     1       7.698   6.199  -5.856  1.00  0.00     0.037 A 
ATOM     44  C   UNL     1       1.619   9.739  -6.102  1.00  0.00     0.037 A 
ATOM     45  C   UNL     1       7.639   7.248  -6.839  1.00  0.00     0.049 A 
ATOM     46  C   UNL     1       2.777  10.082  -6.995  1.00  0.00     0.074 A 
ATOM     47  C   UNL     1       8.603   7.629  -7.755  1.00  0.00     0.029 A 
ATOM     48  N   UNL     1       6.546   8.079  -7.035  1.00  0.00    -0.354 N 
ATOM     49  N   UNL     1       3.952   9.505  -7.079  1.00  0.00    -0.248 NA
ATOM     50  C   UNL     1       2.603  11.227  -7.899  1.00  0.00     0.031 C 
ATOM     51  C   UNL     1       8.104   8.714  -8.484  1.00  0.00     0.029 A 
ATOM     52  C   UNL     1       6.815   8.980  -8.050  1.00  0.00     0.049 A 
ATOM     53  H   UNL     1       5.703   8.034  -6.528  1.00  0.00     0.167 HD
ATOM     54  C   UNL     1       4.646  10.196  -8.063  1.00  0.00     0.074 A 
ATOM     55  C   UNL     1       3.760  11.235  -8.547  1.00  0.00     0.031 C 
ATOM     56  C   UNL     1       5.902   9.989  -8.526  1.00  0.00     0.037 A 
BRANCH  43  57
ATOM     57  C   UNL     1       8.960   5.401  -5.730  1.00  0.00     0.057 A 
ATOM     58  C   UNL     1       9.044   4.069  -6.152  1.00  0.00     0.134 A 
ATOM     59  C   UNL     1      10.116   5.984  -5.194  1.00  0.00     0.134 A 
ATOM     60  F   UNL     1       7.969   3.446  -6.657  1.00  0.00    -0.206 F 
ATOM     61  C   UNL     1      10.229   3.339  -6.029  1.00  0.00     0.040 A 
ATOM     62  C   UNL     1      11.311   5.272  -5.088  1.00  0.00     0.040 A 
ATOM     63  F   UNL     1      10.103   7.257  -4.771  1.00  0.00    -0.206 F 
ATOM     64  C   UNL     1      11.368   3.943  -5.501  1.00  0.00     0.006 A 
ENDBRANCH  43  57
BRANCH  44  65
ATOM     65  C   UNL     1       0.368  10.537  -6.124  1.00  0.00     0.057 A 
ATOM     66  C   UNL     1      -0.515  10.465  -7.206  1.00  0.00     0.134 A 
ATOM     67  C   UNL     1       0.018  11.377  -5.059  1.00  0.00     0.134 A 
ATOM     68  F   UNL     1      -0.224   9.694  -8.264  1.00  0.00    -0.206 F 
ATOM     69  C   UNL     1      -1.698  11.206  -7.234  1.00  0.00     0.040 A 
ATOM     70  C   UNL     1      -1.173  12.104  -5.062  1.00  0.00     0.040 A 
ATOM     71  F   UNL     1       0.820  11.486  -3.990  1.00  0.00    -0.206 F 
ATOM     72  C   UNL     1      -2.033  12.023  -6.155  1.00  0.00     0.006 A 
ENDBRANCH  44  65
BRANCH  56  73
ATOM     73  C   UNL     1       6.373  10.863  -9.646  1.00  0.00     0.057 A 
ATOM     74  C   UNL     1       6.786  12.182  -9.429  1.00  0.00     0.134 A 
ATOM     75  C   UNL     1       6.478  10.351 -10.945  1.00  0.00     0.134 A 
ATOM     76  F   UNL     1       6.696  12.731  -8.209  1.00  0.00    -0.206 F 
ATOM     77  C   UNL     1       7.285  12.966 -10.471  1.00  0.00     0.040 A 
ATOM     78  C   UNL     1       6.994  11.117 -11.990  1.00  0.00     0.040 A 
ATOM     79  F   UNL     1       6.104   9.091 -11.213  1.00  0.00    -0.206 F 
ATOM     80  C   UNL     1       7.398  12.430 -11.753  1.00  0.00     0.006 A 
ENDBRANCH  56  73
ENDBRANCH  30  31
ENDBRANCH  23  25
ENDBRANCH  22  23
ENDBRANCH  21  22
ENDBRANCH   1  21
TORSDOF 13
