REMARK SMILES C[C@@H](C(=O)OCCOC(=O)c1ccc(-c2c3nc(c(-c4c(F)cccc4F)c4ccc([nH]4)c(-c4c(F)cccc4F)c4nc(c(-c5c(F)cccc5F)c5ccc2[nH]5)C=C4)C=C3)cc1)c1ccc(C[C@H]2CCC[C@H]2O)cc1-c1ccc(O)cc1
REMARK SMILES IDX 6 1 5 2 3 3 4 4 2 5 1 6 65 7 66 8 77 9 67 10 76 11 68 12
REMARK SMILES IDX 78 13 79 14 84 15 80 16 83 17 81 18 82 19 69 21 70 22 71 23
REMARK SMILES IDX 74 24 72 25 73 26 75 27 7 29 8 30 9 31 10 32 11 33 12 34
REMARK SMILES IDX 64 35 13 36 63 37 14 38 15 39 16 40 57 41 17 42 62 43 56 44
REMARK SMILES IDX 58 45 18 46 61 47 55 48 54 49 19 51 45 52 28 53 44 54 29 55
REMARK SMILES IDX 32 56 43 57 59 58 30 59 31 60 42 62 60 63 33 64 20 65 21 66
REMARK SMILES IDX 26 67 22 68 23 69 25 70 27 71 24 72 46 73 47 74 52 75 48 76
REMARK SMILES IDX 49 77 51 78 53 79 50 80 34 81 35 82 40 83 36 84 37 85 39 86
REMARK SMILES IDX 41 87 38 88
REMARK H PARENT 82 20 75 28 58 50 32 61
REMARK Flexibility Score: inf
ROOT
ATOM      1  C   UNL     1       1.982   2.285   3.128  1.00  0.00     0.274 C 
ENDROOT
BRANCH   1   2
ATOM      2  O   UNL     1       1.628   1.423   2.023  1.00  0.00    -0.462 OA
BRANCH   2   3
ATOM      3  C   UNL     1       1.052   0.225   2.335  1.00  0.00     0.313 C 
ATOM      4  O   UNL     1       0.764  -0.121   3.479  1.00  0.00    -0.252 OA
BRANCH   3   5
ATOM      5  C   UNL     1       0.844  -0.691   1.103  1.00  0.00     0.127 C 
ATOM      6  C   UNL     1       1.454  -0.140  -0.185  1.00  0.00     0.025 C 
BRANCH   5   7
ATOM      7  C   UNL     1      -0.635  -1.050   0.988  1.00  0.00    -0.026 A 
ATOM      8  C   UNL     1      -1.525  -0.159   0.391  1.00  0.00     0.005 A 
ATOM      9  C   UNL     1      -1.180  -2.173   1.644  1.00  0.00    -0.014 A 
ATOM     10  C   UNL     1      -2.878  -0.205   0.708  1.00  0.00     0.004 A 
ATOM     11  C   UNL     1      -2.521  -2.136   2.056  1.00  0.00     0.012 A 
ATOM     12  C   UNL     1      -3.338  -1.069   1.699  1.00  0.00    -0.047 A 
BRANCH   9  13
ATOM     13  C   UNL     1      -0.468  -3.449   1.681  1.00  0.00    -0.018 A 
ATOM     14  C   UNL     1      -0.684  -4.338   0.608  1.00  0.00     0.012 A 
ATOM     15  C   UNL     1       0.421  -3.814   2.694  1.00  0.00     0.012 A 
ATOM     16  C   UNL     1      -0.010  -5.550   0.532  1.00  0.00     0.047 A 
ATOM     17  C   UNL     1       1.108  -5.031   2.615  1.00  0.00     0.047 A 
ATOM     18  C   UNL     1       0.891  -5.882   1.532  1.00  0.00     0.115 A 
BRANCH  18  19
ATOM     19  O   UNL     1       1.557  -7.064   1.406  1.00  0.00    -0.508 OA
ATOM     20  H   UNL     1       1.393  -7.618   0.668  1.00  0.00     0.293 HD
ENDBRANCH  18  19
ENDBRANCH   9  13
BRANCH  12  21
ATOM     21  C   UNL     1      -4.626  -0.778   2.418  1.00  0.00     0.041 C 
BRANCH  21  22
ATOM     22  C   UNL     1      -4.486  -0.180   3.838  1.00  0.00     0.022 C 
ATOM     23  C   UNL     1      -4.092  -1.163   4.939  1.00  0.00     0.007 C 
ATOM     24  C   UNL     1      -3.521   0.993   4.087  1.00  0.00     0.117 C 
ATOM     25  C   UNL     1      -3.798  -0.279   6.151  1.00  0.00     0.003 C 
ATOM     26  C   UNL     1      -3.427   1.101   5.610  1.00  0.00     0.032 C 
BRANCH  24  27
ATOM     27  O   UNL     1      -2.212   0.851   3.568  1.00  0.00    -0.393 OA
ATOM     28  H   UNL     1      -1.782   0.085   3.980  1.00  0.00     0.210 HD
ENDBRANCH  24  27
ENDBRANCH  21  22
ENDBRANCH  12  21
ENDBRANCH   5   7
ENDBRANCH   3   5
ENDBRANCH   2   3
ENDBRANCH   1   2
BRANCH   1  29
ATOM     29  C   UNL     1       1.704   3.756   2.795  1.00  0.00     0.275 C 
BRANCH  29  30
ATOM     30  O   UNL     1       0.291   4.048   2.865  1.00  0.00    -0.458 OA
BRANCH  30  31
ATOM     31  C   UNL     1      -0.336   4.168   1.676  1.00  0.00     0.338 C 
ATOM     32  O   UNL     1       0.184   4.112   0.562  1.00  0.00    -0.246 OA
BRANCH  31  33
ATOM     33  C   UNL     1      -1.799   4.207   1.851  1.00  0.00     0.060 A 
ATOM     34  C   UNL     1      -2.508   3.214   1.189  1.00  0.00     0.016 A 
ATOM     35  C   UNL     1      -2.497   5.185   2.569  1.00  0.00     0.016 A 
ATOM     36  C   UNL     1      -3.893   3.151   1.282  1.00  0.00     0.010 A 
ATOM     37  C   UNL     1      -3.909   5.144   2.625  1.00  0.00     0.010 A 
ATOM     38  C   UNL     1      -4.619   4.114   1.991  1.00  0.00    -0.014 A 
BRANCH  38  39
ATOM     39  C   UNL     1      -6.102   3.943   1.994  1.00  0.00     0.031 A 
ATOM     40  C   UNL     1      -6.856   4.054   0.698  1.00  0.00     0.074 A 
ATOM     41  C   UNL     1      -6.734   3.437   3.073  1.00  0.00     0.049 A 
ATOM     42  N   UNL     1      -8.118   3.813   0.454  1.00  0.00    -0.248 NA
ATOM     43  C   UNL     1      -6.083   4.478  -0.481  1.00  0.00     0.031 C 
ATOM     44  C   UNL     1      -6.101   3.180   4.357  1.00  0.00     0.029 A 
ATOM     45  N   UNL     1      -8.013   2.952   3.237  1.00  0.00    -0.354 N 
ATOM     46  C   UNL     1      -8.304   4.115  -0.887  1.00  0.00     0.074 A 
ATOM     47  C   UNL     1      -7.007   4.459  -1.429  1.00  0.00     0.031 C 
ATOM     48  C   UNL     1      -6.928   2.448   5.120  1.00  0.00     0.029 A 
ATOM     49  C   UNL     1      -8.205   2.292   4.434  1.00  0.00     0.049 A 
ATOM     50  H   UNL     1      -8.723   3.066   2.565  1.00  0.00     0.167 HD
ATOM     51  C   UNL     1      -9.466   4.186  -1.579  1.00  0.00     0.037 A 
ATOM     52  C   UNL     1      -9.289   1.657   4.929  1.00  0.00     0.037 A 
ATOM     53  C   UNL     1     -10.758   3.910  -1.010  1.00  0.00     0.049 A 
ATOM     54  C   UNL     1     -10.577   1.756   4.153  1.00  0.00     0.074 A 
ATOM     55  C   UNL     1     -12.012   4.132  -1.551  1.00  0.00     0.029 A 
ATOM     56  N   UNL     1     -10.957   3.350   0.244  1.00  0.00    -0.354 N 
ATOM     57  N   UNL     1     -10.776   2.214   2.940  1.00  0.00    -0.248 NA
ATOM     58  C   UNL     1     -11.804   1.333   4.844  1.00  0.00     0.031 C 
ATOM     59  C   UNL     1     -12.971   3.744  -0.606  1.00  0.00     0.029 A 
ATOM     60  C   UNL     1     -12.313   3.230   0.500  1.00  0.00     0.049 A 
ATOM     61  H   UNL     1     -10.240   3.079   0.861  1.00  0.00     0.167 HD
ATOM     62  C   UNL     1     -12.151   2.188   2.745  1.00  0.00     0.074 A 
ATOM     63  C   UNL     1     -12.731   1.593   3.932  1.00  0.00     0.031 C 
ATOM     64  C   UNL     1     -12.872   2.657   1.698  1.00  0.00     0.037 A 
BRANCH  51  65
ATOM     65  C   UNL     1      -9.376   4.763  -2.958  1.00  0.00     0.057 A 
ATOM     66  C   UNL     1      -8.878   4.043  -4.050  1.00  0.00     0.134 A 
ATOM     67  C   UNL     1      -9.718   6.106  -3.167  1.00  0.00     0.134 A 
ATOM     68  F   UNL     1      -8.494   2.766  -3.905  1.00  0.00    -0.206 F 
ATOM     69  C   UNL     1      -8.698   4.649  -5.296  1.00  0.00     0.040 A 
ATOM     70  C   UNL     1      -9.563   6.715  -4.411  1.00  0.00     0.040 A 
ATOM     71  F   UNL     1     -10.186   6.853  -2.156  1.00  0.00    -0.206 F 
ATOM     72  C   UNL     1      -9.040   5.989  -5.478  1.00  0.00     0.006 A 
ENDBRANCH  51  65
BRANCH  52  73
ATOM     73  C   UNL     1      -9.252   0.955   6.248  1.00  0.00     0.057 A 
ATOM     74  C   UNL     1      -9.576  -0.406   6.359  1.00  0.00     0.134 A 
ATOM     75  C   UNL     1      -8.925   1.619   7.438  1.00  0.00     0.134 A 
ATOM     76  F   UNL     1      -9.948  -1.103   5.276  1.00  0.00    -0.206 F 
ATOM     77  C   UNL     1      -9.569  -1.071   7.591  1.00  0.00     0.040 A 
ATOM     78  C   UNL     1      -8.866   0.958   8.667  1.00  0.00     0.040 A 
ATOM     79  F   UNL     1      -8.643   2.930   7.428  1.00  0.00    -0.206 F 
ATOM     80  C   UNL     1      -9.195  -0.392   8.747  1.00  0.00     0.006 A 
ENDBRANCH  52  73
BRANCH  64  81
ATOM     81  C   UNL     1     -14.365   2.572   1.812  1.00  0.00     0.057 A 
ATOM     82  C   UNL     1     -15.083   3.420   2.666  1.00  0.00     0.134 A 
ATOM     83  C   UNL     1     -15.092   1.652   1.049  1.00  0.00     0.134 A 
ATOM     84  F   UNL     1     -14.442   4.317   3.432  1.00  0.00    -0.206 F 
ATOM     85  C   UNL     1     -16.471   3.336   2.778  1.00  0.00     0.040 A 
ATOM     86  C   UNL     1     -16.483   1.573   1.137  1.00  0.00     0.040 A 
ATOM     87  F   UNL     1     -14.464   0.818   0.207  1.00  0.00    -0.206 F 
ATOM     88  C   UNL     1     -17.175   2.412   2.008  1.00  0.00     0.006 A 
ENDBRANCH  64  81
ENDBRANCH  38  39
ENDBRANCH  31  33
ENDBRANCH  30  31
ENDBRANCH  29  30
ENDBRANCH   1  29
TORSDOF 17
