REMARK SMILES O=C(Cn1nc(C(=O)OCCOC(=O)c2ccc(-c3c4nc(c(-c5c(F)cccc5F)c5ccc([nH]5)c(-c5c(F)cccc5F)c5nc(c(-c6c(F)cccc6F)c6ccc3[nH]6)C=C5)C=C4)cc2)c2ccccc2c1=O)Nc1ccc2c(c1)C(=O)c1ccccc1C2=O
REMARK SMILES IDX 10 1 9 2 7 3 8 4 6 5 4 6 5 7 75 8 74 9 76 10 69 11 73 12
REMARK SMILES IDX 70 13 72 14 71 15 3 16 2 17 1 18 77 19 78 21 79 22 83 23
REMARK SMILES IDX 80 24 82 25 81 26 84 27 92 28 85 29 86 30 91 31 93 32 87 33
REMARK SMILES IDX 90 34 88 35 89 36 11 37 12 38 13 39 14 40 15 41 16 42 68 43
REMARK SMILES IDX 17 44 67 45 18 46 19 47 20 48 61 49 21 50 66 51 60 52 62 53
REMARK SMILES IDX 22 54 65 55 59 56 58 57 23 59 49 60 32 61 48 62 33 63 36 64
REMARK SMILES IDX 47 65 63 66 34 67 35 68 46 70 64 71 37 72 24 73 25 74 30 75
REMARK SMILES IDX 26 76 27 77 29 78 31 79 28 80 50 81 51 82 56 83 52 84 53 85
REMARK SMILES IDX 55 86 57 87 54 88 38 89 39 90 44 91 40 92 41 93 43 94 45 95
REMARK SMILES IDX 42 96
REMARK H PARENT 77 20 62 58 36 69
REMARK Flexibility Score: inf
ROOT
ATOM      1  C   UNL     1       5.994  -4.673  -4.220  1.00  0.00     0.275 C 
ENDROOT
BRANCH   1   2
ATOM      2  O   UNL     1       5.352  -3.495  -3.680  1.00  0.00    -0.457 OA
BRANCH   2   3
ATOM      3  C   UNL     1       6.149  -2.515  -3.200  1.00  0.00     0.359 C 
ATOM      4  O   UNL     1       7.362  -2.441  -3.265  1.00  0.00    -0.244 OA
BRANCH   3   5
ATOM      5  C   UNL     1       5.297  -1.402  -2.590  1.00  0.00     0.176 A 
ATOM      6  N   UNL     1       3.616  -0.755  -1.125  1.00  0.00    -0.219 N 
ATOM      7  N   UNL     1       4.577  -1.687  -1.537  1.00  0.00    -0.161 NA
ATOM      8  C   UNL     1       3.175   0.207  -2.033  1.00  0.00     0.275 A 
ATOM      9  C   UNL     1       4.203   0.737  -2.935  1.00  0.00     0.051 A 
ATOM     10  O   UNL     1       2.044   0.670  -2.067  1.00  0.00    -0.267 OA
ATOM     11  C   UNL     1       5.292  -0.069  -3.222  1.00  0.00     0.022 A 
ATOM     12  C   UNL     1       4.105   2.036  -3.453  1.00  0.00     0.014 A 
ATOM     13  C   UNL     1       6.310   0.436  -4.030  1.00  0.00     0.011 A 
ATOM     14  C   UNL     1       5.102   2.520  -4.296  1.00  0.00     0.001 A 
ATOM     15  C   UNL     1       6.200   1.718  -4.588  1.00  0.00     0.001 A 
BRANCH   6  16
ATOM     16  C   UNL     1       2.691  -1.216  -0.072  1.00  0.00     0.248 C 
BRANCH  16  17
ATOM     17  C   UNL     1       1.901  -0.141   0.719  1.00  0.00     0.246 C 
ATOM     18  O   UNL     1       0.791  -0.385   1.193  1.00  0.00    -0.273 OA
ATOM     19  N   UNL     1       2.586   1.032   0.985  1.00  0.00    -0.324 N 
ATOM     20  H   UNL     1       3.564   1.015   1.103  1.00  0.00     0.169 HD
BRANCH  19  21
ATOM     21  C   UNL     1       1.884   2.254   1.086  1.00  0.00     0.042 A 
ATOM     22  C   UNL     1       1.614   2.859   2.316  1.00  0.00     0.027 A 
ATOM     23  C   UNL     1       1.695   2.982  -0.084  1.00  0.00     0.039 A 
ATOM     24  C   UNL     1       1.448   4.258   2.362  1.00  0.00     0.015 A 
ATOM     25  C   UNL     1       1.331   4.311  -0.027  1.00  0.00     0.036 A 
ATOM     26  C   UNL     1       1.486   4.982   1.166  1.00  0.00     0.034 A 
ATOM     27  C   UNL     1       1.352   5.075  -1.272  1.00  0.00     0.194 C 
ATOM     28  C   UNL     1       2.272   6.260   1.071  1.00  0.00     0.194 C 
ATOM     29  O   UNL     1       0.526   4.947  -2.160  1.00  0.00    -0.289 OA
ATOM     30  C   UNL     1       2.554   5.897  -1.391  1.00  0.00     0.034 A 
ATOM     31  C   UNL     1       3.053   6.447  -0.210  1.00  0.00     0.034 A 
ATOM     32  O   UNL     1       2.419   7.004   2.028  1.00  0.00    -0.289 OA
ATOM     33  C   UNL     1       3.278   5.842  -2.577  1.00  0.00     0.013 A 
ATOM     34  C   UNL     1       4.344   6.965  -0.223  1.00  0.00     0.013 A 
ATOM     35  C   UNL     1       4.582   6.316  -2.571  1.00  0.00     0.001 A 
ATOM     36  C   UNL     1       5.114   6.876  -1.400  1.00  0.00     0.001 A 
ENDBRANCH  19  21
ENDBRANCH  16  17
ENDBRANCH   6  16
ENDBRANCH   3   5
ENDBRANCH   2   3
ENDBRANCH   1   2
BRANCH   1  37
ATOM     37  C   UNL     1       5.452  -5.010  -5.613  1.00  0.00     0.275 C 
BRANCH  37  38
ATOM     38  O   UNL     1       5.974  -4.062  -6.561  1.00  0.00    -0.458 OA
BRANCH  38  39
ATOM     39  C   UNL     1       5.124  -3.087  -6.957  1.00  0.00     0.338 C 
ATOM     40  O   UNL     1       3.937  -2.978  -6.709  1.00  0.00    -0.246 OA
BRANCH  39  41
ATOM     41  C   UNL     1       5.919  -2.028  -7.594  1.00  0.00     0.060 A 
ATOM     42  C   UNL     1       5.712  -1.604  -8.902  1.00  0.00     0.016 A 
ATOM     43  C   UNL     1       6.812  -1.348  -6.782  1.00  0.00     0.016 A 
ATOM     44  C   UNL     1       6.437  -0.501  -9.391  1.00  0.00     0.010 A 
ATOM     45  C   UNL     1       7.395  -0.167  -7.228  1.00  0.00     0.010 A 
ATOM     46  C   UNL     1       7.261   0.274  -8.549  1.00  0.00    -0.014 A 
BRANCH  46  47
ATOM     47  C   UNL     1       7.988   1.516  -9.002  1.00  0.00     0.031 A 
ATOM     48  C   UNL     1       9.435   1.780  -8.596  1.00  0.00     0.074 A 
ATOM     49  C   UNL     1       7.350   2.479  -9.705  1.00  0.00     0.049 A 
ATOM     50  N   UNL     1      10.178   2.845  -8.801  1.00  0.00    -0.248 NA
ATOM     51  C   UNL     1      10.110   0.759  -7.777  1.00  0.00     0.031 C 
ATOM     52  C   UNL     1       5.932   2.480 -10.071  1.00  0.00     0.029 A 
ATOM     53  N   UNL     1       7.821   3.654 -10.251  1.00  0.00    -0.354 N 
ATOM     54  C   UNL     1      11.358   2.630  -8.092  1.00  0.00     0.074 A 
ATOM     55  C   UNL     1      11.169   1.416  -7.335  1.00  0.00     0.031 C 
ATOM     56  C   UNL     1       5.675   3.535 -10.861  1.00  0.00     0.029 A 
ATOM     57  C   UNL     1       6.891   4.326 -11.012  1.00  0.00     0.049 A 
ATOM     58  H   UNL     1       8.738   3.982 -10.110  1.00  0.00     0.167 HD
ATOM     59  C   UNL     1      12.531   3.311  -8.121  1.00  0.00     0.037 A 
ATOM     60  C   UNL     1       7.002   5.442 -11.759  1.00  0.00     0.037 A 
ATOM     61  C   UNL     1      12.773   4.462  -8.947  1.00  0.00     0.049 A 
ATOM     62  C   UNL     1       8.321   6.169 -11.821  1.00  0.00     0.074 A 
ATOM     63  C   UNL     1      13.953   5.162  -9.131  1.00  0.00     0.029 A 
ATOM     64  N   UNL     1      11.817   5.072  -9.741  1.00  0.00    -0.354 N 
ATOM     65  N   UNL     1       9.455   5.884 -11.229  1.00  0.00    -0.248 NA
ATOM     66  C   UNL     1       8.373   7.374 -12.663  1.00  0.00     0.031 C 
ATOM     67  C   UNL     1      13.698   6.227 -10.000  1.00  0.00     0.029 A 
ATOM     68  C   UNL     1      12.375   6.151 -10.405  1.00  0.00     0.049 A 
ATOM     69  H   UNL     1      10.880   4.781  -9.823  1.00  0.00     0.167 HD
ATOM     70  C   UNL     1      10.361   6.846 -11.660  1.00  0.00     0.074 A 
ATOM     71  C   UNL     1       9.650   7.715 -12.572  1.00  0.00     0.031 C 
ATOM     72  C   UNL     1      11.667   6.996 -11.330  1.00  0.00     0.037 A 
BRANCH  59  73
ATOM     73  C   UNL     1      13.660   2.785  -7.270  1.00  0.00     0.057 A 
ATOM     74  C   UNL     1      14.176   3.538  -6.207  1.00  0.00     0.134 A 
ATOM     75  C   UNL     1      14.239   1.526  -7.500  1.00  0.00     0.134 A 
ATOM     76  F   UNL     1      13.694   4.761  -5.939  1.00  0.00    -0.206 F 
ATOM     77  C   UNL     1      15.200   3.049  -5.393  1.00  0.00     0.040 A 
ATOM     78  C   UNL     1      15.229   1.008  -6.665  1.00  0.00     0.040 A 
ATOM     79  F   UNL     1      13.798   0.748  -8.501  1.00  0.00    -0.206 F 
ATOM     80  C   UNL     1      15.716   1.773  -5.608  1.00  0.00     0.006 A 
ENDBRANCH  59  73
BRANCH  60  81
ATOM     81  C   UNL     1       5.853   5.925 -12.574  1.00  0.00     0.057 A 
ATOM     82  C   UNL     1       4.708   6.476 -11.988  1.00  0.00     0.134 A 
ATOM     83  C   UNL     1       5.900   5.882 -13.974  1.00  0.00     0.134 A 
ATOM     84  F   UNL     1       4.592   6.537 -10.654  1.00  0.00    -0.206 F 
ATOM     85  C   UNL     1       3.657   6.972 -12.763  1.00  0.00     0.040 A 
ATOM     86  C   UNL     1       4.872   6.404 -14.761  1.00  0.00     0.040 A 
ATOM     87  F   UNL     1       6.978   5.382 -14.597  1.00  0.00    -0.206 F 
ATOM     88  C   UNL     1       3.744   6.949 -14.154  1.00  0.00     0.006 A 
ENDBRANCH  60  81
BRANCH  72  89
ATOM     89  C   UNL     1      12.435   8.099 -12.000  1.00  0.00     0.057 A 
ATOM     90  C   UNL     1      13.452   7.796 -12.916  1.00  0.00     0.134 A 
ATOM     91  C   UNL     1      12.208   9.450 -11.711  1.00  0.00     0.134 A 
ATOM     92  F   UNL     1      13.729   6.521 -13.230  1.00  0.00    -0.206 F 
ATOM     93  C   UNL     1      14.219   8.796 -13.514  1.00  0.00     0.040 A 
ATOM     94  C   UNL     1      12.947  10.461 -12.328  1.00  0.00     0.040 A 
ATOM     95  F   UNL     1      11.244   9.809 -10.850  1.00  0.00    -0.206 F 
ATOM     96  C   UNL     1      13.961  10.134 -13.226  1.00  0.00     0.006 A 
ENDBRANCH  72  89
ENDBRANCH  46  47
ENDBRANCH  39  41
ENDBRANCH  38  39
ENDBRANCH  37  38
ENDBRANCH   1  37
TORSDOF 14
