REMARK SMILES C[C@H](COc1ccccc1C(=O)OCCOC(=O)c1ccc(-c2c3nc(c(-c4c(F)cccc4F)c4ccc([nH]4)c(-c4c(F)cccc4F)c4nc(c(-c5c(F)cccc5F)c5ccc2[nH]5)C=C4)C=C3)cc1)C(N)=O
REMARK SMILES IDX 14 1 13 2 11 3 12 4 10 5 5 6 6 7 7 8 9 9 8 10 4 11 3 12 2 13
REMARK SMILES IDX 1 14 73 15 74 16 75 17 15 20 16 21 17 22 18 23 19 24 20 25
REMARK SMILES IDX 72 26 21 27 71 28 22 29 23 30 24 31 65 32 25 33 70 34 64 35
REMARK SMILES IDX 66 36 26 37 69 38 63 39 62 40 27 42 53 43 36 44 52 45 37 46
REMARK SMILES IDX 40 47 51 48 67 49 38 50 39 51 50 53 68 54 41 55 28 56 29 57
REMARK SMILES IDX 34 58 30 59 31 60 33 61 35 62 32 63 54 64 55 65 60 66 56 67
REMARK SMILES IDX 57 68 59 69 61 70 58 71 42 72 43 73 48 74 44 75 45 76 47 77
REMARK SMILES IDX 49 78 46 79
REMARK H PARENT 74 18 74 19 66 41 40 52
REMARK Flexibility Score: inf
ROOT
ATOM      1  C   UNL     1      -0.603  -1.317  -3.368  1.00  0.00     0.275 C 
ENDROOT
BRANCH   1   2
ATOM      2  O   UNL     1      -1.061  -1.347  -2.003  1.00  0.00    -0.458 OA
BRANCH   2   3
ATOM      3  C   UNL     1      -1.776  -0.268  -1.622  1.00  0.00     0.342 C 
ATOM      4  O   UNL     1      -2.083   0.690  -2.315  1.00  0.00    -0.246 OA
BRANCH   3   5
ATOM      5  C   UNL     1      -2.231  -0.420  -0.227  1.00  0.00     0.102 A 
ATOM      6  C   UNL     1      -1.330  -0.521   0.839  1.00  0.00     0.133 A 
ATOM      7  C   UNL     1      -1.808  -0.562   2.151  1.00  0.00     0.047 A 
ATOM      8  C   UNL     1      -3.184  -0.521   2.393  1.00  0.00     0.004 A 
ATOM      9  C   UNL     1      -3.609  -0.378   0.018  1.00  0.00     0.019 A 
ATOM     10  C   UNL     1      -4.084  -0.448   1.329  1.00  0.00     0.001 A 
BRANCH   6  11
ATOM     11  O   UNL     1      -0.003  -0.714   0.591  1.00  0.00    -0.492 OA
BRANCH  11  12
ATOM     12  C   UNL     1       0.831   0.382   0.976  1.00  0.00     0.242 C 
BRANCH  12  13
ATOM     13  C   UNL     1       2.094   0.352   0.102  1.00  0.00     0.113 C 
ATOM     14  C   UNL     1       2.903  -0.929   0.351  1.00  0.00     0.022 C 
BRANCH  13  15
ATOM     15  C   UNL     1       1.756   0.517  -1.378  1.00  0.00     0.223 C 
ATOM     16  N   UNL     1       0.986   1.594  -1.706  1.00  0.00    -0.369 N 
ATOM     17  O   UNL     1       2.188  -0.204  -2.274  1.00  0.00    -0.275 OA
ATOM     18  H   UNL     1       0.633   2.181  -0.999  1.00  0.00     0.159 HD
ATOM     19  H   UNL     1       0.783   1.785  -2.651  1.00  0.00     0.159 HD
ENDBRANCH  13  15
ENDBRANCH  12  13
ENDBRANCH  11  12
ENDBRANCH   6  11
ENDBRANCH   3   5
ENDBRANCH   2   3
ENDBRANCH   1   2
BRANCH   1  20
ATOM     20  C   UNL     1       0.279  -2.539  -3.640  1.00  0.00     0.275 C 
BRANCH  20  21
ATOM     21  O   UNL     1      -0.578  -3.677  -3.848  1.00  0.00    -0.458 OA
BRANCH  21  22
ATOM     22  C   UNL     1      -1.013  -4.252  -2.702  1.00  0.00     0.338 C 
ATOM     23  O   UNL     1      -0.409  -4.383  -1.653  1.00  0.00    -0.246 OA
BRANCH  22  24
ATOM     24  C   UNL     1      -2.473  -4.383  -2.848  1.00  0.00     0.060 A 
ATOM     25  C   UNL     1      -3.270  -3.779  -1.868  1.00  0.00     0.016 A 
ATOM     26  C   UNL     1      -3.045  -4.976  -3.976  1.00  0.00     0.016 A 
ATOM     27  C   UNL     1      -4.651  -3.745  -2.023  1.00  0.00     0.010 A 
ATOM     28  C   UNL     1      -4.431  -4.963  -4.119  1.00  0.00     0.010 A 
ATOM     29  C   UNL     1      -5.235  -4.352  -3.141  1.00  0.00    -0.014 A 
BRANCH  29  30
ATOM     30  C   UNL     1      -6.701  -4.505  -3.209  1.00  0.00     0.031 A 
ATOM     31  C   UNL     1      -7.289  -5.795  -2.725  1.00  0.00     0.074 A 
ATOM     32  C   UNL     1      -7.478  -3.521  -3.690  1.00  0.00     0.049 A 
ATOM     33  N   UNL     1      -8.518  -6.229  -2.806  1.00  0.00    -0.248 NA
ATOM     34  C   UNL     1      -6.357  -6.724  -2.063  1.00  0.00     0.031 C 
ATOM     35  C   UNL     1      -7.010  -2.206  -4.125  1.00  0.00     0.029 A 
ATOM     36  N   UNL     1      -8.832  -3.485  -3.902  1.00  0.00    -0.354 N 
ATOM     37  C   UNL     1      -8.503  -7.490  -2.226  1.00  0.00     0.074 A 
ATOM     38  C   UNL     1      -7.145  -7.755  -1.803  1.00  0.00     0.031 C 
ATOM     39  C   UNL     1      -8.062  -1.493  -4.565  1.00  0.00     0.029 A 
ATOM     40  C   UNL     1      -9.265  -2.319  -4.484  1.00  0.00     0.049 A 
ATOM     41  H   UNL     1      -9.436  -4.224  -3.660  1.00  0.00     0.167 HD
ATOM     42  C   UNL     1      -9.533  -8.353  -2.069  1.00  0.00     0.037 A 
ATOM     43  C   UNL     1     -10.491  -1.983  -4.929  1.00  0.00     0.037 A 
ATOM     44  C   UNL     1     -10.874  -8.079  -2.505  1.00  0.00     0.049 A 
ATOM     45  C   UNL     1     -11.608  -2.986  -4.805  1.00  0.00     0.074 A 
ATOM     46  C   UNL     1     -11.992  -8.888  -2.425  1.00  0.00     0.029 A 
ATOM     47  N   UNL     1     -11.273  -6.896  -3.110  1.00  0.00    -0.354 N 
ATOM     48  N   UNL     1     -11.585  -4.189  -4.282  1.00  0.00    -0.248 NA
ATOM     49  C   UNL     1     -12.917  -2.591  -5.344  1.00  0.00     0.031 C 
ATOM     50  C   UNL     1     -13.063  -8.204  -3.012  1.00  0.00     0.029 A 
ATOM     51  C   UNL     1     -12.619  -6.955  -3.420  1.00  0.00     0.049 A 
ATOM     52  H   UNL     1     -10.684  -6.128  -3.291  1.00  0.00     0.167 HD
ATOM     53  C   UNL     1     -12.874  -4.689  -4.415  1.00  0.00     0.074 A 
ATOM     54  C   UNL     1     -13.659  -3.650  -5.052  1.00  0.00     0.031 C 
ATOM     55  C   UNL     1     -13.369  -5.898  -4.050  1.00  0.00     0.037 A 
BRANCH  42  56
ATOM     56  C   UNL     1      -9.217  -9.679  -1.447  1.00  0.00     0.057 A 
ATOM     57  C   UNL     1      -8.930  -9.808  -0.082  1.00  0.00     0.134 A 
ATOM     58  C   UNL     1      -9.169 -10.837  -2.232  1.00  0.00     0.134 A 
ATOM     59  F   UNL     1      -8.932  -8.730   0.718  1.00  0.00    -0.206 F 
ATOM     60  C   UNL     1      -8.579 -11.039   0.475  1.00  0.00     0.040 A 
ATOM     61  C   UNL     1      -8.842 -12.077  -1.681  1.00  0.00     0.040 A 
ATOM     62  F   UNL     1      -9.426 -10.780  -3.547  1.00  0.00    -0.206 F 
ATOM     63  C   UNL     1      -8.538 -12.179  -0.325  1.00  0.00     0.006 A 
ENDBRANCH  42  56
BRANCH  43  64
ATOM     64  C   UNL     1     -10.723  -0.660  -5.564  1.00  0.00     0.057 A 
ATOM     65  C   UNL     1     -11.513   0.314  -4.944  1.00  0.00     0.134 A 
ATOM     66  C   UNL     1     -10.179  -0.345  -6.816  1.00  0.00     0.134 A 
ATOM     67  F   UNL     1     -12.084   0.063  -3.756  1.00  0.00    -0.206 F 
ATOM     68  C   UNL     1     -11.767   1.546  -5.549  1.00  0.00     0.040 A 
ATOM     69  C   UNL     1     -10.405   0.892  -7.422  1.00  0.00     0.040 A 
ATOM     70  F   UNL     1      -9.415  -1.235  -7.466  1.00  0.00    -0.206 F 
ATOM     71  C   UNL     1     -11.207   1.840  -6.791  1.00  0.00     0.006 A 
ENDBRANCH  43  64
BRANCH  55  72
ATOM     72  C   UNL     1     -14.825  -6.144  -4.307  1.00  0.00     0.057 A 
ATOM     73  C   UNL     1     -15.310  -6.406  -5.594  1.00  0.00     0.134 A 
ATOM     74  C   UNL     1     -15.740  -6.168  -3.248  1.00  0.00     0.134 A 
ATOM     75  F   UNL     1     -14.484  -6.385  -6.650  1.00  0.00    -0.206 F 
ATOM     76  C   UNL     1     -16.662  -6.666  -5.820  1.00  0.00     0.040 A 
ATOM     77  C   UNL     1     -17.089  -6.449  -3.459  1.00  0.00     0.040 A 
ATOM     78  F   UNL     1     -15.333  -5.934  -1.991  1.00  0.00    -0.206 F 
ATOM     79  C   UNL     1     -17.554  -6.695  -4.749  1.00  0.00     0.006 A 
ENDBRANCH  55  72
ENDBRANCH  29  30
ENDBRANCH  22  24
ENDBRANCH  21  22
ENDBRANCH  20  21
ENDBRANCH   1  20
TORSDOF 15
