REMARK SMILES CO[C@@H]1C[C@H](C(=O)OCCOC(=O)c2ccc(-c3c4nc(c(-c5c(F)cccc5F)c5ccc([nH]5)c(-c5c(F)cccc5F)c5nc(c(-c6c(F)cccc6F)c6ccc3[nH]6)C=C5)C=C4)cc2)N(C(=O)[C@H](CC(C)C)NC(N)=O)C1
REMARK SMILES IDX 9 1 8 2 6 3 7 4 5 5 3 6 4 7 80 8 68 9 2 10 1 11 69 12 70 13
REMARK SMILES IDX 71 14 76 15 77 16 78 18 79 19 72 22 73 23 74 24 75 25 10 26
REMARK SMILES IDX 11 27 12 28 13 29 14 30 15 31 67 32 16 33 66 34 17 35 18 36
REMARK SMILES IDX 19 37 60 38 20 39 65 40 59 41 61 42 21 43 64 44 58 45 57 46
REMARK SMILES IDX 22 48 48 49 31 50 47 51 32 52 35 53 46 54 62 55 33 56 34 57
REMARK SMILES IDX 45 59 63 60 36 61 23 62 24 63 29 64 25 65 26 66 28 67 30 68
REMARK SMILES IDX 27 69 49 70 50 71 55 72 51 73 52 74 54 75 56 76 53 77 37 78
REMARK SMILES IDX 38 79 43 80 39 81 40 82 42 83 44 84 41 85
REMARK H PARENT 76 17 78 20 78 21 61 47 35 58
REMARK Flexibility Score: inf
ROOT
ATOM      1  C   UNL     1       1.407   0.736   0.304  1.00  0.00     0.274 C 
ENDROOT
BRANCH   1   2
ATOM      2  O   UNL     1       0.836  -0.101  -0.722  1.00  0.00    -0.461 OA
BRANCH   2   3
ATOM      3  C   UNL     1       1.097  -1.423  -0.630  1.00  0.00     0.329 C 
ATOM      4  O   UNL     1       1.747  -1.909   0.285  1.00  0.00    -0.250 OA
BRANCH   3   5
ATOM      5  C   UNL     1       0.592  -2.276  -1.799  1.00  0.00     0.197 C 
ATOM      6  C   UNL     1      -0.806  -0.921  -3.228  1.00  0.00     0.140 C 
ATOM      7  C   UNL     1      -0.863  -2.019  -2.168  1.00  0.00     0.071 C 
ATOM      8  C   UNL     1       0.576  -1.122  -3.885  1.00  0.00     0.152 C 
ATOM      9  N   UNL     1       1.358  -1.997  -3.002  1.00  0.00    -0.324 N 
BRANCH   6  10
ATOM     10  O   UNL     1      -0.907   0.405  -2.707  1.00  0.00    -0.380 OA
ATOM     11  C   UNL     1      -2.064   0.643  -1.913  1.00  0.00     0.195 C 
ENDBRANCH   6  10
BRANCH   9  12
ATOM     12  C   UNL     1       2.652  -2.333  -3.336  1.00  0.00     0.246 C 
ATOM     13  O   UNL     1       3.182  -1.714  -4.278  1.00  0.00    -0.272 OA
BRANCH  12  14
ATOM     14  C   UNL     1       3.464  -3.550  -2.744  1.00  0.00     0.173 C 
BRANCH  14  15
ATOM     15  N   UNL     1       4.881  -3.257  -3.009  1.00  0.00    -0.327 N 
ATOM     16  C   UNL     1       5.881  -4.166  -2.883  1.00  0.00     0.312 C 
ATOM     17  H   UNL     1       5.119  -2.346  -3.296  1.00  0.00     0.166 HD
ATOM     18  N   UNL     1       7.095  -3.579  -2.754  1.00  0.00    -0.352 N 
ATOM     19  O   UNL     1       5.737  -5.374  -2.774  1.00  0.00    -0.249 OA
ATOM     20  H   UNL     1       7.182  -2.603  -2.847  1.00  0.00     0.161 HD
ATOM     21  H   UNL     1       7.890  -4.129  -2.568  1.00  0.00     0.161 HD
ENDBRANCH  14  15
BRANCH  14  22
ATOM     22  C   UNL     1       3.300  -4.068  -1.308  1.00  0.00     0.038 C 
BRANCH  22  23
ATOM     23  C   UNL     1       4.279  -3.569  -0.219  1.00  0.00    -0.015 C 
ATOM     24  C   UNL     1       4.577  -2.069  -0.199  1.00  0.00     0.007 C 
ATOM     25  C   UNL     1       3.793  -4.044   1.141  1.00  0.00     0.007 C 
ENDBRANCH  22  23
ENDBRANCH  14  22
ENDBRANCH  12  14
ENDBRANCH   9  12
ENDBRANCH   3   5
ENDBRANCH   2   3
ENDBRANCH   1   2
BRANCH   1  26
ATOM     26  C   UNL     1       0.518   0.840   1.551  1.00  0.00     0.275 C 
BRANCH  26  27
ATOM     27  O   UNL     1       0.582  -0.353   2.359  1.00  0.00    -0.458 OA
BRANCH  27  28
ATOM     28  C   UNL     1      -0.368  -1.289   2.112  1.00  0.00     0.338 C 
ATOM     29  O   UNL     1      -1.342  -1.159   1.384  1.00  0.00    -0.246 OA
BRANCH  28  30
ATOM     30  C   UNL     1       0.049  -2.598   2.671  1.00  0.00     0.060 A 
ATOM     31  C   UNL     1      -0.203  -3.739   1.896  1.00  0.00     0.016 A 
ATOM     32  C   UNL     1       0.722  -2.719   3.891  1.00  0.00     0.016 A 
ATOM     33  C   UNL     1       0.247  -4.990   2.320  1.00  0.00     0.010 A 
ATOM     34  C   UNL     1       1.131  -3.983   4.338  1.00  0.00     0.010 A 
ATOM     35  C   UNL     1       0.900  -5.125   3.555  1.00  0.00    -0.014 A 
BRANCH  35  36
ATOM     36  C   UNL     1       1.238  -6.485   4.047  1.00  0.00     0.031 A 
ATOM     37  C   UNL     1       0.141  -7.359   4.564  1.00  0.00     0.074 A 
ATOM     38  C   UNL     1       2.497  -6.957   4.010  1.00  0.00     0.049 A 
ATOM     39  N   UNL     1       0.202  -8.591   4.994  1.00  0.00    -0.248 NA
ATOM     40  C   UNL     1      -1.194  -6.749   4.641  1.00  0.00     0.031 C 
ATOM     41  C   UNL     1       3.652  -6.181   3.598  1.00  0.00     0.029 A 
ATOM     42  N   UNL     1       3.019  -8.194   4.295  1.00  0.00    -0.354 N 
ATOM     43  C   UNL     1      -1.080  -8.898   5.419  1.00  0.00     0.074 A 
ATOM     44  C   UNL     1      -1.902  -7.731   5.176  1.00  0.00     0.031 C 
ATOM     45  C   UNL     1       4.732  -6.973   3.538  1.00  0.00     0.029 A 
ATOM     46  C   UNL     1       4.365  -8.297   4.027  1.00  0.00     0.049 A 
ATOM     47  H   UNL     1       2.482  -8.936   4.656  1.00  0.00     0.167 HD
ATOM     48  C   UNL     1      -1.522 -10.037   6.000  1.00  0.00     0.037 A 
ATOM     49  C   UNL     1       5.216  -9.329   4.194  1.00  0.00     0.037 A 
ATOM     50  C   UNL     1      -0.688 -11.168   6.302  1.00  0.00     0.049 A 
ATOM     51  C   UNL     1       4.700 -10.588   4.830  1.00  0.00     0.074 A 
ATOM     52  C   UNL     1      -1.038 -12.360   6.910  1.00  0.00     0.029 A 
ATOM     53  N   UNL     1       0.675 -11.236   6.042  1.00  0.00    -0.354 N 
ATOM     54  N   UNL     1       3.479 -10.875   5.213  1.00  0.00    -0.248 NA
ATOM     55  C   UNL     1       5.682 -11.645   5.107  1.00  0.00     0.031 C 
ATOM     56  C   UNL     1       0.122 -13.131   7.059  1.00  0.00     0.029 A 
ATOM     57  C   UNL     1       1.185 -12.440   6.499  1.00  0.00     0.049 A 
ATOM     58  H   UNL     1       1.200 -10.533   5.597  1.00  0.00     0.167 HD
ATOM     59  C   UNL     1       3.548 -12.133   5.795  1.00  0.00     0.074 A 
ATOM     60  C   UNL     1       4.925 -12.571   5.678  1.00  0.00     0.031 C 
ATOM     61  C   UNL     1       2.564 -12.850   6.390  1.00  0.00     0.037 A 
BRANCH  48  62
ATOM     62  C   UNL     1      -2.958 -10.047   6.421  1.00  0.00     0.057 A 
ATOM     63  C   UNL     1      -4.003 -10.126   5.491  1.00  0.00     0.134 A 
ATOM     64  C   UNL     1      -3.299  -9.901   7.771  1.00  0.00     0.134 A 
ATOM     65  F   UNL     1      -3.739 -10.232   4.180  1.00  0.00    -0.206 F 
ATOM     66  C   UNL     1      -5.337 -10.024   5.887  1.00  0.00     0.040 A 
ATOM     67  C   UNL     1      -4.630  -9.821   8.181  1.00  0.00     0.040 A 
ATOM     68  F   UNL     1      -2.344  -9.807   8.709  1.00  0.00    -0.206 F 
ATOM     69  C   UNL     1      -5.653  -9.871   7.236  1.00  0.00     0.006 A 
ENDBRANCH  48  62
BRANCH  49  70
ATOM     70  C   UNL     1       6.648  -9.190   3.819  1.00  0.00     0.057 A 
ATOM     71  C   UNL     1       7.197  -9.923   2.760  1.00  0.00     0.134 A 
ATOM     72  C   UNL     1       7.502  -8.316   4.504  1.00  0.00     0.134 A 
ATOM     73  F   UNL     1       6.443 -10.803   2.086  1.00  0.00    -0.206 F 
ATOM     74  C   UNL     1       8.539  -9.789   2.395  1.00  0.00     0.040 A 
ATOM     75  C   UNL     1       8.837  -8.151   4.132  1.00  0.00     0.040 A 
ATOM     76  F   UNL     1       7.043  -7.589   5.533  1.00  0.00    -0.206 F 
ATOM     77  C   UNL     1       9.360  -8.893   3.076  1.00  0.00     0.006 A 
ENDBRANCH  49  70
BRANCH  61  78
ATOM     78  C   UNL     1       2.947 -14.181   6.963  1.00  0.00     0.057 A 
ATOM     79  C   UNL     1       3.677 -14.286   8.153  1.00  0.00     0.134 A 
ATOM     80  C   UNL     1       2.548 -15.368   6.338  1.00  0.00     0.134 A 
ATOM     81  F   UNL     1       4.100 -13.185   8.792  1.00  0.00    -0.206 F 
ATOM     82  C   UNL     1       4.011 -15.529   8.695  1.00  0.00     0.040 A 
ATOM     83  C   UNL     1       2.857 -16.615   6.880  1.00  0.00     0.040 A 
ATOM     84  F   UNL     1       1.842 -15.333   5.197  1.00  0.00    -0.206 F 
ATOM     85  C   UNL     1       3.594 -16.698   8.060  1.00  0.00     0.006 A 
ENDBRANCH  61  78
ENDBRANCH  35  36
ENDBRANCH  28  30
ENDBRANCH  27  28
ENDBRANCH  26  27
ENDBRANCH   1  26
TORSDOF 17
