REMARK SMILES CCN(C(=O)Cc1c(C(=O)OCCOC(=O)c2ccc(-c3c4nc(c(-c5c(F)cccc5F)c5ccc([nH]5)c(-c5c(F)cccc5F)c5nc(c(-c6c(F)cccc6F)c6ccc3[nH]6)C=C5)C=C4)cc2)[nH]c2ccc(Cl)cc12)c1ccc(C)c(C)c1
REMARK SMILES IDX 12 1 11 2 9 3 10 4 8 5 7 6 78 7 71 8 72 9 77 10 73 12 75 13
REMARK SMILES IDX 74 14 76 15 6 16 4 17 5 18 3 19 2 20 1 21 79 22 80 23 86 24
REMARK SMILES IDX 81 25 84 26 82 27 85 28 83 29 13 30 14 31 15 32 16 33 17 34
REMARK SMILES IDX 18 35 70 36 19 37 69 38 20 39 21 40 22 41 63 42 23 43 68 44
REMARK SMILES IDX 62 45 64 46 24 47 67 48 61 49 60 50 25 52 51 53 34 54 50 55
REMARK SMILES IDX 35 56 38 57 49 58 65 59 36 60 37 61 48 63 66 64 39 65 26 66
REMARK SMILES IDX 27 67 32 68 28 69 29 70 31 71 33 72 30 73 52 74 53 75 58 76
REMARK SMILES IDX 54 77 55 78 57 79 59 80 56 81 40 82 41 83 46 84 42 85 43 86
REMARK SMILES IDX 45 87 47 88 44 89
REMARK H PARENT 71 11 64 51 38 62
REMARK Flexibility Score: inf
ROOT
ATOM      1  C   UNL     1      -2.136   1.035  -3.088  1.00  0.00     0.275 C 
ENDROOT
BRANCH   1   2
ATOM      2  O   UNL     1      -2.166  -0.129  -2.234  1.00  0.00    -0.457 OA
BRANCH   2   3
ATOM      3  C   UNL     1      -1.765   0.066  -0.950  1.00  0.00     0.355 C 
ATOM      4  O   UNL     1      -1.376   1.126  -0.474  1.00  0.00    -0.244 OA
BRANCH   3   5
ATOM      5  C   UNL     1      -1.878  -1.149  -0.187  1.00  0.00     0.129 A 
ATOM      6  C   UNL     1      -1.473  -2.453  -0.460  1.00  0.00     0.002 A 
ATOM      7  C   UNL     1      -1.847  -3.254   0.675  1.00  0.00     0.005 A 
ATOM      8  N   UNL     1      -2.356  -1.136   1.103  1.00  0.00    -0.349 N 
ATOM      9  C   UNL     1      -2.402  -2.401   1.627  1.00  0.00     0.046 A 
ATOM     10  C   UNL     1      -1.746  -4.626   0.988  1.00  0.00     0.031 A 
ATOM     11  H   UNL     1      -2.629  -0.324   1.587  1.00  0.00     0.167 HD
ATOM     12  C   UNL     1      -2.872  -2.839   2.871  1.00  0.00     0.028 A 
ATOM     13  C   UNL     1      -2.218  -5.080   2.225  1.00  0.00     0.041 A 
ATOM     14  C   UNL     1      -2.773  -4.203   3.152  1.00  0.00     0.022 A 
ATOM     15  Cl  UNL     1      -2.109  -6.756   2.610  1.00  0.00    -0.084 Cl
BRANCH   6  16
ATOM     16  C   UNL     1      -0.766  -2.947  -1.688  1.00  0.00     0.139 C 
BRANCH  16  17
ATOM     17  C   UNL     1       0.662  -3.420  -1.414  1.00  0.00     0.231 C 
ATOM     18  O   UNL     1       0.860  -4.639  -1.321  1.00  0.00    -0.274 OA
BRANCH  17  19
ATOM     19  N   UNL     1       1.689  -2.473  -1.291  1.00  0.00    -0.312 N 
BRANCH  19  20
ATOM     20  C   UNL     1       1.521  -1.011  -1.410  1.00  0.00     0.122 C 
ATOM     21  C   UNL     1       1.477  -0.248  -0.093  1.00  0.00     0.028 C 
ENDBRANCH  19  20
BRANCH  19  22
ATOM     22  C   UNL     1       3.051  -2.920  -1.256  1.00  0.00     0.044 A 
ATOM     23  C   UNL     1       3.532  -3.792  -2.232  1.00  0.00     0.026 A 
ATOM     24  C   UNL     1       3.949  -2.410  -0.313  1.00  0.00     0.030 A 
ATOM     25  C   UNL     1       4.898  -4.075  -2.310  1.00  0.00     0.006 A 
ATOM     26  C   UNL     1       5.322  -2.703  -0.362  1.00  0.00    -0.046 A 
ATOM     27  C   UNL     1       5.810  -3.508  -1.405  1.00  0.00    -0.048 A 
ATOM     28  C   UNL     1       6.223  -2.113   0.688  1.00  0.00     0.044 C 
ATOM     29  C   UNL     1       7.269  -3.832  -1.563  1.00  0.00     0.044 C 
ENDBRANCH  19  22
ENDBRANCH  17  19
ENDBRANCH  16  17
ENDBRANCH   6  16
ENDBRANCH   3   5
ENDBRANCH   2   3
ENDBRANCH   1   2
BRANCH   1  30
ATOM     30  C   UNL     1      -3.400   1.887  -2.936  1.00  0.00     0.275 C 
BRANCH  30  31
ATOM     31  O   UNL     1      -3.434   2.413  -1.605  1.00  0.00    -0.458 OA
BRANCH  31  32
ATOM     32  C   UNL     1      -4.353   3.359  -1.320  1.00  0.00     0.338 C 
ATOM     33  O   UNL     1      -5.135   3.875  -2.098  1.00  0.00    -0.246 OA
BRANCH  32  34
ATOM     34  C   UNL     1      -4.242   3.680   0.127  1.00  0.00     0.060 A 
ATOM     35  C   UNL     1      -3.799   2.712   1.040  1.00  0.00     0.016 A 
ATOM     36  C   UNL     1      -4.609   4.946   0.587  1.00  0.00     0.016 A 
ATOM     37  C   UNL     1      -3.715   2.998   2.400  1.00  0.00     0.010 A 
ATOM     38  C   UNL     1      -4.521   5.239   1.953  1.00  0.00     0.010 A 
ATOM     39  C   UNL     1      -4.091   4.261   2.867  1.00  0.00    -0.014 A 
BRANCH  39  40
ATOM     40  C   UNL     1      -4.196   4.498   4.324  1.00  0.00     0.031 A 
ATOM     41  C   UNL     1      -5.553   4.441   4.964  1.00  0.00     0.074 A 
ATOM     42  C   UNL     1      -3.105   4.694   5.085  1.00  0.00     0.049 A 
ATOM     43  N   UNL     1      -5.904   4.734   6.188  1.00  0.00    -0.248 NA
ATOM     44  C   UNL     1      -6.661   3.990   4.106  1.00  0.00     0.031 C 
ATOM     45  C   UNL     1      -1.722   4.687   4.612  1.00  0.00     0.029 A 
ATOM     46  N   UNL     1      -2.998   4.920   6.435  1.00  0.00    -0.354 N 
ATOM     47  C   UNL     1      -7.279   4.550   6.236  1.00  0.00     0.074 A 
ATOM     48  C   UNL     1      -7.695   4.091   4.928  1.00  0.00     0.031 C 
ATOM     49  C   UNL     1      -0.901   4.872   5.662  1.00  0.00     0.029 A 
ATOM     50  C   UNL     1      -1.703   5.047   6.871  1.00  0.00     0.049 A 
ATOM     51  H   UNL     1      -3.777   4.985   7.033  1.00  0.00     0.167 HD
ATOM     52  C   UNL     1      -8.123   4.762   7.271  1.00  0.00     0.037 A 
ATOM     53  C   UNL     1      -1.226   5.287   8.107  1.00  0.00     0.037 A 
ATOM     54  C   UNL     1      -7.716   5.199   8.575  1.00  0.00     0.049 A 
ATOM     55  C   UNL     1      -2.180   5.501   9.249  1.00  0.00     0.074 A 
ATOM     56  C   UNL     1      -8.502   5.548   9.659  1.00  0.00     0.029 A 
ATOM     57  N   UNL     1      -6.397   5.318   8.979  1.00  0.00    -0.354 N 
ATOM     58  N   UNL     1      -3.490   5.462   9.248  1.00  0.00    -0.248 NA
ATOM     59  C   UNL     1      -1.587   5.816  10.558  1.00  0.00     0.031 C 
ATOM     60  C   UNL     1      -7.654   5.869  10.727  1.00  0.00     0.029 A 
ATOM     61  C   UNL     1      -6.344   5.710  10.305  1.00  0.00     0.049 A 
ATOM     62  H   UNL     1      -5.613   5.149   8.408  1.00  0.00     0.167 HD
ATOM     63  C   UNL     1      -3.878   5.763  10.547  1.00  0.00     0.074 A 
ATOM     64  C   UNL     1      -2.667   5.954  11.317  1.00  0.00     0.031 C 
ATOM     65  C   UNL     1      -5.129   5.890  11.051  1.00  0.00     0.037 A 
BRANCH  52  66
ATOM     66  C   UNL     1      -9.577   4.561   6.998  1.00  0.00     0.057 A 
ATOM     67  C   UNL     1     -10.165   3.295   7.061  1.00  0.00     0.134 A 
ATOM     68  C   UNL     1     -10.388   5.646   6.642  1.00  0.00     0.134 A 
ATOM     69  F   UNL     1      -9.428   2.217   7.368  1.00  0.00    -0.206 F 
ATOM     70  C   UNL     1     -11.517   3.110   6.769  1.00  0.00     0.040 A 
ATOM     71  C   UNL     1     -11.742   5.475   6.356  1.00  0.00     0.040 A 
ATOM     72  F   UNL     1      -9.871   6.880   6.551  1.00  0.00    -0.206 F 
ATOM     73  C   UNL     1     -12.309   4.203   6.417  1.00  0.00     0.006 A 
ENDBRANCH  52  66
BRANCH  53  74
ATOM     74  C   UNL     1       0.235   5.350   8.338  1.00  0.00     0.057 A 
ATOM     75  C   UNL     1       0.912   4.273   8.919  1.00  0.00     0.134 A 
ATOM     76  C   UNL     1       0.979   6.487   8.008  1.00  0.00     0.134 A 
ATOM     77  F   UNL     1       0.242   3.168   9.276  1.00  0.00    -0.206 F 
ATOM     78  C   UNL     1       2.284   4.326   9.169  1.00  0.00     0.040 A 
ATOM     79  C   UNL     1       2.353   6.550   8.243  1.00  0.00     0.040 A 
ATOM     80  F   UNL     1       0.378   7.551   7.456  1.00  0.00    -0.206 F 
ATOM     81  C   UNL     1       3.008   5.467   8.829  1.00  0.00     0.006 A 
ENDBRANCH  53  74
BRANCH  65  82
ATOM     82  C   UNL     1      -5.246   6.260  12.494  1.00  0.00     0.057 A 
ATOM     83  C   UNL     1      -5.184   7.598  12.903  1.00  0.00     0.134 A 
ATOM     84  C   UNL     1      -5.463   5.285  13.473  1.00  0.00     0.134 A 
ATOM     85  F   UNL     1      -4.970   8.573  12.007  1.00  0.00    -0.206 F 
ATOM     86  C   UNL     1      -5.331   7.953  14.243  1.00  0.00     0.040 A 
ATOM     87  C   UNL     1      -5.617   5.629  14.816  1.00  0.00     0.040 A 
ATOM     88  F   UNL     1      -5.529   3.988  13.138  1.00  0.00    -0.206 F 
ATOM     89  C   UNL     1      -5.551   6.967  15.204  1.00  0.00     0.006 A 
ENDBRANCH  65  82
ENDBRANCH  39  40
ENDBRANCH  32  34
ENDBRANCH  31  32
ENDBRANCH  30  31
ENDBRANCH   1  30
TORSDOF 16
