REMARK SMILES O=C(OCCOC(=O)c1cc(-c2ccc(F)c(C(F)(F)F)c2)cnc1O)c1ccc(-c2c3nc(c(-c4c(F)cccc4F)c4ccc([nH]4)c(-c4c(F)cccc4F)c4nc(c(-c5c(F)cccc5F)c5ccc2[nH]5)C=C4)C=C3)cc1
REMARK SMILES IDX 4 1 3 2 2 3 1 4 27 5 28 6 80 7 29 8 79 9 30 10 31 11 32 12
REMARK SMILES IDX 73 13 33 14 78 15 72 16 74 17 34 18 77 19 71 20 70 21 35 23
REMARK SMILES IDX 61 24 44 25 60 26 45 27 48 28 59 29 75 30 46 31 47 32 58 34
REMARK SMILES IDX 76 35 49 36 36 37 37 38 42 39 38 40 39 41 41 42 43 43 40 44
REMARK SMILES IDX 62 45 63 46 68 47 64 48 65 49 67 50 69 51 66 52 50 53 51 54
REMARK SMILES IDX 56 55 52 56 53 57 55 58 57 59 54 60 5 61 6 62 7 63 8 64 9 65
REMARK SMILES IDX 10 66 25 67 11 68 24 69 23 70 26 71 12 73 13 74 22 75 14 76
REMARK SMILES IDX 17 77 15 78 16 79 18 80 19 81 20 82 21 83
REMARK H PARENT 74 22 48 33 26 72
REMARK Flexibility Score: inf
ROOT
ATOM      1  C   UNL     1       4.411  -0.776   1.154  1.00  0.00     0.275 C 
ENDROOT
BRANCH   1   2
ATOM      2  O   UNL     1       3.472   0.309   1.205  1.00  0.00    -0.458 OA
BRANCH   2   3
ATOM      3  C   UNL     1       3.327   1.370   0.379  1.00  0.00     0.338 C 
ATOM      4  O   UNL     1       2.611   2.304   0.737  1.00  0.00    -0.246 OA
BRANCH   3   5
ATOM      5  C   UNL     1       3.843   1.400  -1.028  1.00  0.00     0.060 A 
ATOM      6  C   UNL     1       3.047   2.108  -1.942  1.00  0.00     0.016 A 
ATOM      7  C   UNL     1       5.022   0.828  -1.508  1.00  0.00     0.016 A 
ATOM      8  C   UNL     1       3.361   2.156  -3.304  1.00  0.00     0.010 A 
ATOM      9  C   UNL     1       5.356   0.893  -2.872  1.00  0.00     0.010 A 
ATOM     10  C   UNL     1       4.521   1.544  -3.785  1.00  0.00    -0.014 A 
BRANCH  10  11
ATOM     11  C   UNL     1       4.935   1.750  -5.194  1.00  0.00     0.031 A 
ATOM     12  C   UNL     1       4.918   0.648  -6.213  1.00  0.00     0.074 A 
ATOM     13  C   UNL     1       5.345   2.982  -5.549  1.00  0.00     0.049 A 
ATOM     14  N   UNL     1       5.067   0.721  -7.513  1.00  0.00    -0.248 NA
ATOM     15  C   UNL     1       4.682  -0.710  -5.720  1.00  0.00     0.031 C 
ATOM     16  C   UNL     1       5.435   4.133  -4.647  1.00  0.00     0.029 A 
ATOM     17  N   UNL     1       5.779   3.464  -6.754  1.00  0.00    -0.354 N 
ATOM     18  C   UNL     1       4.841  -0.565  -7.993  1.00  0.00     0.074 A 
ATOM     19  C   UNL     1       4.596  -1.407  -6.845  1.00  0.00     0.031 C 
ATOM     20  C   UNL     1       5.908   5.185  -5.329  1.00  0.00     0.029 A 
ATOM     21  C   UNL     1       6.189   4.771  -6.698  1.00  0.00     0.049 A 
ATOM     22  H   UNL     1       5.794   2.927  -7.579  1.00  0.00     0.167 HD
ATOM     23  C   UNL     1       4.848  -1.003  -9.274  1.00  0.00     0.037 A 
ATOM     24  C   UNL     1       6.762   5.540  -7.639  1.00  0.00     0.037 A 
ATOM     25  C   UNL     1       5.283  -0.204 -10.389  1.00  0.00     0.049 A 
ATOM     26  C   UNL     1       6.965   4.971  -9.011  1.00  0.00     0.074 A 
ATOM     27  C   UNL     1       5.388  -0.556 -11.723  1.00  0.00     0.029 A 
ATOM     28  N   UNL     1       5.766   1.091 -10.278  1.00  0.00    -0.354 N 
ATOM     29  N   UNL     1       6.608   3.800  -9.481  1.00  0.00    -0.248 NA
ATOM     30  C   UNL     1       7.650   5.830  -9.984  1.00  0.00     0.031 C 
ATOM     31  C   UNL     1       6.025   0.492 -12.399  1.00  0.00     0.029 A 
ATOM     32  C   UNL     1       6.250   1.523 -11.501  1.00  0.00     0.049 A 
ATOM     33  H   UNL     1       5.765   1.625  -9.451  1.00  0.00     0.167 HD
ATOM     34  C   UNL     1       7.005   3.787 -10.810  1.00  0.00     0.074 A 
ATOM     35  C   UNL     1       7.616   5.075 -11.073  1.00  0.00     0.031 C 
ATOM     36  C   UNL     1       6.873   2.802 -11.733  1.00  0.00     0.037 A 
BRANCH  23  37
ATOM     37  C   UNL     1       4.439  -2.425  -9.522  1.00  0.00     0.057 A 
ATOM     38  C   UNL     1       5.384  -3.404  -9.852  1.00  0.00     0.134 A 
ATOM     39  C   UNL     1       3.094  -2.819  -9.468  1.00  0.00     0.134 A 
ATOM     40  F   UNL     1       6.687  -3.094  -9.924  1.00  0.00    -0.206 F 
ATOM     41  C   UNL     1       5.009  -4.722 -10.122  1.00  0.00     0.040 A 
ATOM     42  C   UNL     1       2.708  -4.138  -9.721  1.00  0.00     0.040 A 
ATOM     43  F   UNL     1       2.137  -1.931  -9.161  1.00  0.00    -0.206 F 
ATOM     44  C   UNL     1       3.667  -5.093 -10.053  1.00  0.00     0.006 A 
ENDBRANCH  23  37
BRANCH  24  45
ATOM     45  C   UNL     1       7.210   6.910  -7.290  1.00  0.00     0.057 A 
ATOM     46  C   UNL     1       8.267   7.118  -6.394  1.00  0.00     0.134 A 
ATOM     47  C   UNL     1       6.584   8.039  -7.825  1.00  0.00     0.134 A 
ATOM     48  F   UNL     1       8.902   6.074  -5.840  1.00  0.00    -0.206 F 
ATOM     49  C   UNL     1       8.675   8.401  -6.030  1.00  0.00     0.040 A 
ATOM     50  C   UNL     1       7.001   9.329  -7.491  1.00  0.00     0.040 A 
ATOM     51  F   UNL     1       5.577   7.903  -8.700  1.00  0.00    -0.206 F 
ATOM     52  C   UNL     1       8.045   9.511  -6.585  1.00  0.00     0.006 A 
ENDBRANCH  24  45
BRANCH  36  53
ATOM     53  C   UNL     1       7.396   3.093 -13.107  1.00  0.00     0.057 A 
ATOM     54  C   UNL     1       6.515   3.295 -14.176  1.00  0.00     0.134 A 
ATOM     55  C   UNL     1       8.769   3.166 -13.374  1.00  0.00     0.134 A 
ATOM     56  F   UNL     1       5.188   3.231 -13.988  1.00  0.00    -0.206 F 
ATOM     57  C   UNL     1       6.982   3.563 -15.463  1.00  0.00     0.040 A 
ATOM     58  C   UNL     1       9.247   3.461 -14.650  1.00  0.00     0.040 A 
ATOM     59  F   UNL     1       9.664   2.997 -12.388  1.00  0.00    -0.206 F 
ATOM     60  C   UNL     1       8.352   3.656 -15.701  1.00  0.00     0.006 A 
ENDBRANCH  36  53
ENDBRANCH  10  11
ENDBRANCH   3   5
ENDBRANCH   2   3
ENDBRANCH   1   2
BRANCH   1  61
ATOM     61  C   UNL     1       3.915  -2.005   0.390  1.00  0.00     0.275 C 
BRANCH  61  62
ATOM     62  O   UNL     1       3.338  -1.696  -0.891  1.00  0.00    -0.458 OA
BRANCH  62  63
ATOM     63  C   UNL     1       1.988  -1.505  -0.901  1.00  0.00     0.343 C 
ATOM     64  O   UNL     1       1.235  -1.593   0.051  1.00  0.00    -0.246 OA
BRANCH  63  65
ATOM     65  C   UNL     1       1.570  -1.075  -2.245  1.00  0.00     0.122 A 
ATOM     66  C   UNL     1       0.604  -0.063  -2.378  1.00  0.00     0.031 A 
ATOM     67  C   UNL     1       2.120  -1.617  -3.397  1.00  0.00     0.225 A 
ATOM     68  C   UNL     1       0.261   0.417  -3.650  1.00  0.00     0.001 A 
ATOM     69  N   UNL     1       1.786  -1.210  -4.634  1.00  0.00    -0.221 NA
ATOM     70  C   UNL     1       0.891  -0.199  -4.733  1.00  0.00     0.124 A 
BRANCH  67  71
ATOM     71  O   UNL     1       3.071  -2.597  -3.394  1.00  0.00    -0.493 OA
ATOM     72  H   UNL     1       3.375  -2.952  -2.582  1.00  0.00     0.295 HD
ENDBRANCH  67  71
BRANCH  68  73
ATOM     73  C   UNL     1      -0.696   1.512  -3.868  1.00  0.00    -0.016 A 
ATOM     74  C   UNL     1      -1.893   1.271  -4.559  1.00  0.00     0.012 A 
ATOM     75  C   UNL     1      -0.424   2.833  -3.467  1.00  0.00     0.025 A 
ATOM     76  C   UNL     1      -2.780   2.312  -4.844  1.00  0.00     0.040 A 
ATOM     77  C   UNL     1      -1.299   3.894  -3.768  1.00  0.00     0.092 A 
ATOM     78  C   UNL     1      -2.475   3.610  -4.451  1.00  0.00     0.135 A 
ATOM     79  F   UNL     1      -3.331   4.595  -4.751  1.00  0.00    -0.206 F 
BRANCH  77  80
ATOM     80  C   UNL     1      -0.995   5.315  -3.394  1.00  0.00     0.419 C 
ATOM     81  F   UNL     1      -0.983   6.157  -4.463  1.00  0.00    -0.166 F 
ATOM     82  F   UNL     1      -1.888   5.835  -2.508  1.00  0.00    -0.166 F 
ATOM     83  F   UNL     1       0.229   5.458  -2.807  1.00  0.00    -0.166 F 
ENDBRANCH  77  80
ENDBRANCH  68  73
ENDBRANCH  63  65
ENDBRANCH  62  63
ENDBRANCH  61  62
ENDBRANCH   1  61
TORSDOF 14
