REMARK SMILES O=C(OCCOC(=O)c1cc2nn[nH]n2n1)c1ccc(-c2c3nc(c(-c4c(F)cccc4F)c4ccc([nH]4)c(-c4c(F)cccc4F)c4nc(c(-c5c(F)cccc5F)c5ccc2[nH]5)C=C4)C=C3)cc1
REMARK SMILES IDX 4 1 3 2 2 3 1 4 17 5 18 6 70 7 19 8 69 9 20 10 21 11 22 12
REMARK SMILES IDX 63 13 23 14 68 15 62 16 64 17 24 18 67 19 61 20 60 21 25 23
REMARK SMILES IDX 51 24 34 25 50 26 35 27 38 28 49 29 65 30 36 31 37 32 48 34
REMARK SMILES IDX 66 35 39 36 26 37 27 38 32 39 28 40 29 41 31 42 33 43 30 44
REMARK SMILES IDX 52 45 53 46 58 47 54 48 55 49 57 50 59 51 56 52 40 53 41 54
REMARK SMILES IDX 46 55 42 56 43 57 45 58 47 59 44 60 5 61 6 62 7 63 8 64 9 65
REMARK SMILES IDX 10 66 16 67 11 68 15 69 12 70 14 71 13 72
REMARK H PARENT 64 22 38 33 14 73
REMARK Flexibility Score: inf
ROOT
ATOM      1  C   UNL     1       4.693   1.024  -0.111  1.00  0.00     0.275 C 
ENDROOT
BRANCH   1   2
ATOM      2  O   UNL     1       3.528   1.121  -0.958  1.00  0.00    -0.458 OA
BRANCH   2   3
ATOM      3  C   UNL     1       2.396   0.475  -0.600  1.00  0.00     0.338 C 
ATOM      4  O   UNL     1       1.576   0.910   0.189  1.00  0.00    -0.246 OA
BRANCH   3   5
ATOM      5  C   UNL     1       2.199  -0.748  -1.416  1.00  0.00     0.060 A 
ATOM      6  C   UNL     1       3.268  -1.363  -2.077  1.00  0.00     0.016 A 
ATOM      7  C   UNL     1       0.910  -1.286  -1.523  1.00  0.00     0.016 A 
ATOM      8  C   UNL     1       3.040  -2.460  -2.893  1.00  0.00     0.010 A 
ATOM      9  C   UNL     1       0.681  -2.390  -2.341  1.00  0.00     0.010 A 
ATOM     10  C   UNL     1       1.741  -2.954  -3.054  1.00  0.00    -0.014 A 
BRANCH  10  11
ATOM     11  C   UNL     1       1.569  -4.085  -3.964  1.00  0.00     0.031 A 
ATOM     12  C   UNL     1       2.303  -5.338  -3.614  1.00  0.00     0.074 A 
ATOM     13  C   UNL     1       0.744  -4.070  -5.030  1.00  0.00     0.049 A 
ATOM     14  N   UNL     1       3.228  -5.949  -4.284  1.00  0.00    -0.248 NA
ATOM     15  C   UNL     1       2.000  -5.958  -2.317  1.00  0.00     0.031 C 
ATOM     16  C   UNL     1      -0.269  -3.075  -5.387  1.00  0.00     0.029 A 
ATOM     17  N   UNL     1       0.595  -5.023  -5.993  1.00  0.00    -0.354 N 
ATOM     18  C   UNL     1       3.521  -7.116  -3.575  1.00  0.00     0.074 A 
ATOM     19  C   UNL     1       2.807  -7.021  -2.327  1.00  0.00     0.031 C 
ATOM     20  C   UNL     1      -1.065  -3.579  -6.357  1.00  0.00     0.029 A 
ATOM     21  C   UNL     1      -0.526  -4.858  -6.789  1.00  0.00     0.049 A 
ATOM     22  H   UNL     1       1.230  -5.766  -6.112  1.00  0.00     0.167 HD
ATOM     23  C   UNL     1       4.204  -8.156  -4.131  1.00  0.00     0.037 A 
ATOM     24  C   UNL     1      -1.004  -5.735  -7.704  1.00  0.00     0.037 A 
ATOM     25  C   UNL     1       4.926  -7.754  -5.307  1.00  0.00     0.049 A 
ATOM     26  C   UNL     1       0.096  -6.654  -8.077  1.00  0.00     0.074 A 
ATOM     27  C   UNL     1       5.943  -6.858  -5.570  1.00  0.00     0.029 A 
ATOM     28  N   UNL     1       4.418  -8.101  -6.533  1.00  0.00    -0.354 N 
ATOM     29  N   UNL     1       1.146  -6.302  -8.764  1.00  0.00    -0.248 NA
ATOM     30  C   UNL     1       0.222  -7.900  -7.337  1.00  0.00     0.031 C 
ATOM     31  C   UNL     1       5.649  -6.339  -6.864  1.00  0.00     0.029 A 
ATOM     32  C   UNL     1       4.494  -6.980  -7.315  1.00  0.00     0.049 A 
ATOM     33  H   UNL     1       4.068  -8.982  -6.798  1.00  0.00     0.167 HD
ATOM     34  C   UNL     1       2.187  -7.042  -8.223  1.00  0.00     0.074 A 
ATOM     35  C   UNL     1       1.542  -8.078  -7.423  1.00  0.00     0.031 C 
ATOM     36  C   UNL     1       3.472  -6.584  -8.253  1.00  0.00     0.037 A 
BRANCH  23  37
ATOM     37  C   UNL     1       3.986  -9.613  -3.801  1.00  0.00     0.057 A 
ATOM     38  C   UNL     1       4.863 -10.585  -4.325  1.00  0.00     0.134 A 
ATOM     39  C   UNL     1       2.793 -10.120  -3.252  1.00  0.00     0.134 A 
ATOM     40  F   UNL     1       6.029 -10.231  -4.886  1.00  0.00    -0.206 F 
ATOM     41  C   UNL     1       4.537 -11.946  -4.372  1.00  0.00     0.040 A 
ATOM     42  C   UNL     1       2.480 -11.483  -3.249  1.00  0.00     0.040 A 
ATOM     43  F   UNL     1       1.827  -9.319  -2.785  1.00  0.00    -0.206 F 
ATOM     44  C   UNL     1       3.337 -12.399  -3.841  1.00  0.00     0.006 A 
ENDBRANCH  23  37
BRANCH  24  45
ATOM     45  C   UNL     1      -2.414  -6.009  -8.053  1.00  0.00     0.057 A 
ATOM     46  C   UNL     1      -2.759  -6.666  -9.242  1.00  0.00     0.134 A 
ATOM     47  C   UNL     1      -3.439  -5.876  -7.099  1.00  0.00     0.134 A 
ATOM     48  F   UNL     1      -1.838  -6.880 -10.192  1.00  0.00    -0.206 F 
ATOM     49  C   UNL     1      -4.044  -7.179  -9.461  1.00  0.00     0.040 A 
ATOM     50  C   UNL     1      -4.727  -6.377  -7.308  1.00  0.00     0.040 A 
ATOM     51  F   UNL     1      -3.197  -5.336  -5.895  1.00  0.00    -0.206 F 
ATOM     52  C   UNL     1      -5.030  -7.044  -8.488  1.00  0.00     0.006 A 
ENDBRANCH  24  45
BRANCH  36  53
ATOM     53  C   UNL     1       3.781  -5.389  -9.107  1.00  0.00     0.057 A 
ATOM     54  C   UNL     1       3.264  -4.108  -8.866  1.00  0.00     0.134 A 
ATOM     55  C   UNL     1       4.777  -5.499 -10.084  1.00  0.00     0.134 A 
ATOM     56  F   UNL     1       2.382  -3.890  -7.883  1.00  0.00    -0.206 F 
ATOM     57  C   UNL     1       3.698  -2.992  -9.588  1.00  0.00     0.040 A 
ATOM     58  C   UNL     1       5.242  -4.388 -10.790  1.00  0.00     0.040 A 
ATOM     59  F   UNL     1       5.359  -6.685 -10.325  1.00  0.00    -0.206 F 
ATOM     60  C   UNL     1       4.697  -3.129 -10.547  1.00  0.00     0.006 A 
ENDBRANCH  36  53
ENDBRANCH  10  11
ENDBRANCH   3   5
ENDBRANCH   2   3
ENDBRANCH   1   2
BRANCH   1  61
ATOM     61  C   UNL     1       4.478   0.676   1.363  1.00  0.00     0.275 C 
BRANCH  61  62
ATOM     62  O   UNL     1       4.042  -0.689   1.475  1.00  0.00    -0.457 OA
BRANCH  62  63
ATOM     63  C   UNL     1       2.973  -0.912   2.305  1.00  0.00     0.359 C 
ATOM     64  O   UNL     1       2.472  -0.090   3.044  1.00  0.00    -0.244 OA
BRANCH  63  65
ATOM     65  C   UNL     1       2.520  -2.301   2.192  1.00  0.00     0.174 A 
ATOM     66  C   UNL     1       3.278  -3.475   2.541  1.00  0.00     0.091 A 
ATOM     67  N   UNL     1       1.312  -2.625   1.662  1.00  0.00    -0.142 NA
ATOM     68  C   UNL     1       2.457  -4.507   2.185  1.00  0.00     0.199 A 
ATOM     69  N   UNL     1       1.339  -3.940   1.729  1.00  0.00    -0.135 N 
ATOM     70  N   UNL     1       2.349  -5.851   2.079  1.00  0.00    -0.109 NA
ATOM     71  N   UNL     1       0.563  -4.921   1.314  1.00  0.00    -0.177 N 
ATOM     72  N   UNL     1       1.237  -6.113   1.497  1.00  0.00    -0.050 NA
ATOM     73  H   UNL     1      -0.341  -4.822   0.939  1.00  0.00     0.216 HD
ENDBRANCH  63  65
ENDBRANCH  62  63
ENDBRANCH  61  62
ENDBRANCH   1  61
TORSDOF 11
