REMARK SMILES C[C@@H](NC(=O)CCCNC(=O)c1ccco1)C(=O)OCCOC(=O)c1ccc(-c2c3nc(c(-c4c(F)cccc4F)c4ccc([nH]4)c(-c4c(F)cccc4F)c4nc(c(-c5c(F)cccc5F)c5ccc2[nH]5)C=C4)C=C3)cc1
REMARK SMILES IDX 17 1 18 2 2 3 1 4 3 5 4 6 5 8 6 9 7 10 8 11 9 12 10 13 11 15
REMARK SMILES IDX 12 16 13 17 16 18 14 19 15 20 19 21 20 22 21 23 22 24 23 25
REMARK SMILES IDX 24 26 25 27 26 28 78 29 27 30 77 31 28 32 29 33 30 34 71 35
REMARK SMILES IDX 31 36 76 37 70 38 72 39 32 40 75 41 69 42 68 43 33 45 59 46
REMARK SMILES IDX 42 47 58 48 43 49 46 50 57 51 73 52 44 53 45 54 56 56 74 57
REMARK SMILES IDX 47 58 34 59 35 60 40 61 36 62 37 63 39 64 41 65 38 66 60 67
REMARK SMILES IDX 61 68 66 69 62 70 63 71 65 72 67 73 64 74 48 75 49 76 54 77
REMARK SMILES IDX 50 78 51 79 53 80 55 81 52 82
REMARK H PARENT 3 7 9 14 72 44 46 55
REMARK Flexibility Score: inf
ROOT
ATOM      1  C   UNL     1      -1.065   2.697   1.423  1.00  0.00     0.328 C 
ATOM      2  O   UNL     1      -1.249   3.527   2.308  1.00  0.00    -0.250 OA
ENDROOT
BRANCH   1   3
ATOM      3  C   UNL     1       0.340   2.394   0.848  1.00  0.00     0.189 C 
ATOM      4  C   UNL     1       0.831   0.952   0.761  1.00  0.00     0.043 C 
BRANCH   3   5
ATOM      5  N   UNL     1       0.740   3.126  -0.358  1.00  0.00    -0.343 N 
ATOM      6  C   UNL     1       0.288   2.968  -1.637  1.00  0.00     0.220 C 
ATOM      7  H   UNL     1       1.424   3.822  -0.229  1.00  0.00     0.164 HD
ATOM      8  O   UNL     1       1.083   3.139  -2.560  1.00  0.00    -0.275 OA
BRANCH   6   9
ATOM      9  C   UNL     1      -1.185   2.755  -1.908  1.00  0.00     0.102 C 
BRANCH   9  10
ATOM     10  C   UNL     1      -1.669   1.459  -2.570  1.00  0.00     0.031 C 
BRANCH  10  11
ATOM     11  C   UNL     1      -1.261   0.059  -2.080  1.00  0.00     0.117 C 
BRANCH  11  12
ATOM     12  N   UNL     1      -1.938  -0.402  -0.879  1.00  0.00    -0.349 N 
ATOM     13  C   UNL     1      -2.584  -1.600  -0.617  1.00  0.00     0.286 C 
ATOM     14  H   UNL     1      -1.937   0.240  -0.132  1.00  0.00     0.163 HD
ATOM     15  O   UNL     1      -3.302  -1.680   0.381  1.00  0.00    -0.266 OA
BRANCH  13  16
ATOM     16  C   UNL     1      -2.440  -2.739  -1.487  1.00  0.00     0.191 A 
ATOM     17  C   UNL     1      -1.393  -3.291  -2.200  1.00  0.00     0.056 A 
ATOM     18  O   UNL     1      -3.529  -3.568  -1.578  1.00  0.00    -0.459 OA
ATOM     19  C   UNL     1      -1.877  -4.504  -2.757  1.00  0.00     0.043 A 
ATOM     20  C   UNL     1      -3.182  -4.623  -2.347  1.00  0.00     0.196 A 
ENDBRANCH  13  16
ENDBRANCH  11  12
ENDBRANCH  10  11
ENDBRANCH   9  10
ENDBRANCH   6   9
ENDBRANCH   3   5
ENDBRANCH   1   3
BRANCH   1  21
ATOM     21  O   UNL     1      -2.066   2.039   0.782  1.00  0.00    -0.461 OA
BRANCH  21  22
ATOM     22  C   UNL     1      -3.432   2.371   1.135  1.00  0.00     0.274 C 
BRANCH  22  23
ATOM     23  C   UNL     1      -4.176   1.175   1.736  1.00  0.00     0.275 C 
BRANCH  23  24
ATOM     24  O   UNL     1      -3.612   0.755   2.987  1.00  0.00    -0.458 OA
BRANCH  24  25
ATOM     25  C   UNL     1      -2.447   0.085   2.867  1.00  0.00     0.338 C 
ATOM     26  O   UNL     1      -1.824  -0.184   1.858  1.00  0.00    -0.246 OA
BRANCH  25  27
ATOM     27  C   UNL     1      -1.808  -0.098   4.153  1.00  0.00     0.060 A 
ATOM     28  C   UNL     1      -0.496   0.380   4.259  1.00  0.00     0.016 A 
ATOM     29  C   UNL     1      -2.436  -0.792   5.180  1.00  0.00     0.016 A 
ATOM     30  C   UNL     1       0.217   0.160   5.410  1.00  0.00     0.010 A 
ATOM     31  C   UNL     1      -1.736  -0.972   6.361  1.00  0.00     0.010 A 
ATOM     32  C   UNL     1      -0.425  -0.476   6.473  1.00  0.00    -0.014 A 
BRANCH  32  33
ATOM     33  C   UNL     1       0.241  -0.484   7.772  1.00  0.00     0.031 A 
ATOM     34  C   UNL     1       0.818  -1.750   8.290  1.00  0.00     0.074 A 
ATOM     35  C   UNL     1       0.255   0.683   8.437  1.00  0.00     0.049 A 
ATOM     36  N   UNL     1       1.315  -1.994   9.468  1.00  0.00    -0.248 NA
ATOM     37  C   UNL     1       0.821  -2.900   7.372  1.00  0.00     0.031 C 
ATOM     38  C   UNL     1      -0.292   1.948   7.926  1.00  0.00     0.029 A 
ATOM     39  N   UNL     1       0.725   1.001   9.675  1.00  0.00    -0.354 N 
ATOM     40  C   UNL     1       1.662  -3.336   9.451  1.00  0.00     0.074 A 
ATOM     41  C   UNL     1       1.315  -3.856   8.147  1.00  0.00     0.031 C 
ATOM     42  C   UNL     1      -0.124   2.905   8.848  1.00  0.00     0.029 A 
ATOM     43  C   UNL     1       0.479   2.305  10.027  1.00  0.00     0.049 A 
ATOM     44  H   UNL     1       1.193   0.361  10.258  1.00  0.00     0.167 HD
ATOM     45  C   UNL     1       2.208  -4.050  10.461  1.00  0.00     0.037 A 
ATOM     46  C   UNL     1       0.685   2.923  11.200  1.00  0.00     0.037 A 
ATOM     47  C   UNL     1       2.510  -3.467  11.743  1.00  0.00     0.049 A 
ATOM     48  C   UNL     1       1.284   2.102  12.300  1.00  0.00     0.074 A 
ATOM     49  C   UNL     1       3.058  -4.062  12.862  1.00  0.00     0.029 A 
ATOM     50  N   UNL     1       2.276  -2.132  12.069  1.00  0.00    -0.354 N 
ATOM     51  N   UNL     1       1.611   0.830  12.289  1.00  0.00    -0.248 NA
ATOM     52  C   UNL     1       1.541   2.787  13.568  1.00  0.00     0.031 C 
ATOM     53  C   UNL     1       3.123  -3.097  13.875  1.00  0.00     0.029 A 
ATOM     54  C   UNL     1       2.659  -1.887  13.375  1.00  0.00     0.049 A 
ATOM     55  H   UNL     1       1.894  -1.462  11.458  1.00  0.00     0.167 HD
ATOM     56  C   UNL     1       2.125   0.557  13.544  1.00  0.00     0.074 A 
ATOM     57  C   UNL     1       2.084   1.810  14.281  1.00  0.00     0.031 C 
ATOM     58  C   UNL     1       2.586  -0.613  14.052  1.00  0.00     0.037 A 
BRANCH  45  59
ATOM     59  C   UNL     1       2.448  -5.511  10.221  1.00  0.00     0.057 A 
ATOM     60  C   UNL     1       3.431  -5.969   9.333  1.00  0.00     0.134 A 
ATOM     61  C   UNL     1       1.667  -6.477  10.867  1.00  0.00     0.134 A 
ATOM     62  F   UNL     1       4.199  -5.098   8.661  1.00  0.00    -0.206 F 
ATOM     63  C   UNL     1       3.610  -7.331   9.077  1.00  0.00     0.040 A 
ATOM     64  C   UNL     1       1.852  -7.843  10.638  1.00  0.00     0.040 A 
ATOM     65  F   UNL     1       0.701  -6.112  11.724  1.00  0.00    -0.206 F 
ATOM     66  C   UNL     1       2.821  -8.273   9.734  1.00  0.00     0.006 A 
ENDBRANCH  45  59
BRANCH  46  67
ATOM     67  C   UNL     1       0.322   4.351  11.357  1.00  0.00     0.057 A 
ATOM     68  C   UNL     1       1.307   5.337  11.465  1.00  0.00     0.134 A 
ATOM     69  C   UNL     1      -1.013   4.777  11.325  1.00  0.00     0.134 A 
ATOM     70  F   UNL     1       2.603   4.995  11.500  1.00  0.00    -0.206 F 
ATOM     71  C   UNL     1       0.980   6.693  11.546  1.00  0.00     0.040 A 
ATOM     72  C   UNL     1      -1.354   6.129  11.379  1.00  0.00     0.040 A 
ATOM     73  F   UNL     1      -2.006   3.884  11.199  1.00  0.00    -0.206 F 
ATOM     74  C   UNL     1      -0.354   7.092  11.494  1.00  0.00     0.006 A 
ENDBRANCH  46  67
BRANCH  58  75
ATOM     75  C   UNL     1       3.094  -0.558  15.457  1.00  0.00     0.057 A 
ATOM     76  C   UNL     1       2.223  -0.466  16.549  1.00  0.00     0.134 A 
ATOM     77  C   UNL     1       4.468  -0.619  15.714  1.00  0.00     0.134 A 
ATOM     78  F   UNL     1       0.897  -0.385  16.358  1.00  0.00    -0.206 F 
ATOM     79  C   UNL     1       2.706  -0.412  17.855  1.00  0.00     0.040 A 
ATOM     80  C   UNL     1       4.961  -0.593  17.017  1.00  0.00     0.040 A 
ATOM     81  F   UNL     1       5.347  -0.713  14.706  1.00  0.00    -0.206 F 
ATOM     82  C   UNL     1       4.079  -0.482  18.091  1.00  0.00     0.006 A 
ENDBRANCH  58  75
ENDBRANCH  32  33
ENDBRANCH  25  27
ENDBRANCH  24  25
ENDBRANCH  23  24
ENDBRANCH  22  23
ENDBRANCH  21  22
ENDBRANCH   1  21
TORSDOF 17
