REMARK SMILES O=C(OCCOC(=O)c1cccc(Nc2ccc([N+](=O)[O-])cc2)c1)c1ccc(-c2c3nc(c(-c4c(F)cccc4F)c4ccc([nH]4)c(-c4c(F)cccc4F)c4nc(c(-c5c(F)cccc5F)c5ccc2[nH]5)C=C4)C=C3)cc1
REMARK SMILES IDX 5 1 4 2 3 3 2 4 1 5 25 6 26 7 78 8 27 9 77 10 28 11 29 12
REMARK SMILES IDX 30 13 71 14 31 15 76 16 70 17 72 18 32 19 75 20 69 21 68 22
REMARK SMILES IDX 33 24 59 25 42 26 58 27 43 28 46 29 57 30 73 31 44 32 45 33
REMARK SMILES IDX 56 35 74 36 47 37 34 38 35 39 40 40 36 41 37 42 39 43 41 44
REMARK SMILES IDX 38 45 60 46 61 47 66 48 62 49 63 50 65 51 67 52 64 53 48 54
REMARK SMILES IDX 49 55 54 56 50 57 51 58 53 59 55 60 52 61 6 62 7 63 8 64
REMARK SMILES IDX 9 65 10 66 24 67 11 68 13 69 12 70 14 71 15 73 16 74 23 75
REMARK SMILES IDX 17 76 22 77 18 78 19 79 20 80 21 81
REMARK H PARENT 72 23 46 34 14 72
REMARK Flexibility Score: inf
ROOT
ATOM      1  C   UNL     1       3.946  -2.143   0.176  1.00  0.00     0.275 C 
ENDROOT
BRANCH   1   2
ATOM      2  C   UNL     1       4.128  -0.931   1.095  1.00  0.00     0.275 C 
BRANCH   2   3
ATOM      3  O   UNL     1       3.074   0.045   1.012  1.00  0.00    -0.458 OA
BRANCH   3   4
ATOM      4  C   UNL     1       3.039   1.175   0.266  1.00  0.00     0.338 C 
ATOM      5  O   UNL     1       2.289   2.092   0.594  1.00  0.00    -0.246 OA
BRANCH   4   6
ATOM      6  C   UNL     1       3.720   1.278  -1.060  1.00  0.00     0.060 A 
ATOM      7  C   UNL     1       4.998   0.801  -1.362  1.00  0.00     0.016 A 
ATOM      8  C   UNL     1       3.005   1.942  -2.072  1.00  0.00     0.016 A 
ATOM      9  C   UNL     1       5.517   0.908  -2.655  1.00  0.00     0.010 A 
ATOM     10  C   UNL     1       3.515   2.047  -3.369  1.00  0.00     0.010 A 
ATOM     11  C   UNL     1       4.782   1.533  -3.664  1.00  0.00    -0.014 A 
BRANCH  11  12
ATOM     12  C   UNL     1       5.422   1.827  -4.964  1.00  0.00     0.031 A 
ATOM     13  C   UNL     1       5.921   3.222  -5.200  1.00  0.00     0.074 A 
ATOM     14  C   UNL     1       5.598   0.868  -5.891  1.00  0.00     0.049 A 
ATOM     15  N   UNL     1       6.487   3.730  -6.261  1.00  0.00    -0.248 NA
ATOM     16  C   UNL     1       5.781   4.165  -4.077  1.00  0.00     0.031 C 
ATOM     17  C   UNL     1       5.229  -0.538  -5.739  1.00  0.00     0.029 A 
ATOM     18  N   UNL     1       6.114   0.940  -7.159  1.00  0.00    -0.354 N 
ATOM     19  C   UNL     1       6.812   5.035  -5.918  1.00  0.00     0.074 A 
ATOM     20  C   UNL     1       6.304   5.269  -4.585  1.00  0.00     0.031 C 
ATOM     21  C   UNL     1       5.466  -1.184  -6.894  1.00  0.00     0.029 A 
ATOM     22  C   UNL     1       5.997  -0.234  -7.865  1.00  0.00     0.049 A 
ATOM     23  H   UNL     1       6.528   1.753  -7.529  1.00  0.00     0.167 HD
ATOM     24  C   UNL     1       7.512   5.944  -6.635  1.00  0.00     0.037 A 
ATOM     25  C   UNL     1       6.250  -0.489  -9.162  1.00  0.00     0.037 A 
ATOM     26  C   UNL     1       7.984   5.709  -7.971  1.00  0.00     0.049 A 
ATOM     27  C   UNL     1       6.796   0.609 -10.023  1.00  0.00     0.074 A 
ATOM     28  C   UNL     1       8.724   6.540  -8.789  1.00  0.00     0.029 A 
ATOM     29  N   UNL     1       7.731   4.551  -8.694  1.00  0.00    -0.354 N 
ATOM     30  N   UNL     1       7.114   1.835  -9.688  1.00  0.00    -0.248 NA
ATOM     31  C   UNL     1       7.027   0.286 -11.437  1.00  0.00     0.031 C 
ATOM     32  C   UNL     1       8.877   5.904 -10.027  1.00  0.00     0.029 A 
ATOM     33  C   UNL     1       8.270   4.659  -9.963  1.00  0.00     0.049 A 
ATOM     34  H   UNL     1       7.240   3.768  -8.353  1.00  0.00     0.167 HD
ATOM     35  C   UNL     1       7.636   2.417 -10.833  1.00  0.00     0.074 A 
ATOM     36  C   UNL     1       7.551   1.420 -11.883  1.00  0.00     0.031 C 
ATOM     37  C   UNL     1       8.174   3.651 -10.989  1.00  0.00     0.037 A 
BRANCH  24  38
ATOM     38  C   UNL     1       7.787   7.258  -5.969  1.00  0.00     0.057 A 
ATOM     39  C   UNL     1       8.679   7.362  -4.891  1.00  0.00     0.134 A 
ATOM     40  C   UNL     1       7.122   8.421  -6.372  1.00  0.00     0.134 A 
ATOM     41  F   UNL     1       9.331   6.279  -4.441  1.00  0.00    -0.206 F 
ATOM     42  C   UNL     1       8.869   8.567  -4.214  1.00  0.00     0.040 A 
ATOM     43  C   UNL     1       7.322   9.638  -5.718  1.00  0.00     0.040 A 
ATOM     44  F   UNL     1       6.253   8.390  -7.393  1.00  0.00    -0.206 F 
ATOM     45  C   UNL     1       8.189   9.710  -4.628  1.00  0.00     0.006 A 
ENDBRANCH  24  38
BRANCH  25  46
ATOM     46  C   UNL     1       5.889  -1.801  -9.750  1.00  0.00     0.057 A 
ATOM     47  C   UNL     1       6.804  -2.839  -9.917  1.00  0.00     0.134 A 
ATOM     48  C   UNL     1       4.580  -2.021 -10.187  1.00  0.00     0.134 A 
ATOM     49  F   UNL     1       8.087  -2.673  -9.569  1.00  0.00    -0.206 F 
ATOM     50  C   UNL     1       6.418  -4.062 -10.477  1.00  0.00     0.040 A 
ATOM     51  C   UNL     1       4.170  -3.241 -10.722  1.00  0.00     0.040 A 
ATOM     52  F   UNL     1       3.692  -1.024 -10.132  1.00  0.00    -0.206 F 
ATOM     53  C   UNL     1       5.095  -4.269 -10.868  1.00  0.00     0.006 A 
ENDBRANCH  25  46
BRANCH  37  54
ATOM     54  C   UNL     1       8.787   3.958 -12.319  1.00  0.00     0.057 A 
ATOM     55  C   UNL     1       8.014   4.272 -13.441  1.00  0.00     0.134 A 
ATOM     56  C   UNL     1      10.181   3.978 -12.458  1.00  0.00     0.134 A 
ATOM     57  F   UNL     1       6.674   4.248 -13.372  1.00  0.00    -0.206 F 
ATOM     58  C   UNL     1       8.608   4.588 -14.663  1.00  0.00     0.040 A 
ATOM     59  C   UNL     1      10.786   4.314 -13.667  1.00  0.00     0.040 A 
ATOM     60  F   UNL     1      10.973   3.685 -11.415  1.00  0.00    -0.206 F 
ATOM     61  C   UNL     1       9.998   4.617 -14.775  1.00  0.00     0.006 A 
ENDBRANCH  37  54
ENDBRANCH  11  12
ENDBRANCH   4   6
ENDBRANCH   3   4
ENDBRANCH   2   3
ENDBRANCH   1   2
BRANCH   1  62
ATOM     62  O   UNL     1       3.420  -1.801  -1.116  1.00  0.00    -0.458 OA
BRANCH  62  63
ATOM     63  C   UNL     1       2.072  -1.930  -1.224  1.00  0.00     0.338 C 
ATOM     64  O   UNL     1       1.312  -2.393  -0.390  1.00  0.00    -0.246 OA
BRANCH  63  65
ATOM     65  C   UNL     1       1.601  -1.278  -2.460  1.00  0.00     0.062 A 
ATOM     66  C   UNL     1       0.609  -0.302  -2.332  1.00  0.00     0.016 A 
ATOM     67  C   UNL     1       2.099  -1.625  -3.721  1.00  0.00     0.041 A 
ATOM     68  C   UNL     1       0.155   0.369  -3.462  1.00  0.00     0.003 A 
ATOM     69  C   UNL     1       1.594  -1.000  -4.875  1.00  0.00     0.039 A 
ATOM     70  C   UNL     1       0.652   0.026  -4.721  1.00  0.00     0.026 A 
BRANCH  69  71
ATOM     71  N   UNL     1       2.043  -1.415  -6.141  1.00  0.00    -0.355 N 
ATOM     72  H   UNL     1       2.678  -2.168  -6.135  1.00  0.00     0.167 HD
BRANCH  71  73
ATOM     73  C   UNL     1       1.721  -0.916  -7.414  1.00  0.00     0.039 A 
ATOM     74  C   UNL     1       1.084  -1.761  -8.334  1.00  0.00     0.033 A 
ATOM     75  C   UNL     1       1.993   0.408  -7.784  1.00  0.00     0.033 A 
ATOM     76  C   UNL     1       0.736  -1.303  -9.607  1.00  0.00     0.088 A 
ATOM     77  C   UNL     1       1.667   0.878  -9.062  1.00  0.00     0.088 A 
ATOM     78  C   UNL     1       1.046   0.014  -9.973  1.00  0.00     0.269 A 
BRANCH  78  79
ATOM     79  N   UNL     1       0.775   0.464 -11.342  1.00  0.00     0.062 N 
ATOM     80  O   UNL     1       0.442  -0.396 -12.173  1.00  0.00    -0.258 OA
ATOM     81  O   UNL     1       0.894   1.671 -11.591  1.00  0.00    -0.258 OA
ENDBRANCH  78  79
ENDBRANCH  71  73
ENDBRANCH  69  71
ENDBRANCH  63  65
ENDBRANCH  62  63
ENDBRANCH   1  62
TORSDOF 14
