REMARK SMILES CC(C)(C)OC(=O)N[C@@H](Cc1c[nH]c2cccc(Cl)c12)C(=O)OCCOC(=O)c1ccc(-c2c3nc(c(-c4c(F)cccc4F)c4ccc([nH]4)c(-c4c(F)cccc4F)c4nc(c(-c5c(F)cccc5F)c5ccc2[nH]5)C=C4)C=C3)cc1
REMARK SMILES IDX 24 1 23 2 21 3 22 4 9 5 8 6 6 7 7 8 5 10 2 11 1 12 3 13 4 14
REMARK SMILES IDX 10 15 11 16 12 17 20 18 13 19 14 20 18 21 15 23 17 24 19 25
REMARK SMILES IDX 16 26 25 27 26 28 27 29 28 30 29 31 30 32 82 33 31 34 81 35
REMARK SMILES IDX 32 36 33 37 34 38 75 39 35 40 80 41 74 42 76 43 36 44 79 45
REMARK SMILES IDX 73 46 72 47 37 49 63 50 46 51 62 52 47 53 50 54 61 55 77 56
REMARK SMILES IDX 48 57 49 58 60 60 78 61 51 62 38 63 39 64 44 65 40 66 41 67
REMARK SMILES IDX 43 68 45 69 42 70 64 71 65 72 70 73 66 74 67 75 69 76 71 77
REMARK SMILES IDX 68 78 52 79 53 80 58 81 54 82 55 83 57 84 59 85 56 86
REMARK H PARENT 8 9 13 22 76 48 50 59
REMARK Flexibility Score: inf
ROOT
ATOM      1  C   UNL     1       0.706   7.904  -2.415  1.00  0.00     0.274 C 
ENDROOT
BRANCH   1   2
ATOM      2  O   UNL     1       1.114   6.548  -2.694  1.00  0.00    -0.461 OA
BRANCH   2   3
ATOM      3  C   UNL     1       1.762   5.864  -1.699  1.00  0.00     0.329 C 
ATOM      4  O   UNL     1       2.001   6.317  -0.585  1.00  0.00    -0.250 OA
BRANCH   3   5
ATOM      5  C   UNL     1       2.284   4.503  -2.184  1.00  0.00     0.200 C 
BRANCH   5   6
ATOM      6  N   UNL     1       1.342   3.827  -3.087  1.00  0.00    -0.308 N 
ATOM      7  C   UNL     1       0.771   2.594  -2.974  1.00  0.00     0.408 C 
ATOM      8  O   UNL     1       0.028   2.167  -3.849  1.00  0.00    -0.225 OA
ATOM      9  H   UNL     1       1.087   4.338  -3.890  1.00  0.00     0.168 HD
BRANCH   7  10
ATOM     10  O   UNL     1       1.115   1.924  -1.845  1.00  0.00    -0.444 OA
BRANCH  10  11
ATOM     11  C   UNL     1       0.605   0.578  -1.593  1.00  0.00     0.106 C 
ATOM     12  C   UNL     1       1.093   0.219  -0.179  1.00  0.00     0.056 C 
ATOM     13  C   UNL     1       1.207  -0.425  -2.583  1.00  0.00     0.056 C 
ATOM     14  C   UNL     1      -0.929   0.497  -1.610  1.00  0.00     0.056 C 
ENDBRANCH  10  11
ENDBRANCH   7  10
ENDBRANCH   5   6
BRANCH   5  15
ATOM     15  C   UNL     1       3.660   4.729  -2.859  1.00  0.00     0.075 C 
BRANCH  15  16
ATOM     16  C   UNL     1       3.609   5.697  -4.022  1.00  0.00    -0.018 A 
ATOM     17  C   UNL     1       3.241   5.335  -5.306  1.00  0.00     0.087 A 
ATOM     18  C   UNL     1       3.779   7.138  -4.027  1.00  0.00     0.021 A 
ATOM     19  N   UNL     1       3.098   6.466  -6.054  1.00  0.00    -0.361 N 
ATOM     20  C   UNL     1       3.364   7.578  -5.293  1.00  0.00     0.047 A 
ATOM     21  C   UNL     1       4.144   8.153  -3.107  1.00  0.00     0.050 A 
ATOM     22  H   UNL     1       2.840   6.483  -7.004  1.00  0.00     0.166 HD
ATOM     23  C   UNL     1       3.252   8.935  -5.638  1.00  0.00     0.027 A 
ATOM     24  C   UNL     1       4.024   9.510  -3.420  1.00  0.00     0.021 A 
ATOM     25  Cl  UNL     1       4.752   7.691  -1.579  1.00  0.00    -0.084 Cl
ATOM     26  C   UNL     1       3.570   9.894  -4.675  1.00  0.00     0.004 A 
ENDBRANCH  15  16
ENDBRANCH   5  15
ENDBRANCH   3   5
ENDBRANCH   2   3
ENDBRANCH   1   2
BRANCH   1  27
ATOM     27  C   UNL     1      -0.765   7.977  -2.027  1.00  0.00     0.275 C 
BRANCH  27  28
ATOM     28  O   UNL     1      -0.967   7.290  -0.797  1.00  0.00    -0.458 OA
BRANCH  28  29
ATOM     29  C   UNL     1      -1.100   5.959  -0.968  1.00  0.00     0.338 C 
ATOM     30  O   UNL     1      -1.134   5.332  -2.015  1.00  0.00    -0.246 OA
BRANCH  29  31
ATOM     31  C   UNL     1      -1.300   5.315   0.319  1.00  0.00     0.060 A 
ATOM     32  C   UNL     1      -0.903   3.978   0.407  1.00  0.00     0.016 A 
ATOM     33  C   UNL     1      -2.303   5.872   1.113  1.00  0.00     0.016 A 
ATOM     34  C   UNL     1      -1.715   3.118   1.101  1.00  0.00     0.010 A 
ATOM     35  C   UNL     1      -3.136   5.005   1.766  1.00  0.00     0.010 A 
ATOM     36  C   UNL     1      -2.888   3.637   1.645  1.00  0.00    -0.014 A 
BRANCH  36  37
ATOM     37  C   UNL     1      -3.910   2.698   2.041  1.00  0.00     0.031 A 
ATOM     38  C   UNL     1      -3.679   2.088   3.365  1.00  0.00     0.074 A 
ATOM     39  C   UNL     1      -5.016   2.552   1.287  1.00  0.00     0.049 A 
ATOM     40  N   UNL     1      -3.589   0.838   3.676  1.00  0.00    -0.248 NA
ATOM     41  C   UNL     1      -3.370   3.014   4.467  1.00  0.00     0.031 C 
ATOM     42  C   UNL     1      -5.425   3.332   0.111  1.00  0.00     0.029 A 
ATOM     43  N   UNL     1      -6.083   1.742   1.499  1.00  0.00    -0.354 N 
ATOM     44  C   UNL     1      -3.388   0.820   5.053  1.00  0.00     0.074 A 
ATOM     45  C   UNL     1      -3.084   2.168   5.452  1.00  0.00     0.031 C 
ATOM     46  C   UNL     1      -6.738   3.116  -0.128  1.00  0.00     0.029 A 
ATOM     47  C   UNL     1      -7.221   2.108   0.799  1.00  0.00     0.049 A 
ATOM     48  H   UNL     1      -6.052   0.962   2.099  1.00  0.00     0.167 HD
ATOM     49  C   UNL     1      -3.724  -0.251   5.816  1.00  0.00     0.037 A 
ATOM     50  C   UNL     1      -8.479   1.679   1.060  1.00  0.00     0.037 A 
ATOM     51  C   UNL     1      -3.846  -1.450   5.036  1.00  0.00     0.049 A 
ATOM     52  C   UNL     1      -8.371   0.470   1.918  1.00  0.00     0.074 A 
ATOM     53  C   UNL     1      -2.971  -2.212   4.286  1.00  0.00     0.029 A 
ATOM     54  N   UNL     1      -5.105  -1.852   4.667  1.00  0.00    -0.354 N 
ATOM     55  N   UNL     1      -7.895  -0.674   1.509  1.00  0.00    -0.248 NA
ATOM     56  C   UNL     1      -8.366   0.662   3.362  1.00  0.00     0.031 C 
ATOM     57  C   UNL     1      -3.743  -2.703   3.193  1.00  0.00     0.029 A 
ATOM     58  C   UNL     1      -5.047  -2.229   3.349  1.00  0.00     0.049 A 
ATOM     59  H   UNL     1      -5.904  -1.867   5.242  1.00  0.00     0.167 HD
ATOM     60  C   UNL     1      -7.174  -1.173   2.587  1.00  0.00     0.074 A 
ATOM     61  C   UNL     1      -7.575  -0.352   3.726  1.00  0.00     0.031 C 
ATOM     62  C   UNL     1      -6.113  -2.013   2.399  1.00  0.00     0.037 A 
BRANCH  49  63
ATOM     63  C   UNL     1      -4.267  -0.117   7.211  1.00  0.00     0.057 A 
ATOM     64  C   UNL     1      -4.943   1.029   7.686  1.00  0.00     0.134 A 
ATOM     65  C   UNL     1      -4.359  -1.250   8.031  1.00  0.00     0.134 A 
ATOM     66  F   UNL     1      -5.050   2.152   6.964  1.00  0.00    -0.206 F 
ATOM     67  C   UNL     1      -5.640   1.052   8.895  1.00  0.00     0.040 A 
ATOM     68  C   UNL     1      -5.105  -1.256   9.215  1.00  0.00     0.040 A 
ATOM     69  F   UNL     1      -3.784  -2.407   7.670  1.00  0.00    -0.206 F 
ATOM     70  C   UNL     1      -5.748  -0.103   9.650  1.00  0.00     0.006 A 
ENDBRANCH  49  63
BRANCH  50  71
ATOM     71  C   UNL     1      -9.737   2.441   0.896  1.00  0.00     0.057 A 
ATOM     72  C   UNL     1      -9.774   3.841   1.039  1.00  0.00     0.134 A 
ATOM     73  C   UNL     1     -10.979   1.798   0.827  1.00  0.00     0.134 A 
ATOM     74  F   UNL     1      -8.649   4.551   1.212  1.00  0.00    -0.206 F 
ATOM     75  C   UNL     1     -10.971   4.561   1.094  1.00  0.00     0.040 A 
ATOM     76  C   UNL     1     -12.187   2.506   0.891  1.00  0.00     0.040 A 
ATOM     77  F   UNL     1     -11.048   0.462   0.744  1.00  0.00    -0.206 F 
ATOM     78  C   UNL     1     -12.185   3.892   1.029  1.00  0.00     0.006 A 
ENDBRANCH  50  71
BRANCH  62  79
ATOM     79  C   UNL     1      -5.892  -2.530   1.004  1.00  0.00     0.057 A 
ATOM     80  C   UNL     1      -5.930  -3.906   0.762  1.00  0.00     0.134 A 
ATOM     81  C   UNL     1      -5.502  -1.709  -0.065  1.00  0.00     0.134 A 
ATOM     82  F   UNL     1      -6.226  -4.759   1.755  1.00  0.00    -0.206 F 
ATOM     83  C   UNL     1      -5.615  -4.440  -0.491  1.00  0.00     0.040 A 
ATOM     84  C   UNL     1      -5.217  -2.225  -1.332  1.00  0.00     0.040 A 
ATOM     85  F   UNL     1      -5.327  -0.394   0.106  1.00  0.00    -0.206 F 
ATOM     86  C   UNL     1      -5.270  -3.598  -1.547  1.00  0.00     0.006 A 
ENDBRANCH  62  79
ENDBRANCH  36  37
ENDBRANCH  29  31
ENDBRANCH  28  29
ENDBRANCH  27  28
ENDBRANCH   1  27
TORSDOF 16
