REMARK SMILES O=C(CSc1ccc(NC(=O)c2cccc3ccccc23)cc1)OCCOC(=O)c1ccc(-c2c3nc(c(-c4c(F)cccc4F)c4ccc([nH]4)c(-c4c(F)cccc4F)c4nc(c(-c5c(F)cccc5F)c5ccc2[nH]5)C=C4)C=C3)cc1
REMARK SMILES IDX 25 1 24 2 2 3 1 4 3 5 4 6 5 7 6 8 23 9 7 10 22 11 8 12 9 13
REMARK SMILES IDX 10 14 11 16 12 17 13 18 21 19 14 20 16 21 20 22 15 23 17 24
REMARK SMILES IDX 19 25 18 26 26 27 27 28 28 29 29 30 30 31 31 32 83 33 32 34
REMARK SMILES IDX 82 35 33 36 34 37 35 38 76 39 36 40 81 41 75 42 77 43 37 44
REMARK SMILES IDX 80 45 74 46 73 47 38 49 64 50 47 51 63 52 48 53 51 54 62 55
REMARK SMILES IDX 78 56 49 57 50 58 61 60 79 61 52 62 39 63 40 64 45 65 41 66
REMARK SMILES IDX 42 67 44 68 46 69 43 70 65 71 66 72 71 73 67 74 68 75 70 76
REMARK SMILES IDX 72 77 69 78 53 79 54 80 59 81 55 82 56 83 58 84 60 85 57 86
REMARK H PARENT 9 15 77 48 51 59
REMARK Flexibility Score: inf
ROOT
ATOM      1  C   UNL     1       4.895   0.786  -0.823  1.00  0.00     0.274 C 
ENDROOT
BRANCH   1   2
ATOM      2  O   UNL     1       3.659   0.048  -0.879  1.00  0.00    -0.461 OA
BRANCH   2   3
ATOM      3  C   UNL     1       3.109  -0.579   0.187  1.00  0.00     0.316 C 
ATOM      4  O   UNL     1       1.903  -0.821   0.184  1.00  0.00    -0.251 OA
BRANCH   3   5
ATOM      5  C   UNL     1       3.981  -0.947   1.372  1.00  0.00     0.197 C 
BRANCH   5   6
ATOM      6  S   UNL     1       4.810  -2.548   1.209  1.00  0.00    -0.114 SA
BRANCH   6   7
ATOM      7  C   UNL     1       3.469  -3.724   1.221  1.00  0.00     0.008 A 
ATOM      8  C   UNL     1       2.158  -3.453   1.617  1.00  0.00     0.017 A 
ATOM      9  C   UNL     1       3.765  -5.005   0.749  1.00  0.00     0.017 A 
ATOM     10  C   UNL     1       1.130  -4.370   1.373  1.00  0.00     0.027 A 
ATOM     11  C   UNL     1       2.745  -5.930   0.527  1.00  0.00     0.027 A 
ATOM     12  C   UNL     1       1.411  -5.572   0.739  1.00  0.00     0.041 A 
BRANCH  12  13
ATOM     13  N   UNL     1       0.449  -6.439   0.213  1.00  0.00    -0.322 N 
ATOM     14  C   UNL     1      -0.866  -6.284  -0.147  1.00  0.00     0.256 C 
ATOM     15  H   UNL     1       0.786  -7.353   0.070  1.00  0.00     0.170 HD
ATOM     16  O   UNL     1      -1.463  -7.279  -0.571  1.00  0.00    -0.269 OA
BRANCH  14  17
ATOM     17  C   UNL     1      -1.632  -5.019  -0.071  1.00  0.00     0.048 A 
ATOM     18  C   UNL     1      -2.820  -5.122   0.675  1.00  0.00     0.014 A 
ATOM     19  C   UNL     1      -1.331  -3.830  -0.800  1.00  0.00    -0.006 A 
ATOM     20  C   UNL     1      -3.727  -4.073   0.711  1.00  0.00     0.001 A 
ATOM     21  C   UNL     1      -2.279  -2.772  -0.750  1.00  0.00    -0.018 A 
ATOM     22  C   UNL     1      -0.163  -3.607  -1.572  1.00  0.00     0.009 A 
ATOM     23  C   UNL     1      -3.462  -2.912  -0.008  1.00  0.00     0.009 A 
ATOM     24  C   UNL     1      -2.047  -1.573  -1.443  1.00  0.00     0.009 A 
ATOM     25  C   UNL     1       0.079  -2.386  -2.209  1.00  0.00     0.001 A 
ATOM     26  C   UNL     1      -0.867  -1.372  -2.153  1.00  0.00     0.001 A 
ENDBRANCH  14  17
ENDBRANCH  12  13
ENDBRANCH   6   7
ENDBRANCH   5   6
ENDBRANCH   3   5
ENDBRANCH   2   3
ENDBRANCH   1   2
BRANCH   1  27
ATOM     27  C   UNL     1       4.697   2.184  -0.224  1.00  0.00     0.275 C 
BRANCH  27  28
ATOM     28  O   UNL     1       4.228   2.094   1.138  1.00  0.00    -0.458 OA
BRANCH  28  29
ATOM     29  C   UNL     1       2.916   2.382   1.341  1.00  0.00     0.338 C 
ATOM     30  O   UNL     1       2.135   2.835   0.523  1.00  0.00    -0.246 OA
BRANCH  29  31
ATOM     31  C   UNL     1       2.510   1.885   2.680  1.00  0.00     0.060 A 
ATOM     32  C   UNL     1       1.256   1.273   2.808  1.00  0.00     0.016 A 
ATOM     33  C   UNL     1       3.350   1.988   3.795  1.00  0.00     0.016 A 
ATOM     34  C   UNL     1       0.824   0.801   4.052  1.00  0.00     0.010 A 
ATOM     35  C   UNL     1       2.916   1.516   5.040  1.00  0.00     0.010 A 
ATOM     36  C   UNL     1       1.638   0.947   5.184  1.00  0.00    -0.014 A 
BRANCH  36  37
ATOM     37  C   UNL     1       1.099   0.650   6.537  1.00  0.00     0.031 A 
ATOM     38  C   UNL     1       0.589   1.788   7.382  1.00  0.00     0.074 A 
ATOM     39  C   UNL     1       1.049  -0.606   7.019  1.00  0.00     0.049 A 
ATOM     40  N   UNL     1       0.089   1.768   8.592  1.00  0.00    -0.248 NA
ATOM     41  C   UNL     1       0.656   3.128   6.780  1.00  0.00     0.031 C 
ATOM     42  C   UNL     1       1.488  -1.805   6.310  1.00  0.00     0.029 A 
ATOM     43  N   UNL     1       0.611  -1.074   8.235  1.00  0.00    -0.354 N 
ATOM     44  C   UNL     1      -0.222   3.088   8.893  1.00  0.00     0.074 A 
ATOM     45  C   UNL     1       0.183   3.887   7.757  1.00  0.00     0.031 C 
ATOM     46  C   UNL     1       1.305  -2.873   7.107  1.00  0.00     0.029 A 
ATOM     47  C   UNL     1       0.757  -2.431   8.390  1.00  0.00     0.049 A 
ATOM     48  H   UNL     1       0.228  -0.491   8.930  1.00  0.00     0.167 HD
ATOM     49  C   UNL     1      -0.805   3.592  10.007  1.00  0.00     0.037 A 
ATOM     50  C   UNL     1       0.492  -3.223   9.449  1.00  0.00     0.037 A 
ATOM     51  C   UNL     1      -1.206   2.809  11.146  1.00  0.00     0.049 A 
ATOM     52  C   UNL     1      -0.091  -2.629  10.707  1.00  0.00     0.074 A 
ATOM     53  C   UNL     1      -1.826   3.236  12.308  1.00  0.00     0.029 A 
ATOM     54  N   UNL     1      -1.017   1.443  11.273  1.00  0.00    -0.354 N 
ATOM     55  N   UNL     1      -0.426  -1.387  10.960  1.00  0.00    -0.248 NA
ATOM     56  C   UNL     1      -0.339  -3.553  11.825  1.00  0.00     0.031 C 
ATOM     57  C   UNL     1      -1.966   2.136  13.160  1.00  0.00     0.029 A 
ATOM     58  C   UNL     1      -1.482   1.014  12.506  1.00  0.00     0.049 A 
ATOM     59  H   UNL     1      -0.612   0.862  10.589  1.00  0.00     0.167 HD
ATOM     60  C   UNL     1      -0.955  -1.388  12.247  1.00  0.00     0.074 A 
ATOM     61  C   UNL     1      -0.904  -2.755  12.720  1.00  0.00     0.031 C 
ATOM     62  C   UNL     1      -1.441  -0.349  12.969  1.00  0.00     0.037 A 
BRANCH  49  63
ATOM     63  C   UNL     1      -1.030   5.074  10.053  1.00  0.00     0.057 A 
ATOM     64  C   UNL     1      -2.013   5.696   9.272  1.00  0.00     0.134 A 
ATOM     65  C   UNL     1      -0.278   5.884  10.913  1.00  0.00     0.134 A 
ATOM     66  F   UNL     1      -2.758   4.977   8.419  1.00  0.00    -0.206 F 
ATOM     67  C   UNL     1      -2.224   7.074   9.328  1.00  0.00     0.040 A 
ATOM     68  C   UNL     1      -0.497   7.260  10.996  1.00  0.00     0.040 A 
ATOM     69  F   UNL     1       0.676   5.351  11.691  1.00  0.00    -0.206 F 
ATOM     70  C   UNL     1      -1.469   7.859  10.197  1.00  0.00     0.006 A 
ENDBRANCH  49  63
BRANCH  50  71
ATOM     71  C   UNL     1       0.778  -4.680   9.382  1.00  0.00     0.057 A 
ATOM     72  C   UNL     1      -0.255  -5.623   9.373  1.00  0.00     0.134 A 
ATOM     73  C   UNL     1       2.092  -5.163   9.374  1.00  0.00     0.134 A 
ATOM     74  F   UNL     1      -1.535  -5.223   9.410  1.00  0.00    -0.206 F 
ATOM     75  C   UNL     1       0.006  -6.995   9.381  1.00  0.00     0.040 A 
ATOM     76  C   UNL     1       2.368  -6.531   9.356  1.00  0.00     0.040 A 
ATOM     77  F   UNL     1       3.128  -4.310   9.387  1.00  0.00    -0.206 F 
ATOM     78  C   UNL     1       1.322  -7.452   9.368  1.00  0.00     0.006 A 
ENDBRANCH  50  71
BRANCH  62  79
ATOM     79  C   UNL     1      -1.999  -0.646  14.333  1.00  0.00     0.057 A 
ATOM     80  C   UNL     1      -1.177  -0.983  15.415  1.00  0.00     0.134 A 
ATOM     81  C   UNL     1      -3.375  -0.546  14.576  1.00  0.00     0.134 A 
ATOM     82  F   UNL     1       0.149  -1.106  15.250  1.00  0.00    -0.206 F 
ATOM     83  C   UNL     1      -1.705  -1.232  16.684  1.00  0.00     0.040 A 
ATOM     84  C   UNL     1      -3.912  -0.765  15.846  1.00  0.00     0.040 A 
ATOM     85  F   UNL     1      -4.220  -0.216  13.587  1.00  0.00    -0.206 F 
ATOM     86  C   UNL     1      -3.076  -1.115  16.904  1.00  0.00     0.006 A 
ENDBRANCH  62  79
ENDBRANCH  36  37
ENDBRANCH  29  31
ENDBRANCH  28  29
ENDBRANCH  27  28
ENDBRANCH   1  27
TORSDOF 15
