REMARK SMILES CCC[NH+]1CCC(NC(=O)NC2(CC(=O)OCCOC(=O)c3ccc(-c4c5nc(c(-c6c(F)cccc6F)c6ccc([nH]6)c(-c6c(F)cccc6F)c6nc(c(-c7c(F)cccc7F)c7ccc4[nH]7)C=C6)C=C5)cc3)CCC2)CC1
REMARK SMILES IDX 16 1 14 2 15 3 13 4 12 5 76 6 78 7 77 8 11 9 8 10 9 11 10 13
REMARK SMILES IDX 7 15 4 16 5 17 80 18 6 20 79 21 3 22 2 23 1 24 17 25 18 26
REMARK SMILES IDX 19 27 20 28 21 29 22 30 23 31 75 32 24 33 74 34 25 35 26 36
REMARK SMILES IDX 27 37 68 38 28 39 73 40 67 41 69 42 29 43 72 44 66 45 65 46
REMARK SMILES IDX 30 48 56 49 39 50 55 51 40 52 43 53 54 54 70 55 41 56 42 57
REMARK SMILES IDX 53 59 71 60 44 61 31 62 32 63 37 64 33 65 34 66 36 67 38 68
REMARK SMILES IDX 35 69 57 70 58 71 63 72 59 73 60 74 62 75 64 76 61 77 45 78
REMARK SMILES IDX 46 79 51 80 47 81 48 82 50 83 52 84 49 85
REMARK H PARENT 8 12 11 14 4 19 69 47 43 58
REMARK Flexibility Score: inf
ROOT
ATOM      1  O   UNL     1      -1.001  -8.693  -1.472  1.00  0.00    -0.462 OA
ENDROOT
BRANCH   1   2
ATOM      2  C   UNL     1      -2.194  -8.810  -2.110  1.00  0.00     0.308 C 
ATOM      3  O   UNL     1      -2.538  -9.771  -2.787  1.00  0.00    -0.252 OA
BRANCH   2   4
ATOM      4  C   UNL     1      -3.110  -7.625  -1.871  1.00  0.00     0.151 C 
BRANCH   4   5
ATOM      5  C   UNL     1      -2.533  -6.464  -1.032  1.00  0.00     0.052 C 
ATOM      6  C   UNL     1      -3.339  -5.152  -1.202  1.00  0.00     0.029 C 
ATOM      7  C   UNL     1      -1.373  -5.840  -1.827  1.00  0.00     0.029 C 
ATOM      8  C   UNL     1      -2.302  -4.680  -2.237  1.00  0.00     0.005 C 
BRANCH   5   9
ATOM      9  N   UNL     1      -2.385  -6.899   0.383  1.00  0.00    -0.332 N 
ATOM     10  N   UNL     1      -1.388  -5.294   1.856  1.00  0.00    -0.335 N 
ATOM     11  C   UNL     1      -2.032  -6.429   1.589  1.00  0.00     0.315 C 
ATOM     12  H   UNL     1      -1.331  -5.095   2.819  1.00  0.00     0.165 HD
ATOM     13  O   UNL     1      -2.347  -7.133   2.555  1.00  0.00    -0.249 OA
ATOM     14  H   UNL     1      -2.628  -7.850   0.460  1.00  0.00     0.165 HD
BRANCH  10  15
ATOM     15  C   UNL     1      -0.758  -4.299   1.029  1.00  0.00     0.095 C 
ATOM     16  N   UNL     1       0.902  -2.154  -0.010  1.00  0.00    -0.335 N 
ATOM     17  C   UNL     1      -0.492  -1.936   0.415  1.00  0.00     0.264 C 
ATOM     18  C   UNL     1       1.260  -3.571  -0.220  1.00  0.00     0.264 C 
ATOM     19  H   UNL     1       1.458  -1.804   0.770  1.00  0.00     0.348 HD
ATOM     20  C   UNL     1      -0.954  -2.879   1.528  1.00  0.00     0.086 C 
ATOM     21  C   UNL     1       0.737  -4.531   0.850  1.00  0.00     0.086 C 
BRANCH  16  22
ATOM     22  C   UNL     1       1.210  -1.414  -1.256  1.00  0.00     0.261 C 
BRANCH  22  23
ATOM     23  C   UNL     1       0.904   0.088  -1.250  1.00  0.00     0.058 C 
ATOM     24  C   UNL     1       1.638   0.845  -0.157  1.00  0.00     0.010 C 
ENDBRANCH  22  23
ENDBRANCH  16  22
ENDBRANCH  10  15
ENDBRANCH   5   9
ENDBRANCH   4   5
ENDBRANCH   2   4
ENDBRANCH   1   2
BRANCH   1  25
ATOM     25  C   UNL     1      -0.110  -9.825  -1.524  1.00  0.00     0.274 C 
BRANCH  25  26
ATOM     26  C   UNL     1      -0.161 -10.571  -0.194  1.00  0.00     0.275 C 
BRANCH  26  27
ATOM     27  O   UNL     1      -1.527 -10.932   0.062  1.00  0.00    -0.458 OA
BRANCH  27  28
ATOM     28  C   UNL     1      -1.943 -10.802   1.339  1.00  0.00     0.338 C 
ATOM     29  O   UNL     1      -1.252 -10.561   2.320  1.00  0.00    -0.246 OA
BRANCH  28  30
ATOM     30  C   UNL     1      -3.401 -11.019   1.389  1.00  0.00     0.060 A 
ATOM     31  C   UNL     1      -4.242 -10.459   0.424  1.00  0.00     0.016 A 
ATOM     32  C   UNL     1      -3.944 -11.761   2.435  1.00  0.00     0.016 A 
ATOM     33  C   UNL     1      -5.623 -10.598   0.519  1.00  0.00     0.010 A 
ATOM     34  C   UNL     1      -5.323 -11.975   2.483  1.00  0.00     0.010 A 
ATOM     35  C   UNL     1      -6.178 -11.384   1.535  1.00  0.00    -0.014 A 
BRANCH  35  36
ATOM     36  C   UNL     1      -7.645 -11.594   1.620  1.00  0.00     0.031 A 
ATOM     37  C   UNL     1      -8.393 -11.147   2.843  1.00  0.00     0.074 A 
ATOM     38  C   UNL     1      -8.302 -12.213   0.620  1.00  0.00     0.049 A 
ATOM     39  N   UNL     1      -9.612 -11.437   3.220  1.00  0.00    -0.248 NA
ATOM     40  C   UNL     1      -7.667 -10.267   3.773  1.00  0.00     0.031 C 
ATOM     41  C   UNL     1      -7.707 -12.658  -0.642  1.00  0.00     0.029 A 
ATOM     42  N   UNL     1      -9.618 -12.589   0.516  1.00  0.00    -0.354 N 
ATOM     43  C   UNL     1      -9.780 -10.823   4.455  1.00  0.00     0.074 A 
ATOM     44  C   UNL     1      -8.541 -10.140   4.761  1.00  0.00     0.031 C 
ATOM     45  C   UNL     1      -8.656 -13.231  -1.398  1.00  0.00     0.029 A 
ATOM     46  C   UNL     1      -9.903 -13.269  -0.644  1.00  0.00     0.049 A 
ATOM     47  H   UNL     1     -10.293 -12.390   1.205  1.00  0.00     0.167 HD
ATOM     48  C   UNL     1     -10.869 -10.837   5.259  1.00  0.00     0.037 A 
ATOM     49  C   UNL     1     -11.027 -13.897  -1.036  1.00  0.00     0.037 A 
ATOM     50  C   UNL     1     -12.112 -11.483   4.929  1.00  0.00     0.049 A 
ATOM     51  C   UNL     1     -12.211 -13.925  -0.114  1.00  0.00     0.074 A 
ATOM     52  C   UNL     1     -13.278 -11.547   5.673  1.00  0.00     0.029 A 
ATOM     53  N   UNL     1     -12.354 -12.167   3.747  1.00  0.00    -0.354 N 
ATOM     54  N   UNL     1     -12.343 -13.391   1.075  1.00  0.00    -0.248 NA
ATOM     55  C   UNL     1     -13.395 -14.660  -0.580  1.00  0.00     0.031 C 
ATOM     56  C   UNL     1     -14.217 -12.292   4.951  1.00  0.00     0.029 A 
ATOM     57  C   UNL     1     -13.647 -12.663   3.744  1.00  0.00     0.049 A 
ATOM     58  H   UNL     1     -11.702 -12.284   3.018  1.00  0.00     0.167 HD
ATOM     59  C   UNL     1     -13.623 -13.717   1.498  1.00  0.00     0.074 A 
ATOM     60  C   UNL     1     -14.236 -14.480   0.429  1.00  0.00     0.031 C 
ATOM     61  C   UNL     1     -14.236 -13.417   2.668  1.00  0.00     0.037 A 
BRANCH  48  62
ATOM     62  C   UNL     1     -10.751 -10.159   6.591  1.00  0.00     0.057 A 
ATOM     63  C   UNL     1     -10.759  -8.765   6.719  1.00  0.00     0.134 A 
ATOM     64  C   UNL     1     -10.652 -10.918   7.765  1.00  0.00     0.134 A 
ATOM     65  F   UNL     1     -10.835  -7.983   5.632  1.00  0.00    -0.206 F 
ATOM     66  C   UNL     1     -10.655  -8.149   7.968  1.00  0.00     0.040 A 
ATOM     67  C   UNL     1     -10.569 -10.313   9.020  1.00  0.00     0.040 A 
ATOM     68  F   UNL     1     -10.642 -12.258   7.711  1.00  0.00    -0.206 F 
ATOM     69  C   UNL     1     -10.565  -8.924   9.123  1.00  0.00     0.006 A 
ENDBRANCH  48  62
BRANCH  49  70
ATOM     70  C   UNL     1     -11.065 -14.590  -2.347  1.00  0.00     0.057 A 
ATOM     71  C   UNL     1     -11.820 -14.083  -3.409  1.00  0.00     0.134 A 
ATOM     72  C   UNL     1     -10.338 -15.765  -2.574  1.00  0.00     0.134 A 
ATOM     73  F   UNL     1     -12.556 -12.973  -3.245  1.00  0.00    -0.206 F 
ATOM     74  C   UNL     1     -11.856 -14.721  -4.650  1.00  0.00     0.040 A 
ATOM     75  C   UNL     1     -10.344 -16.401  -3.815  1.00  0.00     0.040 A 
ATOM     76  F   UNL     1      -9.592 -16.299  -1.595  1.00  0.00    -0.206 F 
ATOM     77  C   UNL     1     -11.109 -15.880  -4.857  1.00  0.00     0.006 A 
ENDBRANCH  49  70
BRANCH  61  78
ATOM     78  C   UNL     1     -15.646 -13.893   2.836  1.00  0.00     0.057 A 
ATOM     79  C   UNL     1     -15.940 -15.232   3.120  1.00  0.00     0.134 A 
ATOM     80  C   UNL     1     -16.717 -12.998   2.737  1.00  0.00     0.134 A 
ATOM     81  F   UNL     1     -14.956 -16.140   3.211  1.00  0.00    -0.206 F 
ATOM     82  C   UNL     1     -17.256 -15.668   3.283  1.00  0.00     0.040 A 
ATOM     83  C   UNL     1     -18.035 -13.418   2.916  1.00  0.00     0.040 A 
ATOM     84  F   UNL     1     -16.499 -11.701   2.471  1.00  0.00    -0.206 F 
ATOM     85  C   UNL     1     -18.307 -14.758   3.186  1.00  0.00     0.006 A 
ENDBRANCH  61  78
ENDBRANCH  35  36
ENDBRANCH  28  30
ENDBRANCH  27  28
ENDBRANCH  26  27
ENDBRANCH  25  26
ENDBRANCH   1  25
TORSDOF 16
