REMARK SMILES [NH3+][C@H](CC(F)(F)C(F)(F)C(F)(F)C(F)(F)Cl)C(=O)OCCOC(=O)c1ccc(-c2c3nc(c(-c4c(F)cccc4F)c4ccc([nH]4)c(-c4c(F)cccc4F)c4nc(c(-c5c(F)cccc5F)c5ccc2[nH]5)C=C4)C=C3)cc1
REMARK SMILES IDX 19 1 17 2 18 3 2 4 1 5 3 9 4 10 5 11 6 12 7 13 8 14 9 15
REMARK SMILES IDX 10 16 11 17 12 18 13 19 14 20 15 21 16 22 20 23 21 24 22 25
REMARK SMILES IDX 23 26 24 27 25 28 26 29 78 30 27 31 77 32 28 33 29 34 30 35
REMARK SMILES IDX 71 36 31 37 76 38 70 39 72 40 32 41 75 42 69 43 68 44 33 46
REMARK SMILES IDX 59 47 42 48 58 49 43 50 46 51 57 52 73 53 44 54 45 55 56 57
REMARK SMILES IDX 74 58 47 59 34 60 35 61 40 62 36 63 37 64 39 65 41 66 38 67
REMARK SMILES IDX 60 68 61 69 66 70 62 71 63 72 65 73 67 74 64 75 48 76 49 77
REMARK SMILES IDX 54 78 50 79 51 80 53 81 55 82 52 83
REMARK H PARENT 1 6 1 7 1 8 72 45 46 56
REMARK Flexibility Score: inf
ROOT
ATOM      1  O   UNL     1      -2.050   0.522  -0.965  1.00  0.00    -0.458 OA
ENDROOT
BRANCH   1   2
ATOM      2  C   UNL     1      -1.367   1.645  -0.608  1.00  0.00     0.365 C 
ATOM      3  O   UNL     1      -1.827   2.558   0.070  1.00  0.00    -0.245 OA
BRANCH   2   4
ATOM      4  C   UNL     1       0.027   1.715  -1.240  1.00  0.00     0.298 C 
BRANCH   4   5
ATOM      5  N   UNL     1      -0.057   1.556  -2.706  1.00  0.00    -0.346 N 
ATOM      6  H   UNL     1      -0.741   2.214  -3.080  1.00  0.00     0.345 HD
ATOM      7  H   UNL     1      -0.344   0.603  -2.929  1.00  0.00     0.345 HD
ATOM      8  H   UNL     1       0.856   1.742  -3.120  1.00  0.00     0.345 HD
ENDBRANCH   4   5
BRANCH   4   9
ATOM      9  C   UNL     1       1.051   0.729  -0.683  1.00  0.00     0.161 C 
BRANCH   9  10
ATOM     10  C   UNL     1       2.443   1.347  -0.509  1.00  0.00     0.323 C 
ATOM     11  F   UNL     1       2.374   2.193   0.561  1.00  0.00    -0.199 F 
ATOM     12  F   UNL     1       3.286   0.346  -0.125  1.00  0.00    -0.199 F 
BRANCH  10  13
ATOM     13  C   UNL     1       3.024   2.087  -1.717  1.00  0.00     0.379 C 
ATOM     14  F   UNL     1       3.036   1.263  -2.801  1.00  0.00    -0.192 F 
ATOM     15  F   UNL     1       2.225   3.142  -2.044  1.00  0.00    -0.192 F 
BRANCH  13  16
ATOM     16  C   UNL     1       4.420   2.607  -1.447  1.00  0.00     0.392 C 
ATOM     17  F   UNL     1       4.444   3.356  -0.307  1.00  0.00    -0.191 F 
ATOM     18  F   UNL     1       5.284   1.575  -1.236  1.00  0.00    -0.191 F 
BRANCH  16  19
ATOM     19  C   UNL     1       4.872   3.456  -2.632  1.00  0.00     0.390 C 
ATOM     20  F   UNL     1       4.838   2.748  -3.791  1.00  0.00    -0.181 F 
ATOM     21  F   UNL     1       4.047   4.522  -2.816  1.00  0.00    -0.181 F 
ATOM     22  Cl  UNL     1       6.528   4.086  -2.415  1.00  0.00    -0.041 Cl
ENDBRANCH  16  19
ENDBRANCH  13  16
ENDBRANCH  10  13
ENDBRANCH   9  10
ENDBRANCH   4   9
ENDBRANCH   2   4
ENDBRANCH   1   2
BRANCH   1  23
ATOM     23  C   UNL     1      -3.448   0.517  -0.612  1.00  0.00     0.274 C 
BRANCH  23  24
ATOM     24  C   UNL     1      -3.743  -0.121   0.752  1.00  0.00     0.275 C 
BRANCH  24  25
ATOM     25  O   UNL     1      -3.260   0.671   1.852  1.00  0.00    -0.458 OA
BRANCH  25  26
ATOM     26  C   UNL     1      -1.982   0.407   2.212  1.00  0.00     0.338 C 
ATOM     27  O   UNL     1      -1.256  -0.448   1.729  1.00  0.00    -0.246 OA
BRANCH  26  28
ATOM     28  C   UNL     1      -1.492   1.382   3.207  1.00  0.00     0.060 A 
ATOM     29  C   UNL     1      -0.186   1.858   3.049  1.00  0.00     0.016 A 
ATOM     30  C   UNL     1      -2.244   1.750   4.325  1.00  0.00     0.016 A 
ATOM     31  C   UNL     1       0.397   2.655   4.027  1.00  0.00     0.010 A 
ATOM     32  C   UNL     1      -1.657   2.552   5.312  1.00  0.00     0.010 A 
ATOM     33  C   UNL     1      -0.322   2.976   5.183  1.00  0.00    -0.014 A 
BRANCH  33  34
ATOM     34  C   UNL     1       0.387   3.635   6.305  1.00  0.00     0.031 A 
ATOM     35  C   UNL     1       0.852   2.803   7.467  1.00  0.00     0.074 A 
ATOM     36  C   UNL     1       0.674   4.947   6.254  1.00  0.00     0.049 A 
ATOM     37  N   UNL     1       1.497   3.170   8.545  1.00  0.00    -0.248 NA
ATOM     38  C   UNL     1       0.553   1.363   7.405  1.00  0.00     0.031 C 
ATOM     39  C   UNL     1       0.320   5.848   5.159  1.00  0.00     0.029 A 
ATOM     40  N   UNL     1       1.341   5.745   7.147  1.00  0.00    -0.354 N 
ATOM     41  C   UNL     1       1.666   2.014   9.295  1.00  0.00     0.074 A 
ATOM     42  C   UNL     1       1.040   0.936   8.561  1.00  0.00     0.031 C 
ATOM     43  C   UNL     1       0.782   7.078   5.441  1.00  0.00     0.029 A 
ATOM     44  C   UNL     1       1.438   7.054   6.747  1.00  0.00     0.049 A 
ATOM     45  H   UNL     1       1.716   5.411   7.994  1.00  0.00     0.167 HD
ATOM     46  C   UNL     1       2.293   1.862  10.486  1.00  0.00     0.037 A 
ATOM     47  C   UNL     1       1.988   8.114   7.370  1.00  0.00     0.037 A 
ATOM     48  C   UNL     1       2.936   2.928  11.207  1.00  0.00     0.049 A 
ATOM     49  C   UNL     1       2.643   7.926   8.711  1.00  0.00     0.074 A 
ATOM     50  C   UNL     1       3.611   2.870  12.414  1.00  0.00     0.029 A 
ATOM     51  N   UNL     1       2.984   4.247  10.784  1.00  0.00    -0.354 N 
ATOM     52  N   UNL     1       2.801   6.828   9.409  1.00  0.00    -0.248 NA
ATOM     53  C   UNL     1       3.197   9.129   9.350  1.00  0.00     0.031 C 
ATOM     54  C   UNL     1       4.040   4.162  12.737  1.00  0.00     0.029 A 
ATOM     55  C   UNL     1       3.664   5.017  11.714  1.00  0.00     0.049 A 
ATOM     56  H   UNL     1       2.593   4.587   9.947  1.00  0.00     0.167 HD
ATOM     57  C   UNL     1       3.497   7.200  10.552  1.00  0.00     0.074 A 
ATOM     58  C   UNL     1       3.736   8.625  10.451  1.00  0.00     0.031 C 
ATOM     59  C   UNL     1       3.903   6.431  11.591  1.00  0.00     0.037 A 
BRANCH  46  60
ATOM     60  C   UNL     1       2.288   0.492  11.094  1.00  0.00     0.057 A 
ATOM     61  C   UNL     1       3.097  -0.539  10.602  1.00  0.00     0.134 A 
ATOM     62  C   UNL     1       1.474   0.208  12.197  1.00  0.00     0.134 A 
ATOM     63  F   UNL     1       3.887  -0.335   9.537  1.00  0.00    -0.206 F 
ATOM     64  C   UNL     1       3.082  -1.812  11.175  1.00  0.00     0.040 A 
ATOM     65  C   UNL     1       1.465  -1.054  12.791  1.00  0.00     0.040 A 
ATOM     66  F   UNL     1       0.675   1.154  12.716  1.00  0.00    -0.206 F 
ATOM     67  C   UNL     1       2.268  -2.071  12.277  1.00  0.00     0.006 A 
ENDBRANCH  46  60
BRANCH  47  68
ATOM     68  C   UNL     1       1.948   9.452   6.732  1.00  0.00     0.057 A 
ATOM     69  C   UNL     1       3.108  10.046   6.225  1.00  0.00     0.134 A 
ATOM     70  C   UNL     1       0.753  10.175   6.633  1.00  0.00     0.134 A 
ATOM     71  F   UNL     1       4.286   9.411   6.314  1.00  0.00    -0.206 F 
ATOM     72  C   UNL     1       3.086  11.319   5.654  1.00  0.00     0.040 A 
ATOM     73  C   UNL     1       0.713  11.440   6.045  1.00  0.00     0.040 A 
ATOM     74  F   UNL     1      -0.392   9.659   7.103  1.00  0.00    -0.206 F 
ATOM     75  C   UNL     1       1.884  12.018   5.559  1.00  0.00     0.006 A 
ENDBRANCH  47  68
BRANCH  59  76
ATOM     76  C   UNL     1       4.681   7.108  12.679  1.00  0.00     0.057 A 
ATOM     77  C   UNL     1       4.064   7.945  13.617  1.00  0.00     0.134 A 
ATOM     78  C   UNL     1       6.060   6.896  12.806  1.00  0.00     0.134 A 
ATOM     79  F   UNL     1       2.749   8.198  13.541  1.00  0.00    -0.206 F 
ATOM     80  C   UNL     1       4.796   8.567  14.630  1.00  0.00     0.040 A 
ATOM     81  C   UNL     1       6.798   7.494  13.827  1.00  0.00     0.040 A 
ATOM     82  F   UNL     1       6.708   6.099  11.944  1.00  0.00    -0.206 F 
ATOM     83  C   UNL     1       6.167   8.337  14.739  1.00  0.00     0.006 A 
ENDBRANCH  59  76
ENDBRANCH  33  34
ENDBRANCH  26  28
ENDBRANCH  25  26
ENDBRANCH  24  25
ENDBRANCH  23  24
ENDBRANCH   1  23
TORSDOF 17
