REMARK SMILES Cc1ccccc1NC(=S)NN1C(=O)CS[C@H]1c1ccccc1C(=O)OCCOC(=O)c1ccc(-c2c3nc(c(-c4c(F)cccc4F)c4ccc([nH]4)c(-c4c(F)cccc4F)c4nc(c(-c5c(F)cccc5F)c5ccc2[nH]5)C=C4)C=C3)cc1
REMARK SMILES IDX 26 1 24 2 25 3 23 4 18 5 19 6 20 7 22 8 21 9 17 10 12 11
REMARK SMILES IDX 13 12 14 13 15 14 16 15 11 16 9 18 10 19 8 20 7 22 1 23 2 24
REMARK SMILES IDX 3 25 4 26 6 27 5 28 27 29 28 30 29 31 30 32 31 33 32 34
REMARK SMILES IDX 33 35 85 36 34 37 84 38 35 39 36 40 37 41 78 42 38 43 83 44
REMARK SMILES IDX 77 45 79 46 39 47 82 48 76 49 75 50 40 52 66 53 49 54 65 55
REMARK SMILES IDX 50 56 53 57 64 58 80 59 51 60 52 61 63 63 81 64 54 65 41 66
REMARK SMILES IDX 42 67 47 68 43 69 44 70 46 71 48 72 45 73 67 74 68 75 73 76
REMARK SMILES IDX 69 77 70 78 72 79 74 80 71 81 55 82 56 83 61 84 57 85 58 86
REMARK SMILES IDX 60 87 62 88 59 89
REMARK H PARENT 11 17 8 21 79 51 53 62
REMARK Flexibility Score: inf
ROOT
ATOM      1  O   UNL     1      -0.299   3.571   0.903  1.00  0.00    -0.458 OA
ENDROOT
BRANCH   1   2
ATOM      2  C   UNL     1      -1.201   5.090   0.879  1.00  0.00     0.338 C 
ATOM      3  O   UNL     1      -0.202   5.845   0.789  1.00  0.00    -0.246 OA
BRANCH   2   4
ATOM      4  C   UNL     1      -3.355   5.305   0.587  1.00  0.00     0.066 A 
ATOM      5  C   UNL     1      -4.244   4.233  -0.402  1.00  0.00     0.001 A 
ATOM      6  C   UNL     1      -5.645   4.273  -0.601  1.00  0.00     0.008 A 
ATOM      7  C   UNL     1      -6.372   5.340  -0.127  1.00  0.00     0.000 A 
ATOM      8  C   UNL     1      -4.351   6.364   0.895  1.00  0.00     0.016 A 
ATOM      9  C   UNL     1      -5.732   6.383   0.528  1.00  0.00     0.001 A 
BRANCH   5  10
ATOM     10  C   UNL     1      -3.475   2.976  -1.449  1.00  0.00     0.197 C 
ATOM     11  N   UNL     1      -1.894   2.417  -1.220  1.00  0.00    -0.236 N 
ATOM     12  C   UNL     1      -2.135   1.052  -0.324  1.00  0.00     0.252 C 
ATOM     13  O   UNL     1      -1.706   0.753   0.799  1.00  0.00    -0.272 OA
ATOM     14  C   UNL     1      -3.317   0.276  -0.748  1.00  0.00     0.174 C 
ATOM     15  S   UNL     1      -4.579   1.415  -1.222  1.00  0.00    -0.120 SA
BRANCH  11  16
ATOM     16  N   UNL     1      -0.285   3.598  -1.182  1.00  0.00    -0.270 N 
ATOM     17  H   UNL     1      -0.513   4.519  -0.922  1.00  0.00     0.191 HD
BRANCH  16  18
ATOM     18  C   UNL     1       1.398   3.417  -1.488  1.00  0.00     0.189 C 
ATOM     19  S   UNL     1       2.378   4.776  -1.278  1.00  0.00    -0.039 S 
BRANCH  18  20
ATOM     20  N   UNL     1       2.142   1.972  -1.471  1.00  0.00    -0.331 N 
ATOM     21  H   UNL     1       3.116   2.094  -1.541  1.00  0.00     0.169 HD
BRANCH  20  22
ATOM     22  C   UNL     1       1.794   0.442  -1.377  1.00  0.00     0.043 A 
ATOM     23  C   UNL     1       3.673  -0.315   0.217  1.00  0.00     0.046 C 
ATOM     24  C   UNL     1       2.292  -0.402  -0.358  1.00  0.00    -0.028 A 
ATOM     25  C   UNL     1       1.544  -1.557   0.056  1.00  0.00     0.005 A 
ATOM     26  C   UNL     1       0.342  -1.912  -0.538  1.00  0.00     0.000 A 
ATOM     27  C   UNL     1       0.831  -0.215  -2.168  1.00  0.00     0.026 A 
ATOM     28  C   UNL     1       0.014  -1.265  -1.703  1.00  0.00     0.002 A 
ENDBRANCH  20  22
ENDBRANCH  18  20
ENDBRANCH  16  18
ENDBRANCH  11  16
ENDBRANCH   5  10
ENDBRANCH   2   4
ENDBRANCH   1   2
BRANCH   1  29
ATOM     29  C   UNL     1       0.089   2.064  -0.150  1.00  0.00     0.275 C 
BRANCH  29  30
ATOM     30  C   UNL     1      -0.229   2.009  -2.211  1.00  0.00     0.275 C 
BRANCH  30  31
ATOM     31  O   UNL     1      -1.050   3.465  -3.025  1.00  0.00    -0.458 OA
BRANCH  31  32
ATOM     32  C   UNL     1      -1.539   4.804  -2.523  1.00  0.00     0.338 C 
ATOM     33  O   UNL     1      -1.546   5.779  -3.272  1.00  0.00    -0.246 OA
BRANCH  32  34
ATOM     34  C   UNL     1      -2.023   5.071  -0.944  1.00  0.00     0.060 A 
ATOM     35  C   UNL     1      -1.985   6.712  -0.182  1.00  0.00     0.016 A 
ATOM     36  C   UNL     1      -2.322   3.701   0.348  1.00  0.00     0.016 A 
ATOM     37  C   UNL     1      -2.083   6.798   1.656  1.00  0.00     0.010 A 
ATOM     38  C   UNL     1      -2.507   3.918   2.003  1.00  0.00     0.010 A 
ATOM     39  C   UNL     1      -2.312   5.374   2.707  1.00  0.00    -0.014 A 
BRANCH  39  40
ATOM     40  C   UNL     1      -1.440   4.771   3.843  1.00  0.00     0.031 A 
ATOM     41  C   UNL     1      -2.103   3.506   4.595  1.00  0.00     0.074 A 
ATOM     42  C   UNL     1      -0.099   5.060   3.774  1.00  0.00     0.049 A 
ATOM     43  N   UNL     1      -2.189   3.365   5.878  1.00  0.00    -0.248 NA
ATOM     44  C   UNL     1      -2.911   2.342   3.997  1.00  0.00     0.031 C 
ATOM     45  C   UNL     1       1.119   4.506   4.380  1.00  0.00     0.029 A 
ATOM     46  N   UNL     1       0.431   6.172   3.107  1.00  0.00    -0.354 N 
ATOM     47  C   UNL     1      -2.425   1.999   6.082  1.00  0.00     0.074 A 
ATOM     48  C   UNL     1      -3.259   1.585   5.027  1.00  0.00     0.031 C 
ATOM     49  C   UNL     1       2.076   5.469   4.421  1.00  0.00     0.029 A 
ATOM     50  C   UNL     1       1.557   6.661   3.768  1.00  0.00     0.049 A 
ATOM     51  H   UNL     1       0.057   6.557   2.282  1.00  0.00     0.167 HD
ATOM     52  C   UNL     1      -1.524   1.247   6.784  1.00  0.00     0.037 A 
ATOM     53  C   UNL     1       1.406   7.911   4.289  1.00  0.00     0.037 A 
ATOM     54  C   UNL     1      -0.454   2.135   7.248  1.00  0.00     0.049 A 
ATOM     55  C   UNL     1       0.885   7.738   5.708  1.00  0.00     0.074 A 
ATOM     56  C   UNL     1       0.901   2.251   7.017  1.00  0.00     0.029 A 
ATOM     57  N   UNL     1      -0.839   3.340   7.815  1.00  0.00    -0.354 N 
ATOM     58  N   UNL     1       0.426   6.604   6.182  1.00  0.00    -0.248 NA
ATOM     59  C   UNL     1       0.989   8.754   6.745  1.00  0.00     0.031 C 
ATOM     60  C   UNL     1       1.284   3.589   7.382  1.00  0.00     0.029 A 
ATOM     61  C   UNL     1       0.159   4.281   7.808  1.00  0.00     0.049 A 
ATOM     62  H   UNL     1      -1.736   3.504   8.184  1.00  0.00     0.167 HD
ATOM     63  C   UNL     1       0.237   6.686   7.527  1.00  0.00     0.074 A 
ATOM     64  C   UNL     1       0.596   8.060   7.829  1.00  0.00     0.031 C 
ATOM     65  C   UNL     1      -0.155   5.625   8.301  1.00  0.00     0.037 A 
BRANCH  52  66
ATOM     66  C   UNL     1      -1.474  -0.277   6.902  1.00  0.00     0.057 A 
ATOM     67  C   UNL     1      -0.610  -0.834   7.865  1.00  0.00     0.134 A 
ATOM     68  C   UNL     1      -2.210  -1.250   6.184  1.00  0.00     0.134 A 
ATOM     69  F   UNL     1       0.156  -0.056   8.642  1.00  0.00    -0.206 F 
ATOM     70  C   UNL     1      -0.497  -2.214   8.104  1.00  0.00     0.040 A 
ATOM     71  C   UNL     1      -2.128  -2.634   6.435  1.00  0.00     0.040 A 
ATOM     72  F   UNL     1      -3.038  -0.955   5.179  1.00  0.00    -0.206 F 
ATOM     73  C   UNL     1      -1.268  -3.122   7.400  1.00  0.00     0.006 A 
ENDBRANCH  52  66
BRANCH  53  74
ATOM     74  C   UNL     1       0.967   8.855   3.187  1.00  0.00     0.057 A 
ATOM     75  C   UNL     1       1.810   8.920   2.047  1.00  0.00     0.134 A 
ATOM     76  C   UNL     1      -0.335   9.318   2.989  1.00  0.00     0.134 A 
ATOM     77  F   UNL     1       3.102   8.569   2.154  1.00  0.00    -0.206 F 
ATOM     78  C   UNL     1       1.336   9.203   0.758  1.00  0.00     0.040 A 
ATOM     79  C   UNL     1      -0.801   9.692   1.704  1.00  0.00     0.040 A 
ATOM     80  F   UNL     1      -1.242   9.249   3.975  1.00  0.00    -0.206 F 
ATOM     81  C   UNL     1       0.009   9.555   0.577  1.00  0.00     0.006 A 
ENDBRANCH  53  74
BRANCH  65  82
ATOM     82  C   UNL     1      -0.846   5.771   9.650  1.00  0.00     0.057 A 
ATOM     83  C   UNL     1      -1.375   6.976  10.130  1.00  0.00     0.134 A 
ATOM     84  C   UNL     1      -1.123   4.653  10.479  1.00  0.00     0.134 A 
ATOM     85  F   UNL     1      -1.411   8.089   9.386  1.00  0.00    -0.206 F 
ATOM     86  C   UNL     1      -1.959   7.095  11.395  1.00  0.00     0.040 A 
ATOM     87  C   UNL     1      -1.814   4.740  11.687  1.00  0.00     0.040 A 
ATOM     88  F   UNL     1      -0.764   3.401  10.169  1.00  0.00    -0.206 F 
ATOM     89  C   UNL     1      -2.183   5.974  12.179  1.00  0.00     0.006 A 
ENDBRANCH  65  82
ENDBRANCH  39  40
ENDBRANCH  32  34
ENDBRANCH  31  32
ENDBRANCH  30  31
ENDBRANCH  29  30
ENDBRANCH   1  29
TORSDOF 16
