REMARK SMILES O=C(OCCOC(=O)[C@@H]1[C@H](C(=O)Nc2ccc(Cn3cncn3)cc2)[C@@H]2C=C[C@H]1CC2)c1ccc(-c2c3nc(c(-c4c(F)cccc4F)c4ccc([nH]4)c(-c4c(F)cccc4F)c4nc(c(-c5c(F)cccc5F)c5ccc2[nH]5)C=C4)C=C3)cc1
REMARK SMILES IDX 5 1 4 2 3 3 2 4 1 5 32 6 33 7 85 8 34 9 84 10 35 11 36 12
REMARK SMILES IDX 37 13 78 14 38 15 83 16 77 17 79 18 39 19 82 20 76 21 75 22
REMARK SMILES IDX 40 24 66 25 49 26 65 27 50 28 53 29 64 30 80 31 51 32 52 33
REMARK SMILES IDX 63 35 81 36 54 37 41 38 42 39 47 40 43 41 44 42 46 43 48 44
REMARK SMILES IDX 45 45 67 46 68 47 73 48 69 49 70 50 72 51 74 52 71 53 55 54
REMARK SMILES IDX 56 55 61 56 57 57 58 58 60 59 62 60 59 61 6 62 7 63 8 64
REMARK SMILES IDX 9 65 10 66 29 67 26 68 28 69 30 70 27 71 31 72 11 73 12 74
REMARK SMILES IDX 13 75 14 77 15 78 25 79 16 80 24 81 17 82 18 83 19 84 20 85
REMARK SMILES IDX 23 86 21 87 22 88
REMARK H PARENT 79 23 53 34 13 76
REMARK Flexibility Score: inf
ROOT
ATOM      1  C   UNL     1       3.633   0.449  -1.215  1.00  0.00     0.274 C 
ENDROOT
BRANCH   1   2
ATOM      2  C   UNL     1       4.046  -1.023  -1.237  1.00  0.00     0.275 C 
BRANCH   2   3
ATOM      3  O   UNL     1       2.983  -1.970  -1.015  1.00  0.00    -0.458 OA
BRANCH   3   4
ATOM      4  C   UNL     1       1.850  -1.482  -0.473  1.00  0.00     0.338 C 
ATOM      5  O   UNL     1       0.865  -1.157  -1.127  1.00  0.00    -0.246 OA
BRANCH   4   6
ATOM      6  C   UNL     1       1.885  -1.472   1.004  1.00  0.00     0.060 A 
ATOM      7  C   UNL     1       2.986  -1.965   1.722  1.00  0.00     0.016 A 
ATOM      8  C   UNL     1       0.752  -0.981   1.668  1.00  0.00     0.016 A 
ATOM      9  C   UNL     1       2.893  -2.108   3.090  1.00  0.00     0.010 A 
ATOM     10  C   UNL     1       0.654  -1.131   3.035  1.00  0.00     0.010 A 
ATOM     11  C   UNL     1       1.692  -1.772   3.711  1.00  0.00    -0.014 A 
BRANCH  11  12
ATOM     12  C   UNL     1       1.490  -2.250   5.063  1.00  0.00     0.031 A 
ATOM     13  C   UNL     1       2.158  -1.478   6.137  1.00  0.00     0.074 A 
ATOM     14  C   UNL     1       0.667  -3.298   5.266  1.00  0.00     0.049 A 
ATOM     15  N   UNL     1       3.077  -1.871   6.957  1.00  0.00    -0.248 NA
ATOM     16  C   UNL     1       1.841  -0.046   6.237  1.00  0.00     0.031 C 
ATOM     17  C   UNL     1      -0.221  -3.958   4.301  1.00  0.00     0.029 A 
ATOM     18  N   UNL     1       0.382  -3.938   6.428  1.00  0.00    -0.354 N 
ATOM     19  C   UNL     1       3.307  -0.796   7.815  1.00  0.00     0.074 A 
ATOM     20  C   UNL     1       2.647   0.339   7.226  1.00  0.00     0.031 C 
ATOM     21  C   UNL     1      -1.105  -4.735   4.966  1.00  0.00     0.029 A 
ATOM     22  C   UNL     1      -0.754  -4.735   6.372  1.00  0.00     0.049 A 
ATOM     23  H   UNL     1       0.932  -3.846   7.239  1.00  0.00     0.167 HD
ATOM     24  C   UNL     1       3.820  -0.980   9.064  1.00  0.00     0.037 A 
ATOM     25  C   UNL     1      -1.397  -5.256   7.445  1.00  0.00     0.037 A 
ATOM     26  C   UNL     1       4.497  -2.247   9.171  1.00  0.00     0.049 A 
ATOM     27  C   UNL     1      -0.430  -5.256   8.576  1.00  0.00     0.074 A 
ATOM     28  C   UNL     1       5.582  -2.827   8.543  1.00  0.00     0.029 A 
ATOM     29  N   UNL     1       3.844  -3.280   9.799  1.00  0.00    -0.354 N 
ATOM     30  N   UNL     1       0.641  -6.003   8.603  1.00  0.00    -0.248 NA
ATOM     31  C   UNL     1      -0.384  -4.069   9.421  1.00  0.00     0.031 C 
ATOM     32  C   UNL     1       5.226  -4.200   8.392  1.00  0.00     0.029 A 
ATOM     33  C   UNL     1       3.980  -4.381   8.993  1.00  0.00     0.049 A 
ATOM     34  H   UNL     1       3.369  -3.238  10.660  1.00  0.00     0.167 HD
ATOM     35  C   UNL     1       1.634  -5.189   9.133  1.00  0.00     0.074 A 
ATOM     36  C   UNL     1       0.928  -4.026   9.670  1.00  0.00     0.031 C 
ATOM     37  C   UNL     1       2.953  -5.381   8.830  1.00  0.00     0.037 A 
BRANCH  24  38
ATOM     38  C   UNL     1       3.379  -0.202  10.284  1.00  0.00     0.057 A 
ATOM     39  C   UNL     1       4.023  -0.435  11.514  1.00  0.00     0.134 A 
ATOM     40  C   UNL     1       2.168   0.517  10.375  1.00  0.00     0.134 A 
ATOM     41  F   UNL     1       5.187  -1.101  11.567  1.00  0.00    -0.206 F 
ATOM     42  C   UNL     1       3.453  -0.077  12.742  1.00  0.00     0.040 A 
ATOM     43  C   UNL     1       1.616   0.921  11.593  1.00  0.00     0.040 A 
ATOM     44  F   UNL     1       1.404   0.783   9.311  1.00  0.00    -0.206 F 
ATOM     45  C   UNL     1       2.237   0.590  12.785  1.00  0.00     0.006 A 
ENDBRANCH  24  38
BRANCH  25  46
ATOM     46  C   UNL     1      -2.863  -5.352   7.624  1.00  0.00     0.057 A 
ATOM     47  C   UNL     1      -3.432  -6.191   8.589  1.00  0.00     0.134 A 
ATOM     48  C   UNL     1      -3.737  -4.433   7.012  1.00  0.00     0.134 A 
ATOM     49  F   UNL     1      -2.670  -7.063   9.265  1.00  0.00    -0.206 F 
ATOM     50  C   UNL     1      -4.792  -6.120   8.927  1.00  0.00     0.040 A 
ATOM     51  C   UNL     1      -5.095  -4.356   7.333  1.00  0.00     0.040 A 
ATOM     52  F   UNL     1      -3.285  -3.518   6.142  1.00  0.00    -0.206 F 
ATOM     53  C   UNL     1      -5.627  -5.197   8.302  1.00  0.00     0.006 A 
ENDBRANCH  25  46
BRANCH  37  54
ATOM     54  C   UNL     1       3.323  -6.603   8.036  1.00  0.00     0.057 A 
ATOM     55  C   UNL     1       2.931  -6.808   6.704  1.00  0.00     0.134 A 
ATOM     56  C   UNL     1       4.242  -7.511   8.569  1.00  0.00     0.134 A 
ATOM     57  F   UNL     1       2.144  -5.929   6.073  1.00  0.00    -0.206 F 
ATOM     58  C   UNL     1       3.397  -7.891   5.952  1.00  0.00     0.040 A 
ATOM     59  C   UNL     1       4.740  -8.580   7.819  1.00  0.00     0.040 A 
ATOM     60  F   UNL     1       4.715  -7.340   9.813  1.00  0.00    -0.206 F 
ATOM     61  C   UNL     1       4.311  -8.779   6.509  1.00  0.00     0.006 A 
ENDBRANCH  37  54
ENDBRANCH  11  12
ENDBRANCH   4   6
ENDBRANCH   3   4
ENDBRANCH   2   3
ENDBRANCH   1   2
BRANCH   1  62
ATOM     62  O   UNL     1       3.292   0.874   0.134  1.00  0.00    -0.462 OA
BRANCH  62  63
ATOM     63  C   UNL     1       2.434   1.921   0.200  1.00  0.00     0.310 C 
ATOM     64  O   UNL     1       1.729   2.269  -0.742  1.00  0.00    -0.252 OA
BRANCH  63  65
ATOM     65  C   UNL     1       2.446   2.732   1.500  1.00  0.00     0.119 C 
ATOM     66  C   UNL     1       2.743   4.226   1.199  1.00  0.00     0.100 C 
ATOM     67  C   UNL     1       3.124   2.346   2.871  1.00  0.00     0.026 C 
ATOM     68  C   UNL     1       3.281   4.929   2.473  1.00  0.00     0.025 C 
ATOM     69  C   UNL     1       4.495   2.974   3.107  1.00  0.00    -0.027 C 
ATOM     70  C   UNL     1       2.305   3.086   3.970  1.00  0.00     0.009 C 
ATOM     71  C   UNL     1       4.582   4.295   2.874  1.00  0.00    -0.027 C 
ATOM     72  C   UNL     1       2.318   4.619   3.663  1.00  0.00     0.009 C 
BRANCH  66  73
ATOM     73  C   UNL     1       3.439   4.669  -0.117  1.00  0.00     0.228 C 
ATOM     74  O   UNL     1       2.777   5.394  -0.882  1.00  0.00    -0.274 OA
ATOM     75  N   UNL     1       4.735   4.493  -0.510  1.00  0.00    -0.326 N 
ATOM     76  H   UNL     1       4.967   5.077  -1.268  1.00  0.00     0.169 HD
BRANCH  75  77
ATOM     77  C   UNL     1       5.825   3.698  -0.117  1.00  0.00     0.041 A 
ATOM     78  C   UNL     1       7.130   4.064  -0.435  1.00  0.00     0.026 A 
ATOM     79  C   UNL     1       5.680   2.509   0.553  1.00  0.00     0.026 A 
ATOM     80  C   UNL     1       8.222   3.331   0.082  1.00  0.00     0.008 A 
ATOM     81  C   UNL     1       6.725   1.732   1.025  1.00  0.00     0.008 A 
ATOM     82  C   UNL     1       8.018   2.184   0.867  1.00  0.00    -0.026 A 
BRANCH  82  83
ATOM     83  C   UNL     1       9.109   1.430   1.574  1.00  0.00     0.181 C 
BRANCH  83  84
ATOM     84  N   UNL     1       9.666   0.398   0.732  1.00  0.00    -0.249 N 
ATOM     85  C   UNL     1      10.553   0.562  -0.284  1.00  0.00     0.220 A 
ATOM     86  N   UNL     1       9.375  -0.906   0.918  1.00  0.00    -0.160 NA
ATOM     87  N   UNL     1      10.866  -0.608  -0.785  1.00  0.00    -0.224 NA
ATOM     88  C   UNL     1      10.130  -1.474  -0.026  1.00  0.00     0.246 A 
ENDBRANCH  83  84
ENDBRANCH  82  83
ENDBRANCH  75  77
ENDBRANCH  66  73
ENDBRANCH  63  65
ENDBRANCH  62  63
ENDBRANCH   1  62
TORSDOF 15
