REMARK SMILES CCN(C(=O)Cc1c(C(=O)OCCOC(=O)c2ccc(-c3c4nc(c(-c5c(F)cccc5F)c5ccc([nH]5)c(-c5c(F)cccc5F)c5nc(c(-c6c(F)cccc6F)c6ccc3[nH]6)C=C5)C=C4)cc2)[nH]c2ccccc12)c1cccc(C)c1
REMARK SMILES IDX 12 1 11 2 9 3 10 4 8 5 7 6 77 7 71 8 72 9 76 10 73 12 75 13
REMARK SMILES IDX 74 14 6 15 4 16 5 17 3 18 2 19 1 20 78 21 79 22 84 23 80 24
REMARK SMILES IDX 82 25 81 26 83 27 13 28 14 29 15 30 16 31 17 32 18 33 70 34
REMARK SMILES IDX 19 35 69 36 20 37 21 38 22 39 63 40 23 41 68 42 62 43 64 44
REMARK SMILES IDX 24 45 67 46 61 47 60 48 25 50 51 51 34 52 50 53 35 54 38 55
REMARK SMILES IDX 49 56 65 57 36 58 37 59 48 61 66 62 39 63 26 64 27 65 32 66
REMARK SMILES IDX 28 67 29 68 31 69 33 70 30 71 52 72 53 73 58 74 54 75 55 76
REMARK SMILES IDX 57 77 59 78 56 79 40 80 41 81 46 82 42 83 43 84 45 85 47 86
REMARK SMILES IDX 44 87
REMARK H PARENT 71 11 64 49 38 60
REMARK Flexibility Score: inf
ROOT
ATOM      1  C   UNL     1      -0.616  -1.196   2.249  1.00  0.00     0.275 C 
ENDROOT
BRANCH   1   2
ATOM      2  O   UNL     1      -0.928  -0.942   0.854  1.00  0.00    -0.457 OA
BRANCH   2   3
ATOM      3  C   UNL     1      -1.921  -0.042   0.608  1.00  0.00     0.355 C 
ATOM      4  O   UNL     1      -2.614   0.489   1.475  1.00  0.00    -0.244 OA
BRANCH   3   5
ATOM      5  C   UNL     1      -1.966   0.327  -0.794  1.00  0.00     0.129 A 
ATOM      6  C   UNL     1      -1.648   1.561  -1.371  1.00  0.00     0.002 A 
ATOM      7  C   UNL     1      -2.206   1.572  -2.678  1.00  0.00     0.004 A 
ATOM      8  N   UNL     1      -2.383  -0.483  -1.828  1.00  0.00    -0.349 N 
ATOM      9  C   UNL     1      -2.597   0.268  -2.966  1.00  0.00     0.046 A 
ATOM     10  C   UNL     1      -2.423   2.586  -3.632  1.00  0.00     0.010 A 
ATOM     11  H   UNL     1      -2.511  -1.457  -1.764  1.00  0.00     0.167 HD
ATOM     12  C   UNL     1      -3.122  -0.090  -4.214  1.00  0.00     0.027 A 
ATOM     13  C   UNL     1      -3.008   2.256  -4.855  1.00  0.00     0.001 A 
ATOM     14  C   UNL     1      -3.327   0.933  -5.149  1.00  0.00     0.002 A 
BRANCH   6  15
ATOM     15  C   UNL     1      -0.995   2.716  -0.695  1.00  0.00     0.139 C 
BRANCH  15  16
ATOM     16  C   UNL     1       0.421   3.116  -1.147  1.00  0.00     0.231 C 
ATOM     17  O   UNL     1       0.584   4.257  -1.600  1.00  0.00    -0.274 OA
BRANCH  16  18
ATOM     18  N   UNL     1       1.494   2.232  -0.929  1.00  0.00    -0.312 N 
BRANCH  18  19
ATOM     19  C   UNL     1       1.325   0.863  -0.443  1.00  0.00     0.122 C 
ATOM     20  C   UNL     1       1.241  -0.202  -1.521  1.00  0.00     0.028 C 
ENDBRANCH  18  19
BRANCH  18  21
ATOM     21  C   UNL     1       2.856   2.678  -0.920  1.00  0.00     0.044 A 
ATOM     22  C   UNL     1       3.215   3.865  -0.286  1.00  0.00     0.026 A 
ATOM     23  C   UNL     1       3.881   1.822  -1.334  1.00  0.00     0.029 A 
ATOM     24  C   UNL     1       4.555   4.181  -0.048  1.00  0.00     0.002 A 
ATOM     25  C   UNL     1       5.224   2.088  -1.048  1.00  0.00    -0.049 A 
ATOM     26  C   UNL     1       5.558   3.287  -0.418  1.00  0.00     0.003 A 
ATOM     27  C   UNL     1       6.269   1.083  -1.423  1.00  0.00     0.044 C 
ENDBRANCH  18  21
ENDBRANCH  16  18
ENDBRANCH  15  16
ENDBRANCH   6  15
ENDBRANCH   3   5
ENDBRANCH   2   3
ENDBRANCH   1   2
BRANCH   1  28
ATOM     28  C   UNL     1       0.775  -0.667   2.646  1.00  0.00     0.275 C 
BRANCH  28  29
ATOM     29  O   UNL     1       0.903   0.765   2.516  1.00  0.00    -0.458 OA
BRANCH  29  30
ATOM     30  C   UNL     1       0.348   1.524   3.488  1.00  0.00     0.338 C 
ATOM     31  O   UNL     1      -0.225   1.124   4.486  1.00  0.00    -0.246 OA
BRANCH  30  32
ATOM     32  C   UNL     1       0.373   2.933   3.038  1.00  0.00     0.060 A 
ATOM     33  C   UNL     1      -0.800   3.430   2.485  1.00  0.00     0.016 A 
ATOM     34  C   UNL     1       1.495   3.762   3.131  1.00  0.00     0.016 A 
ATOM     35  C   UNL     1      -0.827   4.717   1.944  1.00  0.00     0.010 A 
ATOM     36  C   UNL     1       1.407   5.117   2.730  1.00  0.00     0.010 A 
ATOM     37  C   UNL     1       0.230   5.622   2.153  1.00  0.00    -0.014 A 
BRANCH  37  38
ATOM     38  C   UNL     1      -0.042   7.090   1.973  1.00  0.00     0.031 A 
ATOM     39  C   UNL     1       0.774   8.011   1.100  1.00  0.00     0.074 A 
ATOM     40  C   UNL     1      -1.104   7.614   2.625  1.00  0.00     0.049 A 
ATOM     41  N   UNL     1       0.774   9.323   1.047  1.00  0.00    -0.248 NA
ATOM     42  C   UNL     1       1.713   7.391   0.167  1.00  0.00     0.031 C 
ATOM     43  C   UNL     1      -2.019   6.861   3.489  1.00  0.00     0.029 A 
ATOM     44  N   UNL     1      -1.621   8.886   2.642  1.00  0.00    -0.354 N 
ATOM     45  C   UNL     1       1.759   9.678   0.126  1.00  0.00     0.074 A 
ATOM     46  C   UNL     1       2.335   8.441  -0.356  1.00  0.00     0.031 C 
ATOM     47  C   UNL     1      -3.031   7.647   3.861  1.00  0.00     0.029 A 
ATOM     48  C   UNL     1      -2.751   9.002   3.416  1.00  0.00     0.049 A 
ATOM     49  H   UNL     1      -1.223   9.639   2.149  1.00  0.00     0.167 HD
ATOM     50  C   UNL     1       2.132  10.916  -0.287  1.00  0.00     0.037 A 
ATOM     51  C   UNL     1      -3.456  10.078   3.808  1.00  0.00     0.037 A 
ATOM     52  C   UNL     1       1.471  12.139   0.107  1.00  0.00     0.049 A 
ATOM     53  C   UNL     1      -3.003  11.435   3.380  1.00  0.00     0.074 A 
ATOM     54  C   UNL     1       1.758  13.439  -0.277  1.00  0.00     0.029 A 
ATOM     55  N   UNL     1       0.367  12.208   0.944  1.00  0.00    -0.354 N 
ATOM     56  N   UNL     1      -1.998  11.760   2.606  1.00  0.00    -0.248 NA
ATOM     57  C   UNL     1      -3.760  12.576   3.905  1.00  0.00     0.031 C 
ATOM     58  C   UNL     1       0.854  14.297   0.358  1.00  0.00     0.029 A 
ATOM     59  C   UNL     1      -0.028  13.529   1.099  1.00  0.00     0.049 A 
ATOM     60  H   UNL     1      -0.071  11.434   1.366  1.00  0.00     0.167 HD
ATOM     61  C   UNL     1      -2.003  13.144   2.546  1.00  0.00     0.074 A 
ATOM     62  C   UNL     1      -3.126  13.595   3.343  1.00  0.00     0.031 C 
ATOM     63  C   UNL     1      -1.146  13.966   1.894  1.00  0.00     0.037 A 
BRANCH  50  64
ATOM     64  C   UNL     1       3.327  11.040  -1.197  1.00  0.00     0.057 A 
ATOM     65  C   UNL     1       3.291  10.678  -2.549  1.00  0.00     0.134 A 
ATOM     66  C   UNL     1       4.513  11.621  -0.722  1.00  0.00     0.134 A 
ATOM     67  F   UNL     1       2.190  10.122  -3.075  1.00  0.00    -0.206 F 
ATOM     68  C   UNL     1       4.395  10.868  -3.387  1.00  0.00     0.040 A 
ATOM     69  C   UNL     1       5.612  11.842  -1.556  1.00  0.00     0.040 A 
ATOM     70  F   UNL     1       4.614  12.014   0.557  1.00  0.00    -0.206 F 
ATOM     71  C   UNL     1       5.556  11.460  -2.893  1.00  0.00     0.006 A 
ENDBRANCH  50  64
BRANCH  51  72
ATOM     72  C   UNL     1      -4.606   9.894   4.728  1.00  0.00     0.057 A 
ATOM     73  C   UNL     1      -5.918  10.130   4.308  1.00  0.00     0.134 A 
ATOM     74  C   UNL     1      -4.421   9.418   6.034  1.00  0.00     0.134 A 
ATOM     75  F   UNL     1      -6.159  10.605   3.077  1.00  0.00    -0.206 F 
ATOM     76  C   UNL     1      -7.005   9.895   5.152  1.00  0.00     0.040 A 
ATOM     77  C   UNL     1      -5.498   9.142   6.873  1.00  0.00     0.040 A 
ATOM     78  F   UNL     1      -3.186   9.164   6.493  1.00  0.00    -0.206 F 
ATOM     79  C   UNL     1      -6.796   9.386   6.433  1.00  0.00     0.006 A 
ENDBRANCH  51  72
BRANCH  63  80
ATOM     80  C   UNL     1      -1.421  15.435   1.991  1.00  0.00     0.057 A 
ATOM     81  C   UNL     1      -1.173  16.155   3.166  1.00  0.00     0.134 A 
ATOM     82  C   UNL     1      -1.938  16.137   0.896  1.00  0.00     0.134 A 
ATOM     83  F   UNL     1      -0.697  15.535   4.257  1.00  0.00    -0.206 F 
ATOM     84  C   UNL     1      -1.455  17.519   3.257  1.00  0.00     0.040 A 
ATOM     85  C   UNL     1      -2.201  17.505   0.966  1.00  0.00     0.040 A 
ATOM     86  F   UNL     1      -2.195  15.505  -0.260  1.00  0.00    -0.206 F 
ATOM     87  C   UNL     1      -1.966  18.198   2.152  1.00  0.00     0.006 A 
ENDBRANCH  63  80
ENDBRANCH  37  38
ENDBRANCH  30  32
ENDBRANCH  29  30
ENDBRANCH  28  29
ENDBRANCH   1  28
TORSDOF 16
