REMARK SMILES O=C(CCc1nc(-c2ccccc2)c(-c2ccccc2)o1)OCCOC(=O)c1ccc(-c2c3nc(c(-c4c(F)cccc4F)c4ccc([nH]4)c(-c4c(F)cccc4F)c4nc(c(-c5c(F)cccc5F)c5ccc2[nH]5)C=C4)C=C3)cc1
REMARK SMILES IDX 23 1 22 2 2 3 1 4 3 5 4 6 5 7 6 8 21 9 7 10 14 11 8 12 9 13
REMARK SMILES IDX 13 14 10 15 12 16 11 17 15 18 16 19 20 20 17 21 19 22 18 23
REMARK SMILES IDX 24 24 25 25 26 26 27 27 28 28 29 29 81 30 30 31 80 32 31 33
REMARK SMILES IDX 32 34 33 35 74 36 34 37 79 38 73 39 75 40 35 41 78 42 72 43
REMARK SMILES IDX 71 44 36 46 62 47 45 48 61 49 46 50 49 51 60 52 76 53 47 54
REMARK SMILES IDX 48 55 59 57 77 58 50 59 37 60 38 61 43 62 39 63 40 64 42 65
REMARK SMILES IDX 44 66 41 67 63 68 64 69 69 70 65 71 66 72 68 73 70 74 67 75
REMARK SMILES IDX 51 76 52 77 57 78 53 79 54 80 56 81 58 82 55 83
REMARK H PARENT 75 45 49 56
REMARK Flexibility Score: inf
ROOT
ATOM      1  C   UNL     1       3.678   0.150   1.415  1.00  0.00     0.274 C 
ENDROOT
BRANCH   1   2
ATOM      2  O   UNL     1       2.444   0.345   0.697  1.00  0.00    -0.462 OA
BRANCH   2   3
ATOM      3  C   UNL     1       2.429   0.636  -0.628  1.00  0.00     0.306 C 
ATOM      4  O   UNL     1       1.610   1.429  -1.086  1.00  0.00    -0.252 OA
BRANCH   3   5
ATOM      5  C   UNL     1       3.336  -0.156  -1.544  1.00  0.00     0.132 C 
BRANCH   5   6
ATOM      6  C   UNL     1       4.230   0.741  -2.391  1.00  0.00     0.109 C 
BRANCH   6   7
ATOM      7  C   UNL     1       5.310   1.322  -1.557  1.00  0.00     0.196 A 
ATOM      8  N   UNL     1       6.276   0.694  -0.913  1.00  0.00    -0.213 NA
ATOM      9  O   UNL     1       5.191   2.647  -1.259  1.00  0.00    -0.440 OA
ATOM     10  C   UNL     1       6.794   1.664  -0.084  1.00  0.00     0.117 A 
ATOM     11  C   UNL     1       6.165   2.870  -0.327  1.00  0.00     0.162 A 
BRANCH  10  12
ATOM     12  C   UNL     1       7.757   1.399   0.965  1.00  0.00     0.004 A 
ATOM     13  C   UNL     1       7.520   1.841   2.276  1.00  0.00     0.010 A 
ATOM     14  C   UNL     1       8.926   0.684   0.688  1.00  0.00     0.010 A 
ATOM     15  C   UNL     1       8.456   1.609   3.284  1.00  0.00     0.001 A 
ATOM     16  C   UNL     1       9.866   0.460   1.697  1.00  0.00     0.001 A 
ATOM     17  C   UNL     1       9.634   0.927   2.991  1.00  0.00     0.000 A 
ENDBRANCH  10  12
BRANCH  11  18
ATOM     18  C   UNL     1       6.277   4.224   0.170  1.00  0.00     0.020 A 
ATOM     19  C   UNL     1       5.145   4.911   0.624  1.00  0.00     0.012 A 
ATOM     20  C   UNL     1       7.527   4.854   0.216  1.00  0.00     0.012 A 
ATOM     21  C   UNL     1       5.264   6.208   1.124  1.00  0.00     0.001 A 
ATOM     22  C   UNL     1       7.643   6.154   0.704  1.00  0.00     0.001 A 
ATOM     23  C   UNL     1       6.512   6.830   1.161  1.00  0.00     0.000 A 
ENDBRANCH  11  18
ENDBRANCH   6   7
ENDBRANCH   5   6
ENDBRANCH   3   5
ENDBRANCH   2   3
ENDBRANCH   1   2
BRANCH   1  24
ATOM     24  C   UNL     1       3.818  -1.249   2.012  1.00  0.00     0.275 C 
BRANCH  24  25
ATOM     25  O   UNL     1       3.636  -2.250   1.002  1.00  0.00    -0.458 OA
BRANCH  25  26
ATOM     26  C   UNL     1       2.355  -2.667   0.853  1.00  0.00     0.338 C 
ATOM     27  O   UNL     1       1.409  -2.418   1.580  1.00  0.00    -0.246 OA
BRANCH  26  28
ATOM     28  C   UNL     1       2.222  -3.346  -0.450  1.00  0.00     0.060 A 
ATOM     29  C   UNL     1       1.067  -3.098  -1.203  1.00  0.00     0.016 A 
ATOM     30  C   UNL     1       3.210  -4.212  -0.929  1.00  0.00     0.016 A 
ATOM     31  C   UNL     1       0.874  -3.750  -2.419  1.00  0.00     0.010 A 
ATOM     32  C   UNL     1       3.012  -4.870  -2.142  1.00  0.00     0.010 A 
ATOM     33  C   UNL     1       1.829  -4.668  -2.874  1.00  0.00    -0.014 A 
BRANCH  33  34
ATOM     34  C   UNL     1       1.529  -5.562  -4.013  1.00  0.00     0.031 A 
ATOM     35  C   UNL     1       1.019  -6.942  -3.719  1.00  0.00     0.074 A 
ATOM     36  C   UNL     1       1.755  -5.176  -5.279  1.00  0.00     0.049 A 
ATOM     37  N   UNL     1       0.803  -7.940  -4.535  1.00  0.00    -0.248 NA
ATOM     38  C   UNL     1       0.730  -7.240  -2.307  1.00  0.00     0.031 C 
ATOM     39  C   UNL     1       2.232  -3.857  -5.690  1.00  0.00     0.029 A 
ATOM     40  N   UNL     1       1.641  -5.878  -6.452  1.00  0.00    -0.354 N 
ATOM     41  C   UNL     1       0.366  -8.988  -3.735  1.00  0.00     0.074 A 
ATOM     42  C   UNL     1       0.373  -8.513  -2.369  1.00  0.00     0.031 C 
ATOM     43  C   UNL     1       2.404  -3.856  -7.023  1.00  0.00     0.029 A 
ATOM     44  C   UNL     1       2.076  -5.180  -7.551  1.00  0.00     0.049 A 
ATOM     45  H   UNL     1       1.281  -6.793  -6.501  1.00  0.00     0.167 HD
ATOM     46  C   UNL     1      -0.007 -10.235  -4.107  1.00  0.00     0.037 A 
ATOM     47  C   UNL     1       2.222  -5.579  -8.829  1.00  0.00     0.037 A 
ATOM     48  C   UNL     1      -0.006 -10.706  -5.465  1.00  0.00     0.049 A 
ATOM     49  C   UNL     1       1.848  -6.984  -9.217  1.00  0.00     0.074 A 
ATOM     50  C   UNL     1      -0.402 -11.939  -5.950  1.00  0.00     0.029 A 
ATOM     51  N   UNL     1       0.430  -9.966  -6.553  1.00  0.00    -0.354 N 
ATOM     52  N   UNL     1       1.391  -7.956  -8.464  1.00  0.00    -0.248 NA
ATOM     53  C   UNL     1       2.007  -7.348 -10.633  1.00  0.00     0.031 C 
ATOM     54  C   UNL     1      -0.161 -11.961  -7.328  1.00  0.00     0.029 A 
ATOM     55  C   UNL     1       0.340 -10.725  -7.707  1.00  0.00     0.049 A 
ATOM     56  H   UNL     1       0.755  -9.037  -6.512  1.00  0.00     0.167 HD
ATOM     57  C   UNL     1       1.183  -9.034  -9.315  1.00  0.00     0.074 A 
ATOM     58  C   UNL     1       1.562  -8.598 -10.643  1.00  0.00     0.031 C 
ATOM     59  C   UNL     1       0.714 -10.272  -9.023  1.00  0.00     0.037 A 
BRANCH  46  60
ATOM     60  C   UNL     1      -0.411 -11.177  -3.013  1.00  0.00     0.057 A 
ATOM     61  C   UNL     1      -1.611 -11.024  -2.307  1.00  0.00     0.134 A 
ATOM     62  C   UNL     1       0.422 -12.243  -2.651  1.00  0.00     0.134 A 
ATOM     63  F   UNL     1      -2.443 -10.011  -2.593  1.00  0.00    -0.206 F 
ATOM     64  C   UNL     1      -1.953 -11.878  -1.258  1.00  0.00     0.040 A 
ATOM     65  C   UNL     1       0.079 -13.119  -1.621  1.00  0.00     0.040 A 
ATOM     66  F   UNL     1       1.585 -12.446  -3.288  1.00  0.00    -0.206 F 
ATOM     67  C   UNL     1      -1.108 -12.931  -0.914  1.00  0.00     0.006 A 
ENDBRANCH  46  60
BRANCH  47  68
ATOM     68  C   UNL     1       2.766  -4.630  -9.831  1.00  0.00     0.057 A 
ATOM     69  C   UNL     1       1.946  -4.062 -10.811  1.00  0.00     0.134 A 
ATOM     70  C   UNL     1       4.116  -4.259  -9.821  1.00  0.00     0.134 A 
ATOM     71  F   UNL     1       0.650  -4.396 -10.883  1.00  0.00    -0.206 F 
ATOM     72  C   UNL     1       2.450  -3.160 -11.750  1.00  0.00     0.040 A 
ATOM     73  C   UNL     1       4.629  -3.344 -10.741  1.00  0.00     0.040 A 
ATOM     74  F   UNL     1       4.952  -4.769  -8.904  1.00  0.00    -0.206 F 
ATOM     75  C   UNL     1       3.794  -2.793 -11.711  1.00  0.00     0.006 A 
ENDBRANCH  47  68
BRANCH  59  76
ATOM     76  C   UNL     1       0.546 -11.238 -10.159  1.00  0.00     0.057 A 
ATOM     77  C   UNL     1       1.640 -11.880 -10.752  1.00  0.00     0.134 A 
ATOM     78  C   UNL     1      -0.734 -11.586 -10.611  1.00  0.00     0.134 A 
ATOM     79  F   UNL     1       2.891 -11.583 -10.371  1.00  0.00    -0.206 F 
ATOM     80  C   UNL     1       1.467 -12.828 -11.762  1.00  0.00     0.040 A 
ATOM     81  C   UNL     1      -0.920 -12.549 -11.604  1.00  0.00     0.040 A 
ATOM     82  F   UNL     1      -1.823 -11.014 -10.077  1.00  0.00    -0.206 F 
ATOM     83  C   UNL     1       0.183 -13.172 -12.184  1.00  0.00     0.006 A 
ENDBRANCH  59  76
ENDBRANCH  33  34
ENDBRANCH  26  28
ENDBRANCH  25  26
ENDBRANCH  24  25
ENDBRANCH   1  24
TORSDOF 15
