REMARK SMILES Cc1ccncc1[C@H](F)C(=O)OCCOC(=O)c1ccc(-c2c3nc(c(-c4c(F)cccc4F)c4ccc([nH]4)c(-c4c(F)cccc4F)c4nc(c(-c5c(F)cccc5F)c5ccc2[nH]5)C=C4)C=C3)cc1
REMARK SMILES IDX 14 1 13 2 12 3 10 4 11 5 8 6 9 7 7 8 1 9 2 10 3 11 4 12 6 13
REMARK SMILES IDX 5 14 15 15 16 16 17 17 18 18 19 19 71 20 20 21 70 22 21 23
REMARK SMILES IDX 22 24 23 25 64 26 24 27 69 28 63 29 65 30 25 31 68 32 62 33
REMARK SMILES IDX 61 34 26 36 52 37 35 38 51 39 36 40 39 41 50 42 66 43 37 44
REMARK SMILES IDX 38 45 49 47 67 48 40 49 27 50 28 51 33 52 29 53 30 54 32 55
REMARK SMILES IDX 34 56 31 57 53 58 54 59 59 60 55 61 56 62 58 63 60 64 57 65
REMARK SMILES IDX 41 66 42 67 47 68 43 69 44 70 46 71 48 72 45 73
REMARK H PARENT 65 35 39 46
REMARK Flexibility Score: inf
ROOT
ATOM      1  C   UNL     1       0.545  -3.355   4.147  1.00  0.00     0.275 C 
ENDROOT
BRANCH   1   2
ATOM      2  C   UNL     1       0.931  -4.308   3.010  1.00  0.00     0.274 C 
BRANCH   2   3
ATOM      3  O   UNL     1       0.925  -3.636   1.738  1.00  0.00    -0.460 OA
BRANCH   3   4
ATOM      4  C   UNL     1      -0.208  -3.740   0.988  1.00  0.00     0.345 C 
ATOM      5  O   UNL     1      -1.174  -4.435   1.291  1.00  0.00    -0.248 OA
BRANCH   4   6
ATOM      6  C   UNL     1      -0.152  -2.840  -0.245  1.00  0.00     0.308 C 
ATOM      7  F   UNL     1       0.966  -2.043  -0.218  1.00  0.00    -0.230 F 
BRANCH   6   8
ATOM      8  C   UNL     1      -0.284  -3.540  -1.585  1.00  0.00     0.019 A 
ATOM      9  C   UNL     1       0.277  -1.371  -2.819  1.00  0.00     0.045 C 
ATOM     10  C   UNL     1      -0.061  -2.838  -2.790  1.00  0.00    -0.041 A 
ATOM     11  C   UNL     1      -0.106  -3.536  -4.003  1.00  0.00     0.024 A 
ATOM     12  C   UNL     1      -0.428  -4.881  -3.990  1.00  0.00     0.111 A 
ATOM     13  C   UNL     1      -0.639  -4.885  -1.701  1.00  0.00     0.118 A 
ATOM     14  N   UNL     1      -0.715  -5.565  -2.868  1.00  0.00    -0.264 NA
ENDBRANCH   6   8
ENDBRANCH   4   6
ENDBRANCH   3   4
ENDBRANCH   2   3
ENDBRANCH   1   2
BRANCH   1  15
ATOM     15  O   UNL     1      -0.873  -3.097   4.185  1.00  0.00    -0.458 OA
BRANCH  15  16
ATOM     16  C   UNL     1      -1.296  -2.069   3.414  1.00  0.00     0.338 C 
ATOM     17  O   UNL     1      -0.611  -1.343   2.712  1.00  0.00    -0.246 OA
BRANCH  16  18
ATOM     18  C   UNL     1      -2.767  -2.012   3.402  1.00  0.00     0.060 A 
ATOM     19  C   UNL     1      -3.403  -1.954   2.157  1.00  0.00     0.016 A 
ATOM     20  C   UNL     1      -3.509  -1.940   4.582  1.00  0.00     0.016 A 
ATOM     21  C   UNL     1      -4.783  -1.807   2.084  1.00  0.00     0.010 A 
ATOM     22  C   UNL     1      -4.899  -1.797   4.508  1.00  0.00     0.010 A 
ATOM     23  C   UNL     1      -5.540  -1.716   3.259  1.00  0.00    -0.014 A 
BRANCH  23  24
ATOM     24  C   UNL     1      -7.000  -1.489   3.168  1.00  0.00     0.031 A 
ATOM     25  C   UNL     1      -7.568  -0.135   3.477  1.00  0.00     0.074 A 
ATOM     26  C   UNL     1      -7.808  -2.492   2.781  1.00  0.00     0.049 A 
ATOM     27  N   UNL     1      -8.818   0.249   3.515  1.00  0.00    -0.248 NA
ATOM     28  C   UNL     1      -6.598   0.928   3.784  1.00  0.00     0.031 C 
ATOM     29  C   UNL     1      -7.366  -3.839   2.419  1.00  0.00     0.029 A 
ATOM     30  N   UNL     1      -9.171  -2.533   2.634  1.00  0.00    -0.354 N 
ATOM     31  C   UNL     1      -8.789   1.592   3.867  1.00  0.00     0.074 A 
ATOM     32  C   UNL     1      -7.398   1.951   4.049  1.00  0.00     0.031 C 
ATOM     33  C   UNL     1      -8.440  -4.577   2.097  1.00  0.00     0.029 A 
ATOM     34  C   UNL     1      -9.644  -3.769   2.269  1.00  0.00     0.049 A 
ATOM     35  H   UNL     1      -9.753  -1.752   2.776  1.00  0.00     0.167 HD
ATOM     36  C   UNL     1      -9.829   2.446   4.021  1.00  0.00     0.037 A 
ATOM     37  C   UNL     1     -10.908  -4.207   2.121  1.00  0.00     0.037 A 
ATOM     38  C   UNL     1     -11.209   2.084   3.830  1.00  0.00     0.049 A 
ATOM     39  C   UNL     1     -12.047  -3.254   2.343  1.00  0.00     0.074 A 
ATOM     40  C   UNL     1     -12.335   2.881   3.949  1.00  0.00     0.029 A 
ATOM     41  N   UNL     1     -11.651   0.817   3.481  1.00  0.00    -0.354 N 
ATOM     42  N   UNL     1     -12.010  -1.986   2.676  1.00  0.00    -0.248 NA
ATOM     43  C   UNL     1     -13.404  -3.792   2.173  1.00  0.00     0.031 C 
ATOM     44  C   UNL     1     -13.461   2.085   3.709  1.00  0.00     0.029 A 
ATOM     45  C   UNL     1     -13.034   0.803   3.400  1.00  0.00     0.049 A 
ATOM     46  H   UNL     1     -11.068   0.041   3.316  1.00  0.00     0.167 HD
ATOM     47  C   UNL     1     -13.333  -1.571   2.742  1.00  0.00     0.074 A 
ATOM     48  C   UNL     1     -14.149  -2.718   2.398  1.00  0.00     0.031 C 
ATOM     49  C   UNL     1     -13.829  -0.350   3.061  1.00  0.00     0.037 A 
BRANCH  36  50
ATOM     50  C   UNL     1      -9.507   3.847   4.447  1.00  0.00     0.057 A 
ATOM     51  C   UNL     1      -8.920   4.772   3.574  1.00  0.00     0.134 A 
ATOM     52  C   UNL     1      -9.802   4.281   5.746  1.00  0.00     0.134 A 
ATOM     53  F   UNL     1      -8.598   4.415   2.321  1.00  0.00    -0.206 F 
ATOM     54  C   UNL     1      -8.614   6.070   3.986  1.00  0.00     0.040 A 
ATOM     55  C   UNL     1      -9.522   5.583   6.162  1.00  0.00     0.040 A 
ATOM     56  F   UNL     1     -10.368   3.446   6.631  1.00  0.00    -0.206 F 
ATOM     57  C   UNL     1      -8.919   6.480   5.282  1.00  0.00     0.006 A 
ENDBRANCH  36  50
BRANCH  37  58
ATOM     58  C   UNL     1     -11.155  -5.626   1.769  1.00  0.00     0.057 A 
ATOM     59  C   UNL     1     -11.632  -5.990   0.506  1.00  0.00     0.134 A 
ATOM     60  C   UNL     1     -10.906  -6.654   2.688  1.00  0.00     0.134 A 
ATOM     61  F   UNL     1     -11.909  -5.049  -0.408  1.00  0.00    -0.206 F 
ATOM     62  C   UNL     1     -11.860  -7.326   0.170  1.00  0.00     0.040 A 
ATOM     63  C   UNL     1     -11.107  -7.994   2.358  1.00  0.00     0.040 A 
ATOM     64  F   UNL     1     -10.446  -6.367   3.915  1.00  0.00    -0.206 F 
ATOM     65  C   UNL     1     -11.590  -8.333   1.096  1.00  0.00     0.006 A 
ENDBRANCH  37  58
BRANCH  49  66
ATOM     66  C   UNL     1     -15.319  -0.191   3.033  1.00  0.00     0.057 A 
ATOM     67  C   UNL     1     -16.135  -0.726   4.039  1.00  0.00     0.134 A 
ATOM     68  C   UNL     1     -15.942   0.532   2.009  1.00  0.00     0.134 A 
ATOM     69  F   UNL     1     -15.599  -1.441   5.040  1.00  0.00    -0.206 F 
ATOM     70  C   UNL     1     -17.521  -0.562   4.016  1.00  0.00     0.040 A 
ATOM     71  C   UNL     1     -17.324   0.722   1.987  1.00  0.00     0.040 A 
ATOM     72  F   UNL     1     -15.216   1.075   1.020  1.00  0.00    -0.206 F 
ATOM     73  C   UNL     1     -18.118   0.169   2.990  1.00  0.00     0.006 A 
ENDBRANCH  49  66
ENDBRANCH  23  24
ENDBRANCH  16  18
ENDBRANCH  15  16
ENDBRANCH   1  15
TORSDOF 12
