REMARK SMILES C[C@H](NC(N)=O)C(=O)N[C@@H](CO)C(=O)OCCOC(=O)c1ccc(-c2c3nc(c(-c4c(F)cccc4F)c4ccc([nH]4)c(-c4c(F)cccc4F)c4nc(c(-c5c(F)cccc5F)c5ccc2[nH]5)C=C4)C=C3)cc1
REMARK SMILES IDX 16 1 15 2 13 3 14 4 10 5 9 6 7 7 8 8 2 10 1 11 3 12 4 13
REMARK SMILES IDX 5 15 6 16 11 19 12 20 17 22 18 23 19 24 20 25 21 26 22 27
REMARK SMILES IDX 74 28 23 29 73 30 24 31 25 32 26 33 67 34 27 35 72 36 66 37
REMARK SMILES IDX 68 38 28 39 71 40 65 41 64 42 29 44 55 45 38 46 54 47 39 48
REMARK SMILES IDX 42 49 53 50 69 51 40 52 41 53 52 55 70 56 43 57 30 58 31 59
REMARK SMILES IDX 36 60 32 61 33 62 35 63 37 64 34 65 56 66 57 67 62 68 58 69
REMARK SMILES IDX 59 70 61 71 63 72 60 73 44 74 45 75 50 76 46 77 47 78 49 79
REMARK SMILES IDX 51 80 48 81
REMARK H PARENT 9 9 3 14 5 17 5 18 12 21 68 43 42 54
REMARK Flexibility Score: inf
ROOT
ATOM      1  C   UNL     1      -3.125  -2.335   4.546  1.00  0.00     0.274 C 
ENDROOT
BRANCH   1   2
ATOM      2  O   UNL     1      -2.732  -1.659   3.333  1.00  0.00    -0.460 OA
BRANCH   2   3
ATOM      3  C   UNL     1      -1.677  -0.808   3.451  1.00  0.00     0.331 C 
ATOM      4  O   UNL     1      -1.087  -0.565   4.500  1.00  0.00    -0.250 OA
BRANCH   3   5
ATOM      5  C   UNL     1      -1.277  -0.154   2.122  1.00  0.00     0.218 C 
BRANCH   5   6
ATOM      6  N   UNL     1      -1.949  -0.664   0.922  1.00  0.00    -0.339 N 
ATOM      7  C   UNL     1      -1.482  -0.948  -0.329  1.00  0.00     0.243 C 
ATOM      8  O   UNL     1      -2.332  -1.251  -1.173  1.00  0.00    -0.273 OA
ATOM      9  H   UNL     1      -2.912  -0.832   1.040  1.00  0.00     0.164 HD
BRANCH   7  10
ATOM     10  C   UNL     1       0.026  -1.112  -0.649  1.00  0.00     0.170 C 
ATOM     11  C   UNL     1       0.410  -2.522  -0.204  1.00  0.00     0.041 C 
BRANCH  10  12
ATOM     12  N   UNL     1       0.894  -0.061  -0.113  1.00  0.00    -0.327 N 
ATOM     13  C   UNL     1       2.245  -0.073  -0.296  1.00  0.00     0.312 C 
ATOM     14  H   UNL     1       0.489   0.678   0.395  1.00  0.00     0.166 HD
ATOM     15  N   UNL     1       2.864   1.023   0.196  1.00  0.00    -0.352 N 
ATOM     16  O   UNL     1       2.889  -0.968  -0.824  1.00  0.00    -0.249 OA
ATOM     17  H   UNL     1       2.336   1.738   0.620  1.00  0.00     0.161 HD
ATOM     18  H   UNL     1       3.843   1.107   0.130  1.00  0.00     0.161 HD
ENDBRANCH  10  12
ENDBRANCH   7  10
ENDBRANCH   5   6
BRANCH   5  19
ATOM     19  C   UNL     1      -1.547   1.351   2.266  1.00  0.00     0.193 C 
BRANCH  19  20
ATOM     20  O   UNL     1      -2.949   1.624   2.299  1.00  0.00    -0.394 OA
ATOM     21  H   UNL     1      -3.357   1.326   1.471  1.00  0.00     0.210 HD
ENDBRANCH  19  20
ENDBRANCH   5  19
ENDBRANCH   3   5
ENDBRANCH   2   3
ENDBRANCH   1   2
BRANCH   1  22
ATOM     22  C   UNL     1      -2.625  -3.779   4.562  1.00  0.00     0.275 C 
BRANCH  22  23
ATOM     23  O   UNL     1      -1.186  -3.826   4.509  1.00  0.00    -0.458 OA
BRANCH  23  24
ATOM     24  C   UNL     1      -0.686  -4.068   3.277  1.00  0.00     0.338 C 
ATOM     25  O   UNL     1      -1.313  -4.264   2.249  1.00  0.00    -0.246 OA
BRANCH  24  26
ATOM     26  C   UNL     1       0.782  -3.989   3.277  1.00  0.00     0.060 A 
ATOM     27  C   UNL     1       1.385  -2.735   3.186  1.00  0.00     0.016 A 
ATOM     28  C   UNL     1       1.532  -5.147   3.084  1.00  0.00     0.016 A 
ATOM     29  C   UNL     1       2.710  -2.635   2.772  1.00  0.00     0.010 A 
ATOM     30  C   UNL     1       2.897  -5.042   2.789  1.00  0.00     0.010 A 
ATOM     31  C   UNL     1       3.493  -3.784   2.589  1.00  0.00    -0.014 A 
BRANCH  31  32
ATOM     32  C   UNL     1       4.927  -3.667   2.197  1.00  0.00     0.031 A 
ATOM     33  C   UNL     1       5.451  -4.352   0.960  1.00  0.00     0.074 A 
ATOM     34  C   UNL     1       5.773  -2.955   2.969  1.00  0.00     0.049 A 
ATOM     35  N   UNL     1       6.692  -4.545   0.585  1.00  0.00    -0.248 NA
ATOM     36  C   UNL     1       4.454  -4.914   0.034  1.00  0.00     0.031 C 
ATOM     37  C   UNL     1       5.402  -2.212   4.176  1.00  0.00     0.029 A 
ATOM     38  N   UNL     1       7.126  -2.744   2.859  1.00  0.00    -0.354 N 
ATOM     39  C   UNL     1       6.626  -5.296  -0.584  1.00  0.00     0.074 A 
ATOM     40  C   UNL     1       5.223  -5.527  -0.857  1.00  0.00     0.031 C 
ATOM     41  C   UNL     1       6.487  -1.604   4.674  1.00  0.00     0.029 A 
ATOM     42  C   UNL     1       7.649  -1.995   3.886  1.00  0.00     0.049 A 
ATOM     43  H   UNL     1       7.669  -3.095   2.117  1.00  0.00     0.167 HD
ATOM     44  C   UNL     1       7.645  -5.750  -1.354  1.00  0.00     0.037 A 
ATOM     45  C   UNL     1       8.923  -1.698   4.200  1.00  0.00     0.037 A 
ATOM     46  C   UNL     1       9.036  -5.450  -1.120  1.00  0.00     0.049 A 
ATOM     47  C   UNL     1      10.032  -2.239   3.345  1.00  0.00     0.074 A 
ATOM     48  C   UNL     1      10.136  -5.820  -1.877  1.00  0.00     0.029 A 
ATOM     49  N   UNL     1       9.517  -4.696  -0.061  1.00  0.00    -0.354 N 
ATOM     50  N   UNL     1       9.958  -2.971   2.262  1.00  0.00    -0.248 NA
ATOM     51  C   UNL     1      11.403  -1.926   3.769  1.00  0.00     0.031 C 
ATOM     52  C   UNL     1      11.285  -5.330  -1.250  1.00  0.00     0.029 A 
ATOM     53  C   UNL     1      10.899  -4.611  -0.132  1.00  0.00     0.049 A 
ATOM     54  H   UNL     1       8.960  -4.283   0.637  1.00  0.00     0.167 HD
ATOM     55  C   UNL     1      11.268  -3.188   1.861  1.00  0.00     0.074 A 
ATOM     56  C   UNL     1      12.117  -2.493   2.807  1.00  0.00     0.031 C 
ATOM     57  C   UNL     1      11.729  -3.903   0.807  1.00  0.00     0.037 A 
BRANCH  44  58
ATOM     58  C   UNL     1       7.318  -6.643  -2.517  1.00  0.00     0.057 A 
ATOM     59  C   UNL     1       6.746  -6.158  -3.699  1.00  0.00     0.134 A 
ATOM     60  C   UNL     1       7.679  -7.998  -2.485  1.00  0.00     0.134 A 
ATOM     61  F   UNL     1       6.376  -4.873  -3.797  1.00  0.00    -0.206 F 
ATOM     62  C   UNL     1       6.535  -6.989  -4.802  1.00  0.00     0.040 A 
ATOM     63  C   UNL     1       7.496  -8.832  -3.590  1.00  0.00     0.040 A 
ATOM     64  F   UNL     1       8.244  -8.527  -1.389  1.00  0.00    -0.206 F 
ATOM     65  C   UNL     1       6.921  -8.328  -4.753  1.00  0.00     0.006 A 
ENDBRANCH  44  58
BRANCH  45  66
ATOM     66  C   UNL     1       9.224  -0.890   5.409  1.00  0.00     0.057 A 
ATOM     67  C   UNL     1       9.779   0.390   5.304  1.00  0.00     0.134 A 
ATOM     68  C   UNL     1       8.981  -1.383   6.698  1.00  0.00     0.134 A 
ATOM     69  F   UNL     1      10.054   0.909   4.098  1.00  0.00    -0.206 F 
ATOM     70  C   UNL     1      10.100   1.142   6.435  1.00  0.00     0.040 A 
ATOM     71  C   UNL     1       9.265  -0.629   7.836  1.00  0.00     0.040 A 
ATOM     72  F   UNL     1       8.445  -2.601   6.868  1.00  0.00    -0.206 F 
ATOM     73  C   UNL     1       9.837   0.635   7.706  1.00  0.00     0.006 A 
ENDBRANCH  45  66
BRANCH  57  74
ATOM     74  C   UNL     1      13.213  -3.924   0.595  1.00  0.00     0.057 A 
ATOM     75  C   UNL     1      14.071  -4.647   1.434  1.00  0.00     0.134 A 
ATOM     76  C   UNL     1      13.790  -3.224  -0.472  1.00  0.00     0.134 A 
ATOM     77  F   UNL     1      13.583  -5.325   2.484  1.00  0.00    -0.206 F 
ATOM     78  C   UNL     1      15.452  -4.650   1.235  1.00  0.00     0.040 A 
ATOM     79  C   UNL     1      15.166  -3.242  -0.698  1.00  0.00     0.040 A 
ATOM     80  F   UNL     1      13.023  -2.517  -1.316  1.00  0.00    -0.206 F 
ATOM     81  C   UNL     1      16.002  -3.950   0.163  1.00  0.00     0.006 A 
ENDBRANCH  57  74
ENDBRANCH  31  32
ENDBRANCH  24  26
ENDBRANCH  23  24
ENDBRANCH  22  23
ENDBRANCH   1  22
TORSDOF 16
