REMARK SMILES CC[C@H](C)[C@@H](Nc1ncnc2ccccc12)C(=O)OCCOC(=O)c1ccc(-c2c3nc(c(-c4c(F)cccc4F)c4ccc([nH]4)c(-c4c(F)cccc4F)c4nc(c(-c5c(F)cccc5F)c5ccc2[nH]5)C=C4)C=C3)cc1
REMARK SMILES IDX 20 1 19 2 17 3 18 4 5 5 3 6 4 7 2 8 1 9 6 10 7 12 8 13 16 14
REMARK SMILES IDX 9 15 11 16 15 17 10 18 12 19 14 20 13 21 21 22 22 23 23 24
REMARK SMILES IDX 24 25 25 26 26 27 78 28 27 29 77 30 28 31 29 32 30 33 71 34
REMARK SMILES IDX 31 35 76 36 70 37 72 38 32 39 75 40 69 41 68 42 33 44 59 45
REMARK SMILES IDX 42 46 58 47 43 48 46 49 57 50 73 51 44 52 45 53 56 55 74 56
REMARK SMILES IDX 47 57 34 58 35 59 40 60 36 61 37 62 39 63 41 64 38 65 60 66
REMARK SMILES IDX 61 67 66 68 62 69 63 70 65 71 67 72 64 73 48 74 49 75 54 76
REMARK SMILES IDX 50 77 51 78 53 79 55 80 52 81
REMARK H PARENT 6 11 72 43 46 54
REMARK Flexibility Score: inf
ROOT
ATOM      1  C   UNL     1       2.728   5.789  -2.078  1.00  0.00     0.274 C 
ENDROOT
BRANCH   1   2
ATOM      2  O   UNL     1       2.379   4.690  -1.208  1.00  0.00    -0.461 OA
BRANCH   2   3
ATOM      3  C   UNL     1       1.154   4.799  -0.631  1.00  0.00     0.328 C 
ATOM      4  O   UNL     1       0.354   5.690  -0.898  1.00  0.00    -0.250 OA
BRANCH   3   5
ATOM      5  C   UNL     1       0.845   3.723   0.429  1.00  0.00     0.194 C 
BRANCH   5   6
ATOM      6  C   UNL     1       1.260   2.282  -0.020  1.00  0.00     0.019 C 
ATOM      7  C   UNL     1       0.719   1.229   0.966  1.00  0.00     0.010 C 
BRANCH   6   8
ATOM      8  C   UNL     1       0.756   1.946  -1.446  1.00  0.00     0.002 C 
ATOM      9  C   UNL     1       1.288   0.633  -2.008  1.00  0.00     0.004 C 
ENDBRANCH   6   8
ENDBRANCH   5   6
BRANCH   5  10
ATOM     10  N   UNL     1       1.393   4.029   1.774  1.00  0.00    -0.356 N 
ATOM     11  H   UNL     1       1.331   3.333   2.467  1.00  0.00     0.163 HD
BRANCH  10  12
ATOM     12  C   UNL     1       1.984   5.231   2.114  1.00  0.00     0.137 A 
ATOM     13  N   UNL     1       3.226   5.055   2.591  1.00  0.00    -0.219 NA
ATOM     14  C   UNL     1       1.426   6.508   1.931  1.00  0.00     0.043 A 
ATOM     15  C   UNL     1       3.957   6.157   2.774  1.00  0.00     0.224 A 
ATOM     16  C   UNL     1       2.328   7.572   2.066  1.00  0.00     0.076 A 
ATOM     17  C   UNL     1       0.073   6.793   1.611  1.00  0.00     0.014 A 
ATOM     18  N   UNL     1       3.585   7.407   2.486  1.00  0.00    -0.236 NA
ATOM     19  C   UNL     1       1.906   8.852   1.725  1.00  0.00     0.029 A 
ATOM     20  C   UNL     1      -0.328   8.085   1.274  1.00  0.00     0.001 A 
ATOM     21  C   UNL     1       0.601   9.114   1.303  1.00  0.00     0.002 A 
ENDBRANCH  10  12
ENDBRANCH   5  10
ENDBRANCH   3   5
ENDBRANCH   2   3
ENDBRANCH   1   2
BRANCH   1  22
ATOM     22  C   UNL     1       2.139   5.670  -3.494  1.00  0.00     0.275 C 
BRANCH  22  23
ATOM     23  O   UNL     1       0.707   5.841  -3.493  1.00  0.00    -0.458 OA
BRANCH  23  24
ATOM     24  C   UNL     1      -0.028   4.807  -3.961  1.00  0.00     0.338 C 
ATOM     25  O   UNL     1       0.379   3.800  -4.514  1.00  0.00    -0.246 OA
BRANCH  24  26
ATOM     26  C   UNL     1      -1.451   5.000  -3.623  1.00  0.00     0.060 A 
ATOM     27  C   UNL     1      -1.937   4.480  -2.419  1.00  0.00     0.016 A 
ATOM     28  C   UNL     1      -2.331   5.562  -4.545  1.00  0.00     0.016 A 
ATOM     29  C   UNL     1      -3.296   4.522  -2.120  1.00  0.00     0.010 A 
ATOM     30  C   UNL     1      -3.700   5.598  -4.252  1.00  0.00     0.010 A 
ATOM     31  C   UNL     1      -4.191   5.065  -3.045  1.00  0.00    -0.014 A 
BRANCH  31  32
ATOM     32  C   UNL     1      -5.648   4.971  -2.800  1.00  0.00     0.031 A 
ATOM     33  C   UNL     1      -6.444   3.915  -3.511  1.00  0.00     0.074 A 
ATOM     34  C   UNL     1      -6.254   5.802  -1.934  1.00  0.00     0.049 A 
ATOM     35  N   UNL     1      -7.739   3.745  -3.560  1.00  0.00    -0.248 NA
ATOM     36  C   UNL     1      -5.673   2.913  -4.264  1.00  0.00     0.031 C 
ATOM     37  C   UNL     1      -5.581   6.809  -1.115  1.00  0.00     0.029 A 
ATOM     38  N   UNL     1      -7.580   5.932  -1.608  1.00  0.00    -0.354 N 
ATOM     39  C   UNL     1      -7.943   2.638  -4.373  1.00  0.00     0.074 A 
ATOM     40  C   UNL     1      -6.638   2.173  -4.792  1.00  0.00     0.031 C 
ATOM     41  C   UNL     1      -6.502   7.468  -0.392  1.00  0.00     0.029 A 
ATOM     42  C   UNL     1      -7.830   6.962  -0.735  1.00  0.00     0.049 A 
ATOM     43  H   UNL     1      -8.285   5.345  -1.965  1.00  0.00     0.167 HD
ATOM     44  C   UNL     1      -9.114   2.068  -4.742  1.00  0.00     0.037 A 
ATOM     45  C   UNL     1      -9.000   7.465  -0.297  1.00  0.00     0.037 A 
ATOM     46  C   UNL     1     -10.409   2.523  -4.312  1.00  0.00     0.049 A 
ATOM     47  C   UNL     1     -10.291   6.868  -0.786  1.00  0.00     0.074 A 
ATOM     48  C   UNL     1     -11.655   2.013  -4.633  1.00  0.00     0.029 A 
ATOM     49  N   UNL     1     -10.623   3.597  -3.462  1.00  0.00    -0.354 N 
ATOM     50  N   UNL     1     -10.479   5.849  -1.589  1.00  0.00    -0.248 NA
ATOM     51  C   UNL     1     -11.533   7.503  -0.322  1.00  0.00     0.031 C 
ATOM     52  C   UNL     1     -12.625   2.801  -4.003  1.00  0.00     0.029 A 
ATOM     53  C   UNL     1     -11.981   3.778  -3.262  1.00  0.00     0.049 A 
ATOM     54  H   UNL     1      -9.914   4.150  -3.060  1.00  0.00     0.167 HD
ATOM     55  C   UNL     1     -11.855   5.709  -1.711  1.00  0.00     0.074 A 
ATOM     56  C   UNL     1     -12.456   6.741  -0.892  1.00  0.00     0.031 C 
ATOM     57  C   UNL     1     -12.559   4.807  -2.438  1.00  0.00     0.037 A 
BRANCH  44  58
ATOM     58  C   UNL     1      -9.046   0.914  -5.694  1.00  0.00     0.057 A 
ATOM     59  C   UNL     1      -8.653  -0.364  -5.283  1.00  0.00     0.134 A 
ATOM     60  C   UNL     1      -9.401   1.085  -7.038  1.00  0.00     0.134 A 
ATOM     61  F   UNL     1      -8.284  -0.587  -4.013  1.00  0.00    -0.206 F 
ATOM     62  C   UNL     1      -8.601  -1.432  -6.181  1.00  0.00     0.040 A 
ATOM     63  C   UNL     1      -9.371   0.021  -7.941  1.00  0.00     0.040 A 
ATOM     64  F   UNL     1      -9.786   2.287  -7.494  1.00  0.00    -0.206 F 
ATOM     65  C   UNL     1      -8.966  -1.242  -7.513  1.00  0.00     0.006 A 
ENDBRANCH  44  58
BRANCH  45  66
ATOM     66  C   UNL     1      -9.010   8.629   0.623  1.00  0.00     0.057 A 
ATOM     67  C   UNL     1      -9.409   8.493   1.957  1.00  0.00     0.134 A 
ATOM     68  C   UNL     1      -8.642   9.906   0.184  1.00  0.00     0.134 A 
ATOM     69  F   UNL     1      -9.799   7.299   2.427  1.00  0.00    -0.206 F 
ATOM     70  C   UNL     1      -9.452   9.589   2.821  1.00  0.00     0.040 A 
ATOM     71  C   UNL     1      -8.659  11.006   1.042  1.00  0.00     0.040 A 
ATOM     72  F   UNL     1      -8.255  10.101  -1.085  1.00  0.00    -0.206 F 
ATOM     73  C   UNL     1      -9.070  10.850   2.364  1.00  0.00     0.006 A 
ENDBRANCH  45  66
BRANCH  57  74
ATOM     74  C   UNL     1     -14.054   4.878  -2.353  1.00  0.00     0.057 A 
ATOM     75  C   UNL     1     -14.783   5.864  -3.027  1.00  0.00     0.134 A 
ATOM     76  C   UNL     1     -14.772   3.925  -1.620  1.00  0.00     0.134 A 
ATOM     77  F   UNL     1     -14.151   6.813  -3.734  1.00  0.00    -0.206 F 
ATOM     78  C   UNL     1     -16.177   5.911  -2.961  1.00  0.00     0.040 A 
ATOM     79  C   UNL     1     -16.166   3.949  -1.562  1.00  0.00     0.040 A 
ATOM     80  F   UNL     1     -14.131   2.950  -0.957  1.00  0.00    -0.206 F 
ATOM     81  C   UNL     1     -16.872   4.947  -2.232  1.00  0.00     0.006 A 
ENDBRANCH  57  74
ENDBRANCH  31  32
ENDBRANCH  24  26
ENDBRANCH  23  24
ENDBRANCH  22  23
ENDBRANCH   1  22
TORSDOF 15
