REMARK SMILES O=C(OCCOC(=O)c1c(C2CC2)nn(-c2ccc(Cl)c(F)c2)c1Cl)c1ccc(-c2c3nc(c(-c4c(F)cccc4F)c4ccc([nH]4)c(-c4c(F)cccc4F)c4nc(c(-c5c(F)cccc5F)c5ccc2[nH]5)C=C4)C=C3)cc1
REMARK SMILES IDX 4 1 3 2 2 3 1 4 26 5 27 6 79 7 28 8 78 9 29 10 30 11 31 12
REMARK SMILES IDX 72 13 32 14 77 15 71 16 73 17 33 18 76 19 70 20 69 21 34 23
REMARK SMILES IDX 60 24 43 25 59 26 44 27 47 28 58 29 74 30 45 31 46 32 57 34
REMARK SMILES IDX 75 35 48 36 35 37 36 38 41 39 37 40 38 41 40 42 42 43 39 44
REMARK SMILES IDX 61 45 62 46 67 47 63 48 64 49 66 50 68 51 65 52 49 53 50 54
REMARK SMILES IDX 55 55 51 56 52 57 54 58 56 59 53 60 5 61 6 62 7 63 8 64 9 65
REMARK SMILES IDX 10 66 24 67 14 68 15 69 25 70 11 71 12 72 13 73 16 74 17 75
REMARK SMILES IDX 23 76 18 77 21 78 19 79 22 80 20 81
REMARK H PARENT 73 22 47 33
REMARK Flexibility Score: inf
ROOT
ATOM      1  C   UNL     1       5.067  -1.140   0.522  1.00  0.00     0.275 C 
ENDROOT
BRANCH   1   2
ATOM      2  O   UNL     1       4.694   0.159   0.994  1.00  0.00    -0.458 OA
BRANCH   2   3
ATOM      3  C   UNL     1       3.414   0.363   1.373  1.00  0.00     0.338 C 
ATOM      4  O   UNL     1       2.631  -0.472   1.784  1.00  0.00    -0.246 OA
BRANCH   3   5
ATOM      5  C   UNL     1       3.056   1.747   0.977  1.00  0.00     0.060 A 
ATOM      6  C   UNL     1       4.031   2.639   0.510  1.00  0.00     0.016 A 
ATOM      7  C   UNL     1       1.709   2.115   0.958  1.00  0.00     0.016 A 
ATOM      8  C   UNL     1       3.662   3.882   0.015  1.00  0.00     0.010 A 
ATOM      9  C   UNL     1       1.343   3.366   0.460  1.00  0.00     0.010 A 
ATOM     10  C   UNL     1       2.315   4.255  -0.015  1.00  0.00    -0.014 A 
BRANCH  10  11
ATOM     11  C   UNL     1       2.006   5.595  -0.519  1.00  0.00     0.031 A 
ATOM     12  C   UNL     1       2.491   6.005  -1.873  1.00  0.00     0.074 A 
ATOM     13  C   UNL     1       1.282   6.507   0.157  1.00  0.00     0.049 A 
ATOM     14  N   UNL     1       3.397   6.890  -2.156  1.00  0.00    -0.248 NA
ATOM     15  C   UNL     1       1.864   5.395  -3.051  1.00  0.00     0.031 C 
ATOM     16  C   UNL     1       0.453   6.323   1.347  1.00  0.00     0.029 A 
ATOM     17  N   UNL     1       1.115   7.829  -0.150  1.00  0.00    -0.354 N 
ATOM     18  C   UNL     1       3.357   7.069  -3.538  1.00  0.00     0.074 A 
ATOM     19  C   UNL     1       2.433   6.083  -4.046  1.00  0.00     0.031 C 
ATOM     20  C   UNL     1      -0.276   7.441   1.553  1.00  0.00     0.029 A 
ATOM     21  C   UNL     1       0.159   8.463   0.615  1.00  0.00     0.049 A 
ATOM     22  H   UNL     1       1.631   8.286  -0.853  1.00  0.00     0.167 HD
ATOM     23  C   UNL     1       3.979   8.107  -4.166  1.00  0.00     0.037 A 
ATOM     24  C   UNL     1      -0.262   9.740   0.503  1.00  0.00     0.037 A 
ATOM     25  C   UNL     1       4.921   8.787  -3.323  1.00  0.00     0.049 A 
ATOM     26  C   UNL     1       0.796  10.533  -0.161  1.00  0.00     0.074 A 
ATOM     27  C   UNL     1       6.074   8.441  -2.647  1.00  0.00     0.029 A 
ATOM     28  N   UNL     1       4.595  10.039  -2.870  1.00  0.00    -0.354 N 
ATOM     29  N   UNL     1       1.933  10.856   0.389  1.00  0.00    -0.248 NA
ATOM     30  C   UNL     1       0.710  10.768  -1.595  1.00  0.00     0.031 C 
ATOM     31  C   UNL     1       6.111   9.292  -1.503  1.00  0.00     0.029 A 
ATOM     32  C   UNL     1       4.965  10.088  -1.552  1.00  0.00     0.049 A 
ATOM     33  H   UNL     1       4.177  10.762  -3.391  1.00  0.00     0.167 HD
ATOM     34  C   UNL     1       2.823  10.956  -0.667  1.00  0.00     0.074 A 
ATOM     35  C   UNL     1       1.987  11.057  -1.855  1.00  0.00     0.031 C 
ATOM     36  C   UNL     1       4.146  10.662  -0.509  1.00  0.00     0.037 A 
BRANCH  23  37
ATOM     37  C   UNL     1       3.566   8.698  -5.489  1.00  0.00     0.057 A 
ATOM     38  C   UNL     1       4.474   9.480  -6.228  1.00  0.00     0.134 A 
ATOM     39  C   UNL     1       2.229   8.754  -5.920  1.00  0.00     0.134 A 
ATOM     40  F   UNL     1       5.769   9.540  -5.881  1.00  0.00    -0.206 F 
ATOM     41  C   UNL     1       4.074  10.282  -7.304  1.00  0.00     0.040 A 
ATOM     42  C   UNL     1       1.824   9.518  -7.021  1.00  0.00     0.040 A 
ATOM     43  F   UNL     1       1.248   8.144  -5.239  1.00  0.00    -0.206 F 
ATOM     44  C   UNL     1       2.744  10.301  -7.705  1.00  0.00     0.006 A 
ENDBRANCH  23  37
BRANCH  24  45
ATOM     45  C   UNL     1      -1.578  10.294   0.864  1.00  0.00     0.057 A 
ATOM     46  C   UNL     1      -1.753  11.652   1.146  1.00  0.00     0.134 A 
ATOM     47  C   UNL     1      -2.749   9.528   0.726  1.00  0.00     0.134 A 
ATOM     48  F   UNL     1      -0.696  12.471   1.245  1.00  0.00    -0.206 F 
ATOM     49  C   UNL     1      -3.024  12.220   1.287  1.00  0.00     0.040 A 
ATOM     50  C   UNL     1      -4.023  10.078   0.875  1.00  0.00     0.040 A 
ATOM     51  F   UNL     1      -2.693   8.236   0.368  1.00  0.00    -0.206 F 
ATOM     52  C   UNL     1      -4.164  11.432   1.148  1.00  0.00     0.006 A 
ENDBRANCH  24  45
BRANCH  36  53
ATOM     53  C   UNL     1       4.689  10.603   0.888  1.00  0.00     0.057 A 
ATOM     54  C   UNL     1       4.282   9.656   1.839  1.00  0.00     0.134 A 
ATOM     55  C   UNL     1       5.755  11.439   1.239  1.00  0.00     0.134 A 
ATOM     56  F   UNL     1       3.344   8.744   1.549  1.00  0.00    -0.206 F 
ATOM     57  C   UNL     1       4.874   9.583   3.103  1.00  0.00     0.040 A 
ATOM     58  C   UNL     1       6.377  11.355   2.488  1.00  0.00     0.040 A 
ATOM     59  F   UNL     1       6.242  12.325   0.355  1.00  0.00    -0.206 F 
ATOM     60  C   UNL     1       5.928  10.432   3.429  1.00  0.00     0.006 A 
ENDBRANCH  36  53
ENDBRANCH  10  11
ENDBRANCH   3   5
ENDBRANCH   2   3
ENDBRANCH   1   2
BRANCH   1  61
ATOM     61  C   UNL     1       4.056  -1.765  -0.444  1.00  0.00     0.275 C 
BRANCH  61  62
ATOM     62  O   UNL     1       3.659  -0.812  -1.451  1.00  0.00    -0.458 OA
BRANCH  62  63
ATOM     63  C   UNL     1       2.367  -0.904  -1.894  1.00  0.00     0.343 C 
ATOM     64  O   UNL     1       1.517  -1.626  -1.394  1.00  0.00    -0.246 OA
BRANCH  63  65
ATOM     65  C   UNL     1       2.137  -0.150  -3.108  1.00  0.00     0.121 A 
ATOM     66  C   UNL     1       0.989   0.514  -3.624  1.00  0.00     0.082 A 
ATOM     67  C   UNL     1       3.016  -0.101  -4.169  1.00  0.00     0.147 A 
ATOM     68  N   UNL     1       1.185   1.003  -4.857  1.00  0.00    -0.170 NA
ATOM     69  N   UNL     1       2.387   0.508  -5.224  1.00  0.00    -0.221 N 
ATOM     70  Cl  UNL     1       4.617  -0.688  -4.332  1.00  0.00    -0.061 Cl
BRANCH  66  71
ATOM     71  C   UNL     1      -0.390   0.723  -3.007  1.00  0.00     0.041 C 
ATOM     72  C   UNL     1      -0.745   0.438  -1.576  1.00  0.00     0.011 C 
ATOM     73  C   UNL     1      -0.582   1.855  -2.034  1.00  0.00     0.011 C 
ENDBRANCH  66  71
BRANCH  69  74
ATOM     74  C   UNL     1       2.730   0.504  -6.595  1.00  0.00     0.069 A 
ATOM     75  C   UNL     1       2.648   1.692  -7.331  1.00  0.00     0.030 A 
ATOM     76  C   UNL     1       3.076  -0.701  -7.217  1.00  0.00     0.069 A 
ATOM     77  C   UNL     1       2.978   1.682  -8.690  1.00  0.00     0.026 A 
ATOM     78  C   UNL     1       3.356  -0.703  -8.579  1.00  0.00     0.143 A 
ATOM     79  C   UNL     1       3.326   0.481  -9.314  1.00  0.00     0.076 A 
ATOM     80  F   UNL     1       3.639  -1.873  -9.171  1.00  0.00    -0.205 F 
ATOM     81  Cl  UNL     1       3.705   0.477 -10.992  1.00  0.00    -0.081 Cl
ENDBRANCH  69  74
ENDBRANCH  63  65
ENDBRANCH  62  63
ENDBRANCH  61  62
ENDBRANCH   1  61
TORSDOF 13
