REMARK SMILES C[NH2+][C@@]1(C(=O)OCCOC(=O)c2ccc(-c3c4nc(c(-c5c(F)cccc5F)c5ccc([nH]5)c(-c5c(F)cccc5F)c5nc(c(-c6c(F)cccc6F)c6ccc3[nH]6)C=C5)C=C4)cc2)CC[C@H](SC(C)C)C1
REMARK SMILES IDX 7 1 6 2 4 3 5 4 3 5 66 6 73 7 67 8 68 9 2 10 1 11 69 14
REMARK SMILES IDX 70 15 71 16 72 17 8 18 9 19 10 20 11 21 12 22 13 23 65 24
REMARK SMILES IDX 14 25 64 26 15 27 16 28 17 29 58 30 18 31 63 32 57 33 59 34
REMARK SMILES IDX 19 35 62 36 56 37 55 38 20 40 46 41 29 42 45 43 30 44 33 45
REMARK SMILES IDX 44 46 60 47 31 48 32 49 43 51 61 52 34 53 21 54 22 55 27 56
REMARK SMILES IDX 23 57 24 58 26 59 28 60 25 61 47 62 48 63 53 64 49 65 50 66
REMARK SMILES IDX 52 67 54 68 51 69 35 70 36 71 41 72 37 73 38 74 40 75 42 76
REMARK SMILES IDX 39 77
REMARK H PARENT 2 12 2 13 59 39 33 50
REMARK Flexibility Score: inf
ROOT
ATOM      1  C   UNL     1      -2.777   1.060   4.098  1.00  0.00     0.274 C 
ENDROOT
BRANCH   1   2
ATOM      2  O   UNL     1      -2.419   0.618   2.775  1.00  0.00    -0.457 OA
BRANCH   2   3
ATOM      3  C   UNL     1      -1.631   1.434   2.030  1.00  0.00     0.368 C 
ATOM      4  O   UNL     1      -1.174   2.500   2.431  1.00  0.00    -0.245 OA
BRANCH   3   5
ATOM      5  C   UNL     1      -1.355   0.855   0.595  1.00  0.00     0.195 C 
ATOM      6  C   UNL     1      -1.908   1.883  -0.403  1.00  0.00     0.082 C 
ATOM      7  C   UNL     1      -2.185  -0.401   0.265  1.00  0.00     0.095 C 
ATOM      8  C   UNL     1      -3.414   1.631  -0.360  1.00  0.00     0.022 C 
ATOM      9  C   UNL     1      -3.551   0.108  -0.246  1.00  0.00     0.054 C 
BRANCH   5  10
ATOM     10  N   UNL     1       0.101   0.590   0.529  1.00  0.00    -0.335 N 
ATOM     11  C   UNL     1       0.690   0.400  -0.785  1.00  0.00     0.331 C 
ATOM     12  H   UNL     1       0.575   1.381   0.965  1.00  0.00     0.347 HD
ATOM     13  H   UNL     1       0.224  -0.306   1.000  1.00  0.00     0.347 HD
ENDBRANCH   5  10
BRANCH   9  14
ATOM     14  S   UNL     1      -4.891  -0.431   0.875  1.00  0.00    -0.155 SA
BRANCH  14  15
ATOM     15  C   UNL     1      -6.408  -0.211  -0.132  1.00  0.00     0.040 C 
ATOM     16  C   UNL     1      -6.760   1.257  -0.333  1.00  0.00     0.019 C 
ATOM     17  C   UNL     1      -6.361  -0.975  -1.450  1.00  0.00     0.019 C 
ENDBRANCH  14  15
ENDBRANCH   9  14
ENDBRANCH   3   5
ENDBRANCH   2   3
ENDBRANCH   1   2
BRANCH   1  18
ATOM     18  C   UNL     1      -2.233   0.076   5.126  1.00  0.00     0.275 C 
BRANCH  18  19
ATOM     19  O   UNL     1      -0.796   0.109   5.085  1.00  0.00    -0.458 OA
BRANCH  19  20
ATOM     20  C   UNL     1      -0.205  -0.978   4.545  1.00  0.00     0.338 C 
ATOM     21  O   UNL     1      -0.723  -2.025   4.197  1.00  0.00    -0.246 OA
BRANCH  20  22
ATOM     22  C   UNL     1       1.230  -0.715   4.380  1.00  0.00     0.060 A 
ATOM     23  C   UNL     1       1.648   0.259   3.475  1.00  0.00     0.016 A 
ATOM     24  C   UNL     1       2.160  -1.534   5.019  1.00  0.00     0.016 A 
ATOM     25  C   UNL     1       2.993   0.346   3.125  1.00  0.00     0.010 A 
ATOM     26  C   UNL     1       3.520  -1.371   4.744  1.00  0.00     0.010 A 
ATOM     27  C   UNL     1       3.949  -0.458   3.764  1.00  0.00    -0.014 A 
BRANCH  27  28
ATOM     28  C   UNL     1       5.387  -0.374   3.390  1.00  0.00     0.031 A 
ATOM     29  C   UNL     1       6.112  -1.595   2.888  1.00  0.00     0.074 A 
ATOM     30  C   UNL     1       6.055   0.792   3.494  1.00  0.00     0.049 A 
ATOM     31  N   UNL     1       7.396  -1.783   2.716  1.00  0.00    -0.248 NA
ATOM     32  C   UNL     1       5.285  -2.764   2.549  1.00  0.00     0.031 C 
ATOM     33  C   UNL     1       5.479   2.067   3.925  1.00  0.00     0.029 A 
ATOM     34  N   UNL     1       7.369   1.093   3.236  1.00  0.00    -0.354 N 
ATOM     35  C   UNL     1       7.536  -3.108   2.322  1.00  0.00     0.074 A 
ATOM     36  C   UNL     1       6.205  -3.674   2.260  1.00  0.00     0.031 C 
ATOM     37  C   UNL     1       6.420   3.021   3.855  1.00  0.00     0.029 A 
ATOM     38  C   UNL     1       7.684   2.411   3.458  1.00  0.00     0.049 A 
ATOM     39  H   UNL     1       8.023   0.428   2.923  1.00  0.00     0.167 HD
ATOM     40  C   UNL     1       8.672  -3.792   2.048  1.00  0.00     0.037 A 
ATOM     41  C   UNL     1       8.864   3.054   3.388  1.00  0.00     0.037 A 
ATOM     42  C   UNL     1       9.990  -3.212   2.040  1.00  0.00     0.049 A 
ATOM     43  C   UNL     1      10.107   2.283   3.058  1.00  0.00     0.074 A 
ATOM     44  C   UNL     1      11.203  -3.825   1.776  1.00  0.00     0.029 A 
ATOM     45  N   UNL     1      10.261  -1.874   2.278  1.00  0.00    -0.354 N 
ATOM     46  N   UNL     1      10.238   1.008   2.787  1.00  0.00    -0.248 NA
ATOM     47  C   UNL     1      11.370   3.034   3.057  1.00  0.00     0.031 C 
ATOM     48  C   UNL     1      12.211  -2.858   1.865  1.00  0.00     0.029 A 
ATOM     49  C   UNL     1      11.621  -1.640   2.162  1.00  0.00     0.049 A 
ATOM     50  H   UNL     1       9.587  -1.191   2.497  1.00  0.00     0.167 HD
ATOM     51  C   UNL     1      11.595   0.800   2.594  1.00  0.00     0.074 A 
ATOM     52  C   UNL     1      12.245   2.086   2.751  1.00  0.00     0.031 C 
ATOM     53  C   UNL     1      12.248  -0.356   2.327  1.00  0.00     0.037 A 
BRANCH  40  54
ATOM     54  C   UNL     1       8.545  -5.258   1.767  1.00  0.00     0.057 A 
ATOM     55  C   UNL     1       8.103  -5.743   0.531  1.00  0.00     0.134 A 
ATOM     56  C   UNL     1       8.905  -6.197   2.742  1.00  0.00     0.134 A 
ATOM     57  F   UNL     1       7.728  -4.894  -0.438  1.00  0.00    -0.206 F 
ATOM     58  C   UNL     1       8.011  -7.113   0.279  1.00  0.00     0.040 A 
ATOM     59  C   UNL     1       8.834  -7.568   2.496  1.00  0.00     0.040 A 
ATOM     60  F   UNL     1       9.338  -5.795   3.947  1.00  0.00    -0.206 F 
ATOM     61  C   UNL     1       8.383  -8.030   1.262  1.00  0.00     0.006 A 
ENDBRANCH  40  54
BRANCH  41  62
ATOM     62  C   UNL     1       8.924   4.507   3.676  1.00  0.00     0.057 A 
ATOM     63  C   UNL     1       9.107   5.436   2.647  1.00  0.00     0.134 A 
ATOM     64  C   UNL     1       8.773   5.000   4.977  1.00  0.00     0.134 A 
ATOM     65  F   UNL     1       9.280   5.019   1.384  1.00  0.00    -0.206 F 
ATOM     66  C   UNL     1       9.137   6.807   2.901  1.00  0.00     0.040 A 
ATOM     67  C   UNL     1       8.780   6.369   5.243  1.00  0.00     0.040 A 
ATOM     68  F   UNL     1       8.592   4.156   6.004  1.00  0.00    -0.206 F 
ATOM     69  C   UNL     1       8.965   7.277   4.202  1.00  0.00     0.006 A 
ENDBRANCH  41  62
BRANCH  53  70
ATOM     70  C   UNL     1      13.735  -0.276   2.188  1.00  0.00     0.057 A 
ATOM     71  C   UNL     1      14.568  -0.213   3.312  1.00  0.00     0.134 A 
ATOM     72  C   UNL     1      14.339  -0.282   0.926  1.00  0.00     0.134 A 
ATOM     73  F   UNL     1      14.043  -0.190   4.546  1.00  0.00    -0.206 F 
ATOM     74  C   UNL     1      15.955  -0.144   3.184  1.00  0.00     0.040 A 
ATOM     75  C   UNL     1      15.726  -0.227   0.786  1.00  0.00     0.040 A 
ATOM     76  F   UNL     1      13.593  -0.342  -0.186  1.00  0.00    -0.206 F 
ATOM     77  C   UNL     1      16.538  -0.155   1.918  1.00  0.00     0.006 A 
ENDBRANCH  53  70
ENDBRANCH  27  28
ENDBRANCH  20  22
ENDBRANCH  19  20
ENDBRANCH  18  19
ENDBRANCH   1  18
TORSDOF 14
