REMARK SMILES O=C(OCCOC(=O)[C@H]1[C@H]2CC[C@H](CC2)[C@@H]1C(=O)Nc1sc2c(c1C(=O)N1CCCCC1)CCCC2)c1ccc(-c2c3nc(c(-c4c(F)cccc4F)c4ccc([nH]4)c(-c4c(F)cccc4F)c4nc(c(-c5c(F)cccc5F)c5ccc2[nH]5)C=C4)C=C3)cc1
REMARK SMILES IDX 5 1 4 2 3 3 2 4 1 5 37 6 38 7 90 8 39 9 89 10 40 11 41 12
REMARK SMILES IDX 42 13 83 14 43 15 88 16 82 17 84 18 44 19 87 20 81 21 80 22
REMARK SMILES IDX 45 24 71 25 54 26 70 27 55 28 58 29 69 30 85 31 56 32 57 33
REMARK SMILES IDX 68 35 86 36 59 37 46 38 47 39 52 40 48 41 49 42 51 43 53 44
REMARK SMILES IDX 50 45 72 46 73 47 78 48 74 49 75 50 77 51 79 52 76 53 60 54
REMARK SMILES IDX 61 55 66 56 62 57 63 58 65 59 67 60 64 61 6 62 7 63 8 64
REMARK SMILES IDX 9 65 10 66 16 67 15 68 11 69 13 70 14 71 12 72 17 73 18 74
REMARK SMILES IDX 19 75 20 77 21 78 24 79 22 80 23 81 36 82 33 83 35 84 34 85
REMARK SMILES IDX 25 86 26 87 27 88 28 89 32 90 29 91 31 92 30 93
REMARK H PARENT 84 23 58 34 19 76
REMARK Flexibility Score: inf
ROOT
ATOM      1  C   UNL     1       3.088  -1.520  -0.185  1.00  0.00     0.274 C 
ENDROOT
BRANCH   1   2
ATOM      2  C   UNL     1       4.497  -1.500   0.425  1.00  0.00     0.275 C 
BRANCH   2   3
ATOM      3  O   UNL     1       4.844  -0.470   1.367  1.00  0.00    -0.458 OA
BRANCH   3   4
ATOM      4  C   UNL     1       4.090   0.643   1.378  1.00  0.00     0.338 C 
ATOM      5  O   UNL     1       3.062   0.762   2.028  1.00  0.00    -0.246 OA
BRANCH   4   6
ATOM      6  C   UNL     1       4.706   1.746   0.590  1.00  0.00     0.060 A 
ATOM      7  C   UNL     1       5.676   1.551  -0.405  1.00  0.00     0.016 A 
ATOM      8  C   UNL     1       4.197   3.025   0.796  1.00  0.00     0.016 A 
ATOM      9  C   UNL     1       6.086   2.615  -1.224  1.00  0.00     0.010 A 
ATOM     10  C   UNL     1       4.551   4.064  -0.065  1.00  0.00     0.010 A 
ATOM     11  C   UNL     1       5.510   3.879  -1.075  1.00  0.00    -0.014 A 
BRANCH  11  12
ATOM     12  C   UNL     1       5.980   5.078  -1.827  1.00  0.00     0.031 A 
ATOM     13  C   UNL     1       6.555   6.198  -1.032  1.00  0.00     0.074 A 
ATOM     14  C   UNL     1       5.749   5.273  -3.138  1.00  0.00     0.049 A 
ATOM     15  N   UNL     1       6.754   7.435  -1.389  1.00  0.00    -0.248 NA
ATOM     16  C   UNL     1       6.806   5.915   0.389  1.00  0.00     0.031 C 
ATOM     17  C   UNL     1       5.045   4.330  -3.973  1.00  0.00     0.029 A 
ATOM     18  N   UNL     1       6.020   6.311  -3.992  1.00  0.00    -0.354 N 
ATOM     19  C   UNL     1       7.044   8.096  -0.211  1.00  0.00     0.074 A 
ATOM     20  C   UNL     1       6.892   7.143   0.867  1.00  0.00     0.031 C 
ATOM     21  C   UNL     1       4.938   4.796  -5.226  1.00  0.00     0.029 A 
ATOM     22  C   UNL     1       5.583   6.096  -5.283  1.00  0.00     0.049 A 
ATOM     23  H   UNL     1       6.482   7.134  -3.710  1.00  0.00     0.167 HD
ATOM     24  C   UNL     1       7.452   9.373  -0.049  1.00  0.00     0.037 A 
ATOM     25  C   UNL     1       5.703   6.859  -6.386  1.00  0.00     0.037 A 
ATOM     26  C   UNL     1       7.702  10.262  -1.147  1.00  0.00     0.049 A 
ATOM     27  C   UNL     1       6.357   8.200  -6.231  1.00  0.00     0.074 A 
ATOM     28  C   UNL     1       8.256  11.525  -1.127  1.00  0.00     0.029 A 
ATOM     29  N   UNL     1       7.439   9.953  -2.477  1.00  0.00    -0.354 N 
ATOM     30  N   UNL     1       6.730   8.798  -5.124  1.00  0.00    -0.248 NA
ATOM     31  C   UNL     1       6.612   8.974  -7.451  1.00  0.00     0.031 C 
ATOM     32  C   UNL     1       8.348  11.975  -2.451  1.00  0.00     0.029 A 
ATOM     33  C   UNL     1       7.863  10.985  -3.293  1.00  0.00     0.049 A 
ATOM     34  H   UNL     1       7.013   9.123  -2.791  1.00  0.00     0.167 HD
ATOM     35  C   UNL     1       7.282  10.006  -5.511  1.00  0.00     0.074 A 
ATOM     36  C   UNL     1       7.204  10.055  -6.959  1.00  0.00     0.031 C 
ATOM     37  C   UNL     1       7.801  10.987  -4.735  1.00  0.00     0.037 A 
BRANCH  24  38
ATOM     38  C   UNL     1       7.683   9.800   1.367  1.00  0.00     0.057 A 
ATOM     39  C   UNL     1       8.688   9.213   2.152  1.00  0.00     0.134 A 
ATOM     40  C   UNL     1       6.799  10.681   1.998  1.00  0.00     0.134 A 
ATOM     41  F   UNL     1       9.543   8.330   1.611  1.00  0.00    -0.206 F 
ATOM     42  C   UNL     1       8.748   9.415   3.530  1.00  0.00     0.040 A 
ATOM     43  C   UNL     1       6.878  10.926   3.370  1.00  0.00     0.040 A 
ATOM     44  F   UNL     1       5.816  11.277   1.306  1.00  0.00    -0.206 F 
ATOM     45  C   UNL     1       7.837  10.271   4.143  1.00  0.00     0.006 A 
ENDBRANCH  24  38
BRANCH  25  46
ATOM     46  C   UNL     1       5.276   6.354  -7.719  1.00  0.00     0.057 A 
ATOM     47  C   UNL     1       6.225   5.961  -8.672  1.00  0.00     0.134 A 
ATOM     48  C   UNL     1       3.928   6.240  -8.078  1.00  0.00     0.134 A 
ATOM     49  F   UNL     1       7.535   6.062  -8.400  1.00  0.00    -0.206 F 
ATOM     50  C   UNL     1       5.854   5.493  -9.935  1.00  0.00     0.040 A 
ATOM     51  C   UNL     1       3.541   5.754  -9.331  1.00  0.00     0.040 A 
ATOM     52  F   UNL     1       2.966   6.594  -7.214  1.00  0.00    -0.206 F 
ATOM     53  C   UNL     1       4.506   5.385 -10.267  1.00  0.00     0.006 A 
ENDBRANCH  25  46
BRANCH  37  54
ATOM     54  C   UNL     1       8.392  12.163  -5.442  1.00  0.00     0.057 A 
ATOM     55  C   UNL     1       7.593  13.178  -5.978  1.00  0.00     0.134 A 
ATOM     56  C   UNL     1       9.781  12.308  -5.521  1.00  0.00     0.134 A 
ATOM     57  F   UNL     1       6.256  13.082  -5.946  1.00  0.00    -0.206 F 
ATOM     58  C   UNL     1       8.161  14.304  -6.574  1.00  0.00     0.040 A 
ATOM     59  C   UNL     1      10.360  13.437  -6.097  1.00  0.00     0.040 A 
ATOM     60  F   UNL     1      10.594  11.364  -5.023  1.00  0.00    -0.206 F 
ATOM     61  C   UNL     1       9.549  14.440  -6.625  1.00  0.00     0.006 A 
ENDBRANCH  37  54
ENDBRANCH  11  12
ENDBRANCH   4   6
ENDBRANCH   3   4
ENDBRANCH   2   3
ENDBRANCH   1   2
BRANCH   1  62
ATOM     62  O   UNL     1       2.805  -0.356  -0.991  1.00  0.00    -0.462 OA
BRANCH  62  63
ATOM     63  C   UNL     1       1.658  -0.478  -1.720  1.00  0.00     0.310 C 
ATOM     64  O   UNL     1       0.915  -1.453  -1.647  1.00  0.00    -0.252 OA
BRANCH  63  65
ATOM     65  C   UNL     1       1.339   0.703  -2.636  1.00  0.00     0.115 C 
ATOM     66  C   UNL     1       0.054   1.410  -2.105  1.00  0.00     0.004 C 
ATOM     67  C   UNL     1       2.475   1.726  -2.894  1.00  0.00     0.096 C 
ATOM     68  C   UNL     1       0.372   2.168  -0.810  1.00  0.00     0.005 C 
ATOM     69  C   UNL     1      -0.435   2.438  -3.147  1.00  0.00     0.005 C 
ATOM     70  C   UNL     1       1.894   3.168  -2.572  1.00  0.00     0.002 C 
ATOM     71  C   UNL     1       1.396   3.255  -1.111  1.00  0.00     0.005 C 
ATOM     72  C   UNL     1       0.640   3.498  -3.403  1.00  0.00     0.005 C 
BRANCH  67  73
ATOM     73  C   UNL     1       2.983   1.630  -4.376  1.00  0.00     0.229 C 
ATOM     74  O   UNL     1       2.232   1.919  -5.313  1.00  0.00    -0.274 OA
ATOM     75  N   UNL     1       4.306   1.401  -4.699  1.00  0.00    -0.317 N 
ATOM     76  H   UNL     1       4.650   1.980  -5.418  1.00  0.00     0.170 HD
BRANCH  75  77
ATOM     77  C   UNL     1       5.237   0.508  -4.197  1.00  0.00     0.108 A 
ATOM     78  S   UNL     1       4.629  -0.896  -3.474  1.00  0.00    -0.122 S 
ATOM     79  C   UNL     1       6.632   0.472  -4.373  1.00  0.00     0.078 A 
ATOM     80  C   UNL     1       6.168  -1.537  -3.239  1.00  0.00     0.011 A 
ATOM     81  C   UNL     1       7.170  -0.721  -3.725  1.00  0.00    -0.019 A 
ATOM     82  C   UNL     1       6.378  -2.878  -2.611  1.00  0.00     0.047 C 
ATOM     83  C   UNL     1       8.610  -1.127  -3.583  1.00  0.00     0.037 C 
ATOM     84  C   UNL     1       7.777  -2.943  -1.995  1.00  0.00     0.006 C 
ATOM     85  C   UNL     1       8.827  -2.540  -3.028  1.00  0.00     0.005 C 
BRANCH  79  86
ATOM     86  C   UNL     1       7.391   1.528  -5.099  1.00  0.00     0.257 C 
ATOM     87  O   UNL     1       6.818   2.381  -5.772  1.00  0.00    -0.269 OA
ATOM     88  N   UNL     1       8.790   1.517  -4.978  1.00  0.00    -0.339 N 
ATOM     89  C   UNL     1       9.428   2.728  -4.466  1.00  0.00     0.120 C 
ATOM     90  C   UNL     1       9.555   0.902  -6.062  1.00  0.00     0.120 C 
ATOM     91  C   UNL     1      10.823   2.414  -3.922  1.00  0.00     0.022 C 
ATOM     92  C   UNL     1      10.977   0.538  -5.616  1.00  0.00     0.022 C 
ATOM     93  C   UNL     1      11.699   1.716  -4.965  1.00  0.00     0.004 C 
ENDBRANCH  79  86
ENDBRANCH  75  77
ENDBRANCH  67  73
ENDBRANCH  63  65
ENDBRANCH  62  63
ENDBRANCH   1  62
TORSDOF 14
