REMARK SMILES C/C(=N\NC(N)=O)c1nnn(-c2ccc(C(=O)OCCOC(=O)c3ccc(-c4c5nc(c(-c6c(F)cccc6F)c6ccc([nH]6)c(-c6c(F)cccc6F)c6nc(c(-c7c(F)cccc7F)c7ccc4[nH]7)C=C6)C=C5)cc3)cc2)c1C
REMARK SMILES IDX 19 1 18 2 16 3 17 4 15 5 12 6 13 7 79 8 14 9 78 10 11 11
REMARK SMILES IDX 8 12 9 13 80 14 10 15 81 16 2 17 1 18 3 19 4 20 5 21 6 23
REMARK SMILES IDX 7 24 20 27 21 28 22 29 23 30 24 31 25 32 77 33 26 34 76 35
REMARK SMILES IDX 27 36 28 37 29 38 70 39 30 40 75 41 69 42 71 43 31 44 74 45
REMARK SMILES IDX 68 46 67 47 32 49 58 50 41 51 57 52 42 53 45 54 56 55 72 56
REMARK SMILES IDX 43 57 44 58 55 60 73 61 46 62 33 63 34 64 39 65 35 66 36 67
REMARK SMILES IDX 38 68 40 69 37 70 59 71 60 72 65 73 61 74 62 75 64 76 66 77
REMARK SMILES IDX 63 78 47 79 48 80 53 81 49 82 50 83 52 84 54 85 51 86
REMARK H PARENT 4 22 6 25 6 26 71 48 45 59
REMARK Flexibility Score: inf
ROOT
ATOM      1  C   UNL     1       9.657  -5.974  -2.925  1.00  0.00     0.275 C 
ENDROOT
BRANCH   1   2
ATOM      2  O   UNL     1       8.386  -5.570  -2.399  1.00  0.00    -0.458 OA
BRANCH   2   3
ATOM      3  C   UNL     1       7.410  -5.328  -3.310  1.00  0.00     0.338 C 
ATOM      4  O   UNL     1       7.549  -5.263  -4.524  1.00  0.00    -0.246 OA
BRANCH   3   5
ATOM      5  C   UNL     1       6.098  -5.205  -2.629  1.00  0.00     0.060 A 
ATOM      6  C   UNL     1       3.644  -4.644  -1.470  1.00  0.00     0.067 A 
ATOM      7  C   UNL     1       3.678  -5.040  -2.809  1.00  0.00     0.029 A 
ATOM      8  C   UNL     1       4.795  -4.674  -0.675  1.00  0.00     0.029 A 
ATOM      9  C   UNL     1       4.921  -5.299  -3.393  1.00  0.00     0.018 A 
ATOM     10  C   UNL     1       6.023  -4.960  -1.254  1.00  0.00     0.018 A 
BRANCH   6  11
ATOM     11  N   UNL     1       2.506  -3.987  -0.968  1.00  0.00    -0.217 N 
ATOM     12  C   UNL     1       1.146  -2.497  -0.157  1.00  0.00     0.132 A 
ATOM     13  N   UNL     1       0.421  -3.596  -0.541  1.00  0.00    -0.128 NA
ATOM     14  C   UNL     1       2.477  -2.699  -0.459  1.00  0.00     0.071 A 
ATOM     15  N   UNL     1       1.250  -4.455  -1.126  1.00  0.00    -0.061 NA
ATOM     16  C   UNL     1       3.641  -1.778  -0.435  1.00  0.00     0.069 C 
BRANCH  12  17
ATOM     17  C   UNL     1       0.542  -1.268   0.329  1.00  0.00     0.087 C 
ATOM     18  C   UNL     1       0.590  -0.083  -0.604  1.00  0.00     0.071 C 
ATOM     19  N   UNL     1       0.014  -1.334   1.515  1.00  0.00    -0.174 NA
BRANCH  19  20
ATOM     20  N   UNL     1      -0.506  -0.233   2.136  1.00  0.00    -0.229 N 
ATOM     21  C   UNL     1       0.099   1.002   2.243  1.00  0.00     0.332 C 
ATOM     22  H   UNL     1      -1.397  -0.330   2.546  1.00  0.00     0.195 HD
ATOM     23  N   UNL     1      -0.649   1.889   2.957  1.00  0.00    -0.350 N 
ATOM     24  O   UNL     1       1.174   1.345   1.770  1.00  0.00    -0.247 OA
ATOM     25  H   UNL     1      -1.513   1.611   3.337  1.00  0.00     0.161 HD
ATOM     26  H   UNL     1      -0.325   2.809   3.093  1.00  0.00     0.161 HD
ENDBRANCH  19  20
ENDBRANCH  12  17
ENDBRANCH   6  11
ENDBRANCH   3   5
ENDBRANCH   2   3
ENDBRANCH   1   2
BRANCH   1  27
ATOM     27  C   UNL     1       9.715  -7.484  -3.097  1.00  0.00     0.275 C 
BRANCH  27  28
ATOM     28  O   UNL     1       8.896  -7.925  -4.180  1.00  0.00    -0.458 OA
BRANCH  28  29
ATOM     29  C   UNL     1       7.659  -8.339  -3.825  1.00  0.00     0.338 C 
ATOM     30  O   UNL     1       7.060  -8.097  -2.790  1.00  0.00    -0.246 OA
BRANCH  29  31
ATOM     31  C   UNL     1       7.211  -9.364  -4.770  1.00  0.00     0.060 A 
ATOM     32  C   UNL     1       5.887  -9.799  -4.675  1.00  0.00     0.016 A 
ATOM     33  C   UNL     1       8.168 -10.061  -5.522  1.00  0.00     0.016 A 
ATOM     34  C   UNL     1       5.556 -11.019  -5.226  1.00  0.00     0.010 A 
ATOM     35  C   UNL     1       7.841 -11.284  -6.057  1.00  0.00     0.010 A 
ATOM     36  C   UNL     1       6.555 -11.777  -5.853  1.00  0.00    -0.014 A 
BRANCH  36  37
ATOM     37  C   UNL     1       6.175 -13.040  -6.453  1.00  0.00     0.031 A 
ATOM     38  C   UNL     1       5.298 -12.859  -7.634  1.00  0.00     0.074 A 
ATOM     39  C   UNL     1       6.684 -14.224  -6.065  1.00  0.00     0.049 A 
ATOM     40  N   UNL     1       4.075 -13.245  -7.773  1.00  0.00    -0.248 NA
ATOM     41  C   UNL     1       5.784 -11.996  -8.726  1.00  0.00     0.031 C 
ATOM     42  C   UNL     1       7.772 -14.472  -5.116  1.00  0.00     0.029 A 
ATOM     43  N   UNL     1       6.397 -15.471  -6.528  1.00  0.00    -0.354 N 
ATOM     44  C   UNL     1       3.705 -12.858  -9.057  1.00  0.00     0.074 A 
ATOM     45  C   UNL     1       4.712 -11.940  -9.515  1.00  0.00     0.031 C 
ATOM     46  C   UNL     1       8.201 -15.748  -5.255  1.00  0.00     0.029 A 
ATOM     47  C   UNL     1       7.343 -16.436  -6.206  1.00  0.00     0.049 A 
ATOM     48  H   UNL     1       5.586 -15.673  -7.049  1.00  0.00     0.167 HD
ATOM     49  C   UNL     1       2.753 -13.549  -9.738  1.00  0.00     0.037 A 
ATOM     50  C   UNL     1       7.444 -17.677  -6.748  1.00  0.00     0.037 A 
ATOM     51  C   UNL     1       1.922 -14.307  -8.835  1.00  0.00     0.049 A 
ATOM     52  C   UNL     1       6.147 -17.989  -7.399  1.00  0.00     0.074 A 
ATOM     53  C   UNL     1       1.120 -13.991  -7.755  1.00  0.00     0.029 A 
ATOM     54  N   UNL     1       2.136 -15.661  -8.757  1.00  0.00    -0.354 N 
ATOM     55  N   UNL     1       5.041 -18.220  -6.751  1.00  0.00    -0.248 NA
ATOM     56  C   UNL     1       5.983 -17.600  -8.792  1.00  0.00     0.031 C 
ATOM     57  C   UNL     1       1.298 -15.066  -6.835  1.00  0.00     0.029 A 
ATOM     58  C   UNL     1       2.140 -16.004  -7.431  1.00  0.00     0.049 A 
ATOM     59  H   UNL     1       2.264 -16.274  -9.516  1.00  0.00     0.167 HD
ATOM     60  C   UNL     1       4.062 -17.575  -7.490  1.00  0.00     0.074 A 
ATOM     61  C   UNL     1       4.684 -17.291  -8.782  1.00  0.00     0.031 C 
ATOM     62  C   UNL     1       2.945 -17.072  -6.888  1.00  0.00     0.037 A 
BRANCH  49  63
ATOM     63  C   UNL     1       2.865 -13.884 -11.207  1.00  0.00     0.057 A 
ATOM     64  C   UNL     1       1.804 -14.572 -11.823  1.00  0.00     0.134 A 
ATOM     65  C   UNL     1       4.066 -13.856 -11.948  1.00  0.00     0.134 A 
ATOM     66  F   UNL     1       0.609 -14.674 -11.223  1.00  0.00    -0.206 F 
ATOM     67  C   UNL     1       1.961 -15.271 -13.026  1.00  0.00     0.040 A 
ATOM     68  C   UNL     1       4.217 -14.506 -13.174  1.00  0.00     0.040 A 
ATOM     69  F   UNL     1       5.190 -13.293 -11.491  1.00  0.00    -0.206 F 
ATOM     70  C   UNL     1       3.175 -15.250 -13.699  1.00  0.00     0.006 A 
ENDBRANCH  49  63
BRANCH  50  71
ATOM     71  C   UNL     1       8.658 -18.486  -7.016  1.00  0.00     0.057 A 
ATOM     72  C   UNL     1       8.561 -19.848  -7.343  1.00  0.00     0.134 A 
ATOM     73  C   UNL     1       9.911 -17.889  -7.243  1.00  0.00     0.134 A 
ATOM     74  F   UNL     1       7.399 -20.501  -7.201  1.00  0.00    -0.206 F 
ATOM     75  C   UNL     1       9.634 -20.564  -7.891  1.00  0.00     0.040 A 
ATOM     76  C   UNL     1      10.992 -18.595  -7.782  1.00  0.00     0.040 A 
ATOM     77  F   UNL     1      10.103 -16.578  -7.038  1.00  0.00    -0.206 F 
ATOM     78  C   UNL     1      10.852 -19.933  -8.124  1.00  0.00     0.006 A 
ENDBRANCH  50  71
BRANCH  62  79
ATOM     79  C   UNL     1       2.658 -17.485  -5.472  1.00  0.00     0.057 A 
ATOM     80  C   UNL     1       3.499 -17.224  -4.379  1.00  0.00     0.134 A 
ATOM     81  C   UNL     1       1.410 -18.053  -5.188  1.00  0.00     0.134 A 
ATOM     82  F   UNL     1       4.670 -16.593  -4.536  1.00  0.00    -0.206 F 
ATOM     83  C   UNL     1       3.131 -17.560  -3.072  1.00  0.00     0.040 A 
ATOM     84  C   UNL     1       1.016 -18.357  -3.884  1.00  0.00     0.040 A 
ATOM     85  F   UNL     1       0.531 -18.282  -6.177  1.00  0.00    -0.206 F 
ATOM     86  C   UNL     1       1.883 -18.122  -2.821  1.00  0.00     0.006 A 
ENDBRANCH  62  79
ENDBRANCH  36  37
ENDBRANCH  29  31
ENDBRANCH  28  29
ENDBRANCH  27  28
ENDBRANCH   1  27
TORSDOF 14
