REMARK SMILES COc1cc(Br)ccc1[C@H]([NH3+])C(=O)OCCOC(=O)c1ccc(-c2c3nc(c(-c4c(F)cccc4F)c4ccc([nH]4)c(-c4c(F)cccc4F)c4nc(c(-c5c(F)cccc5F)c5ccc2[nH]5)C=C4)C=C3)cc1
REMARK SMILES IDX 15 1 14 2 12 3 13 4 10 5 9 6 3 7 4 8 5 9 8 10 6 11 7 12 2 13
REMARK SMILES IDX 1 14 11 15 16 19 17 20 18 21 19 22 20 23 21 24 73 25 22 26
REMARK SMILES IDX 72 27 23 28 24 29 25 30 66 31 26 32 71 33 65 34 67 35 27 36
REMARK SMILES IDX 70 37 64 38 63 39 28 41 54 42 37 43 53 44 38 45 41 46 52 47
REMARK SMILES IDX 68 48 39 49 40 50 51 52 69 53 42 54 29 55 30 56 35 57 31 58
REMARK SMILES IDX 32 59 34 60 36 61 33 62 55 63 56 64 61 65 57 66 58 67 60 68
REMARK SMILES IDX 62 69 59 70 43 71 44 72 49 73 45 74 46 75 48 76 50 77 47 78
REMARK H PARENT 11 16 11 17 11 18 67 40 41 51
REMARK Flexibility Score: inf
ROOT
ATOM      1  C   UNL     1      -1.844   6.242  -3.071  1.00  0.00     0.274 C 
ENDROOT
BRANCH   1   2
ATOM      2  O   UNL     1      -1.462   5.625  -1.833  1.00  0.00    -0.457 OA
BRANCH   2   3
ATOM      3  C   UNL     1      -2.202   4.554  -1.424  1.00  0.00     0.370 C 
ATOM      4  O   UNL     1      -3.166   4.101  -2.036  1.00  0.00    -0.245 OA
BRANCH   3   5
ATOM      5  C   UNL     1      -1.656   3.910  -0.132  1.00  0.00     0.326 C 
BRANCH   5   6
ATOM      6  C   UNL     1      -2.572   4.120   1.055  1.00  0.00     0.063 A 
ATOM      7  C   UNL     1      -3.007   5.395   1.448  1.00  0.00     0.129 A 
ATOM      8  C   UNL     1      -3.877   5.563   2.527  1.00  0.00     0.062 A 
ATOM      9  C   UNL     1      -4.301   4.448   3.243  1.00  0.00     0.021 A 
ATOM     10  C   UNL     1      -3.009   3.009   1.800  1.00  0.00     0.015 A 
ATOM     11  Br  UNL     1      -5.484   4.666   4.702  1.00  0.00    -0.051 Br
ATOM     12  C   UNL     1      -3.872   3.172   2.886  1.00  0.00     0.016 A 
BRANCH   7  13
ATOM     13  O   UNL     1      -2.662   6.493   0.706  1.00  0.00    -0.496 OA
ATOM     14  C   UNL     1      -1.643   7.249   1.361  1.00  0.00     0.278 C 
ENDBRANCH   7  13
ENDBRANCH   5   6
BRANCH   5  15
ATOM     15  N   UNL     1      -0.258   4.289   0.177  1.00  0.00    -0.342 N 
ATOM     16  H   UNL     1      -0.213   5.288   0.379  1.00  0.00     0.345 HD
ATOM     17  H   UNL     1       0.337   4.077  -0.625  1.00  0.00     0.345 HD
ATOM     18  H   UNL     1       0.066   3.763   0.989  1.00  0.00     0.345 HD
ENDBRANCH   5  15
ENDBRANCH   3   5
ENDBRANCH   2   3
ENDBRANCH   1   2
BRANCH   1  19
ATOM     19  C   UNL     1      -0.870   5.860  -4.188  1.00  0.00     0.275 C 
BRANCH  19  20
ATOM     20  O   UNL     1      -1.023   4.486  -4.589  1.00  0.00    -0.458 OA
BRANCH  20  21
ATOM     21  C   UNL     1      -0.339   3.583  -3.849  1.00  0.00     0.338 C 
ATOM     22  O   UNL     1       0.414   3.797  -2.913  1.00  0.00    -0.246 OA
BRANCH  21  23
ATOM     23  C   UNL     1      -0.737   2.224  -4.245  1.00  0.00     0.060 A 
ATOM     24  C   UNL     1      -1.169   1.352  -3.241  1.00  0.00     0.016 A 
ATOM     25  C   UNL     1      -0.617   1.787  -5.565  1.00  0.00     0.016 A 
ATOM     26  C   UNL     1      -1.465   0.028  -3.545  1.00  0.00     0.010 A 
ATOM     27  C   UNL     1      -0.915   0.458  -5.870  1.00  0.00     0.010 A 
ATOM     28  C   UNL     1      -1.322  -0.430  -4.859  1.00  0.00    -0.014 A 
BRANCH  28  29
ATOM     29  C   UNL     1      -1.521  -1.862  -5.168  1.00  0.00     0.031 A 
ATOM     30  C   UNL     1      -0.324  -2.731  -5.412  1.00  0.00     0.074 A 
ATOM     31  C   UNL     1      -2.763  -2.371  -5.235  1.00  0.00     0.049 A 
ATOM     32  N   UNL     1      -0.269  -3.962  -5.849  1.00  0.00    -0.248 NA
ATOM     33  C   UNL     1       0.989  -2.129  -5.130  1.00  0.00     0.031 C 
ATOM     34  C   UNL     1      -3.995  -1.634  -4.957  1.00  0.00     0.029 A 
ATOM     35  N   UNL     1      -3.191  -3.629  -5.575  1.00  0.00    -0.354 N 
ATOM     36  C   UNL     1       1.082  -4.274  -5.922  1.00  0.00     0.074 A 
ATOM     37  C   UNL     1       1.814  -3.102  -5.491  1.00  0.00     0.031 C 
ATOM     38  C   UNL     1      -5.044  -2.449  -5.155  1.00  0.00     0.029 A 
ATOM     39  C   UNL     1      -4.558  -3.745  -5.621  1.00  0.00     0.049 A 
ATOM     40  H   UNL     1      -2.578  -4.375  -5.767  1.00  0.00     0.167 HD
ATOM     41  C   UNL     1       1.655  -5.434  -6.318  1.00  0.00     0.037 A 
ATOM     42  C   UNL     1      -5.327  -4.769  -6.034  1.00  0.00     0.037 A 
ATOM     43  C   UNL     1       0.916  -6.596  -6.734  1.00  0.00     0.049 A 
ATOM     44  C   UNL     1      -4.667  -6.027  -6.527  1.00  0.00     0.074 A 
ATOM     45  C   UNL     1       1.398  -7.823  -7.155  1.00  0.00     0.029 A 
ATOM     46  N   UNL     1      -0.468  -6.673  -6.776  1.00  0.00    -0.354 N 
ATOM     47  N   UNL     1      -3.389  -6.308  -6.618  1.00  0.00    -0.248 NA
ATOM     48  C   UNL     1      -5.553  -7.106  -6.984  1.00  0.00     0.031 C 
ATOM     49  C   UNL     1       0.305  -8.631  -7.484  1.00  0.00     0.029 A 
ATOM     50  C   UNL     1      -0.858  -7.922  -7.229  1.00  0.00     0.049 A 
ATOM     51  H   UNL     1      -1.083  -5.947  -6.522  1.00  0.00     0.167 HD
ATOM     52  C   UNL     1      -3.318  -7.603  -7.115  1.00  0.00     0.074 A 
ATOM     53  C   UNL     1      -4.682  -8.053  -7.303  1.00  0.00     0.031 C 
ATOM     54  C   UNL     1      -2.223  -8.352  -7.391  1.00  0.00     0.037 A 
BRANCH  41  55
ATOM     55  C   UNL     1       3.153  -5.487  -6.354  1.00  0.00     0.057 A 
ATOM     56  C   UNL     1       3.921  -5.560  -5.186  1.00  0.00     0.134 A 
ATOM     57  C   UNL     1       3.834  -5.484  -7.578  1.00  0.00     0.134 A 
ATOM     58  F   UNL     1       3.330  -5.548  -3.982  1.00  0.00    -0.206 F 
ATOM     59  C   UNL     1       5.316  -5.611  -5.233  1.00  0.00     0.040 A 
ATOM     60  C   UNL     1       5.227  -5.556  -7.639  1.00  0.00     0.040 A 
ATOM     61  F   UNL     1       3.157  -5.415  -8.734  1.00  0.00    -0.206 F 
ATOM     62  C   UNL     1       5.972  -5.614  -6.463  1.00  0.00     0.006 A 
ENDBRANCH  41  55
BRANCH  42  63
ATOM     63  C   UNL     1      -6.804  -4.635  -6.027  1.00  0.00     0.057 A 
ATOM     64  C   UNL     1      -7.591  -5.352  -5.121  1.00  0.00     0.134 A 
ATOM     65  C   UNL     1      -7.462  -3.787  -6.926  1.00  0.00     0.134 A 
ATOM     66  F   UNL     1      -7.019  -6.197  -4.251  1.00  0.00    -0.206 F 
ATOM     67  C   UNL     1      -8.983  -5.240  -5.114  1.00  0.00     0.040 A 
ATOM     68  C   UNL     1      -8.850  -3.646  -6.915  1.00  0.00     0.040 A 
ATOM     69  F   UNL     1      -6.762  -3.071  -7.819  1.00  0.00    -0.206 F 
ATOM     70  C   UNL     1      -9.615  -4.379  -6.010  1.00  0.00     0.006 A 
ENDBRANCH  42  63
BRANCH  54  71
ATOM     71  C   UNL     1      -2.456  -9.751  -7.876  1.00  0.00     0.057 A 
ATOM     72  C   UNL     1      -2.869 -10.020  -9.185  1.00  0.00     0.134 A 
ATOM     73  C   UNL     1      -2.214 -10.843  -7.032  1.00  0.00     0.134 A 
ATOM     74  F   UNL     1      -3.129  -9.015 -10.036  1.00  0.00    -0.206 F 
ATOM     75  C   UNL     1      -3.049 -11.328  -9.636  1.00  0.00     0.040 A 
ATOM     76  C   UNL     1      -2.369 -12.155  -7.478  1.00  0.00     0.040 A 
ATOM     77  F   UNL     1      -1.809 -10.650  -5.768  1.00  0.00    -0.206 F 
ATOM     78  C   UNL     1      -2.791 -12.400  -8.783  1.00  0.00     0.006 A 
ENDBRANCH  54  71
ENDBRANCH  28  29
ENDBRANCH  21  23
ENDBRANCH  20  21
ENDBRANCH  19  20
ENDBRANCH   1  19
TORSDOF 14
