REMARK SMILES O=C(OCCOC(=O)c1cc(-c2cc3ccccc3s2)ccn1)c1ccc(-c2c3nc(c(-c4c(F)cccc4F)c4ccc([nH]4)c(-c4c(F)cccc4F)c4nc(c(-c5c(F)cccc5F)c5ccc2[nH]5)C=C4)C=C3)cc1
REMARK SMILES IDX 4 1 3 2 2 3 1 4 24 5 25 6 77 7 26 8 76 9 27 10 28 11 29 12
REMARK SMILES IDX 70 13 30 14 75 15 69 16 71 17 31 18 74 19 68 20 67 21 32 23
REMARK SMILES IDX 58 24 41 25 57 26 42 27 45 28 56 29 72 30 43 31 44 32 55 34
REMARK SMILES IDX 73 35 46 36 33 37 34 38 39 39 35 40 36 41 38 42 40 43 37 44
REMARK SMILES IDX 59 45 60 46 65 47 61 48 62 49 64 50 66 51 63 52 47 53 48 54
REMARK SMILES IDX 53 55 49 56 50 57 52 58 54 59 51 60 5 61 6 62 7 63 8 64 9 65
REMARK SMILES IDX 10 66 23 67 11 68 22 69 21 70 12 71 13 72 20 73 14 74 19 75
REMARK SMILES IDX 15 76 18 77 16 78 17 79
REMARK H PARENT 71 22 45 33
REMARK Flexibility Score: inf
ROOT
ATOM      1  C   UNL     1       4.044  -0.238  -1.623  1.00  0.00     0.275 C 
ENDROOT
BRANCH   1   2
ATOM      2  O   UNL     1       2.885  -0.640  -0.871  1.00  0.00    -0.458 OA
BRANCH   2   3
ATOM      3  C   UNL     1       2.817  -0.859   0.466  1.00  0.00     0.338 C 
ATOM      4  O   UNL     1       1.994  -1.650   0.923  1.00  0.00    -0.246 OA
BRANCH   3   5
ATOM      5  C   UNL     1       3.587  -0.022   1.429  1.00  0.00     0.060 A 
ATOM      6  C   UNL     1       4.951   0.254   1.332  1.00  0.00     0.016 A 
ATOM      7  C   UNL     1       2.885   0.461   2.548  1.00  0.00     0.016 A 
ATOM      8  C   UNL     1       5.583   1.059   2.279  1.00  0.00     0.010 A 
ATOM      9  C   UNL     1       3.513   1.270   3.501  1.00  0.00     0.010 A 
ATOM     10  C   UNL     1       4.872   1.570   3.369  1.00  0.00    -0.014 A 
BRANCH  10  11
ATOM     11  C   UNL     1       5.623   2.264   4.439  1.00  0.00     0.031 A 
ATOM     12  C   UNL     1       6.019   1.468   5.649  1.00  0.00     0.074 A 
ATOM     13  C   UNL     1       6.084   3.514   4.246  1.00  0.00     0.049 A 
ATOM     14  N   UNL     1       6.802   1.805   6.639  1.00  0.00    -0.248 NA
ATOM     15  C   UNL     1       5.513   0.086   5.723  1.00  0.00     0.031 C 
ATOM     16  C   UNL     1       5.907   4.289   3.019  1.00  0.00     0.029 A 
ATOM     17  N   UNL     1       6.836   4.335   5.048  1.00  0.00    -0.354 N 
ATOM     18  C   UNL     1       6.937   0.658   7.411  1.00  0.00     0.074 A 
ATOM     19  C   UNL     1       6.092  -0.357   6.827  1.00  0.00     0.031 C 
ATOM     20  C   UNL     1       6.568   5.453   3.134  1.00  0.00     0.029 A 
ATOM     21  C   UNL     1       7.156   5.544   4.465  1.00  0.00     0.049 A 
ATOM     22  H   UNL     1       7.122   4.084   5.956  1.00  0.00     0.167 HD
ATOM     23  C   UNL     1       7.737   0.459   8.484  1.00  0.00     0.037 A 
ATOM     24  C   UNL     1       7.836   6.594   4.975  1.00  0.00     0.037 A 
ATOM     25  C   UNL     1       8.548   1.488   9.070  1.00  0.00     0.049 A 
ATOM     26  C   UNL     1       8.346   6.442   6.392  1.00  0.00     0.074 A 
ATOM     27  C   UNL     1       9.381   1.419  10.171  1.00  0.00     0.029 A 
ATOM     28  N   UNL     1       8.603   2.794   8.603  1.00  0.00    -0.354 N 
ATOM     29  N   UNL     1       8.504   5.349   7.102  1.00  0.00    -0.248 NA
ATOM     30  C   UNL     1       8.751   7.670   7.091  1.00  0.00     0.031 C 
ATOM     31  C   UNL     1       9.896   2.700  10.402  1.00  0.00     0.029 A 
ATOM     32  C   UNL     1       9.415   3.555   9.422  1.00  0.00     0.049 A 
ATOM     33  H   UNL     1       8.132   3.128   7.805  1.00  0.00     0.167 HD
ATOM     34  C   UNL     1       9.162   5.740   8.262  1.00  0.00     0.074 A 
ATOM     35  C   UNL     1       9.305   7.180   8.192  1.00  0.00     0.031 C 
ATOM     36  C   UNL     1       9.639   4.971   9.272  1.00  0.00     0.037 A 
BRANCH  23  37
ATOM     37  C   UNL     1       7.743  -0.917   9.078  1.00  0.00     0.057 A 
ATOM     38  C   UNL     1       8.365  -1.993   8.429  1.00  0.00     0.134 A 
ATOM     39  C   UNL     1       7.094  -1.179  10.289  1.00  0.00     0.134 A 
ATOM     40  F   UNL     1       8.985  -1.811   7.253  1.00  0.00    -0.206 F 
ATOM     41  C   UNL     1       8.317  -3.287   8.951  1.00  0.00     0.040 A 
ATOM     42  C   UNL     1       7.056  -2.465  10.831  1.00  0.00     0.040 A 
ATOM     43  F   UNL     1       6.475  -0.194  10.957  1.00  0.00    -0.206 F 
ATOM     44  C   UNL     1       7.661  -3.525  10.157  1.00  0.00     0.006 A 
ENDBRANCH  23  37
BRANCH  24  45
ATOM     45  C   UNL     1       8.064   7.875   4.226  1.00  0.00     0.057 A 
ATOM     46  C   UNL     1       9.324   8.485   4.163  1.00  0.00     0.134 A 
ATOM     47  C   UNL     1       7.016   8.594   3.641  1.00  0.00     0.134 A 
ATOM     48  F   UNL     1      10.399   7.871   4.680  1.00  0.00    -0.206 F 
ATOM     49  C   UNL     1       9.509   9.765   3.622  1.00  0.00     0.040 A 
ATOM     50  C   UNL     1       7.181   9.861   3.075  1.00  0.00     0.040 A 
ATOM     51  F   UNL     1       5.792   8.070   3.595  1.00  0.00    -0.206 F 
ATOM     52  C   UNL     1       8.431  10.462   3.083  1.00  0.00     0.006 A 
ENDBRANCH  24  45
BRANCH  36  53
ATOM     53  C   UNL     1      10.538   5.637  10.271  1.00  0.00     0.057 A 
ATOM     54  C   UNL     1      10.062   6.495  11.266  1.00  0.00     0.134 A 
ATOM     55  C   UNL     1      11.914   5.370  10.245  1.00  0.00     0.134 A 
ATOM     56  F   UNL     1       8.758   6.804  11.331  1.00  0.00    -0.206 F 
ATOM     57  C   UNL     1      10.928   7.085  12.189  1.00  0.00     0.040 A 
ATOM     58  C   UNL     1      12.785   5.929  11.179  1.00  0.00     0.040 A 
ATOM     59  F   UNL     1      12.432   4.546   9.321  1.00  0.00    -0.206 F 
ATOM     60  C   UNL     1      12.292   6.796  12.151  1.00  0.00     0.006 A 
ENDBRANCH  36  53
ENDBRANCH  10  11
ENDBRANCH   3   5
ENDBRANCH   2   3
ENDBRANCH   1   2
BRANCH   1  61
ATOM     61  C   UNL     1       4.119   1.263  -1.918  1.00  0.00     0.275 C 
BRANCH  61  62
ATOM     62  O   UNL     1       3.671   2.069  -0.816  1.00  0.00    -0.457 OA
BRANCH  62  63
ATOM     63  C   UNL     1       2.401   2.545  -0.944  1.00  0.00     0.357 C 
ATOM     64  O   UNL     1       1.701   2.484  -1.942  1.00  0.00    -0.244 OA
BRANCH  63  65
ATOM     65  C   UNL     1       1.935   3.073   0.364  1.00  0.00     0.148 A 
ATOM     66  C   UNL     1       2.526   4.187   0.947  1.00  0.00     0.045 A 
ATOM     67  N   UNL     1       0.884   2.403   0.905  1.00  0.00    -0.249 NA
ATOM     68  C   UNL     1       2.004   4.638   2.165  1.00  0.00    -0.004 A 
ATOM     69  C   UNL     1       0.417   2.847   2.085  1.00  0.00     0.112 A 
ATOM     70  C   UNL     1       0.944   3.937   2.750  1.00  0.00     0.030 A 
BRANCH  68  71
ATOM     71  C   UNL     1       2.491   5.844   2.839  1.00  0.00     0.036 A 
ATOM     72  C   UNL     1       2.946   5.984   4.135  1.00  0.00     0.029 A 
ATOM     73  S   UNL     1       2.416   7.354   2.044  1.00  0.00    -0.135 S 
ATOM     74  C   UNL     1       3.207   7.347   4.503  1.00  0.00    -0.007 A 
ATOM     75  C   UNL     1       2.940   8.215   3.441  1.00  0.00     0.035 A 
ATOM     76  C   UNL     1       3.688   7.899   5.716  1.00  0.00     0.009 A 
ATOM     77  C   UNL     1       3.125   9.607   3.563  1.00  0.00     0.019 A 
ATOM     78  C   UNL     1       3.890   9.278   5.836  1.00  0.00     0.001 A 
ATOM     79  C   UNL     1       3.607  10.123   4.770  1.00  0.00     0.001 A 
ENDBRANCH  68  71
ENDBRANCH  63  65
ENDBRANCH  62  63
ENDBRANCH  61  62
ENDBRANCH   1  61
TORSDOF 12
