REMARK SMILES Cc1c(Br)c(C)c2c(c1Br)O[C@H](C(F)(F)F)C(C(=O)OCCOC(=O)c1ccc(-c3c4nc(c(-c5c(F)cccc5F)c5ccc([nH]5)c(-c5c(F)cccc5F)c5nc(c(-c6c(F)cccc6F)c6ccc3[nH]6)C=C5)C=C4)cc1)=C2
REMARK SMILES IDX 22 1 21 2 20 3 18 4 19 5 17 6 1 7 2 8 3 9 9 10 4 11 5 12
REMARK SMILES IDX 8 13 10 14 6 15 7 16 11 17 80 18 12 19 13 20 14 21 15 22
REMARK SMILES IDX 16 23 23 24 24 25 25 26 26 27 27 28 79 29 28 30 78 31 29 32
REMARK SMILES IDX 30 33 31 34 72 35 32 36 77 37 71 38 73 39 33 40 76 41 70 42
REMARK SMILES IDX 69 43 34 45 60 46 43 47 59 48 44 49 47 50 58 51 74 52 45 53
REMARK SMILES IDX 46 54 57 56 75 57 48 58 35 59 36 60 41 61 37 62 38 63 40 64
REMARK SMILES IDX 42 65 39 66 61 67 62 68 67 69 63 70 64 71 66 72 68 73 65 74
REMARK SMILES IDX 49 75 50 76 55 77 51 78 52 79 54 80 56 81 53 82
REMARK H PARENT 73 44 47 55
REMARK Flexibility Score: inf
ROOT
ATOM      1  C   UNL     1      -0.558 -10.197   1.917  1.00  0.00     0.275 C 
ENDROOT
BRANCH   1   2
ATOM      2  C   UNL     1      -0.057  -9.803   0.528  1.00  0.00     0.275 C 
BRANCH   2   3
ATOM      3  O   UNL     1       0.415  -8.438   0.509  1.00  0.00    -0.459 OA
BRANCH   3   4
ATOM      4  C   UNL     1      -0.420  -7.538  -0.057  1.00  0.00     0.338 C 
ATOM      5  O   UNL     1      -1.513  -7.765  -0.552  1.00  0.00    -0.246 OA
BRANCH   4   6
ATOM      6  C   UNL     1       0.158  -6.183   0.011  1.00  0.00     0.087 C 
ATOM      7  C   UNL     1       1.341   0.255  -0.099  1.00  0.00     0.047 C 
ATOM      8  C   UNL     1       0.844  -1.159   0.093  1.00  0.00    -0.019 A 
ATOM      9  C   UNL     1      -0.477  -1.395   0.550  1.00  0.00     0.025 A 
ATOM     10  C   UNL     1       1.646  -2.274  -0.231  1.00  0.00     0.064 A 
ATOM     11  Br  UNL     1      -1.616   0.113   0.906  1.00  0.00    -0.050 Br
ATOM     12  C   UNL     1      -0.979  -2.708   0.714  1.00  0.00    -0.026 A 
ATOM     13  C   UNL     1       1.159  -3.587  -0.089  1.00  0.00     0.142 A 
ATOM     14  Br  UNL     1       3.418  -2.052  -0.930  1.00  0.00    -0.046 Br
ATOM     15  C   UNL     1      -2.372  -2.976   1.245  1.00  0.00     0.046 C 
ATOM     16  C   UNL     1      -0.146  -3.805   0.369  1.00  0.00     0.022 A 
ATOM     17  O   UNL     1       2.023  -4.611  -0.388  1.00  0.00    -0.474 OA
ATOM     18  C   UNL     1      -0.624  -5.185   0.435  1.00  0.00     0.027 C 
ATOM     19  C   UNL     1       1.534  -5.966  -0.529  1.00  0.00     0.316 C 
BRANCH  19  20
ATOM     20  C   UNL     1       1.635  -6.393  -2.002  1.00  0.00     0.430 C 
ATOM     21  F   UNL     1       2.875  -6.173  -2.499  1.00  0.00    -0.167 F 
ATOM     22  F   UNL     1       1.388  -7.717  -2.153  1.00  0.00    -0.167 F 
ATOM     23  F   UNL     1       0.757  -5.727  -2.786  1.00  0.00    -0.167 F 
ENDBRANCH  19  20
ENDBRANCH   4   6
ENDBRANCH   3   4
ENDBRANCH   2   3
ENDBRANCH   1   2
BRANCH   1  24
ATOM     24  O   UNL     1      -1.739  -9.445   2.250  1.00  0.00    -0.458 OA
BRANCH  24  25
ATOM     25  C   UNL     1      -1.576  -8.492   3.195  1.00  0.00     0.338 C 
ATOM     26  O   UNL     1      -0.565  -8.232   3.824  1.00  0.00    -0.246 OA
BRANCH  25  27
ATOM     27  C   UNL     1      -2.812  -7.706   3.334  1.00  0.00     0.060 A 
ATOM     28  C   UNL     1      -3.237  -6.939   2.258  1.00  0.00     0.016 A 
ATOM     29  C   UNL     1      -3.439  -7.575   4.571  1.00  0.00     0.016 A 
ATOM     30  C   UNL     1      -4.176  -5.931   2.450  1.00  0.00     0.010 A 
ATOM     31  C   UNL     1      -4.487  -6.655   4.722  1.00  0.00     0.010 A 
ATOM     32  C   UNL     1      -4.833  -5.777   3.679  1.00  0.00    -0.014 A 
BRANCH  32  33
ATOM     33  C   UNL     1      -5.831  -4.678   3.869  1.00  0.00     0.031 A 
ATOM     34  C   UNL     1      -5.699  -3.712   5.023  1.00  0.00     0.074 A 
ATOM     35  C   UNL     1      -6.835  -4.498   2.983  1.00  0.00     0.049 A 
ATOM     36  N   UNL     1      -6.555  -2.821   5.458  1.00  0.00    -0.248 NA
ATOM     37  C   UNL     1      -4.447  -3.757   5.797  1.00  0.00     0.031 C 
ATOM     38  C   UNL     1      -7.065  -5.303   1.781  1.00  0.00     0.029 A 
ATOM     39  N   UNL     1      -7.840  -3.561   2.939  1.00  0.00    -0.354 N 
ATOM     40  C   UNL     1      -5.976  -2.250   6.587  1.00  0.00     0.074 A 
ATOM     41  C   UNL     1      -4.695  -2.896   6.774  1.00  0.00     0.031 C 
ATOM     42  C   UNL     1      -8.079  -4.778   1.080  1.00  0.00     0.029 A 
ATOM     43  C   UNL     1      -8.662  -3.682   1.843  1.00  0.00     0.049 A 
ATOM     44  H   UNL     1      -7.961  -2.867   3.628  1.00  0.00     0.167 HD
ATOM     45  C   UNL     1      -6.466  -1.276   7.391  1.00  0.00     0.037 A 
ATOM     46  C   UNL     1      -9.790  -3.029   1.504  1.00  0.00     0.037 A 
ATOM     47  C   UNL     1      -7.709  -0.583   7.161  1.00  0.00     0.049 A 
ATOM     48  C   UNL     1     -10.344  -1.994   2.440  1.00  0.00     0.074 A 
ATOM     49  C   UNL     1      -8.294   0.412   7.927  1.00  0.00     0.029 A 
ATOM     50  N   UNL     1      -8.541  -0.790   6.072  1.00  0.00    -0.354 N 
ATOM     51  N   UNL     1      -9.837  -1.541   3.560  1.00  0.00    -0.248 NA
ATOM     52  C   UNL     1     -11.644  -1.407   2.086  1.00  0.00     0.031 C 
ATOM     53  C   UNL     1      -9.496   0.783   7.319  1.00  0.00     0.029 A 
ATOM     54  C   UNL     1      -9.637   0.052   6.151  1.00  0.00     0.049 A 
ATOM     55  H   UNL     1      -8.377  -1.439   5.351  1.00  0.00     0.167 HD
ATOM     56  C   UNL     1     -10.750  -0.611   4.039  1.00  0.00     0.074 A 
ATOM     57  C   UNL     1     -11.830  -0.548   3.078  1.00  0.00     0.031 C 
ATOM     58  C   UNL     1     -10.700   0.115   5.182  1.00  0.00     0.037 A 
BRANCH  45  59
ATOM     59  C   UNL     1      -5.676  -0.898   8.611  1.00  0.00     0.057 A 
ATOM     60  C   UNL     1      -4.501  -0.142   8.533  1.00  0.00     0.134 A 
ATOM     61  C   UNL     1      -6.152  -1.221   9.890  1.00  0.00     0.134 A 
ATOM     62  F   UNL     1      -3.985   0.191   7.341  1.00  0.00    -0.206 F 
ATOM     63  C   UNL     1      -3.822   0.272   9.682  1.00  0.00     0.040 A 
ATOM     64  C   UNL     1      -5.497  -0.791  11.046  1.00  0.00     0.040 A 
ATOM     65  F   UNL     1      -7.279  -1.935  10.037  1.00  0.00    -0.206 F 
ATOM     66  C   UNL     1      -4.327  -0.042  10.943  1.00  0.00     0.006 A 
ENDBRANCH  45  59
BRANCH  46  67
ATOM     67  C   UNL     1     -10.500  -3.373   0.243  1.00  0.00     0.057 A 
ATOM     68  C   UNL     1     -10.585  -2.457  -0.810  1.00  0.00     0.134 A 
ATOM     69  C   UNL     1     -11.097  -4.627   0.055  1.00  0.00     0.134 A 
ATOM     70  F   UNL     1     -10.059  -1.230  -0.682  1.00  0.00    -0.206 F 
ATOM     71  C   UNL     1     -11.236  -2.773  -2.004  1.00  0.00     0.040 A 
ATOM     72  C   UNL     1     -11.722  -4.969  -1.145  1.00  0.00     0.040 A 
ATOM     73  F   UNL     1     -11.054  -5.551   1.026  1.00  0.00    -0.206 F 
ATOM     74  C   UNL     1     -11.797  -4.038  -2.178  1.00  0.00     0.006 A 
ENDBRANCH  46  67
BRANCH  58  75
ATOM     75  C   UNL     1     -11.829   1.064   5.446  1.00  0.00     0.057 A 
ATOM     76  C   UNL     1     -13.089   0.611   5.856  1.00  0.00     0.134 A 
ATOM     77  C   UNL     1     -11.635   2.447   5.352  1.00  0.00     0.134 A 
ATOM     78  F   UNL     1     -13.341  -0.703   5.954  1.00  0.00    -0.206 F 
ATOM     79  C   UNL     1     -14.121   1.502   6.153  1.00  0.00     0.040 A 
ATOM     80  C   UNL     1     -12.652   3.349   5.668  1.00  0.00     0.040 A 
ATOM     81  F   UNL     1     -10.448   2.945   4.972  1.00  0.00    -0.206 F 
ATOM     82  C   UNL     1     -13.900   2.876   6.068  1.00  0.00     0.006 A 
ENDBRANCH  58  75
ENDBRANCH  32  33
ENDBRANCH  25  27
ENDBRANCH  24  25
ENDBRANCH   1  24
TORSDOF 12
