REMARK SMILES CCN(CC(=O)OCCOC(=O)c1ccc(-c2c3nc(c(-c4c(F)cccc4F)c4ccc([nH]4)c(-c4c(F)cccc4F)c4nc(c(-c5c(F)cccc5F)c5ccc2[nH]5)C=C4)C=C3)cc1)C(=O)[C@@H]1CC[NH2+][C@@H]1C
REMARK SMILES IDX 8 1 7 2 5 3 6 4 4 5 3 6 2 7 1 8 67 9 68 10 69 11 70 12 73 13
REMARK SMILES IDX 71 14 72 15 74 16 9 19 10 20 11 21 12 22 13 23 14 24 66 25
REMARK SMILES IDX 15 26 65 27 16 28 17 29 18 30 59 31 19 32 64 33 58 34 60 35
REMARK SMILES IDX 20 36 63 37 57 38 56 39 21 41 47 42 30 43 46 44 31 45 34 46
REMARK SMILES IDX 45 47 61 48 32 49 33 50 44 52 62 53 35 54 22 55 23 56 28 57
REMARK SMILES IDX 24 58 25 59 27 60 29 61 26 62 48 63 49 64 54 65 50 66 51 67
REMARK SMILES IDX 53 68 55 69 52 70 36 71 37 72 42 73 38 74 39 75 41 76 43 77
REMARK SMILES IDX 40 78
REMARK H PARENT 72 17 72 18 60 40 34 51
REMARK Flexibility Score: inf
ROOT
ATOM      1  C   UNL     1       3.252  -0.509  -1.587  1.00  0.00     0.274 C 
ENDROOT
BRANCH   1   2
ATOM      2  O   UNL     1       3.979  -1.068  -0.473  1.00  0.00    -0.461 OA
BRANCH   2   3
ATOM      3  C   UNL     1       3.770  -0.457   0.724  1.00  0.00     0.325 C 
ATOM      4  O   UNL     1       3.071   0.539   0.890  1.00  0.00    -0.250 OA
BRANCH   3   5
ATOM      5  C   UNL     1       4.414  -1.186   1.903  1.00  0.00     0.242 C 
BRANCH   5   6
ATOM      6  N   UNL     1       5.357  -2.270   1.599  1.00  0.00    -0.331 N 
BRANCH   6   7
ATOM      7  C   UNL     1       6.760  -1.880   1.480  1.00  0.00     0.117 C 
ATOM      8  C   UNL     1       7.463  -2.020   2.824  1.00  0.00     0.027 C 
ENDBRANCH   6   7
BRANCH   6   9
ATOM      9  C   UNL     1       5.041  -3.622   1.458  1.00  0.00     0.232 C 
ATOM     10  O   UNL     1       5.903  -4.438   1.130  1.00  0.00    -0.274 OA
BRANCH   9  11
ATOM     11  C   UNL     1       3.628  -4.062   1.814  1.00  0.00     0.142 C 
ATOM     12  C   UNL     1       3.441  -4.192   3.326  1.00  0.00     0.081 C 
ATOM     13  C   UNL     1       3.149  -5.423   1.299  1.00  0.00     0.192 C 
ATOM     14  C   UNL     1       2.310  -5.196   3.491  1.00  0.00     0.261 C 
ATOM     15  N   UNL     1       1.946  -5.621   2.139  1.00  0.00    -0.343 N 
ATOM     16  C   UNL     1       4.086  -6.624   1.454  1.00  0.00     0.076 C 
ATOM     17  H   UNL     1       1.174  -5.055   1.787  1.00  0.00     0.346 HD
ATOM     18  H   UNL     1       1.643  -6.595   2.127  1.00  0.00     0.346 HD
ENDBRANCH   9  11
ENDBRANCH   6   9
ENDBRANCH   5   6
ENDBRANCH   3   5
ENDBRANCH   2   3
ENDBRANCH   1   2
BRANCH   1  19
ATOM     19  C   UNL     1       1.980  -1.312  -1.853  1.00  0.00     0.275 C 
BRANCH  19  20
ATOM     20  O   UNL     1       1.214  -1.415  -0.639  1.00  0.00    -0.458 OA
BRANCH  20  21
ATOM     21  C   UNL     1       0.628  -2.614  -0.420  1.00  0.00     0.338 C 
ATOM     22  O   UNL     1       0.612  -3.565  -1.192  1.00  0.00    -0.246 OA
BRANCH  21  23
ATOM     23  C   UNL     1      -0.022  -2.638   0.910  1.00  0.00     0.060 A 
ATOM     24  C   UNL     1       0.484  -1.912   1.993  1.00  0.00     0.016 A 
ATOM     25  C   UNL     1      -1.127  -3.472   1.095  1.00  0.00     0.016 A 
ATOM     26  C   UNL     1      -0.062  -2.079   3.267  1.00  0.00     0.010 A 
ATOM     27  C   UNL     1      -1.727  -3.571   2.353  1.00  0.00     0.010 A 
ATOM     28  C   UNL     1      -1.182  -2.903   3.461  1.00  0.00    -0.014 A 
BRANCH  28  29
ATOM     29  C   UNL     1      -1.795  -3.058   4.809  1.00  0.00     0.031 A 
ATOM     30  C   UNL     1      -1.853  -4.404   5.485  1.00  0.00     0.074 A 
ATOM     31  C   UNL     1      -2.325  -1.985   5.428  1.00  0.00     0.049 A 
ATOM     32  N   UNL     1      -2.397  -4.729   6.633  1.00  0.00    -0.248 NA
ATOM     33  C   UNL     1      -1.210  -5.530   4.792  1.00  0.00     0.031 C 
ATOM     34  C   UNL     1      -2.332  -0.619   4.901  1.00  0.00     0.029 A 
ATOM     35  N   UNL     1      -2.976  -1.879   6.633  1.00  0.00    -0.354 N 
ATOM     36  C   UNL     1      -2.150  -6.085   6.803  1.00  0.00     0.074 A 
ATOM     37  C   UNL     1      -1.429  -6.533   5.631  1.00  0.00     0.031 C 
ATOM     38  C   UNL     1      -2.951   0.187   5.776  1.00  0.00     0.029 A 
ATOM     39  C   UNL     1      -3.441  -0.613   6.893  1.00  0.00     0.049 A 
ATOM     40  H   UNL     1      -3.097  -2.636   7.250  1.00  0.00     0.167 HD
ATOM     41  C   UNL     1      -2.491  -6.889   7.838  1.00  0.00     0.037 A 
ATOM     42  C   UNL     1      -4.214  -0.150   7.893  1.00  0.00     0.037 A 
ATOM     43  C   UNL     1      -3.245  -6.468   8.989  1.00  0.00     0.049 A 
ATOM     44  C   UNL     1      -4.691  -1.088   8.961  1.00  0.00     0.074 A 
ATOM     45  C   UNL     1      -3.626  -7.215  10.092  1.00  0.00     0.029 A 
ATOM     46  N   UNL     1      -3.755  -5.194   9.175  1.00  0.00    -0.354 N 
ATOM     47  N   UNL     1      -4.427  -2.361   9.119  1.00  0.00    -0.248 NA
ATOM     48  C   UNL     1      -5.586  -0.526   9.983  1.00  0.00     0.031 C 
ATOM     49  C   UNL     1      -4.410  -6.404  10.921  1.00  0.00     0.029 A 
ATOM     50  C   UNL     1      -4.481  -5.143  10.355  1.00  0.00     0.049 A 
ATOM     51  H   UNL     1      -3.622  -4.436   8.560  1.00  0.00     0.167 HD
ATOM     52  C   UNL     1      -5.112  -2.751  10.261  1.00  0.00     0.074 A 
ATOM     53  C   UNL     1      -5.793  -1.577  10.765  1.00  0.00     0.031 C 
ATOM     54  C   UNL     1      -5.168  -3.975  10.840  1.00  0.00     0.037 A 
BRANCH  41  55
ATOM     55  C   UNL     1      -2.067  -8.324   7.766  1.00  0.00     0.057 A 
ATOM     56  C   UNL     1      -0.749  -8.712   8.038  1.00  0.00     0.134 A 
ATOM     57  C   UNL     1      -2.994  -9.332   7.477  1.00  0.00     0.134 A 
ATOM     58  F   UNL     1       0.189  -7.792   8.309  1.00  0.00    -0.206 F 
ATOM     59  C   UNL     1      -0.367 -10.055   8.019  1.00  0.00     0.040 A 
ATOM     60  C   UNL     1      -2.628 -10.678   7.469  1.00  0.00     0.040 A 
ATOM     61  F   UNL     1      -4.272  -9.023   7.209  1.00  0.00    -0.206 F 
ATOM     62  C   UNL     1      -1.311 -11.043   7.740  1.00  0.00     0.006 A 
ENDBRANCH  41  55
BRANCH  42  63
ATOM     63  C   UNL     1      -4.624   1.275   7.897  1.00  0.00     0.057 A 
ATOM     64  C   UNL     1      -4.096   2.179   8.824  1.00  0.00     0.134 A 
ATOM     65  C   UNL     1      -5.543   1.766   6.962  1.00  0.00     0.134 A 
ATOM     66  F   UNL     1      -3.230   1.759   9.758  1.00  0.00    -0.206 F 
ATOM     67  C   UNL     1      -4.469   3.523   8.822  1.00  0.00     0.040 A 
ATOM     68  C   UNL     1      -5.907   3.112   6.934  1.00  0.00     0.040 A 
ATOM     69  F   UNL     1      -6.083   0.946   6.048  1.00  0.00    -0.206 F 
ATOM     70  C   UNL     1      -5.371   3.995   7.869  1.00  0.00     0.006 A 
ENDBRANCH  42  63
BRANCH  54  71
ATOM     71  C   UNL     1      -5.985  -4.099  12.090  1.00  0.00     0.057 A 
ATOM     72  C   UNL     1      -7.385  -4.114  12.053  1.00  0.00     0.134 A 
ATOM     73  C   UNL     1      -5.367  -4.215  13.341  1.00  0.00     0.134 A 
ATOM     74  F   UNL     1      -8.036  -3.990  10.887  1.00  0.00    -0.206 F 
ATOM     75  C   UNL     1      -8.143  -4.218  13.221  1.00  0.00     0.040 A 
ATOM     76  C   UNL     1      -6.113  -4.341  14.513  1.00  0.00     0.040 A 
ATOM     77  F   UNL     1      -4.029  -4.212  13.442  1.00  0.00    -0.206 F 
ATOM     78  C   UNL     1      -7.506  -4.336  14.455  1.00  0.00     0.006 A 
ENDBRANCH  54  71
ENDBRANCH  28  29
ENDBRANCH  21  23
ENDBRANCH  20  21
ENDBRANCH  19  20
ENDBRANCH   1  19
TORSDOF 15
