REMARK SMILES CC(C)C[C@H](C(=O)OCCOC(=O)c1ccc(-c2c3nc(c(-c4c(F)cccc4F)c4ccc([nH]4)c(-c4c(F)cccc4F)c4nc(c(-c5c(F)cccc5F)c5ccc2[nH]5)C=C4)C=C3)cc1)N1C(=O)/C(=C2\C(=O)Nc3ccc(Br)cc32)SC1=S
REMARK SMILES IDX 9 1 8 2 6 3 7 4 5 5 4 6 2 7 1 8 3 9 68 10 69 11 84 12 70 13
REMARK SMILES IDX 71 14 83 15 85 16 72 17 73 18 82 19 74 20 75 21 76 22 81 23
REMARK SMILES IDX 77 25 79 26 78 27 80 28 10 29 11 30 12 31 13 32 14 33 15 34
REMARK SMILES IDX 67 35 16 36 66 37 17 38 18 39 19 40 60 41 20 42 65 43 59 44
REMARK SMILES IDX 61 45 21 46 64 47 58 48 57 49 22 51 48 52 31 53 47 54 32 55
REMARK SMILES IDX 35 56 46 57 62 58 33 59 34 60 45 62 63 63 36 64 23 65 24 66
REMARK SMILES IDX 29 67 25 68 26 69 28 70 30 71 27 72 49 73 50 74 55 75 51 76
REMARK SMILES IDX 52 77 54 78 56 79 53 80 37 81 38 82 43 83 39 84 40 85 42 86
REMARK SMILES IDX 44 87 41 88
REMARK H PARENT 75 24 61 50 35 61
REMARK Flexibility Score: inf
ROOT
ATOM      1  C   UNL     1      -0.952  -0.860  -2.223  1.00  0.00     0.274 C 
ENDROOT
BRANCH   1   2
ATOM      2  O   UNL     1      -1.734   0.105  -1.486  1.00  0.00    -0.461 OA
BRANCH   2   3
ATOM      3  C   UNL     1      -1.174   0.771  -0.442  1.00  0.00     0.329 C 
ATOM      4  O   UNL     1       0.032   0.788  -0.221  1.00  0.00    -0.250 OA
BRANCH   3   5
ATOM      5  C   UNL     1      -2.249   1.450   0.486  1.00  0.00     0.202 C 
BRANCH   5   6
ATOM      6  C   UNL     1      -1.678   2.812   0.985  1.00  0.00     0.040 C 
BRANCH   6   7
ATOM      7  C   UNL     1      -1.507   3.982  -0.016  1.00  0.00    -0.015 C 
ATOM      8  C   UNL     1      -2.618   5.032   0.047  1.00  0.00     0.007 C 
ATOM      9  C   UNL     1      -0.185   4.717   0.265  1.00  0.00     0.007 C 
ENDBRANCH   6   7
ENDBRANCH   5   6
BRANCH   5  10
ATOM     10  N   UNL     1      -3.604   1.410  -0.118  1.00  0.00    -0.278 N 
ATOM     11  C   UNL     1      -4.082   0.154  -0.458  1.00  0.00     0.267 C 
ATOM     12  C   UNL     1      -4.699   2.192   0.096  1.00  0.00     0.149 C 
ATOM     13  O   UNL     1      -3.748  -0.875   0.113  1.00  0.00    -0.268 OA
ATOM     14  C   UNL     1      -5.217   0.276  -1.416  1.00  0.00     0.093 C 
ATOM     15  S   UNL     1      -5.858   1.868  -1.205  1.00  0.00    -0.053 SA
ATOM     16  S   UNL     1      -5.111   3.100   1.432  1.00  0.00    -0.052 S 
ATOM     17  C   UNL     1      -5.694  -0.703  -2.196  1.00  0.00     0.069 C 
ATOM     18  C   UNL     1      -5.152  -2.113  -2.187  1.00  0.00     0.257 C 
ATOM     19  C   UNL     1      -6.887  -0.735  -3.060  1.00  0.00     0.013 A 
ATOM     20  O   UNL     1      -4.043  -2.511  -1.900  1.00  0.00    -0.269 OA
ATOM     21  N   UNL     1      -6.174  -2.887  -2.712  1.00  0.00    -0.321 N 
ATOM     22  C   UNL     1      -7.172  -2.093  -3.260  1.00  0.00     0.049 A 
ATOM     23  C   UNL     1      -7.633   0.224  -3.723  1.00  0.00     0.026 A 
ATOM     24  H   UNL     1      -6.190  -3.871  -2.698  1.00  0.00     0.170 HD
ATOM     25  C   UNL     1      -8.242  -2.540  -4.008  1.00  0.00     0.028 A 
ATOM     26  C   UNL     1      -8.695  -0.211  -4.527  1.00  0.00     0.018 A 
ATOM     27  C   UNL     1      -9.018  -1.574  -4.649  1.00  0.00     0.018 A 
ATOM     28  Br  UNL     1      -9.691   1.059  -5.518  1.00  0.00    -0.051 Br
ENDBRANCH   5  10
ENDBRANCH   3   5
ENDBRANCH   2   3
ENDBRANCH   1   2
BRANCH   1  29
ATOM     29  C   UNL     1      -1.340  -0.764  -3.696  1.00  0.00     0.275 C 
BRANCH  29  30
ATOM     30  O   UNL     1      -0.902   0.515  -4.189  1.00  0.00    -0.458 OA
BRANCH  30  31
ATOM     31  C   UNL     1      -1.830   1.498  -4.151  1.00  0.00     0.338 C 
ATOM     32  O   UNL     1      -3.029   1.398  -3.951  1.00  0.00    -0.246 OA
BRANCH  31  33
ATOM     33  C   UNL     1      -1.142   2.791  -4.267  1.00  0.00     0.060 A 
ATOM     34  C   UNL     1      -0.236   3.160  -3.277  1.00  0.00     0.016 A 
ATOM     35  C   UNL     1      -1.505   3.696  -5.262  1.00  0.00     0.016 A 
ATOM     36  C   UNL     1       0.219   4.477  -3.221  1.00  0.00     0.010 A 
ATOM     37  C   UNL     1      -0.958   4.985  -5.256  1.00  0.00     0.010 A 
ATOM     38  C   UNL     1      -0.127   5.416  -4.206  1.00  0.00    -0.014 A 
BRANCH  38  39
ATOM     39  C   UNL     1       0.326   6.841  -4.106  1.00  0.00     0.031 A 
ATOM     40  C   UNL     1      -0.671   7.973  -4.216  1.00  0.00     0.074 A 
ATOM     41  C   UNL     1       1.622   7.152  -3.889  1.00  0.00     0.049 A 
ATOM     42  N   UNL     1      -0.458   9.253  -4.404  1.00  0.00    -0.248 NA
ATOM     43  C   UNL     1      -2.096   7.618  -4.119  1.00  0.00     0.031 C 
ATOM     44  C   UNL     1       2.710   6.192  -3.691  1.00  0.00     0.029 A 
ATOM     45  N   UNL     1       2.245   8.374  -3.781  1.00  0.00    -0.354 N 
ATOM     46  C   UNL     1      -1.713   9.837  -4.534  1.00  0.00     0.074 A 
ATOM     47  C   UNL     1      -2.686   8.775  -4.387  1.00  0.00     0.031 C 
ATOM     48  C   UNL     1       3.842   6.855  -3.416  1.00  0.00     0.029 A 
ATOM     49  C   UNL     1       3.597   8.285  -3.548  1.00  0.00     0.049 A 
ATOM     50  H   UNL     1       1.768   9.232  -3.863  1.00  0.00     0.167 HD
ATOM     51  C   UNL     1      -2.025  11.136  -4.764  1.00  0.00     0.037 A 
ATOM     52  C   UNL     1       4.554   9.232  -3.506  1.00  0.00     0.037 A 
ATOM     53  C   UNL     1      -1.064  12.209  -4.817  1.00  0.00     0.049 A 
ATOM     54  C   UNL     1       4.192  10.661  -3.789  1.00  0.00     0.074 A 
ATOM     55  C   UNL     1      -1.289  13.559  -5.031  1.00  0.00     0.029 A 
ATOM     56  N   UNL     1       0.300  12.059  -4.626  1.00  0.00    -0.354 N 
ATOM     57  N   UNL     1       3.014  11.183  -4.025  1.00  0.00    -0.248 NA
ATOM     58  C   UNL     1       5.300  11.626  -3.840  1.00  0.00     0.031 C 
ATOM     59  C   UNL     1      -0.057  14.222  -5.001  1.00  0.00     0.029 A 
ATOM     60  C   UNL     1       0.930  13.290  -4.726  1.00  0.00     0.049 A 
ATOM     61  H   UNL     1       0.755  11.205  -4.445  1.00  0.00     0.167 HD
ATOM     62  C   UNL     1       3.238  12.535  -4.250  1.00  0.00     0.074 A 
ATOM     63  C   UNL     1       4.660  12.758  -4.094  1.00  0.00     0.031 C 
ATOM     64  C   UNL     1       2.345  13.502  -4.569  1.00  0.00     0.037 A 
BRANCH  51  65
ATOM     65  C   UNL     1      -3.466  11.479  -5.021  1.00  0.00     0.057 A 
ATOM     66  C   UNL     1      -4.427  11.505  -4.005  1.00  0.00     0.134 A 
ATOM     67  C   UNL     1      -3.878  11.850  -6.309  1.00  0.00     0.134 A 
ATOM     68  F   UNL     1      -4.103  11.150  -2.753  1.00  0.00    -0.206 F 
ATOM     69  C   UNL     1      -5.751  11.871  -4.263  1.00  0.00     0.040 A 
ATOM     70  C   UNL     1      -5.191  12.243  -6.574  1.00  0.00     0.040 A 
ATOM     71  F   UNL     1      -3.005  11.857  -7.328  1.00  0.00    -0.206 F 
ATOM     72  C   UNL     1      -6.133  12.250  -5.549  1.00  0.00     0.006 A 
ENDBRANCH  51  65
BRANCH  52  73
ATOM     73  C   UNL     1       5.968   8.847  -3.253  1.00  0.00     0.057 A 
ATOM     74  C   UNL     1       6.624   9.233  -2.080  1.00  0.00     0.134 A 
ATOM     75  C   UNL     1       6.694   8.082  -4.176  1.00  0.00     0.134 A 
ATOM     76  F   UNL     1       5.994   9.993  -1.172  1.00  0.00    -0.206 F 
ATOM     77  C   UNL     1       7.951   8.875  -1.834  1.00  0.00     0.040 A 
ATOM     78  C   UNL     1       8.008   7.689  -3.928  1.00  0.00     0.040 A 
ATOM     79  F   UNL     1       6.123   7.683  -5.322  1.00  0.00    -0.206 F 
ATOM     80  C   UNL     1       8.643   8.091  -2.755  1.00  0.00     0.006 A 
ENDBRANCH  52  73
BRANCH  64  81
ATOM     81  C   UNL     1       2.878  14.893  -4.742  1.00  0.00     0.057 A 
ATOM     82  C   UNL     1       3.618  15.262  -5.872  1.00  0.00     0.134 A 
ATOM     83  C   UNL     1       2.635  15.876  -3.775  1.00  0.00     0.134 A 
ATOM     84  F   UNL     1       3.898  14.362  -6.826  1.00  0.00    -0.206 F 
ATOM     85  C   UNL     1       4.118  16.557  -6.023  1.00  0.00     0.040 A 
ATOM     86  C   UNL     1       3.110  17.180  -3.927  1.00  0.00     0.040 A 
ATOM     87  F   UNL     1       1.927  15.588  -2.672  1.00  0.00    -0.206 F 
ATOM     88  C   UNL     1       3.859  17.521  -5.051  1.00  0.00     0.006 A 
ENDBRANCH  64  81
ENDBRANCH  38  39
ENDBRANCH  31  33
ENDBRANCH  30  31
ENDBRANCH  29  30
ENDBRANCH   1  29
TORSDOF 14
