REMARK SMILES CC(C)[C@H](NC(=O)[C@H](C)NC(=O)CNC(=O)OCc1ccccc1)C(=O)OCCOC(=O)c1ccc(-c2c3nc(c(-c4c(F)cccc4F)c4ccc([nH]4)c(-c4c(F)cccc4F)c4nc(c(-c5c(F)cccc5F)c5ccc2[nH]5)C=C4)C=C3)cc1
REMARK SMILES IDX 4 1 2 2 1 3 3 4 25 5 26 6 27 7 28 8 29 9 30 10 31 11 32 12
REMARK SMILES IDX 33 13 34 14 86 15 35 16 85 17 36 18 37 19 38 20 79 21 39 22
REMARK SMILES IDX 84 23 78 24 80 25 40 26 83 27 77 28 76 29 41 31 67 32 50 33
REMARK SMILES IDX 66 34 51 35 54 36 65 37 81 38 52 39 53 40 64 42 82 43 55 44
REMARK SMILES IDX 42 45 43 46 48 47 44 48 45 49 47 50 49 51 46 52 68 53 69 54
REMARK SMILES IDX 74 55 70 56 71 57 73 58 75 59 72 60 56 61 57 62 62 63 58 64
REMARK SMILES IDX 59 65 61 66 63 67 60 68 5 69 6 70 7 72 8 73 9 74 10 75 11 76
REMARK SMILES IDX 12 78 13 79 14 80 15 81 16 83 17 84 18 85 19 86 20 87 24 88
REMARK SMILES IDX 21 89 23 90 22 91
REMARK H PARENT 80 30 54 41 5 71 10 77 14 82
REMARK Flexibility Score: inf
ROOT
ATOM      1  C   UNL     1      -0.635  -2.622   3.829  1.00  0.00     0.194 C 
ENDROOT
BRANCH   1   2
ATOM      2  C   UNL     1      -0.049  -3.593   2.783  1.00  0.00     0.017 C 
ATOM      3  C   UNL     1       0.787  -4.770   3.305  1.00  0.00     0.010 C 
ATOM      4  C   UNL     1      -1.163  -4.134   1.876  1.00  0.00     0.010 C 
ENDBRANCH   1   2
BRANCH   1   5
ATOM      5  C   UNL     1      -0.627  -3.298   5.212  1.00  0.00     0.329 C 
ATOM      6  O   UNL     1      -1.151  -4.387   5.423  1.00  0.00    -0.250 OA
BRANCH   5   7
ATOM      7  O   UNL     1       0.049  -2.580   6.150  1.00  0.00    -0.461 OA
BRANCH   7   8
ATOM      8  C   UNL     1       0.097  -3.191   7.452  1.00  0.00     0.274 C 
BRANCH   8   9
ATOM      9  C   UNL     1      -1.094  -2.793   8.336  1.00  0.00     0.275 C 
BRANCH   9  10
ATOM     10  O   UNL     1      -2.358  -3.303   7.863  1.00  0.00    -0.458 OA
BRANCH  10  11
ATOM     11  C   UNL     1      -2.980  -2.535   6.936  1.00  0.00     0.338 C 
ATOM     12  O   UNL     1      -2.584  -1.472   6.483  1.00  0.00    -0.246 OA
BRANCH  11  13
ATOM     13  C   UNL     1      -4.144  -3.243   6.373  1.00  0.00     0.060 A 
ATOM     14  C   UNL     1      -4.170  -3.464   4.993  1.00  0.00     0.016 A 
ATOM     15  C   UNL     1      -5.238  -3.599   7.157  1.00  0.00     0.016 A 
ATOM     16  C   UNL     1      -5.279  -4.021   4.377  1.00  0.00     0.010 A 
ATOM     17  C   UNL     1      -6.360  -4.165   6.540  1.00  0.00     0.010 A 
ATOM     18  C   UNL     1      -6.389  -4.366   5.146  1.00  0.00    -0.014 A 
BRANCH  18  19
ATOM     19  C   UNL     1      -7.612  -4.855   4.473  1.00  0.00     0.031 A 
ATOM     20  C   UNL     1      -8.816  -3.965   4.412  1.00  0.00     0.074 A 
ATOM     21  C   UNL     1      -7.627  -6.071   3.899  1.00  0.00     0.049 A 
ATOM     22  N   UNL     1     -10.035  -4.247   4.036  1.00  0.00    -0.248 NA
ATOM     23  C   UNL     1      -8.620  -2.570   4.837  1.00  0.00     0.031 C 
ATOM     24  C   UNL     1      -6.485  -6.982   3.813  1.00  0.00     0.029 A 
ATOM     25  N   UNL     1      -8.647  -6.753   3.287  1.00  0.00    -0.354 N 
ATOM     26  C   UNL     1     -10.762  -3.078   4.218  1.00  0.00     0.074 A 
ATOM     27  C   UNL     1      -9.850  -2.085   4.741  1.00  0.00     0.031 C 
ATOM     28  C   UNL     1      -6.873  -8.111   3.197  1.00  0.00     0.029 A 
ATOM     29  C   UNL     1      -8.301  -8.027   2.909  1.00  0.00     0.049 A 
ATOM     30  H   UNL     1      -9.540  -6.367   3.134  1.00  0.00     0.167 HD
ATOM     31  C   UNL     1     -12.076  -2.862   3.971  1.00  0.00     0.037 A 
ATOM     32  C   UNL     1      -9.065  -9.028   2.434  1.00  0.00     0.037 A 
ATOM     33  C   UNL     1     -12.962  -3.858   3.428  1.00  0.00     0.049 A 
ATOM     34  C   UNL     1     -10.538  -8.791   2.249  1.00  0.00     0.074 A 
ATOM     35  C   UNL     1     -14.310  -3.748   3.139  1.00  0.00     0.029 A 
ATOM     36  N   UNL     1     -12.583  -5.149   3.089  1.00  0.00    -0.354 N 
ATOM     37  N   UNL     1     -11.233  -7.699   2.461  1.00  0.00    -0.248 NA
ATOM     38  C   UNL     1     -11.336  -9.928   1.772  1.00  0.00     0.031 C 
ATOM     39  C   UNL     1     -14.757  -4.987   2.669  1.00  0.00     0.029 A 
ATOM     40  C   UNL     1     -13.676  -5.853   2.614  1.00  0.00     0.049 A 
ATOM     41  H   UNL     1     -11.671  -5.510   3.173  1.00  0.00     0.167 HD
ATOM     42  C   UNL     1     -12.543  -8.008   2.118  1.00  0.00     0.074 A 
ATOM     43  C   UNL     1     -12.543  -9.387   1.674  1.00  0.00     0.031 C 
ATOM     44  C   UNL     1     -13.647  -7.223   2.166  1.00  0.00     0.037 A 
BRANCH  31  45
ATOM     45  C   UNL     1     -12.637  -1.519   4.334  1.00  0.00     0.057 A 
ATOM     46  C   UNL     1     -12.331  -0.360   3.609  1.00  0.00     0.134 A 
ATOM     47  C   UNL     1     -13.515  -1.390   5.418  1.00  0.00     0.134 A 
ATOM     48  F   UNL     1     -11.483  -0.411   2.571  1.00  0.00    -0.206 F 
ATOM     49  C   UNL     1     -12.860   0.882   3.964  1.00  0.00     0.040 A 
ATOM     50  C   UNL     1     -14.071  -0.158   5.766  1.00  0.00     0.040 A 
ATOM     51  F   UNL     1     -13.851  -2.460   6.154  1.00  0.00    -0.206 F 
ATOM     52  C   UNL     1     -13.738   0.985   5.042  1.00  0.00     0.006 A 
ENDBRANCH  31  45
BRANCH  32  53
ATOM     53  C   UNL     1      -8.461 -10.354   2.149  1.00  0.00     0.057 A 
ATOM     54  C   UNL     1      -8.367 -10.842   0.842  1.00  0.00     0.134 A 
ATOM     55  C   UNL     1      -7.973 -11.171   3.178  1.00  0.00     0.134 A 
ATOM     56  F   UNL     1      -8.837 -10.118  -0.184  1.00  0.00    -0.206 F 
ATOM     57  C   UNL     1      -7.824 -12.099   0.567  1.00  0.00     0.040 A 
ATOM     58  C   UNL     1      -7.402 -12.417   2.916  1.00  0.00     0.040 A 
ATOM     59  F   UNL     1      -8.032 -10.762   4.454  1.00  0.00    -0.206 F 
ATOM     60  C   UNL     1      -7.334 -12.888   1.607  1.00  0.00     0.006 A 
ENDBRANCH  32  53
BRANCH  44  61
ATOM     61  C   UNL     1     -14.934  -7.822   1.683  1.00  0.00     0.057 A 
ATOM     62  C   UNL     1     -15.631  -8.781   2.428  1.00  0.00     0.134 A 
ATOM     63  C   UNL     1     -15.506  -7.396   0.477  1.00  0.00     0.134 A 
ATOM     64  F   UNL     1     -15.129  -9.241   3.584  1.00  0.00    -0.206 F 
ATOM     65  C   UNL     1     -16.843  -9.310   1.981  1.00  0.00     0.040 A 
ATOM     66  C   UNL     1     -16.730  -7.897   0.034  1.00  0.00     0.040 A 
ATOM     67  F   UNL     1     -14.893  -6.473  -0.279  1.00  0.00    -0.206 F 
ATOM     68  C   UNL     1     -17.399  -8.861   0.785  1.00  0.00     0.006 A 
ENDBRANCH  44  61
ENDBRANCH  18  19
ENDBRANCH  11  13
ENDBRANCH  10  11
ENDBRANCH   9  10
ENDBRANCH   8   9
ENDBRANCH   7   8
ENDBRANCH   5   7
ENDBRANCH   1   5
BRANCH   1  69
ATOM     69  N   UNL     1      -0.116  -1.233   3.856  1.00  0.00    -0.341 N 
ATOM     70  C   UNL     1      -0.108  -0.320   2.824  1.00  0.00     0.242 C 
ATOM     71  H   UNL     1       0.267  -0.927   4.710  1.00  0.00     0.164 HD
ATOM     72  O   UNL     1      -0.779   0.706   2.934  1.00  0.00    -0.273 OA
BRANCH  70  73
ATOM     73  C   UNL     1       0.817  -0.572   1.613  1.00  0.00     0.168 C 
ATOM     74  C   UNL     1       1.391   0.744   1.093  1.00  0.00     0.041 C 
BRANCH  73  75
ATOM     75  N   UNL     1       0.205  -1.294   0.506  1.00  0.00    -0.343 N 
ATOM     76  C   UNL     1       0.710  -2.293  -0.279  1.00  0.00     0.240 C 
ATOM     77  H   UNL     1      -0.715  -1.020   0.289  1.00  0.00     0.164 HD
ATOM     78  O   UNL     1      -0.053  -2.757  -1.134  1.00  0.00    -0.273 OA
BRANCH  76  79
ATOM     79  C   UNL     1       2.069  -2.995  -0.007  1.00  0.00     0.219 C 
BRANCH  79  80
ATOM     80  N   UNL     1       3.213  -2.163   0.303  1.00  0.00    -0.312 N 
ATOM     81  C   UNL     1       3.822  -1.935   1.504  1.00  0.00     0.407 C 
ATOM     82  H   UNL     1       3.610  -1.692  -0.465  1.00  0.00     0.167 HD
ATOM     83  O   UNL     1       4.678  -1.075   1.596  1.00  0.00    -0.225 OA
BRANCH  81  84
ATOM     84  O   UNL     1       3.298  -2.645   2.541  1.00  0.00    -0.445 OA
BRANCH  84  85
ATOM     85  C   UNL     1       3.612  -2.129   3.850  1.00  0.00     0.270 C 
BRANCH  85  86
ATOM     86  C   UNL     1       4.872  -2.731   4.409  1.00  0.00    -0.011 A 
ATOM     87  C   UNL     1       4.840  -3.914   5.157  1.00  0.00     0.007 A 
ATOM     88  C   UNL     1       6.109  -2.120   4.159  1.00  0.00     0.007 A 
ATOM     89  C   UNL     1       6.027  -4.482   5.627  1.00  0.00     0.000 A 
ATOM     90  C   UNL     1       7.293  -2.694   4.617  1.00  0.00     0.000 A 
ATOM     91  C   UNL     1       7.252  -3.878   5.348  1.00  0.00     0.000 A 
ENDBRANCH  85  86
ENDBRANCH  84  85
ENDBRANCH  81  84
ENDBRANCH  79  80
ENDBRANCH  76  79
ENDBRANCH  73  75
ENDBRANCH  70  73
ENDBRANCH   1  69
TORSDOF 20
