REMARK SMILES COc1ccc2c(c1)c(CC(=O)OCCOC(=O)c1ccc(-c3c4nc(c(-c5c(F)cccc5F)c5ccc([nH]5)c(-c5c(F)cccc5F)c5nc(c(-c6c(F)cccc6F)c6ccc3[nH]6)C=C5)C=C4)cc1)c(C(F)(F)F)n2C(=O)c1ccc(Cl)cc1
REMARK SMILES IDX 14 1 13 2 11 3 12 4 10 5 9 6 3 7 4 8 8 9 5 10 7 11 6 12
REMARK SMILES IDX 78 13 73 14 2 15 1 16 79 17 80 18 81 19 82 20 87 21 83 22
REMARK SMILES IDX 86 23 84 24 85 25 74 26 75 27 76 28 77 29 15 30 16 31 17 32
REMARK SMILES IDX 18 33 19 34 20 35 72 36 21 37 71 38 22 39 23 40 24 41 65 42
REMARK SMILES IDX 25 43 70 44 64 45 66 46 26 47 69 48 63 49 62 50 27 52 53 53
REMARK SMILES IDX 36 54 52 55 37 56 40 57 51 58 67 59 38 60 39 61 50 63 68 64
REMARK SMILES IDX 41 65 28 66 29 67 34 68 30 69 31 70 33 71 35 72 32 73 54 74
REMARK SMILES IDX 55 75 60 76 56 77 57 78 59 79 61 80 58 81 42 82 43 83 48 84
REMARK SMILES IDX 44 85 45 86 47 87 49 88 46 89
REMARK H PARENT 66 51 40 62
REMARK Flexibility Score: inf
ROOT
ATOM      1  C   UNL     1      -1.731  -1.609  -7.137  1.00  0.00     0.274 C 
ENDROOT
BRANCH   1   2
ATOM      2  O   UNL     1      -1.113  -0.379  -6.688  1.00  0.00    -0.462 OA
BRANCH   2   3
ATOM      3  C   UNL     1      -1.937   0.692  -6.683  1.00  0.00     0.310 C 
ATOM      4  O   UNL     1      -3.123   0.637  -7.002  1.00  0.00    -0.252 OA
BRANCH   3   5
ATOM      5  C   UNL     1      -1.289   2.013  -6.378  1.00  0.00     0.161 C 
BRANCH   5   6
ATOM      6  C   UNL     1       0.107   2.154  -5.809  1.00  0.00     0.002 A 
ATOM      7  C   UNL     1       1.255   0.668  -2.373  1.00  0.00     0.119 A 
ATOM      8  C   UNL     1       2.520   1.186  -2.401  1.00  0.00     0.048 A 
ATOM      9  C   UNL     1       0.416   0.888  -3.471  1.00  0.00     0.057 A 
ATOM     10  C   UNL     1       2.911   1.979  -3.483  1.00  0.00     0.031 A 
ATOM     11  C   UNL     1       0.747   1.693  -4.596  1.00  0.00     0.008 A 
ATOM     12  C   UNL     1       2.042   2.234  -4.580  1.00  0.00     0.057 A 
ATOM     13  N   UNL     1       2.236   2.918  -5.792  1.00  0.00    -0.271 N 
ATOM     14  C   UNL     1       0.997   3.065  -6.391  1.00  0.00     0.135 A 
BRANCH   7  15
ATOM     15  O   UNL     1       0.734  -0.127  -1.391  1.00  0.00    -0.497 OA
ATOM     16  C   UNL     1       1.193   0.106  -0.065  1.00  0.00     0.278 C 
ENDBRANCH   7  15
BRANCH  13  17
ATOM     17  C   UNL     1       3.478   3.341  -6.328  1.00  0.00     0.262 C 
ATOM     18  O   UNL     1       3.505   3.819  -7.459  1.00  0.00    -0.268 OA
BRANCH  17  19
ATOM     19  C   UNL     1       4.766   3.161  -5.658  1.00  0.00     0.040 A 
ATOM     20  C   UNL     1       5.331   1.881  -5.619  1.00  0.00     0.015 A 
ATOM     21  C   UNL     1       5.334   4.235  -4.968  1.00  0.00     0.015 A 
ATOM     22  C   UNL     1       6.448   1.660  -4.817  1.00  0.00     0.021 A 
ATOM     23  C   UNL     1       6.460   4.006  -4.177  1.00  0.00     0.021 A 
ATOM     24  C   UNL     1       7.001   2.719  -4.093  1.00  0.00     0.041 A 
ATOM     25  Cl  UNL     1       8.338   2.426  -3.052  1.00  0.00    -0.084 Cl
ENDBRANCH  17  19
ENDBRANCH  13  17
BRANCH  14  26
ATOM     26  C   UNL     1       0.705   4.016  -7.518  1.00  0.00     0.432 C 
ATOM     27  F   UNL     1       0.641   3.364  -8.705  1.00  0.00    -0.165 F 
ATOM     28  F   UNL     1      -0.528   4.574  -7.333  1.00  0.00    -0.165 F 
ATOM     29  F   UNL     1       1.533   5.073  -7.643  1.00  0.00    -0.165 F 
ENDBRANCH  14  26
ENDBRANCH   5   6
ENDBRANCH   3   5
ENDBRANCH   2   3
ENDBRANCH   1   2
BRANCH   1  30
ATOM     30  C   UNL     1      -2.045  -2.528  -5.954  1.00  0.00     0.275 C 
BRANCH  30  31
ATOM     31  O   UNL     1      -3.193  -2.015  -5.253  1.00  0.00    -0.458 OA
BRANCH  31  32
ATOM     32  C   UNL     1      -2.963  -1.543  -4.004  1.00  0.00     0.338 C 
ATOM     33  O   UNL     1      -2.018  -1.797  -3.280  1.00  0.00    -0.246 OA
BRANCH  32  34
ATOM     34  C   UNL     1      -3.804  -0.341  -3.872  1.00  0.00     0.060 A 
ATOM     35  C   UNL     1      -5.179  -0.309  -4.046  1.00  0.00     0.016 A 
ATOM     36  C   UNL     1      -3.098   0.853  -3.814  1.00  0.00     0.016 A 
ATOM     37  C   UNL     1      -5.777   0.923  -4.324  1.00  0.00     0.010 A 
ATOM     38  C   UNL     1      -3.673   2.070  -4.039  1.00  0.00     0.010 A 
ATOM     39  C   UNL     1      -4.991   2.084  -4.418  1.00  0.00    -0.014 A 
BRANCH  39  40
ATOM     40  C   UNL     1      -5.526   3.382  -4.762  1.00  0.00     0.031 A 
ATOM     41  C   UNL     1      -6.100   4.069  -3.593  1.00  0.00     0.074 A 
ATOM     42  C   UNL     1      -5.356   4.048  -5.921  1.00  0.00     0.049 A 
ATOM     43  N   UNL     1      -7.347   4.089  -3.280  1.00  0.00    -0.248 NA
ATOM     44  C   UNL     1      -5.204   4.613  -2.562  1.00  0.00     0.031 C 
ATOM     45  C   UNL     1      -4.516   3.753  -7.079  1.00  0.00     0.029 A 
ATOM     46  N   UNL     1      -5.949   5.223  -6.273  1.00  0.00    -0.354 N 
ATOM     47  C   UNL     1      -7.430   4.822  -2.109  1.00  0.00     0.074 A 
ATOM     48  C   UNL     1      -6.084   4.939  -1.613  1.00  0.00     0.031 C 
ATOM     49  C   UNL     1      -4.528   4.805  -7.935  1.00  0.00     0.029 A 
ATOM     50  C   UNL     1      -5.507   5.772  -7.468  1.00  0.00     0.049 A 
ATOM     51  H   UNL     1      -6.642   5.651  -5.720  1.00  0.00     0.167 HD
ATOM     52  C   UNL     1      -8.586   5.457  -1.783  1.00  0.00     0.037 A 
ATOM     53  C   UNL     1      -5.939   6.931  -8.024  1.00  0.00     0.037 A 
ATOM     54  C   UNL     1      -9.673   5.009  -2.627  1.00  0.00     0.049 A 
ATOM     55  C   UNL     1      -7.264   7.237  -7.425  1.00  0.00     0.074 A 
ATOM     56  C   UNL     1     -10.276   3.788  -2.866  1.00  0.00     0.029 A 
ATOM     57  N   UNL     1     -10.022   5.810  -3.689  1.00  0.00    -0.354 N 
ATOM     58  N   UNL     1      -8.344   6.547  -7.665  1.00  0.00    -0.248 NA
ATOM     59  C   UNL     1      -7.291   8.030  -6.205  1.00  0.00     0.031 C 
ATOM     60  C   UNL     1     -10.549   3.776  -4.266  1.00  0.00     0.029 A 
ATOM     61  C   UNL     1     -10.147   5.004  -4.792  1.00  0.00     0.049 A 
ATOM     62  H   UNL     1     -10.157   6.785  -3.663  1.00  0.00     0.167 HD
ATOM     63  C   UNL     1      -8.998   6.474  -6.443  1.00  0.00     0.074 A 
ATOM     64  C   UNL     1      -8.352   7.482  -5.605  1.00  0.00     0.031 C 
ATOM     65  C   UNL     1      -9.804   5.415  -6.136  1.00  0.00     0.037 A 
BRANCH  52  66
ATOM     66  C   UNL     1      -8.671   6.731  -0.989  1.00  0.00     0.057 A 
ATOM     67  C   UNL     1      -7.611   7.640  -0.803  1.00  0.00     0.134 A 
ATOM     68  C   UNL     1      -9.945   7.217  -0.644  1.00  0.00     0.134 A 
ATOM     69  F   UNL     1      -6.345   7.356  -1.128  1.00  0.00    -0.206 F 
ATOM     70  C   UNL     1      -7.810   8.950  -0.362  1.00  0.00     0.040 A 
ATOM     71  C   UNL     1     -10.160   8.541  -0.253  1.00  0.00     0.040 A 
ATOM     72  F   UNL     1     -11.034   6.442  -0.761  1.00  0.00    -0.206 F 
ATOM     73  C   UNL     1      -9.091   9.418  -0.125  1.00  0.00     0.006 A 
ENDBRANCH  52  66
BRANCH  53  74
ATOM     74  C   UNL     1      -5.224   7.901  -8.881  1.00  0.00     0.057 A 
ATOM     75  C   UNL     1      -3.845   8.117  -8.729  1.00  0.00     0.134 A 
ATOM     76  C   UNL     1      -5.914   8.841  -9.661  1.00  0.00     0.134 A 
ATOM     77  F   UNL     1      -3.106   7.319  -7.945  1.00  0.00    -0.206 F 
ATOM     78  C   UNL     1      -3.192   9.216  -9.299  1.00  0.00     0.040 A 
ATOM     79  C   UNL     1      -5.273   9.948 -10.235  1.00  0.00     0.040 A 
ATOM     80  F   UNL     1      -7.240   8.743  -9.833  1.00  0.00    -0.206 F 
ATOM     81  C   UNL     1      -3.909  10.145 -10.043  1.00  0.00     0.006 A 
ENDBRANCH  53  74
BRANCH  65  82
ATOM     82  C   UNL     1     -10.158   4.460  -7.243  1.00  0.00     0.057 A 
ATOM     83  C   UNL     1     -11.507   4.242  -7.540  1.00  0.00     0.134 A 
ATOM     84  C   UNL     1      -9.225   3.646  -7.904  1.00  0.00     0.134 A 
ATOM     85  F   UNL     1     -12.460   4.945  -6.909  1.00  0.00    -0.206 F 
ATOM     86  C   UNL     1     -11.913   3.264  -8.452  1.00  0.00     0.040 A 
ATOM     87  C   UNL     1      -9.615   2.685  -8.841  1.00  0.00     0.040 A 
ATOM     88  F   UNL     1      -7.919   3.717  -7.618  1.00  0.00    -0.206 F 
ATOM     89  C   UNL     1     -10.965   2.486  -9.112  1.00  0.00     0.006 A 
ENDBRANCH  65  82
ENDBRANCH  39  40
ENDBRANCH  32  34
ENDBRANCH  31  32
ENDBRANCH  30  31
ENDBRANCH   1  30
TORSDOF 16
