REMARK SMILES O=C(OCCOC(=O)[C@@H]1CCCCC[C@H]1NC(=O)[C@@H]1CCC[NH2+]1)c1ccc(-c2c3nc(c(-c4c(F)cccc4F)c4ccc([nH]4)c(-c4c(F)cccc4F)c4nc(c(-c5c(F)cccc5F)c5ccc2[nH]5)C=C4)C=C3)cc1
REMARK SMILES IDX 5 1 4 2 3 3 2 4 1 5 24 6 25 7 77 8 26 9 76 10 27 11 28 12
REMARK SMILES IDX 29 13 70 14 30 15 75 16 69 17 71 18 31 19 74 20 68 21 67 22
REMARK SMILES IDX 32 24 58 25 41 26 57 27 42 28 45 29 56 30 72 31 43 32 44 33
REMARK SMILES IDX 55 35 73 36 46 37 33 38 34 39 39 40 35 41 36 42 38 43 40 44
REMARK SMILES IDX 37 45 59 46 60 47 65 48 61 49 62 50 64 51 66 52 63 53 47 54
REMARK SMILES IDX 48 55 53 56 49 57 50 58 52 59 54 60 51 61 6 62 7 63 8 64
REMARK SMILES IDX 9 65 10 66 11 67 12 68 15 70 14 71 13 72 16 74 17 75 18 77
REMARK SMILES IDX 19 78 20 79 23 80 21 81 22 82
REMARK H PARENT 71 23 45 34 16 76 23 83 23 84
REMARK Flexibility Score: 100.00
ROOT
ATOM      1  C   UNL     1       4.010  -1.778   0.894  1.00  0.00     0.274 C 
ENDROOT
BRANCH   1   2
ATOM      2  C   UNL     1       4.352  -0.422   1.514  1.00  0.00     0.275 C 
BRANCH   2   3
ATOM      3  O   UNL     1       3.378   0.609   1.264  1.00  0.00    -0.458 OA
BRANCH   3   4
ATOM      4  C   UNL     1       3.253   1.460   0.218  1.00  0.00     0.338 C 
ATOM      5  O   UNL     1       2.446   2.385   0.307  1.00  0.00    -0.246 OA
BRANCH   4   6
ATOM      6  C   UNL     1       3.929   1.266  -1.106  1.00  0.00     0.060 A 
ATOM      7  C   UNL     1       5.147   0.621  -1.325  1.00  0.00     0.016 A 
ATOM      8  C   UNL     1       3.244   1.768  -2.230  1.00  0.00     0.016 A 
ATOM      9  C   UNL     1       5.623   0.398  -2.620  1.00  0.00     0.010 A 
ATOM     10  C   UNL     1       3.700   1.529  -3.529  1.00  0.00     0.010 A 
ATOM     11  C   UNL     1       4.905   0.849  -3.728  1.00  0.00    -0.014 A 
BRANCH  11  12
ATOM     12  C   UNL     1       5.531   0.793  -5.067  1.00  0.00     0.031 A 
ATOM     13  C   UNL     1       6.112   2.056  -5.619  1.00  0.00     0.074 A 
ATOM     14  C   UNL     1       5.651  -0.362  -5.745  1.00  0.00     0.049 A 
ATOM     15  N   UNL     1       6.758   2.248  -6.737  1.00  0.00    -0.248 NA
ATOM     16  C   UNL     1       5.961   3.264  -4.789  1.00  0.00     0.031 C 
ATOM     17  C   UNL     1       5.187  -1.663  -5.275  1.00  0.00     0.029 A 
ATOM     18  N   UNL     1       6.200  -0.627  -6.975  1.00  0.00    -0.354 N 
ATOM     19  C   UNL     1       7.115   3.586  -6.729  1.00  0.00     0.074 A 
ATOM     20  C   UNL     1       6.545   4.180  -5.541  1.00  0.00     0.031 C 
ATOM     21  C   UNL     1       5.441  -2.582  -6.222  1.00  0.00     0.029 A 
ATOM     22  C   UNL     1       6.074  -1.938  -7.362  1.00  0.00     0.049 A 
ATOM     23  H   UNL     1       6.641   0.058  -7.527  1.00  0.00     0.167 HD
ATOM     24  C   UNL     1       7.887   4.253  -7.615  1.00  0.00     0.037 A 
ATOM     25  C   UNL     1       6.422  -2.559  -8.505  1.00  0.00     0.037 A 
ATOM     26  C   UNL     1       8.430   3.662  -8.805  1.00  0.00     0.049 A 
ATOM     27  C   UNL     1       7.159  -1.769  -9.544  1.00  0.00     0.074 A 
ATOM     28  C   UNL     1       9.213   4.249  -9.780  1.00  0.00     0.029 A 
ATOM     29  N   UNL     1       8.227   2.343  -9.189  1.00  0.00    -0.354 N 
ATOM     30  N   UNL     1       7.528  -0.512  -9.509  1.00  0.00    -0.248 NA
ATOM     31  C   UNL     1       7.560  -2.484 -10.762  1.00  0.00     0.031 C 
ATOM     32  C   UNL     1       9.438   3.300 -10.783  1.00  0.00     0.029 A 
ATOM     33  C   UNL     1       8.844   2.105 -10.405  1.00  0.00     0.049 A 
ATOM     34  H   UNL     1       7.719   1.676  -8.673  1.00  0.00     0.167 HD
ATOM     35  C   UNL     1       8.241  -0.292 -10.677  1.00  0.00     0.074 A 
ATOM     36  C   UNL     1       8.253  -1.550 -11.399  1.00  0.00     0.031 C 
ATOM     37  C   UNL     1       8.842   0.844 -11.105  1.00  0.00     0.037 A 
BRANCH  24  38
ATOM     38  C   UNL     1       8.140   5.699  -7.314  1.00  0.00     0.057 A 
ATOM     39  C   UNL     1       8.942   6.099  -6.235  1.00  0.00     0.134 A 
ATOM     40  C   UNL     1       7.514   6.700  -8.064  1.00  0.00     0.134 A 
ATOM     41  F   UNL     1       9.540   5.185  -5.456  1.00  0.00    -0.206 F 
ATOM     42  C   UNL     1       9.077   7.444  -5.888  1.00  0.00     0.040 A 
ATOM     43  C   UNL     1       7.666   8.049  -7.743  1.00  0.00     0.040 A 
ATOM     44  F   UNL     1       6.726   6.383  -9.101  1.00  0.00    -0.206 F 
ATOM     45  C   UNL     1       8.438   8.423  -6.645  1.00  0.00     0.006 A 
ENDBRANCH  24  38
BRANCH  25  46
ATOM     46  C   UNL     1       6.090  -3.993  -8.717  1.00  0.00     0.057 A 
ATOM     47  C   UNL     1       7.078  -4.984  -8.734  1.00  0.00     0.134 A 
ATOM     48  C   UNL     1       4.767  -4.403  -8.924  1.00  0.00     0.134 A 
ATOM     49  F   UNL     1       8.367  -4.655  -8.564  1.00  0.00    -0.206 F 
ATOM     50  C   UNL     1       6.767  -6.326  -8.966  1.00  0.00     0.040 A 
ATOM     51  C   UNL     1       4.438  -5.745  -9.128  1.00  0.00     0.040 A 
ATOM     52  F   UNL     1       3.775  -3.500  -8.938  1.00  0.00    -0.206 F 
ATOM     53  C   UNL     1       5.441  -6.711  -9.158  1.00  0.00     0.006 A 
ENDBRANCH  25  46
BRANCH  37  54
ATOM     54  C   UNL     1       9.597   0.765 -12.396  1.00  0.00     0.057 A 
ATOM     55  C   UNL     1       8.946   0.654 -13.630  1.00  0.00     0.134 A 
ATOM     56  C   UNL     1      10.996   0.840 -12.402  1.00  0.00     0.134 A 
ATOM     57  F   UNL     1       7.609   0.561 -13.689  1.00  0.00    -0.206 F 
ATOM     58  C   UNL     1       9.662   0.599 -14.826  1.00  0.00     0.040 A 
ATOM     59  C   UNL     1      11.720   0.817 -13.592  1.00  0.00     0.040 A 
ATOM     60  F   UNL     1      11.677   0.952 -11.252  1.00  0.00    -0.206 F 
ATOM     61  C   UNL     1      11.053   0.690 -14.809  1.00  0.00     0.006 A 
ENDBRANCH  37  54
ENDBRANCH  11  12
ENDBRANCH   4   6
ENDBRANCH   3   4
ENDBRANCH   2   3
ENDBRANCH   1   2
BRANCH   1  62
ATOM     62  O   UNL     1       3.543  -1.661  -0.458  1.00  0.00    -0.462 OA
BRANCH  62  63
ATOM     63  C   UNL     1       2.200  -1.768  -0.648  1.00  0.00     0.311 C 
ATOM     64  O   UNL     1       1.382  -2.023   0.230  1.00  0.00    -0.252 OA
BRANCH  63  65
ATOM     65  C   UNL     1       1.838  -1.549  -2.109  1.00  0.00     0.121 C 
BRANCH  65  66
ATOM     66  C   UNL     1       0.717  -0.508  -2.191  1.00  0.00     0.017 C 
BRANCH  66  67
ATOM     67  C   UNL     1       0.219  -0.270  -3.612  1.00  0.00     0.001 C 
BRANCH  67  68
ATOM     68  C   UNL     1      -0.993  -1.134  -3.938  1.00  0.00     0.000 CG0
ATOM     69  G   UNL     1      -0.757  -2.640  -3.989  1.00  0.00     0.000 G0
ENDBRANCH  67  68
ENDBRANCH  66  67
ENDBRANCH  65  66
BRANCH  65  70
ATOM     70  C   UNL     1       1.520  -2.915  -2.728  1.00  0.00     0.096 C 
BRANCH  70  71
ATOM     71  C   UNL     1       0.020  -3.264  -2.825  1.00  0.00     0.026 C 
BRANCH  71  72
ATOM     72  C   UNL     1      -0.757  -2.640  -3.989  1.00  0.00     0.002 CG0
ATOM     73  G   UNL     1      -0.993  -1.134  -3.938  1.00  0.00     0.000 G0
ENDBRANCH  71  72
ENDBRANCH  70  71
BRANCH  70  74
ATOM     74  N   UNL     1       2.148  -3.071  -4.043  1.00  0.00    -0.347 N 
ATOM     75  C   UNL     1       2.827  -4.122  -4.571  1.00  0.00     0.278 C 
ATOM     76  H   UNL     1       2.066  -2.291  -4.638  1.00  0.00     0.163 HD
ATOM     77  O   UNL     1       2.671  -4.322  -5.782  1.00  0.00    -0.268 OA
BRANCH  75  78
ATOM     78  C   UNL     1       3.884  -4.929  -3.812  1.00  0.00     0.272 C 
ATOM     79  C   UNL     1       3.764  -6.416  -4.095  1.00  0.00     0.081 C 
ATOM     80  N   UNL     1       3.898  -4.882  -2.334  1.00  0.00    -0.336 N 
ATOM     81  C   UNL     1       4.589  -7.059  -2.990  1.00  0.00     0.068 C 
ATOM     82  C   UNL     1       4.852  -5.945  -1.983  1.00  0.00     0.261 C 
ATOM     83  H   UNL     1       2.973  -5.078  -1.952  1.00  0.00     0.346 HD
ATOM     84  H   UNL     1       4.157  -3.968  -1.962  1.00  0.00     0.346 HD
ENDBRANCH  75  78
ENDBRANCH  70  74
ENDBRANCH  65  70
ENDBRANCH  63  65
ENDBRANCH  62  63
ENDBRANCH   1  62
TORSDOF 13
