REMARK SMILES CC1(C)[C@@]2(CC[C@@H]2C(=O)NCc2ccco2)[C@]1(C)C(=O)OCCOC(=O)c1ccc(-c2c3nc(c(-c4c(F)cccc4F)c4ccc([nH]4)c(-c4c(F)cccc4F)c4nc(c(-c5c(F)cccc5F)c5ccc2[nH]5)C=C4)C=C3)cc1
REMARK SMILES IDX 22 1 21 2 19 3 20 4 17 5 1 6 2 7 3 8 4 9 18 10 5 11 7 12
REMARK SMILES IDX 6 13 8 14 9 15 10 16 11 18 12 19 13 20 16 21 14 22 15 23
REMARK SMILES IDX 23 24 24 25 25 26 26 27 27 28 28 29 80 30 29 31 79 32 30 33
REMARK SMILES IDX 31 34 32 35 73 36 33 37 78 38 72 39 74 40 34 41 77 42 71 43
REMARK SMILES IDX 70 44 35 46 61 47 44 48 60 49 45 50 48 51 59 52 75 53 46 54
REMARK SMILES IDX 47 55 58 57 76 58 49 59 36 60 37 61 42 62 38 63 39 64 41 65
REMARK SMILES IDX 43 66 40 67 62 68 63 69 68 70 64 71 65 72 67 73 69 74 66 75
REMARK SMILES IDX 50 76 51 77 56 78 52 79 53 80 55 81 57 82 54 83
REMARK H PARENT 10 17 74 45 48 56
REMARK Flexibility Score: inf
ROOT
ATOM      1  C   UNL     1      -3.082  -1.267  -0.179  1.00  0.00     0.274 C 
ENDROOT
BRANCH   1   2
ATOM      2  O   UNL     1      -1.978  -0.341  -0.089  1.00  0.00    -0.462 OA
BRANCH   2   3
ATOM      3  C   UNL     1      -1.816   0.431  -1.198  1.00  0.00     0.313 C 
ATOM      4  O   UNL     1      -2.563   0.399  -2.164  1.00  0.00    -0.252 OA
BRANCH   3   5
ATOM      5  C   UNL     1      -0.640   1.396  -1.201  1.00  0.00     0.078 C 
ATOM      6  C   UNL     1       0.920  -0.343  -0.029  1.00  0.00     0.013 C 
ATOM      7  C   UNL     1       0.743   1.039  -0.636  1.00  0.00    -0.011 C 
ATOM      8  C   UNL     1       2.000   1.483  -1.351  1.00  0.00     0.013 C 
ATOM      9  C   UNL     1      -0.099   2.087   0.070  1.00  0.00     0.005 C 
ATOM     10  C   UNL     1      -0.621   2.212  -2.510  1.00  0.00     0.025 C 
ATOM     11  C   UNL     1      -0.106   3.582   0.076  1.00  0.00     0.010 C 
ATOM     12  C   UNL     1      -0.407   2.014   1.539  1.00  0.00     0.086 C 
ATOM     13  C   UNL     1      -0.706   3.512   1.479  1.00  0.00     0.015 C 
BRANCH  12  14
ATOM     14  C   UNL     1       0.677   1.549   2.558  1.00  0.00     0.224 C 
ATOM     15  O   UNL     1       0.478   0.581   3.313  1.00  0.00    -0.275 OA
ATOM     16  N   UNL     1       1.878   2.191   2.764  1.00  0.00    -0.349 N 
ATOM     17  H   UNL     1       2.329   1.910   3.593  1.00  0.00     0.163 HD
BRANCH  16  18
ATOM     18  C   UNL     1       2.619   3.190   2.023  1.00  0.00     0.191 C 
BRANCH  18  19
ATOM     19  C   UNL     1       2.512   4.536   2.644  1.00  0.00     0.122 A 
ATOM     20  C   UNL     1       2.066   5.765   2.193  1.00  0.00     0.047 A 
ATOM     21  O   UNL     1       3.006   4.670   3.912  1.00  0.00    -0.467 OA
ATOM     22  C   UNL     1       2.274   6.688   3.246  1.00  0.00     0.042 A 
ATOM     23  C   UNL     1       2.855   5.974   4.266  1.00  0.00     0.195 A 
ENDBRANCH  18  19
ENDBRANCH  16  18
ENDBRANCH  12  14
ENDBRANCH   3   5
ENDBRANCH   2   3
ENDBRANCH   1   2
BRANCH   1  24
ATOM     24  C   UNL     1      -4.299  -0.761   0.591  1.00  0.00     0.275 C 
BRANCH  24  25
ATOM     25  O   UNL     1      -4.536   0.623   0.282  1.00  0.00    -0.458 OA
BRANCH  25  26
ATOM     26  C   UNL     1      -4.626   1.443   1.353  1.00  0.00     0.338 C 
ATOM     27  O   UNL     1      -4.660   1.119   2.529  1.00  0.00    -0.246 OA
BRANCH  26  28
ATOM     28  C   UNL     1      -4.643   2.857   0.926  1.00  0.00     0.060 A 
ATOM     29  C   UNL     1      -3.835   3.304  -0.119  1.00  0.00     0.016 A 
ATOM     30  C   UNL     1      -5.356   3.780   1.693  1.00  0.00     0.016 A 
ATOM     31  C   UNL     1      -3.645   4.673  -0.312  1.00  0.00     0.010 A 
ATOM     32  C   UNL     1      -5.238   5.149   1.431  1.00  0.00     0.010 A 
ATOM     33  C   UNL     1      -4.337   5.617   0.461  1.00  0.00    -0.014 A 
BRANCH  33  34
ATOM     34  C   UNL     1      -4.086   7.079   0.303  1.00  0.00     0.031 A 
ATOM     35  C   UNL     1      -3.687   7.917   1.494  1.00  0.00     0.074 A 
ATOM     36  C   UNL     1      -4.201   7.672  -0.902  1.00  0.00     0.049 A 
ATOM     37  N   UNL     1      -3.660   9.221   1.619  1.00  0.00    -0.248 NA
ATOM     38  C   UNL     1      -3.271   7.193   2.705  1.00  0.00     0.031 C 
ATOM     39  C   UNL     1      -4.513   6.991  -2.159  1.00  0.00     0.029 A 
ATOM     40  N   UNL     1      -4.068   8.991  -1.265  1.00  0.00    -0.354 N 
ATOM     41  C   UNL     1      -3.294   9.471   2.938  1.00  0.00     0.074 A 
ATOM     42  C   UNL     1      -3.099   8.184   3.570  1.00  0.00     0.031 C 
ATOM     43  C   UNL     1      -4.513   7.885  -3.157  1.00  0.00     0.029 A 
ATOM     44  C   UNL     1      -4.314   9.217  -2.598  1.00  0.00     0.049 A 
ATOM     45  H   UNL     1      -3.821   9.703  -0.633  1.00  0.00     0.167 HD
ATOM     46  C   UNL     1      -3.143  10.664   3.563  1.00  0.00     0.037 A 
ATOM     47  C   UNL     1      -4.434  10.365  -3.290  1.00  0.00     0.037 A 
ATOM     48  C   UNL     1      -3.288  11.944   2.918  1.00  0.00     0.049 A 
ATOM     49  C   UNL     1      -4.309  11.675  -2.572  1.00  0.00     0.074 A 
ATOM     50  C   UNL     1      -3.162  13.210   3.467  1.00  0.00     0.029 A 
ATOM     51  N   UNL     1      -3.572  12.122   1.572  1.00  0.00    -0.354 N 
ATOM     52  N   UNL     1      -4.057  11.901  -1.306  1.00  0.00    -0.248 NA
ATOM     53  C   UNL     1      -4.511  12.890  -3.373  1.00  0.00     0.031 C 
ATOM     54  C   UNL     1      -3.399  14.152   2.460  1.00  0.00     0.029 A 
ATOM     55  C   UNL     1      -3.632  13.474   1.275  1.00  0.00     0.049 A 
ATOM     56  H   UNL     1      -3.712  11.395   0.924  1.00  0.00     0.167 HD
ATOM     57  C   UNL     1      -4.070  13.281  -1.157  1.00  0.00     0.074 A 
ATOM     58  C   UNL     1      -4.328  13.841  -2.468  1.00  0.00     0.031 C 
ATOM     59  C   UNL     1      -3.893  14.017  -0.033  1.00  0.00     0.037 A 
BRANCH  46  60
ATOM     60  C   UNL     1      -2.844  10.644   5.035  1.00  0.00     0.057 A 
ATOM     61  C   UNL     1      -1.589  10.281   5.539  1.00  0.00     0.134 A 
ATOM     62  C   UNL     1      -3.824  11.030   5.960  1.00  0.00     0.134 A 
ATOM     63  F   UNL     1      -0.610   9.890   4.709  1.00  0.00    -0.206 F 
ATOM     64  C   UNL     1      -1.327  10.281   6.912  1.00  0.00     0.040 A 
ATOM     65  C   UNL     1      -3.567  11.057   7.332  1.00  0.00     0.040 A 
ATOM     66  F   UNL     1      -5.045  11.398   5.545  1.00  0.00    -0.206 F 
ATOM     67  C   UNL     1      -2.316  10.675   7.811  1.00  0.00     0.006 A 
ENDBRANCH  46  60
BRANCH  47  68
ATOM     68  C   UNL     1      -4.761  10.314  -4.737  1.00  0.00     0.057 A 
ATOM     69  C   UNL     1      -3.822  10.683  -5.705  1.00  0.00     0.134 A 
ATOM     70  C   UNL     1      -6.011   9.867  -5.185  1.00  0.00     0.134 A 
ATOM     71  F   UNL     1      -2.616  11.141  -5.337  1.00  0.00    -0.206 F 
ATOM     72  C   UNL     1      -4.113  10.609  -7.069  1.00  0.00     0.040 A 
ATOM     73  C   UNL     1      -6.306   9.760  -6.544  1.00  0.00     0.040 A 
ATOM     74  F   UNL     1      -6.953   9.496  -4.305  1.00  0.00    -0.206 F 
ATOM     75  C   UNL     1      -5.355  10.136  -7.490  1.00  0.00     0.006 A 
ENDBRANCH  47  68
BRANCH  59  76
ATOM     76  C   UNL     1      -3.950  15.507  -0.182  1.00  0.00     0.057 A 
ATOM     77  C   UNL     1      -5.162  16.183  -0.370  1.00  0.00     0.134 A 
ATOM     78  C   UNL     1      -2.781  16.276  -0.118  1.00  0.00     0.134 A 
ATOM     79  F   UNL     1      -6.314  15.500  -0.457  1.00  0.00    -0.206 F 
ATOM     80  C   UNL     1      -5.208  17.570  -0.511  1.00  0.00     0.040 A 
ATOM     81  C   UNL     1      -2.817  17.666  -0.235  1.00  0.00     0.040 A 
ATOM     82  F   UNL     1      -1.589  15.689   0.066  1.00  0.00    -0.206 F 
ATOM     83  C   UNL     1      -4.033  18.316  -0.439  1.00  0.00     0.006 A 
ENDBRANCH  59  76
ENDBRANCH  33  34
ENDBRANCH  26  28
ENDBRANCH  25  26
ENDBRANCH  24  25
ENDBRANCH   1  24
TORSDOF 14
