REMARK SMILES C[C@@H](NC(=O)[C@H]1CC=CC[C@@H]1C(=O)OCCOC(=O)c1ccc(-c2c3nc(c(-c4c(F)cccc4F)c4ccc([nH]4)c(-c4c(F)cccc4F)c4nc(c(-c5c(F)cccc5F)c5ccc2[nH]5)C=C4)C=C3)cc1)c1ccc(-n2ccnc2)cc1
REMARK SMILES IDX 15 1 14 2 12 3 13 4 11 5 6 6 7 7 8 8 10 9 9 10 4 11 3 12
REMARK SMILES IDX 5 14 2 15 1 16 74 17 75 18 84 19 76 20 83 21 77 22 78 23
REMARK SMILES IDX 79 24 82 25 80 26 81 27 16 28 17 29 18 30 19 31 20 32 21 33
REMARK SMILES IDX 73 34 22 35 72 36 23 37 24 38 25 39 66 40 26 41 71 42 65 43
REMARK SMILES IDX 67 44 27 45 70 46 64 47 63 48 28 50 54 51 37 52 53 53 38 54
REMARK SMILES IDX 41 55 52 56 68 57 39 58 40 59 51 61 69 62 42 63 29 64 30 65
REMARK SMILES IDX 35 66 31 67 32 68 34 69 36 70 33 71 55 72 56 73 61 74 57 75
REMARK SMILES IDX 58 76 60 77 62 78 59 79 43 80 44 81 49 82 45 83 46 84 48 85
REMARK SMILES IDX 50 86 47 87
REMARK H PARENT 3 13 67 49 41 60
REMARK Flexibility Score: inf
ROOT
ATOM      1  C   UNL     1      -5.054  -4.817  -1.492  1.00  0.00     0.274 C 
ENDROOT
BRANCH   1   2
ATOM      2  O   UNL     1      -3.633  -4.824  -1.763  1.00  0.00    -0.462 OA
BRANCH   2   3
ATOM      3  C   UNL     1      -3.322  -4.802  -3.104  1.00  0.00     0.310 C 
ATOM      4  O   UNL     1      -4.161  -4.721  -3.992  1.00  0.00    -0.252 OA
BRANCH   3   5
ATOM      5  C   UNL     1      -1.806  -4.849  -3.333  1.00  0.00     0.115 C 
ATOM      6  C   UNL     1      -1.240  -3.430  -3.172  1.00  0.00     0.097 C 
ATOM      7  C   UNL     1      -1.407  -2.524  -4.394  1.00  0.00     0.041 C 
ATOM      8  C   UNL     1      -1.356  -3.219  -5.711  1.00  0.00    -0.030 C 
ATOM      9  C   UNL     1      -1.448  -5.495  -4.678  1.00  0.00     0.043 C 
ATOM     10  C   UNL     1      -1.364  -4.549  -5.839  1.00  0.00    -0.030 C 
BRANCH   6  11
ATOM     11  C   UNL     1       0.159  -3.370  -2.574  1.00  0.00     0.224 C 
ATOM     12  N   UNL     1       0.617  -2.262  -1.913  1.00  0.00    -0.349 N 
ATOM     13  H   UNL     1       1.392  -2.466  -1.341  1.00  0.00     0.164 HD
ATOM     14  O   UNL     1       0.902  -4.355  -2.592  1.00  0.00    -0.275 OA
BRANCH  12  15
ATOM     15  C   UNL     1       0.234  -0.828  -1.847  1.00  0.00     0.109 C 
ATOM     16  C   UNL     1       0.854  -0.211  -0.584  1.00  0.00     0.036 C 
BRANCH  15  17
ATOM     17  C   UNL     1      -1.250  -0.537  -1.880  1.00  0.00    -0.026 A 
ATOM     18  C   UNL     1      -1.802   0.426  -2.736  1.00  0.00     0.008 A 
ATOM     19  C   UNL     1      -2.125  -1.296  -1.116  1.00  0.00     0.008 A 
ATOM     20  C   UNL     1      -3.197   0.546  -2.894  1.00  0.00     0.027 A 
ATOM     21  C   UNL     1      -3.501  -1.233  -1.331  1.00  0.00     0.027 A 
ATOM     22  C   UNL     1      -4.062  -0.295  -2.186  1.00  0.00     0.046 A 
BRANCH  22  23
ATOM     23  N   UNL     1      -5.481  -0.164  -2.244  1.00  0.00    -0.306 N 
ATOM     24  C   UNL     1      -6.418  -0.889  -1.534  1.00  0.00     0.113 A 
ATOM     25  C   UNL     1      -6.213   0.763  -2.952  1.00  0.00     0.204 A 
ATOM     26  C   UNL     1      -7.637  -0.316  -1.796  1.00  0.00     0.131 A 
ATOM     27  N   UNL     1      -7.501   0.707  -2.685  1.00  0.00    -0.245 NA
ENDBRANCH  22  23
ENDBRANCH  15  17
ENDBRANCH  12  15
ENDBRANCH   6  11
ENDBRANCH   3   5
ENDBRANCH   2   3
ENDBRANCH   1   2
BRANCH   1  28
ATOM     28  C   UNL     1      -5.352  -4.853   0.018  1.00  0.00     0.275 C 
BRANCH  28  29
ATOM     29  O   UNL     1      -5.204  -3.533   0.594  1.00  0.00    -0.458 OA
BRANCH  29  30
ATOM     30  C   UNL     1      -4.387  -3.404   1.674  1.00  0.00     0.338 C 
ATOM     31  O   UNL     1      -3.825  -4.298   2.272  1.00  0.00    -0.246 OA
BRANCH  30  32
ATOM     32  C   UNL     1      -4.081  -1.956   1.866  1.00  0.00     0.060 A 
ATOM     33  C   UNL     1      -2.735  -1.616   2.000  1.00  0.00     0.016 A 
ATOM     34  C   UNL     1      -5.038  -0.938   1.741  1.00  0.00     0.016 A 
ATOM     35  C   UNL     1      -2.342  -0.278   1.877  1.00  0.00     0.010 A 
ATOM     36  C   UNL     1      -4.642   0.415   1.675  1.00  0.00     0.010 A 
ATOM     37  C   UNL     1      -3.284   0.760   1.710  1.00  0.00    -0.014 A 
BRANCH  37  38
ATOM     38  C   UNL     1      -2.776   2.169   1.763  1.00  0.00     0.031 A 
ATOM     39  C   UNL     1      -2.054   2.576   3.015  1.00  0.00     0.074 A 
ATOM     40  C   UNL     1      -2.814   3.045   0.735  1.00  0.00     0.049 A 
ATOM     41  N   UNL     1      -1.268   3.597   3.233  1.00  0.00    -0.248 NA
ATOM     42  C   UNL     1      -2.214   1.672   4.166  1.00  0.00     0.031 C 
ATOM     43  C   UNL     1      -3.480   2.825  -0.537  1.00  0.00     0.029 A 
ATOM     44  N   UNL     1      -2.236   4.289   0.583  1.00  0.00    -0.354 N 
ATOM     45  C   UNL     1      -0.798   3.423   4.525  1.00  0.00     0.074 A 
ATOM     46  C   UNL     1      -1.355   2.185   5.027  1.00  0.00     0.031 C 
ATOM     47  C   UNL     1      -3.198   3.837  -1.378  1.00  0.00     0.029 A 
ATOM     48  C   UNL     1      -2.380   4.826  -0.681  1.00  0.00     0.049 A 
ATOM     49  H   UNL     1      -1.763   4.753   1.311  1.00  0.00     0.167 HD
ATOM     50  C   UNL     1      -0.023   4.244   5.267  1.00  0.00     0.037 A 
ATOM     51  C   UNL     1      -1.918   5.982  -1.207  1.00  0.00     0.037 A 
ATOM     52  C   UNL     1       0.358   5.567   4.876  1.00  0.00     0.049 A 
ATOM     53  C   UNL     1      -1.175   6.944  -0.309  1.00  0.00     0.074 A 
ATOM     54  C   UNL     1       0.968   6.547   5.637  1.00  0.00     0.029 A 
ATOM     55  N   UNL     1       0.103   6.121   3.632  1.00  0.00    -0.354 N 
ATOM     56  N   UNL     1      -0.726   6.763   0.909  1.00  0.00    -0.248 NA
ATOM     57  C   UNL     1      -0.922   8.294  -0.843  1.00  0.00     0.031 C 
ATOM     58  C   UNL     1       1.024   7.717   4.872  1.00  0.00     0.029 A 
ATOM     59  C   UNL     1       0.507   7.444   3.615  1.00  0.00     0.049 A 
ATOM     60  H   UNL     1      -0.305   5.644   2.873  1.00  0.00     0.167 HD
ATOM     61  C   UNL     1      -0.157   7.973   1.290  1.00  0.00     0.074 A 
ATOM     62  C   UNL     1      -0.269   8.867   0.157  1.00  0.00     0.031 C 
ATOM     63  C   UNL     1       0.386   8.322   2.481  1.00  0.00     0.037 A 
BRANCH  50  64
ATOM     64  C   UNL     1       0.299   3.750   6.639  1.00  0.00     0.057 A 
ATOM     65  C   UNL     1       1.274   2.768   6.853  1.00  0.00     0.134 A 
ATOM     66  C   UNL     1      -0.469   4.165   7.733  1.00  0.00     0.134 A 
ATOM     67  F   UNL     1       2.004   2.299   5.829  1.00  0.00    -0.206 F 
ATOM     68  C   UNL     1       1.456   2.195   8.111  1.00  0.00     0.040 A 
ATOM     69  C   UNL     1      -0.286   3.608   8.997  1.00  0.00     0.040 A 
ATOM     70  F   UNL     1      -1.440   5.077   7.576  1.00  0.00    -0.206 F 
ATOM     71  C   UNL     1       0.672   2.613   9.186  1.00  0.00     0.006 A 
ENDBRANCH  50  64
BRANCH  51  72
ATOM     72  C   UNL     1      -2.169   6.365  -2.630  1.00  0.00     0.057 A 
ATOM     73  C   UNL     1      -1.105   6.588  -3.518  1.00  0.00     0.134 A 
ATOM     74  C   UNL     1      -3.458   6.626  -3.111  1.00  0.00     0.134 A 
ATOM     75  F   UNL     1       0.160   6.397  -3.116  1.00  0.00    -0.206 F 
ATOM     76  C   UNL     1      -1.312   7.076  -4.812  1.00  0.00     0.040 A 
ATOM     77  C   UNL     1      -3.682   7.083  -4.413  1.00  0.00     0.040 A 
ATOM     78  F   UNL     1      -4.524   6.457  -2.316  1.00  0.00    -0.206 F 
ATOM     79  C   UNL     1      -2.606   7.322  -5.264  1.00  0.00     0.006 A 
ENDBRANCH  51  72
BRANCH  63  80
ATOM     80  C   UNL     1       0.893   9.726   2.635  1.00  0.00     0.057 A 
ATOM     81  C   UNL     1       0.019  10.814   2.758  1.00  0.00     0.134 A 
ATOM     82  C   UNL     1       2.265   9.981   2.744  1.00  0.00     0.134 A 
ATOM     83  F   UNL     1      -1.307  10.637   2.654  1.00  0.00    -0.206 F 
ATOM     84  C   UNL     1       0.494  12.109   2.974  1.00  0.00     0.040 A 
ATOM     85  C   UNL     1       2.750  11.267   2.984  1.00  0.00     0.040 A 
ATOM     86  F   UNL     1       3.153   8.981   2.645  1.00  0.00    -0.206 F 
ATOM     87  C   UNL     1       1.863  12.336   3.098  1.00  0.00     0.006 A 
ENDBRANCH  63  80
ENDBRANCH  37  38
ENDBRANCH  30  32
ENDBRANCH  29  30
ENDBRANCH  28  29
ENDBRANCH   1  28
TORSDOF 15
