REMARK SMILES C[C@H]1CC[C@H]([NH+](CC(=O)OCCOC(=O)c2ccc(-c3c4nc(c(-c5c(F)cccc5F)c5ccc([nH]5)c(-c5c(F)cccc5F)c5nc(c(-c6c(F)cccc6F)c6ccc3[nH]6)C=C5)C=C4)cc2)C(C)(C)C)C[C@@H]1C
REMARK SMILES IDX 11 1 10 2 8 3 9 4 7 5 6 6 5 8 1 9 2 10 3 11 75 12 4 13 74 14
REMARK SMILES IDX 76 15 70 16 71 17 72 18 73 19 12 20 13 21 14 22 15 23 16 24
REMARK SMILES IDX 17 25 69 26 18 27 68 28 19 29 20 30 21 31 62 32 22 33 67 34
REMARK SMILES IDX 61 35 63 36 23 37 66 38 60 39 59 40 24 42 50 43 33 44 49 45
REMARK SMILES IDX 34 46 37 47 48 48 64 49 35 50 36 51 47 53 65 54 38 55 25 56
REMARK SMILES IDX 26 57 31 58 27 59 28 60 30 61 32 62 29 63 51 64 52 65 57 66
REMARK SMILES IDX 53 67 54 68 56 69 58 70 55 71 39 72 40 73 45 74 41 75 42 76
REMARK SMILES IDX 44 77 46 78 43 79
REMARK H PARENT 6 7 63 41 37 52
REMARK Flexibility Score: inf
ROOT
ATOM      1  C   UNL     1       3.827  -5.439  -1.681  1.00  0.00     0.274 C 
ENDROOT
BRANCH   1   2
ATOM      2  O   UNL     1       3.362  -4.955  -0.399  1.00  0.00    -0.458 OA
BRANCH   2   3
ATOM      3  C   UNL     1       2.779  -5.863   0.422  1.00  0.00     0.361 C 
ATOM      4  O   UNL     1       2.862  -7.078   0.250  1.00  0.00    -0.245 OA
BRANCH   3   5
ATOM      5  C   UNL     1       1.961  -5.283   1.581  1.00  0.00     0.387 C 
BRANCH   5   6
ATOM      6  N   UNL     1       1.886  -3.813   1.716  1.00  0.00    -0.319 N 
ATOM      7  H   UNL     1       2.338  -2.949   2.015  1.00  0.00     0.349 HD
BRANCH   6   8
ATOM      8  C   UNL     1       0.845  -3.163   0.889  1.00  0.00     0.185 C 
ATOM      9  C   UNL     1      -1.272  -0.199  -1.646  1.00  0.00     0.008 C 
ATOM     10  C   UNL     1      -0.220  -0.896  -0.781  1.00  0.00    -0.011 C 
ATOM     11  C   UNL     1      -0.866  -1.315   0.546  1.00  0.00     0.010 C 
ATOM     12  C   UNL     1       0.388  -2.129  -1.473  1.00  0.00    -0.006 C 
ATOM     13  C   UNL     1       0.165  -1.924   1.487  1.00  0.00     0.065 C 
ATOM     14  C   UNL     1       1.338  -2.901  -0.545  1.00  0.00     0.068 C 
ATOM     15  C   UNL     1       1.164  -1.785  -2.753  1.00  0.00     0.008 C 
ENDBRANCH   6   8
BRANCH   6  16
ATOM     16  C   UNL     1       2.798  -3.098   2.644  1.00  0.00     0.090 C 
ATOM     17  C   UNL     1       3.544  -1.944   1.940  1.00  0.00     0.078 C 
ATOM     18  C   UNL     1       2.046  -2.560   3.884  1.00  0.00     0.078 C 
ATOM     19  C   UNL     1       3.912  -3.997   3.234  1.00  0.00     0.078 C 
ENDBRANCH   6  16
ENDBRANCH   5   6
ENDBRANCH   3   5
ENDBRANCH   2   3
ENDBRANCH   1   2
BRANCH   1  20
ATOM     20  C   UNL     1       5.144  -4.763  -2.040  1.00  0.00     0.275 C 
BRANCH  20  21
ATOM     21  O   UNL     1       6.122  -5.226  -1.099  1.00  0.00    -0.458 OA
BRANCH  21  22
ATOM     22  C   UNL     1       6.439  -4.346  -0.131  1.00  0.00     0.338 C 
ATOM     23  O   UNL     1       6.222  -3.143  -0.097  1.00  0.00    -0.246 OA
BRANCH  22  24
ATOM     24  C   UNL     1       7.066  -5.078   0.968  1.00  0.00     0.060 A 
ATOM     25  C   UNL     1       6.311  -6.001   1.696  1.00  0.00     0.016 A 
ATOM     26  C   UNL     1       8.368  -4.759   1.342  1.00  0.00     0.016 A 
ATOM     27  C   UNL     1       6.829  -6.539   2.864  1.00  0.00     0.010 A 
ATOM     28  C   UNL     1       8.926  -5.386   2.452  1.00  0.00     0.010 A 
ATOM     29  C   UNL     1       8.154  -6.264   3.230  1.00  0.00    -0.014 A 
BRANCH  29  30
ATOM     30  C   UNL     1       8.762  -6.969   4.379  1.00  0.00     0.031 A 
ATOM     31  C   UNL     1       9.234  -6.216   5.584  1.00  0.00     0.074 A 
ATOM     32  C   UNL     1       8.910  -8.304   4.292  1.00  0.00     0.049 A 
ATOM     33  N   UNL     1       9.920  -6.652   6.609  1.00  0.00    -0.248 NA
ATOM     34  C   UNL     1       8.910  -4.782   5.640  1.00  0.00     0.031 C 
ATOM     35  C   UNL     1       8.480  -9.125   3.156  1.00  0.00     0.029 A 
ATOM     36  N   UNL     1       9.460  -9.203   5.164  1.00  0.00    -0.354 N 
ATOM     37  C   UNL     1      10.144  -5.543   7.413  1.00  0.00     0.074 A 
ATOM     38  C   UNL     1       9.522  -4.412   6.757  1.00  0.00     0.031 C 
ATOM     39  C   UNL     1       8.754 -10.410   3.414  1.00  0.00     0.029 A 
ATOM     40  C   UNL     1       9.445 -10.492   4.693  1.00  0.00     0.049 A 
ATOM     41  H   UNL     1       9.829  -8.951   6.041  1.00  0.00     0.167 HD
ATOM     42  C   UNL     1      10.819  -5.483   8.587  1.00  0.00     0.037 A 
ATOM     43  C   UNL     1       9.966 -11.615   5.215  1.00  0.00     0.037 A 
ATOM     44  C   UNL     1      11.421  -6.627   9.225  1.00  0.00     0.049 A 
ATOM     45  C   UNL     1      10.693 -11.525   6.519  1.00  0.00     0.074 A 
ATOM     46  C   UNL     1      12.132  -6.686  10.411  1.00  0.00     0.029 A 
ATOM     47  N   UNL     1      11.375  -7.922   8.723  1.00  0.00    -0.354 N 
ATOM     48  N   UNL     1      10.931 -10.465   7.255  1.00  0.00    -0.248 NA
ATOM     49  C   UNL     1      11.231 -12.776   7.062  1.00  0.00     0.031 C 
ATOM     50  C   UNL     1      12.539  -8.011  10.612  1.00  0.00     0.029 A 
ATOM     51  C   UNL     1      12.051  -8.785   9.570  1.00  0.00     0.049 A 
ATOM     52  H   UNL     1      10.927  -8.188   7.888  1.00  0.00     0.167 HD
ATOM     53  C   UNL     1      11.661 -10.916   8.342  1.00  0.00     0.074 A 
ATOM     54  C   UNL     1      11.792 -12.353   8.187  1.00  0.00     0.031 C 
ATOM     55  C   UNL     1      12.187 -10.206   9.370  1.00  0.00     0.037 A 
BRANCH  42  56
ATOM     56  C   UNL     1      10.971  -4.133   9.226  1.00  0.00     0.057 A 
ATOM     57  C   UNL     1       9.901  -3.481   9.852  1.00  0.00     0.134 A 
ATOM     58  C   UNL     1      12.210  -3.479   9.222  1.00  0.00     0.134 A 
ATOM     59  F   UNL     1       8.683  -4.043   9.877  1.00  0.00    -0.206 F 
ATOM     60  C   UNL     1      10.051  -2.217  10.429  1.00  0.00     0.040 A 
ATOM     61  C   UNL     1      12.378  -2.225   9.814  1.00  0.00     0.040 A 
ATOM     62  F   UNL     1      13.278  -4.047   8.643  1.00  0.00    -0.206 F 
ATOM     63  C   UNL     1      11.295  -1.587  10.414  1.00  0.00     0.006 A 
ENDBRANCH  42  56
BRANCH  43  64
ATOM     64  C   UNL     1       9.822 -12.890   4.474  1.00  0.00     0.057 A 
ATOM     65  C   UNL     1       8.930 -13.877   4.903  1.00  0.00     0.134 A 
ATOM     66  C   UNL     1      10.505 -13.111   3.271  1.00  0.00     0.134 A 
ATOM     67  F   UNL     1       8.256 -13.724   6.052  1.00  0.00    -0.206 F 
ATOM     68  C   UNL     1       8.714 -15.037   4.157  1.00  0.00     0.040 A 
ATOM     69  C   UNL     1      10.282 -14.255   2.504  1.00  0.00     0.040 A 
ATOM     70  F   UNL     1      11.362 -12.193   2.800  1.00  0.00    -0.206 F 
ATOM     71  C   UNL     1       9.383 -15.222   2.948  1.00  0.00     0.006 A 
ENDBRANCH  43  64
BRANCH  55  72
ATOM     72  C   UNL     1      12.960 -10.992  10.383  1.00  0.00     0.057 A 
ATOM     73  C   UNL     1      14.246 -11.472  10.107  1.00  0.00     0.134 A 
ATOM     74  C   UNL     1      12.409 -11.284  11.636  1.00  0.00     0.134 A 
ATOM     75  F   UNL     1      14.818 -11.238   8.916  1.00  0.00    -0.206 F 
ATOM     76  C   UNL     1      14.948 -12.242  11.034  1.00  0.00     0.040 A 
ATOM     77  C   UNL     1      13.109 -12.037  12.578  1.00  0.00     0.040 A 
ATOM     78  F   UNL     1      11.181 -10.851  11.958  1.00  0.00    -0.206 F 
ATOM     79  C   UNL     1      14.380 -12.524  12.275  1.00  0.00     0.006 A 
ENDBRANCH  55  72
ENDBRANCH  29  30
ENDBRANCH  22  24
ENDBRANCH  21  22
ENDBRANCH  20  21
ENDBRANCH   1  20
TORSDOF 14
