REMARK SMILES Nn1c(S[C@@H](C(=O)OCCOC(=O)c2ccc(-c3c4nc(c(-c5c(F)cccc5F)c5ccc([nH]5)c(-c5c(F)cccc5F)c5nc(c(-c6c(F)cccc6F)c6ccc3[nH]6)C=C5)C=C4)cc2)c2ccccc2)nc2ccc(Br)cc2c1=O
REMARK SMILES IDX 9 1 8 2 6 3 7 4 5 5 4 6 3 7 2 8 82 9 74 10 81 11 83 12 75 13
REMARK SMILES IDX 80 14 76 15 78 16 77 17 79 18 1 19 68 22 69 23 73 24 70 25
REMARK SMILES IDX 72 26 71 27 10 28 11 29 12 30 13 31 14 32 15 33 67 34 16 35
REMARK SMILES IDX 66 36 17 37 18 38 19 39 60 40 20 41 65 42 59 43 61 44 21 45
REMARK SMILES IDX 64 46 58 47 57 48 22 50 48 51 31 52 47 53 32 54 35 55 46 56
REMARK SMILES IDX 62 57 33 58 34 59 45 61 63 62 36 63 23 64 24 65 29 66 25 67
REMARK SMILES IDX 26 68 28 69 30 70 27 71 49 72 50 73 55 74 51 75 52 76 54 77
REMARK SMILES IDX 56 78 53 79 37 80 38 81 43 82 39 83 40 84 42 85 44 86 41 87
REMARK H PARENT 1 20 1 21 61 49 35 60
REMARK Flexibility Score: inf
ROOT
ATOM      1  C   UNL     1       4.632  -1.141  -0.129  1.00  0.00     0.274 C 
ENDROOT
BRANCH   1   2
ATOM      2  O   UNL     1       3.627  -0.934   0.894  1.00  0.00    -0.461 OA
BRANCH   2   3
ATOM      3  C   UNL     1       3.275   0.365   1.142  1.00  0.00     0.324 C 
ATOM      4  O   UNL     1       3.763   1.299   0.506  1.00  0.00    -0.251 OA
BRANCH   3   5
ATOM      5  C   UNL     1       2.325   0.560   2.355  1.00  0.00     0.194 C 
BRANCH   5   6
ATOM      6  S   UNL     1       1.720  -0.981   3.102  1.00  0.00    -0.066 SA
BRANCH   6   7
ATOM      7  C   UNL     1       0.422  -1.718   2.180  1.00  0.00     0.191 A 
ATOM      8  N   UNL     1       0.011  -1.296   0.922  1.00  0.00    -0.202 N 
ATOM      9  C   UNL     1      -1.080  -1.859   0.253  1.00  0.00     0.280 A 
ATOM     10  N   UNL     1      -0.151  -2.716   2.782  1.00  0.00    -0.222 NA
ATOM     11  C   UNL     1      -1.708  -3.007   0.908  1.00  0.00     0.069 A 
ATOM     12  O   UNL     1      -1.508  -1.442  -0.823  1.00  0.00    -0.267 OA
ATOM     13  C   UNL     1      -1.201  -3.393   2.147  1.00  0.00     0.079 A 
ATOM     14  C   UNL     1      -2.759  -3.694   0.289  1.00  0.00     0.031 A 
ATOM     15  C   UNL     1      -1.769  -4.503   2.775  1.00  0.00     0.030 A 
ATOM     16  C   UNL     1      -3.310  -4.796   0.932  1.00  0.00     0.018 A 
ATOM     17  C   UNL     1      -2.820  -5.205   2.171  1.00  0.00     0.018 A 
ATOM     18  Br  UNL     1      -4.727  -5.744   0.117  1.00  0.00    -0.051 Br
BRANCH   8  19
ATOM     19  N   UNL     1       0.667  -0.286   0.220  1.00  0.00    -0.334 N 
ATOM     20  H   UNL     1       1.446   0.165   0.619  1.00  0.00     0.178 HD
ATOM     21  H   UNL     1       0.350  -0.022  -0.674  1.00  0.00     0.178 HD
ENDBRANCH   8  19
ENDBRANCH   6   7
ENDBRANCH   5   6
BRANCH   5  22
ATOM     22  C   UNL     1       1.378   1.777   2.267  1.00  0.00    -0.023 A 
ATOM     23  C   UNL     1       0.003   1.726   2.553  1.00  0.00     0.005 A 
ATOM     24  C   UNL     1       1.897   3.034   1.885  1.00  0.00     0.005 A 
ATOM     25  C   UNL     1      -0.824   2.842   2.368  1.00  0.00     0.000 A 
ATOM     26  C   UNL     1       1.074   4.150   1.703  1.00  0.00     0.000 A 
ATOM     27  C   UNL     1      -0.291   4.048   1.927  1.00  0.00     0.000 A 
ENDBRANCH   5  22
ENDBRANCH   3   5
ENDBRANCH   2   3
ENDBRANCH   1   2
BRANCH   1  28
ATOM     28  C   UNL     1       3.998  -1.531  -1.465  1.00  0.00     0.275 C 
BRANCH  28  29
ATOM     29  O   UNL     1       3.198  -0.437  -1.939  1.00  0.00    -0.458 OA
BRANCH  29  30
ATOM     30  C   UNL     1       2.225  -0.739  -2.829  1.00  0.00     0.338 C 
ATOM     31  O   UNL     1       2.055  -1.827  -3.361  1.00  0.00    -0.246 OA
BRANCH  30  32
ATOM     32  C   UNL     1       1.273   0.404  -2.932  1.00  0.00     0.060 A 
ATOM     33  C   UNL     1       0.156   0.288  -3.763  1.00  0.00     0.016 A 
ATOM     34  C   UNL     1       1.387   1.526  -2.099  1.00  0.00     0.016 A 
ATOM     35  C   UNL     1      -0.811   1.302  -3.784  1.00  0.00     0.010 A 
ATOM     36  C   UNL     1       0.362   2.470  -2.036  1.00  0.00     0.010 A 
ATOM     37  C   UNL     1      -0.722   2.406  -2.918  1.00  0.00    -0.014 A 
BRANCH  37  38
ATOM     38  C   UNL     1      -1.709   3.519  -2.995  1.00  0.00     0.031 A 
ATOM     39  C   UNL     1      -1.256   4.913  -3.359  1.00  0.00     0.074 A 
ATOM     40  C   UNL     1      -3.018   3.298  -2.760  1.00  0.00     0.049 A 
ATOM     41  N   UNL     1      -1.978   5.976  -3.622  1.00  0.00    -0.248 NA
ATOM     42  C   UNL     1       0.194   5.159  -3.406  1.00  0.00     0.031 C 
ATOM     43  C   UNL     1      -3.604   2.036  -2.303  1.00  0.00     0.029 A 
ATOM     44  N   UNL     1      -4.100   4.135  -2.899  1.00  0.00    -0.354 N 
ATOM     45  C   UNL     1      -1.070   7.002  -3.858  1.00  0.00     0.074 A 
ATOM     46  C   UNL     1       0.248   6.463  -3.622  1.00  0.00     0.031 C 
ATOM     47  C   UNL     1      -4.942   2.165  -2.259  1.00  0.00     0.029 A 
ATOM     48  C   UNL     1      -5.307   3.515  -2.682  1.00  0.00     0.049 A 
ATOM     49  H   UNL     1      -4.018   5.088  -3.133  1.00  0.00     0.167 HD
ATOM     50  C   UNL     1      -1.296   8.267  -4.285  1.00  0.00     0.037 A 
ATOM     51  C   UNL     1      -6.564   3.970  -2.844  1.00  0.00     0.037 A 
ATOM     52  C   UNL     1      -2.594   8.807  -4.575  1.00  0.00     0.049 A 
ATOM     53  C   UNL     1      -6.798   5.364  -3.362  1.00  0.00     0.074 A 
ATOM     54  C   UNL     1      -2.917  10.043  -5.107  1.00  0.00     0.029 A 
ATOM     55  N   UNL     1      -3.786   8.137  -4.358  1.00  0.00    -0.354 N 
ATOM     56  N   UNL     1      -5.925   6.276  -3.713  1.00  0.00    -0.248 NA
ATOM     57  C   UNL     1      -8.199   5.783  -3.523  1.00  0.00     0.031 C 
ATOM     58  C   UNL     1      -4.311  10.131  -5.189  1.00  0.00     0.029 A 
ATOM     59  C   UNL     1      -4.850   8.941  -4.729  1.00  0.00     0.049 A 
ATOM     60  H   UNL     1      -3.865   7.226  -3.994  1.00  0.00     0.167 HD
ATOM     61  C   UNL     1      -6.668   7.361  -4.162  1.00  0.00     0.074 A 
ATOM     62  C   UNL     1      -8.063   6.991  -4.051  1.00  0.00     0.031 C 
ATOM     63  C   UNL     1      -6.233   8.557  -4.626  1.00  0.00     0.037 A 
BRANCH  50  64
ATOM     64  C   UNL     1      -0.092   9.133  -4.501  1.00  0.00     0.057 A 
ATOM     65  C   UNL     1       0.209  10.181  -3.623  1.00  0.00     0.134 A 
ATOM     66  C   UNL     1       0.780   8.915  -5.576  1.00  0.00     0.134 A 
ATOM     67  F   UNL     1      -0.587  10.443  -2.576  1.00  0.00    -0.206 F 
ATOM     68  C   UNL     1       1.344  10.973  -3.801  1.00  0.00     0.040 A 
ATOM     69  C   UNL     1       1.931   9.685  -5.750  1.00  0.00     0.040 A 
ATOM     70  F   UNL     1       0.555   7.914  -6.441  1.00  0.00    -0.206 F 
ATOM     71  C   UNL     1       2.213  10.720  -4.861  1.00  0.00     0.006 A 
ENDBRANCH  50  64
BRANCH  51  72
ATOM     72  C   UNL     1      -7.722   3.078  -2.589  1.00  0.00     0.057 A 
ATOM     73  C   UNL     1      -8.143   2.779  -1.290  1.00  0.00     0.134 A 
ATOM     74  C   UNL     1      -8.465   2.548  -3.651  1.00  0.00     0.134 A 
ATOM     75  F   UNL     1      -7.472   3.260  -0.233  1.00  0.00    -0.206 F 
ATOM     76  C   UNL     1      -9.269   1.989  -1.054  1.00  0.00     0.040 A 
ATOM     77  C   UNL     1      -9.602   1.771  -3.430  1.00  0.00     0.040 A 
ATOM     78  F   UNL     1      -8.120   2.822  -4.918  1.00  0.00    -0.206 F 
ATOM     79  C   UNL     1     -10.007   1.490  -2.127  1.00  0.00     0.006 A 
ENDBRANCH  51  72
BRANCH  63  80
ATOM     80  C   UNL     1      -7.270   9.544  -5.069  1.00  0.00     0.057 A 
ATOM     81  C   UNL     1      -7.468   9.811  -6.429  1.00  0.00     0.134 A 
ATOM     82  C   UNL     1      -8.043  10.258  -4.146  1.00  0.00     0.134 A 
ATOM     83  F   UNL     1      -6.753   9.164  -7.362  1.00  0.00    -0.206 F 
ATOM     84  C   UNL     1      -8.397  10.760  -6.856  1.00  0.00     0.040 A 
ATOM     85  C   UNL     1      -8.990  11.195  -4.562  1.00  0.00     0.040 A 
ATOM     86  F   UNL     1      -7.908  10.037  -2.830  1.00  0.00    -0.206 F 
ATOM     87  C   UNL     1      -9.165  11.452  -5.921  1.00  0.00     0.006 A 
ENDBRANCH  63  80
ENDBRANCH  37  38
ENDBRANCH  30  32
ENDBRANCH  29  30
ENDBRANCH  28  29
ENDBRANCH   1  28
TORSDOF 15
