REMARK SMILES CCc1ccc(S(=O)(=O)N2CCC3(CC2)NC(=O)C[C@H]3C(=O)OCCOC(=O)c2ccc(-c3c4nc(c(-c5c(F)cccc5F)c5ccc([nH]5)c(-c5c(F)cccc5F)c5nc(c(-c6c(F)cccc6F)c6ccc3[nH]6)C=C5)C=C4)cc2)s1
REMARK SMILES IDX 24 1 23 2 21 3 22 4 20 5 10 6 11 7 15 8 12 9 14 10 13 11
REMARK SMILES IDX 16 12 17 13 19 15 18 16 7 17 8 18 9 19 6 20 3 21 4 22 83 23
REMARK SMILES IDX 5 24 2 25 1 26 25 27 26 28 27 29 28 30 29 31 30 32 82 33
REMARK SMILES IDX 31 34 81 35 32 36 33 37 34 38 75 39 35 40 80 41 74 42 76 43
REMARK SMILES IDX 36 44 79 45 73 46 72 47 37 49 63 50 46 51 62 52 47 53 50 54
REMARK SMILES IDX 61 55 77 56 48 57 49 58 60 60 78 61 51 62 38 63 39 64 44 65
REMARK SMILES IDX 40 66 41 67 43 68 45 69 42 70 64 71 65 72 70 73 66 74 67 75
REMARK SMILES IDX 69 76 71 77 68 78 52 79 53 80 58 81 54 82 55 83 57 84 59 85
REMARK SMILES IDX 56 86
REMARK H PARENT 16 14 76 48 50 59
REMARK Flexibility Score: inf
ROOT
ATOM      1  C   UNL     1      -2.387   5.145   7.083  1.00  0.00     0.274 C 
ENDROOT
BRANCH   1   2
ATOM      2  O   UNL     1      -1.297   4.641   6.281  1.00  0.00    -0.462 OA
BRANCH   2   3
ATOM      3  C   UNL     1      -0.177   5.391   6.309  1.00  0.00     0.311 C 
ATOM      4  O   UNL     1      -0.093   6.481   6.870  1.00  0.00    -0.252 OA
BRANCH   3   5
ATOM      5  C   UNL     1       1.022   4.822   5.579  1.00  0.00     0.134 C 
ATOM      6  N   UNL     1       2.419   0.896   6.188  1.00  0.00    -0.197 NA
ATOM      7  C   UNL     1       3.345   1.982   5.898  1.00  0.00     0.105 C 
ATOM      8  C   UNL     1       1.171   1.342   6.798  1.00  0.00     0.105 C 
ATOM      9  C   UNL     1       2.731   3.064   5.004  1.00  0.00     0.046 C 
ATOM     10  C   UNL     1       0.394   2.211   5.823  1.00  0.00     0.046 C 
ATOM     11  C   UNL     1       1.173   3.349   5.113  1.00  0.00     0.056 C 
ATOM     12  N   UNL     1       0.605   3.483   3.765  1.00  0.00    -0.350 N 
ATOM     13  C   UNL     1       0.624   4.753   3.249  1.00  0.00     0.221 C 
ATOM     14  H   UNL     1       0.236   2.717   3.269  1.00  0.00     0.164 HD
ATOM     15  C   UNL     1       1.185   5.662   4.293  1.00  0.00     0.117 C 
ATOM     16  O   UNL     1       0.271   5.056   2.125  1.00  0.00    -0.275 OA
BRANCH   6  17
ATOM     17  S   UNL     1       2.593  -0.660   5.537  1.00  0.00     0.252 S 
ATOM     18  O   UNL     1       1.759  -1.565   6.300  1.00  0.00    -0.206 OA
ATOM     19  O   UNL     1       4.001  -0.903   5.323  1.00  0.00    -0.206 OA
BRANCH  17  20
ATOM     20  C   UNL     1       1.889  -0.621   3.902  1.00  0.00     0.135 A 
ATOM     21  C   UNL     1       0.895  -1.235   1.722  1.00  0.00     0.006 A 
ATOM     22  C   UNL     1       0.940   0.126   1.909  1.00  0.00     0.017 A 
ATOM     23  S   UNL     1       1.463  -2.079   3.115  1.00  0.00    -0.127 S 
ATOM     24  C   UNL     1       1.643   0.446   3.076  1.00  0.00     0.034 A 
BRANCH  21  25
ATOM     25  C   UNL     1       0.450  -1.938   0.476  1.00  0.00     0.043 C 
ATOM     26  C   UNL     1       0.817  -1.122  -0.767  1.00  0.00     0.010 C 
ENDBRANCH  21  25
ENDBRANCH  17  20
ENDBRANCH   6  17
ENDBRANCH   3   5
ENDBRANCH   2   3
ENDBRANCH   1   2
BRANCH   1  27
ATOM     27  C   UNL     1      -2.355   4.569   8.502  1.00  0.00     0.275 C 
BRANCH  27  28
ATOM     28  O   UNL     1      -1.102   4.859   9.161  1.00  0.00    -0.458 OA
BRANCH  28  29
ATOM     29  C   UNL     1      -0.289   3.791   9.308  1.00  0.00     0.338 C 
ATOM     30  O   UNL     1      -0.528   2.642   8.970  1.00  0.00    -0.246 OA
BRANCH  29  31
ATOM     31  C   UNL     1       1.025   4.136   9.873  1.00  0.00     0.060 A 
ATOM     32  C   UNL     1       1.968   4.796   9.089  1.00  0.00     0.016 A 
ATOM     33  C   UNL     1       1.412   3.563  11.083  1.00  0.00     0.016 A 
ATOM     34  C   UNL     1       3.314   4.792   9.450  1.00  0.00     0.010 A 
ATOM     35  C   UNL     1       2.741   3.669  11.507  1.00  0.00     0.010 A 
ATOM     36  C   UNL     1       3.712   4.266  10.686  1.00  0.00    -0.014 A 
BRANCH  36  37
ATOM     37  C   UNL     1       5.112   4.433  11.162  1.00  0.00     0.031 A 
ATOM     38  C   UNL     1       5.964   3.249  11.532  1.00  0.00     0.074 A 
ATOM     39  C   UNL     1       5.600   5.681  11.311  1.00  0.00     0.049 A 
ATOM     40  N   UNL     1       7.121   3.227  12.146  1.00  0.00    -0.248 NA
ATOM     41  C   UNL     1       5.450   1.919  11.173  1.00  0.00     0.031 C 
ATOM     42  C   UNL     1       4.886   6.915  10.972  1.00  0.00     0.029 A 
ATOM     43  N   UNL     1       6.804   6.124  11.799  1.00  0.00    -0.354 N 
ATOM     44  C   UNL     1       7.456   1.885  12.285  1.00  0.00     0.074 A 
ATOM     45  C   UNL     1       6.378   1.122  11.689  1.00  0.00     0.031 C 
ATOM     46  C   UNL     1       5.668   7.968  11.239  1.00  0.00     0.029 A 
ATOM     47  C   UNL     1       6.896   7.494  11.860  1.00  0.00     0.049 A 
ATOM     48  H   UNL     1       7.530   5.520  12.077  1.00  0.00     0.167 HD
ATOM     49  C   UNL     1       8.558   1.347  12.864  1.00  0.00     0.037 A 
ATOM     50  C   UNL     1       7.830   8.291  12.407  1.00  0.00     0.037 A 
ATOM     51  C   UNL     1       9.636   2.118  13.435  1.00  0.00     0.049 A 
ATOM     52  C   UNL     1       9.012   7.670  13.085  1.00  0.00     0.074 A 
ATOM     53  C   UNL     1      10.805   1.663  14.024  1.00  0.00     0.029 A 
ATOM     54  N   UNL     1       9.679   3.503  13.487  1.00  0.00    -0.354 N 
ATOM     55  N   UNL     1       9.304   6.401  13.231  1.00  0.00    -0.248 NA
ATOM     56  C   UNL     1       9.986   8.589  13.686  1.00  0.00     0.031 C 
ATOM     57  C   UNL     1      11.532   2.771  14.472  1.00  0.00     0.029 A 
ATOM     58  C   UNL     1      10.843   3.918  14.117  1.00  0.00     0.049 A 
ATOM     59  H   UNL     1       8.986   4.104  13.130  1.00  0.00     0.167 HD
ATOM     60  C   UNL     1      10.505   6.367  13.925  1.00  0.00     0.074 A 
ATOM     61  C   UNL     1      10.894   7.744  14.154  1.00  0.00     0.031 C 
ATOM     62  C   UNL     1      11.218   5.292  14.338  1.00  0.00     0.037 A 
BRANCH  49  63
ATOM     63  C   UNL     1       8.648  -0.152  12.945  1.00  0.00     0.057 A 
ATOM     64  C   UNL     1       8.904  -0.946  11.821  1.00  0.00     0.134 A 
ATOM     65  C   UNL     1       8.540  -0.804  14.182  1.00  0.00     0.134 A 
ATOM     66  F   UNL     1       9.015  -0.388  10.606  1.00  0.00    -0.206 F 
ATOM     67  C   UNL     1       9.029  -2.334  11.919  1.00  0.00     0.040 A 
ATOM     68  C   UNL     1       8.688  -2.187  14.297  1.00  0.00     0.040 A 
ATOM     69  F   UNL     1       8.307  -0.103  15.302  1.00  0.00    -0.206 F 
ATOM     70  C   UNL     1       8.929  -2.958  13.162  1.00  0.00     0.006 A 
ENDBRANCH  49  63
BRANCH  50  71
ATOM     71  C   UNL     1       7.651   9.764  12.370  1.00  0.00     0.057 A 
ATOM     72  C   UNL     1       8.474  10.571  11.578  1.00  0.00     0.134 A 
ATOM     73  C   UNL     1       6.636  10.395  13.101  1.00  0.00     0.134 A 
ATOM     74  F   UNL     1       9.473  10.026  10.869  1.00  0.00    -0.206 F 
ATOM     75  C   UNL     1       8.301  11.954  11.522  1.00  0.00     0.040 A 
ATOM     76  C   UNL     1       6.432  11.773  13.030  1.00  0.00     0.040 A 
ATOM     77  F   UNL     1       5.805   9.674  13.869  1.00  0.00    -0.206 F 
ATOM     78  C   UNL     1       7.271  12.557  12.242  1.00  0.00     0.006 A 
ENDBRANCH  50  71
BRANCH  62  79
ATOM     79  C   UNL     1      12.511   5.569  15.045  1.00  0.00     0.057 A 
ATOM     80  C   UNL     1      12.547   6.070  16.352  1.00  0.00     0.134 A 
ATOM     81  C   UNL     1      13.735   5.321  14.412  1.00  0.00     0.134 A 
ATOM     82  F   UNL     1      11.409   6.348  17.006  1.00  0.00    -0.206 F 
ATOM     83  C   UNL     1      13.757   6.339  16.996  1.00  0.00     0.040 A 
ATOM     84  C   UNL     1      14.950   5.560  15.054  1.00  0.00     0.040 A 
ATOM     85  F   UNL     1      13.770   4.838  13.161  1.00  0.00    -0.206 F 
ATOM     86  C   UNL     1      14.963   6.078  16.348  1.00  0.00     0.006 A 
ENDBRANCH  62  79
ENDBRANCH  36  37
ENDBRANCH  29  31
ENDBRANCH  28  29
ENDBRANCH  27  28
ENDBRANCH   1  27
TORSDOF 14
