REMARK SMILES C[N@@H+]1CC[N@@H+](Cc2ncc[nH]2)C[C@@]12CCC(=O)N(CC(=O)OCCOC(=O)c1ccc(-c3c4nc(c(-c5c(F)cccc5F)c5ccc([nH]5)c(-c5c(F)cccc5F)c5nc(c(-c6c(F)cccc6F)c6ccc3[nH]6)C=C5)C=C4)cc1)CC2
REMARK SMILES IDX 20 1 21 2 19 3 18 4 16 5 17 6 15 7 14 8 13 9 1 10 2 11 3 12
REMARK SMILES IDX 4 14 12 15 5 16 83 18 6 20 7 21 8 22 11 23 9 24 10 25 82 27
REMARK SMILES IDX 22 29 23 30 24 31 25 32 26 33 27 34 28 35 29 36 81 37 30 38
REMARK SMILES IDX 80 39 31 40 32 41 33 42 74 43 34 44 79 45 73 46 75 47 35 48
REMARK SMILES IDX 78 49 72 50 71 51 36 53 62 54 45 55 61 56 46 57 49 58 60 59
REMARK SMILES IDX 76 60 47 61 48 62 59 64 77 65 50 66 37 67 38 68 43 69 39 70
REMARK SMILES IDX 40 71 42 72 44 73 41 74 63 75 64 76 69 77 65 78 66 79 68 80
REMARK SMILES IDX 70 81 67 82 51 83 52 84 57 85 53 86 54 87 56 88 58 89 55 90
REMARK H PARENT 2 13 5 17 11 26 75 52 49 63
REMARK Flexibility Score: 80.00
ROOT
ATOM      1  C   UNL     1      -6.147  -0.457  -1.756  1.00  0.00     0.325 C 
ATOM      2  O   UNL     1      -7.144  -0.992  -2.231  1.00  0.00    -0.250 OA
ENDROOT
BRANCH   1   3
ATOM      3  C   UNL     1      -4.732  -0.759  -2.272  1.00  0.00     0.242 C 
BRANCH   3   4
ATOM      4  N   UNL     1      -3.660   0.032  -1.661  1.00  0.00    -0.331 N 
BRANCH   4   5
ATOM      5  C   UNL     1      -3.631   1.385  -1.938  1.00  0.00     0.223 C 
ATOM      6  O   UNL     1      -4.238   1.869  -2.890  1.00  0.00    -0.275 OA
BRANCH   5   7
ATOM      7  C   UNL     1      -2.910   2.257  -0.944  1.00  0.00     0.107 C 
BRANCH   7   8
ATOM      8  C   UNL     1      -1.398   2.224  -1.089  1.00  0.00     0.084 C 
BRANCH   8   9
ATOM      9  C   UNL     1      -0.631   0.971  -0.538  1.00  0.00     0.149 C 
ATOM     10  C   UNL     1       1.670   0.037  -0.800  1.00  0.00     0.333 C 
ATOM     11  N   UNL     1       0.801   1.209  -0.929  1.00  0.00    -0.323 N 
ATOM     12  C   UNL     1       1.381   2.350  -0.159  1.00  0.00     0.324 C 
ATOM     13  H   UNL     1       0.768   1.432  -1.923  1.00  0.00     0.348 HD
ATOM     14  C   UNL     1       0.863   2.568   1.294  1.00  0.00     0.324 C 
ATOM     15  C   UNL     1      -0.766   0.806   1.027  1.00  0.00     0.332 C 
ATOM     16  N   UNL     1       0.319   1.340   1.863  1.00  0.00    -0.319 N 
ATOM     17  H   UNL     1       1.062   0.642   1.839  1.00  0.00     0.348 HD
BRANCH   9  18
ATOM     18  C   UNL     1      -1.236  -0.310  -1.197  1.00  0.00     0.096 CG0
ATOM     19  G   UNL     1      -2.692  -0.623  -0.803  1.00  0.00     0.000 G0
ENDBRANCH   9  18
BRANCH  16  20
ATOM     20  C   UNL     1       0.019   1.423   3.303  1.00  0.00     0.339 C 
BRANCH  20  21
ATOM     21  C   UNL     1      -1.429   1.591   3.662  1.00  0.00     0.161 A 
ATOM     22  N   UNL     1      -2.163   2.683   3.570  1.00  0.00    -0.236 NA
ATOM     23  N   UNL     1      -2.206   0.519   4.038  1.00  0.00    -0.344 N 
ATOM     24  C   UNL     1      -3.447   2.294   3.852  1.00  0.00     0.131 A 
ATOM     25  C   UNL     1      -3.500   0.949   4.125  1.00  0.00     0.104 A 
ATOM     26  H   UNL     1      -1.886  -0.395   4.214  1.00  0.00     0.167 HD
ENDBRANCH  20  21
ENDBRANCH  16  20
ENDBRANCH   8   9
ENDBRANCH   7   8
ENDBRANCH   5   7
ENDBRANCH   4   5
BRANCH   4  27
ATOM     27  C   UNL     1      -2.692  -0.623  -0.803  1.00  0.00     0.127 CG0
ATOM     28  G   UNL     1      -1.236  -0.310  -1.197  1.00  0.00     0.000 G0
ENDBRANCH   4  27
ENDBRANCH   3   4
ENDBRANCH   1   3
BRANCH   1  29
ATOM     29  O   UNL     1      -6.163   0.438  -0.726  1.00  0.00    -0.461 OA
BRANCH  29  30
ATOM     30  C   UNL     1      -7.457   0.956  -0.353  1.00  0.00     0.274 C 
BRANCH  30  31
ATOM     31  C   UNL     1      -7.658   2.336  -0.975  1.00  0.00     0.275 C 
BRANCH  31  32
ATOM     32  O   UNL     1      -7.551   2.220  -2.401  1.00  0.00    -0.458 OA
BRANCH  32  33
ATOM     33  C   UNL     1      -6.980   3.277  -3.027  1.00  0.00     0.338 C 
ATOM     34  O   UNL     1      -6.654   4.338  -2.523  1.00  0.00    -0.246 OA
BRANCH  33  35
ATOM     35  C   UNL     1      -6.915   2.997  -4.476  1.00  0.00     0.060 A 
ATOM     36  C   UNL     1      -6.478   1.761  -4.963  1.00  0.00     0.016 A 
ATOM     37  C   UNL     1      -7.267   4.014  -5.364  1.00  0.00     0.016 A 
ATOM     38  C   UNL     1      -6.347   1.553  -6.335  1.00  0.00     0.010 A 
ATOM     39  C   UNL     1      -7.201   3.783  -6.738  1.00  0.00     0.010 A 
ATOM     40  C   UNL     1      -6.720   2.559  -7.235  1.00  0.00    -0.014 A 
BRANCH  40  41
ATOM     41  C   UNL     1      -6.585   2.366  -8.700  1.00  0.00     0.031 A 
ATOM     42  C   UNL     1      -5.616   3.209  -9.478  1.00  0.00     0.074 A 
ATOM     43  C   UNL     1      -7.360   1.468  -9.336  1.00  0.00     0.049 A 
ATOM     44  N   UNL     1      -5.478   3.331 -10.773  1.00  0.00    -0.248 NA
ATOM     45  C   UNL     1      -4.687   4.036  -8.692  1.00  0.00     0.031 C 
ATOM     46  C   UNL     1      -8.318   0.567  -8.694  1.00  0.00     0.029 A 
ATOM     47  N   UNL     1      -7.474   1.180 -10.673  1.00  0.00    -0.354 N 
ATOM     48  C   UNL     1      -4.475   4.274 -10.959  1.00  0.00     0.074 A 
ATOM     49  C   UNL     1      -4.047   4.701  -9.643  1.00  0.00     0.031 C 
ATOM     50  C   UNL     1      -8.921  -0.174  -9.637  1.00  0.00     0.029 A 
ATOM     51  C   UNL     1      -8.436   0.240 -10.950  1.00  0.00     0.049 A 
ATOM     52  H   UNL     1      -6.920   1.606 -11.367  1.00  0.00     0.167 HD
ATOM     53  C   UNL     1      -3.958   4.737 -12.121  1.00  0.00     0.037 A 
ATOM     54  C   UNL     1      -8.900  -0.211 -12.130  1.00  0.00     0.037 A 
ATOM     55  C   UNL     1      -4.363   4.287 -13.427  1.00  0.00     0.049 A 
ATOM     56  C   UNL     1      -8.338   0.347 -13.406  1.00  0.00     0.074 A 
ATOM     57  C   UNL     1      -3.881   4.679 -14.663  1.00  0.00     0.029 A 
ATOM     58  N   UNL     1      -5.345   3.336 -13.663  1.00  0.00    -0.354 N 
ATOM     59  N   UNL     1      -7.403   1.250 -13.572  1.00  0.00    -0.248 NA
ATOM     60  C   UNL     1      -8.905  -0.169 -14.660  1.00  0.00     0.031 C 
ATOM     61  C   UNL     1      -4.592   3.988 -15.650  1.00  0.00     0.029 A 
ATOM     62  C   UNL     1      -5.492   3.139 -15.026  1.00  0.00     0.049 A 
ATOM     63  H   UNL     1      -5.860   2.871 -12.965  1.00  0.00     0.167 HD
ATOM     64  C   UNL     1      -7.255   1.397 -14.944  1.00  0.00     0.074 A 
ATOM     65  C   UNL     1      -8.188   0.480 -15.567  1.00  0.00     0.031 C 
ATOM     66  C   UNL     1      -6.422   2.218 -15.628  1.00  0.00     0.037 A 
BRANCH  53  67
ATOM     67  C   UNL     1      -2.909   5.804 -12.032  1.00  0.00     0.057 A 
ATOM     68  C   UNL     1      -1.600   5.523 -11.623  1.00  0.00     0.134 A 
ATOM     69  C   UNL     1      -3.205   7.125 -12.393  1.00  0.00     0.134 A 
ATOM     70  F   UNL     1      -1.255   4.280 -11.252  1.00  0.00    -0.206 F 
ATOM     71  C   UNL     1      -0.627   6.522 -11.556  1.00  0.00     0.040 A 
ATOM     72  C   UNL     1      -2.236   8.127 -12.352  1.00  0.00     0.040 A 
ATOM     73  F   UNL     1      -4.439   7.459 -12.799  1.00  0.00    -0.206 F 
ATOM     74  C   UNL     1      -0.943   7.828 -11.928  1.00  0.00     0.006 A 
ENDBRANCH  53  67
BRANCH  54  75
ATOM     75  C   UNL     1      -9.974  -1.234 -12.159  1.00  0.00     0.057 A 
ATOM     76  C   UNL     1      -9.707  -2.547 -12.559  1.00  0.00     0.134 A 
ATOM     77  C   UNL     1     -11.288  -0.924 -11.788  1.00  0.00     0.134 A 
ATOM     78  F   UNL     1      -8.472  -2.896 -12.947  1.00  0.00    -0.206 F 
ATOM     79  C   UNL     1     -10.711  -3.515 -12.600  1.00  0.00     0.040 A 
ATOM     80  C   UNL     1     -12.297  -1.888 -11.802  1.00  0.00     0.040 A 
ATOM     81  F   UNL     1     -11.606   0.318 -11.393  1.00  0.00    -0.206 F 
ATOM     82  C   UNL     1     -12.010  -3.188 -12.214  1.00  0.00     0.006 A 
ENDBRANCH  54  75
BRANCH  66  83
ATOM     83  C   UNL     1      -6.461   2.138 -17.124  1.00  0.00     0.057 A 
ATOM     84  C   UNL     1      -7.509   2.697 -17.864  1.00  0.00     0.134 A 
ATOM     85  C   UNL     1      -5.422   1.520 -17.831  1.00  0.00     0.134 A 
ATOM     86  F   UNL     1      -8.540   3.288 -17.243  1.00  0.00    -0.206 F 
ATOM     87  C   UNL     1      -7.532   2.629 -19.258  1.00  0.00     0.040 A 
ATOM     88  C   UNL     1      -5.423   1.465 -19.225  1.00  0.00     0.040 A 
ATOM     89  F   UNL     1      -4.386   0.971 -17.180  1.00  0.00    -0.206 F 
ATOM     90  C   UNL     1      -6.483   2.016 -19.942  1.00  0.00     0.006 A 
ENDBRANCH  66  83
ENDBRANCH  40  41
ENDBRANCH  33  35
ENDBRANCH  32  33
ENDBRANCH  31  32
ENDBRANCH  30  31
ENDBRANCH  29  30
ENDBRANCH   1  29
TORSDOF 14
