REMARK SMILES O=C(OCCOC(=O)c1ccc(N2C(=O)[C@@H]3N=NC(c4ccccc4)=C3[C@H]2c2cccc(Br)c2)cc1)c1ccc(-c2c3nc(c(-c4c(F)cccc4F)c4ccc([nH]4)c(-c4c(F)cccc4F)c4nc(c(-c5c(F)cccc5F)c5ccc2[nH]5)C=C4)C=C3)cc1
REMARK SMILES IDX 4 1 3 2 2 3 1 4 37 5 38 6 90 7 39 8 89 9 40 10 41 11 42 12
REMARK SMILES IDX 83 13 43 14 88 15 82 16 84 17 44 18 87 19 81 20 80 21 45 23
REMARK SMILES IDX 71 24 54 25 70 26 55 27 58 28 69 29 85 30 56 31 57 32 68 34
REMARK SMILES IDX 86 35 59 36 46 37 47 38 52 39 48 40 49 41 51 42 53 43 50 44
REMARK SMILES IDX 72 45 73 46 78 47 74 48 75 49 77 50 79 51 76 52 60 53 61 54
REMARK SMILES IDX 66 55 62 56 63 57 65 58 67 59 64 60 5 61 6 62 7 63 8 64 9 65
REMARK SMILES IDX 10 66 36 67 11 68 35 69 12 70 13 71 14 72 27 73 16 74 15 75
REMARK SMILES IDX 26 76 17 77 19 78 18 79 28 80 29 81 34 82 30 83 32 84 31 85
REMARK SMILES IDX 33 86 20 87 21 88 25 89 22 90 24 91 23 92
REMARK H PARENT 84 22 58 33
REMARK Flexibility Score: inf
ROOT
ATOM      1  C   UNL     1       4.543  -0.836   0.669  1.00  0.00     0.275 C 
ENDROOT
BRANCH   1   2
ATOM      2  O   UNL     1       3.318  -0.534   1.365  1.00  0.00    -0.458 OA
BRANCH   2   3
ATOM      3  C   UNL     1       2.268  -0.042   0.676  1.00  0.00     0.338 C 
ATOM      4  O   UNL     1       1.286  -0.701   0.370  1.00  0.00    -0.246 OA
BRANCH   3   5
ATOM      5  C   UNL     1       2.262   1.437   0.612  1.00  0.00     0.060 A 
ATOM      6  C   UNL     1       3.420   2.211   0.477  1.00  0.00     0.016 A 
ATOM      7  C   UNL     1       1.011   2.058   0.683  1.00  0.00     0.016 A 
ATOM      8  C   UNL     1       3.343   3.593   0.546  1.00  0.00     0.010 A 
ATOM      9  C   UNL     1       0.928   3.438   0.700  1.00  0.00     0.010 A 
ATOM     10  C   UNL     1       2.098   4.202   0.706  1.00  0.00    -0.014 A 
BRANCH  10  11
ATOM     11  C   UNL     1       2.023   5.663   0.729  1.00  0.00     0.031 A 
ATOM     12  C   UNL     1       2.552   6.347  -0.498  1.00  0.00     0.074 A 
ATOM     13  C   UNL     1       1.320   6.302   1.688  1.00  0.00     0.049 A 
ATOM     14  N   UNL     1       3.333   7.371  -0.616  1.00  0.00    -0.248 NA
ATOM     15  C   UNL     1       2.207   5.739  -1.786  1.00  0.00     0.031 C 
ATOM     16  C   UNL     1       0.550   5.718   2.793  1.00  0.00     0.029 A 
ATOM     17  N   UNL     1       1.055   7.629   1.819  1.00  0.00    -0.354 N 
ATOM     18  C   UNL     1       3.424   7.641  -1.989  1.00  0.00     0.074 A 
ATOM     19  C   UNL     1       2.783   6.559  -2.664  1.00  0.00     0.031 C 
ATOM     20  C   UNL     1      -0.269   6.654   3.322  1.00  0.00     0.029 A 
ATOM     21  C   UNL     1       0.020   7.932   2.698  1.00  0.00     0.049 A 
ATOM     22  H   UNL     1       1.556   8.321   1.331  1.00  0.00     0.167 HD
ATOM     23  C   UNL     1       3.879   8.828  -2.473  1.00  0.00     0.037 A 
ATOM     24  C   UNL     1      -0.577   9.140   2.864  1.00  0.00     0.037 A 
ATOM     25  C   UNL     1       4.721   9.473  -1.510  1.00  0.00     0.049 A 
ATOM     26  C   UNL     1       0.323  10.158   2.267  1.00  0.00     0.074 A 
ATOM     27  C   UNL     1       5.916   9.125  -0.915  1.00  0.00     0.029 A 
ATOM     28  N   UNL     1       4.158  10.433  -0.709  1.00  0.00    -0.354 N 
ATOM     29  N   UNL     1       1.493  10.461   2.754  1.00  0.00    -0.248 NA
ATOM     30  C   UNL     1       0.122  10.480   0.862  1.00  0.00     0.031 C 
ATOM     31  C   UNL     1       5.740   9.478   0.453  1.00  0.00     0.029 A 
ATOM     32  C   UNL     1       4.505  10.117   0.579  1.00  0.00     0.049 A 
ATOM     33  H   UNL     1       3.612  11.198  -1.002  1.00  0.00     0.167 HD
ATOM     34  C   UNL     1       2.310  10.599   1.643  1.00  0.00     0.074 A 
ATOM     35  C   UNL     1       1.396  10.660   0.501  1.00  0.00     0.031 C 
ATOM     36  C   UNL     1       3.652  10.360   1.717  1.00  0.00     0.037 A 
BRANCH  23  37
ATOM     37  C   UNL     1       3.277   9.570  -3.642  1.00  0.00     0.057 A 
ATOM     38  C   UNL     1       3.889  10.756  -4.090  1.00  0.00     0.134 A 
ATOM     39  C   UNL     1       1.960   9.365  -4.098  1.00  0.00     0.134 A 
ATOM     40  F   UNL     1       5.149  11.056  -3.737  1.00  0.00    -0.206 F 
ATOM     41  C   UNL     1       3.202  11.721  -4.838  1.00  0.00     0.040 A 
ATOM     42  C   UNL     1       1.276  10.306  -4.875  1.00  0.00     0.040 A 
ATOM     43  F   UNL     1       1.240   8.297  -3.739  1.00  0.00    -0.206 F 
ATOM     44  C   UNL     1       1.882  11.507  -5.214  1.00  0.00     0.006 A 
ENDBRANCH  23  37
BRANCH  24  45
ATOM     45  C   UNL     1      -1.982   9.455   3.216  1.00  0.00     0.057 A 
ATOM     46  C   UNL     1      -2.351  10.735   3.658  1.00  0.00     0.134 A 
ATOM     47  C   UNL     1      -3.038   8.601   2.857  1.00  0.00     0.134 A 
ATOM     48  F   UNL     1      -1.415  11.637   3.987  1.00  0.00    -0.206 F 
ATOM     49  C   UNL     1      -3.689  11.150   3.713  1.00  0.00     0.040 A 
ATOM     50  C   UNL     1      -4.379   9.002   2.910  1.00  0.00     0.040 A 
ATOM     51  F   UNL     1      -2.800   7.380   2.356  1.00  0.00    -0.206 F 
ATOM     52  C   UNL     1      -4.708  10.286   3.325  1.00  0.00     0.006 A 
ENDBRANCH  24  45
BRANCH  36  53
ATOM     53  C   UNL     1       4.263  10.112   3.071  1.00  0.00     0.057 A 
ATOM     54  C   UNL     1       3.932   9.034   3.908  1.00  0.00     0.134 A 
ATOM     55  C   UNL     1       5.363  10.885   3.453  1.00  0.00     0.134 A 
ATOM     56  F   UNL     1       2.965   8.170   3.584  1.00  0.00    -0.206 F 
ATOM     57  C   UNL     1       4.639   8.763   5.083  1.00  0.00     0.040 A 
ATOM     58  C   UNL     1       6.102  10.603   4.603  1.00  0.00     0.040 A 
ATOM     59  F   UNL     1       5.781  11.896   2.674  1.00  0.00    -0.206 F 
ATOM     60  C   UNL     1       5.736   9.544   5.429  1.00  0.00     0.006 A 
ENDBRANCH  36  53
ENDBRANCH  10  11
ENDBRANCH   3   5
ENDBRANCH   2   3
ENDBRANCH   1   2
BRANCH   1  61
ATOM     61  C   UNL     1       4.409  -1.365  -0.762  1.00  0.00     0.275 C 
BRANCH  61  62
ATOM     62  O   UNL     1       3.861  -0.371  -1.657  1.00  0.00    -0.458 OA
BRANCH  62  63
ATOM     63  C   UNL     1       2.803  -0.775  -2.408  1.00  0.00     0.338 C 
ATOM     64  O   UNL     1       2.281  -1.881  -2.418  1.00  0.00    -0.246 OA
BRANCH  63  65
ATOM     65  C   UNL     1       2.334   0.331  -3.262  1.00  0.00     0.060 A 
ATOM     66  C   UNL     1       1.207   1.067  -2.898  1.00  0.00     0.018 A 
ATOM     67  C   UNL     1       2.967   0.593  -4.478  1.00  0.00     0.018 A 
ATOM     68  C   UNL     1       0.743   2.094  -3.735  1.00  0.00     0.027 A 
ATOM     69  C   UNL     1       2.474   1.601  -5.328  1.00  0.00     0.027 A 
ATOM     70  C   UNL     1       1.355   2.362  -4.972  1.00  0.00     0.045 A 
BRANCH  70  71
ATOM     71  N   UNL     1       0.917   3.453  -5.787  1.00  0.00    -0.299 N 
ATOM     72  C   UNL     1       0.597   4.701  -5.186  1.00  0.00     0.259 C 
ATOM     73  C   UNL     1       0.066   3.267  -6.981  1.00  0.00     0.152 C 
ATOM     74  C   UNL     1      -0.162   5.524  -6.178  1.00  0.00     0.248 C 
ATOM     75  O   UNL     1       0.797   5.021  -4.030  1.00  0.00    -0.271 OA
ATOM     76  C   UNL     1      -0.925   4.344  -6.658  1.00  0.00     0.021 C 
ATOM     77  N   UNL     1      -1.185   6.398  -5.605  1.00  0.00    -0.170 NA
ATOM     78  C   UNL     1      -2.188   4.596  -6.304  1.00  0.00     0.097 C 
ATOM     79  N   UNL     1      -2.316   5.881  -5.801  1.00  0.00    -0.154 NA
BRANCH  73  80
ATOM     80  C   UNL     1       0.767   3.604  -8.325  1.00  0.00    -0.020 A 
ATOM     81  C   UNL     1       0.250   4.599  -9.196  1.00  0.00     0.006 A 
ATOM     82  C   UNL     1       1.935   2.955  -8.751  1.00  0.00     0.022 A 
ATOM     83  C   UNL     1       0.910   5.000 -10.360  1.00  0.00     0.002 A 
ATOM     84  C   UNL     1       2.582   3.340  -9.938  1.00  0.00     0.018 A 
ATOM     85  C   UNL     1       2.087   4.372 -10.731  1.00  0.00     0.016 A 
ATOM     86  Br  UNL     1       4.157   2.445 -10.486  1.00  0.00    -0.051 Br
ENDBRANCH  73  80
BRANCH  78  87
ATOM     87  C   UNL     1      -3.301   3.704  -5.980  1.00  0.00     0.002 A 
ATOM     88  C   UNL     1      -4.484   3.775  -6.722  1.00  0.00     0.010 A 
ATOM     89  C   UNL     1      -3.328   3.150  -4.689  1.00  0.00     0.010 A 
ATOM     90  C   UNL     1      -5.692   3.372  -6.146  1.00  0.00     0.001 A 
ATOM     91  C   UNL     1      -4.537   2.757  -4.115  1.00  0.00     0.001 A 
ATOM     92  C   UNL     1      -5.721   2.892  -4.835  1.00  0.00     0.000 A 
ENDBRANCH  78  87
ENDBRANCH  70  71
ENDBRANCH  63  65
ENDBRANCH  62  63
ENDBRANCH  61  62
ENDBRANCH   1  61
TORSDOF 14
