REMARK SMILES O=C(OCCOC(=O)c1cn(-c2ncnc3ccccc23)cn1)c1ccc(-c2c3nc(c(-c4c(F)cccc4F)c4ccc([nH]4)c(-c4c(F)cccc4F)c4nc(c(-c5c(F)cccc5F)c5ccc2[nH]5)C=C4)C=C3)cc1
REMARK SMILES IDX 4 1 3 2 2 3 1 4 24 5 25 6 77 7 26 8 76 9 27 10 28 11 29 12
REMARK SMILES IDX 70 13 30 14 75 15 69 16 71 17 31 18 74 19 68 20 67 21 32 23
REMARK SMILES IDX 58 24 41 25 57 26 42 27 45 28 56 29 72 30 43 31 44 32 55 34
REMARK SMILES IDX 73 35 46 36 33 37 34 38 39 39 35 40 36 41 38 42 40 43 37 44
REMARK SMILES IDX 59 45 60 46 65 47 61 48 62 49 64 50 66 51 63 52 47 53 48 54
REMARK SMILES IDX 53 55 49 56 50 57 52 58 54 59 51 60 5 61 6 62 7 63 8 64 9 65
REMARK SMILES IDX 10 66 23 67 11 68 22 69 12 70 13 71 21 72 14 73 16 74 20 75
REMARK SMILES IDX 15 76 17 77 19 78 18 79
REMARK H PARENT 71 22 45 33
REMARK Flexibility Score: inf
ROOT
ATOM      1  C   UNL     1       4.661  -0.933   0.724  1.00  0.00     0.275 C 
ENDROOT
BRANCH   1   2
ATOM      2  O   UNL     1       3.467  -0.580   1.457  1.00  0.00    -0.458 OA
BRANCH   2   3
ATOM      3  C   UNL     1       2.377  -0.160   0.774  1.00  0.00     0.338 C 
ATOM      4  O   UNL     1       1.552  -0.900   0.267  1.00  0.00    -0.246 OA
BRANCH   3   5
ATOM      5  C   UNL     1       2.220   1.307   0.900  1.00  0.00     0.060 A 
ATOM      6  C   UNL     1       3.332   2.154   0.999  1.00  0.00     0.016 A 
ATOM      7  C   UNL     1       0.927   1.839   0.907  1.00  0.00     0.016 A 
ATOM      8  C   UNL     1       3.154   3.513   1.199  1.00  0.00     0.010 A 
ATOM      9  C   UNL     1       0.747   3.203   1.098  1.00  0.00     0.010 A 
ATOM     10  C   UNL     1       1.860   4.028   1.288  1.00  0.00    -0.014 A 
BRANCH  10  11
ATOM     11  C   UNL     1       1.719   5.458   1.541  1.00  0.00     0.031 A 
ATOM     12  C   UNL     1       2.188   6.378   0.463  1.00  0.00     0.074 A 
ATOM     13  C   UNL     1       1.072   5.931   2.623  1.00  0.00     0.049 A 
ATOM     14  N   UNL     1       3.051   7.341   0.534  1.00  0.00    -0.248 NA
ATOM     15  C   UNL     1       1.654   6.160  -0.889  1.00  0.00     0.031 C 
ATOM     16  C   UNL     1       0.302   5.175   3.614  1.00  0.00     0.029 A 
ATOM     17  N   UNL     1       0.872   7.225   2.998  1.00  0.00    -0.354 N 
ATOM     18  C   UNL     1       3.057   7.955  -0.720  1.00  0.00     0.074 A 
ATOM     19  C   UNL     1       2.260   7.123  -1.584  1.00  0.00     0.031 C 
ATOM     20  C   UNL     1      -0.461   6.031   4.329  1.00  0.00     0.029 A 
ATOM     21  C   UNL     1      -0.132   7.391   3.939  1.00  0.00     0.049 A 
ATOM     22  H   UNL     1       1.395   7.976   2.634  1.00  0.00     0.167 HD
ATOM     23  C   UNL     1       3.568   9.203  -0.916  1.00  0.00     0.037 A 
ATOM     24  C   UNL     1      -0.703   8.561   4.315  1.00  0.00     0.037 A 
ATOM     25  C   UNL     1       4.458   9.589   0.144  1.00  0.00     0.049 A 
ATOM     26  C   UNL     1       0.209   9.662   3.923  1.00  0.00     0.074 A 
ATOM     27  C   UNL     1       5.644   9.096   0.650  1.00  0.00     0.029 A 
ATOM     28  N   UNL     1       4.008  10.489   1.078  1.00  0.00    -0.354 N 
ATOM     29  N   UNL     1       1.362   9.894   4.483  1.00  0.00    -0.248 NA
ATOM     30  C   UNL     1       0.018  10.268   2.613  1.00  0.00     0.031 C 
ATOM     31  C   UNL     1       5.571   9.332   2.054  1.00  0.00     0.029 A 
ATOM     32  C   UNL     1       4.365   9.989   2.302  1.00  0.00     0.049 A 
ATOM     33  H   UNL     1       3.525  11.328   0.902  1.00  0.00     0.167 HD
ATOM     34  C   UNL     1       2.184  10.298   3.442  1.00  0.00     0.074 A 
ATOM     35  C   UNL     1       1.279  10.611   2.340  1.00  0.00     0.031 C 
ATOM     36  C   UNL     1       3.531  10.075   3.476  1.00  0.00     0.037 A 
BRANCH  23  37
ATOM     37  C   UNL     1       3.019  10.213  -1.896  1.00  0.00     0.057 A 
ATOM     38  C   UNL     1       3.722  11.413  -2.125  1.00  0.00     0.134 A 
ATOM     39  C   UNL     1       1.695  10.195  -2.377  1.00  0.00     0.134 A 
ATOM     40  F   UNL     1       4.989  11.560  -1.708  1.00  0.00    -0.206 F 
ATOM     41  C   UNL     1       3.123  12.536  -2.710  1.00  0.00     0.040 A 
ATOM     42  C   UNL     1       1.104  11.295  -3.007  1.00  0.00     0.040 A 
ATOM     43  F   UNL     1       0.876   9.156  -2.176  1.00  0.00    -0.206 F 
ATOM     44  C   UNL     1       1.805  12.482  -3.143  1.00  0.00     0.006 A 
ENDBRANCH  23  37
BRANCH  24  45
ATOM     45  C   UNL     1      -2.103   8.800   4.726  1.00  0.00     0.057 A 
ATOM     46  C   UNL     1      -2.471   9.961   5.417  1.00  0.00     0.134 A 
ATOM     47  C   UNL     1      -3.159   8.018   4.222  1.00  0.00     0.134 A 
ATOM     48  F   UNL     1      -1.536  10.794   5.894  1.00  0.00    -0.206 F 
ATOM     49  C   UNL     1      -3.812  10.332   5.585  1.00  0.00     0.040 A 
ATOM     50  C   UNL     1      -4.500   8.371   4.391  1.00  0.00     0.040 A 
ATOM     51  F   UNL     1      -2.921   6.932   3.472  1.00  0.00    -0.206 F 
ATOM     52  C   UNL     1      -4.831   9.540   5.063  1.00  0.00     0.006 A 
ENDBRANCH  24  45
BRANCH  36  53
ATOM     53  C   UNL     1       4.137   9.609   4.769  1.00  0.00     0.057 A 
ATOM     54  C   UNL     1       3.822   8.386   5.380  1.00  0.00     0.134 A 
ATOM     55  C   UNL     1       5.189  10.343   5.327  1.00  0.00     0.134 A 
ATOM     56  F   UNL     1       2.906   7.564   4.856  1.00  0.00    -0.206 F 
ATOM     57  C   UNL     1       4.491   7.939   6.523  1.00  0.00     0.040 A 
ATOM     58  C   UNL     1       5.888   9.891   6.449  1.00  0.00     0.040 A 
ATOM     59  F   UNL     1       5.589  11.492   4.759  1.00  0.00    -0.206 F 
ATOM     60  C   UNL     1       5.532   8.690   7.058  1.00  0.00     0.006 A 
ENDBRANCH  36  53
ENDBRANCH  10  11
ENDBRANCH   3   5
ENDBRANCH   2   3
ENDBRANCH   1   2
BRANCH   1  61
ATOM     61  C   UNL     1       4.490  -1.294  -0.749  1.00  0.00     0.275 C 
BRANCH  61  62
ATOM     62  O   UNL     1       4.028  -0.131  -1.447  1.00  0.00    -0.457 OA
BRANCH  62  63
ATOM     63  C   UNL     1       3.077  -0.345  -2.398  1.00  0.00     0.358 C 
ATOM     64  O   UNL     1       2.733  -1.442  -2.826  1.00  0.00    -0.244 OA
BRANCH  63  65
ATOM     65  C   UNL     1       2.606   0.913  -2.945  1.00  0.00     0.166 A 
ATOM     66  C   UNL     1       2.961   1.410  -4.178  1.00  0.00     0.130 A 
ATOM     67  N   UNL     1       1.794   1.820  -2.286  1.00  0.00    -0.229 NA
ATOM     68  N   UNL     1       2.309   2.611  -4.295  1.00  0.00    -0.289 N 
ATOM     69  C   UNL     1       1.657   2.834  -3.113  1.00  0.00     0.206 A 
BRANCH  68  70
ATOM     70  C   UNL     1       2.322   3.456  -5.420  1.00  0.00     0.149 A 
ATOM     71  N   UNL     1       2.700   4.735  -5.206  1.00  0.00    -0.218 NA
ATOM     72  C   UNL     1       2.011   2.910  -6.677  1.00  0.00     0.044 A 
ATOM     73  C   UNL     1       2.891   5.454  -6.315  1.00  0.00     0.224 A 
ATOM     74  C   UNL     1       2.227   3.786  -7.744  1.00  0.00     0.076 A 
ATOM     75  C   UNL     1       1.454   1.622  -6.923  1.00  0.00     0.014 A 
ATOM     76  N   UNL     1       2.688   5.034  -7.573  1.00  0.00    -0.236 NA
ATOM     77  C   UNL     1       1.933   3.338  -9.027  1.00  0.00     0.029 A 
ATOM     78  C   UNL     1       1.150   1.208  -8.213  1.00  0.00     0.001 A 
ATOM     79  C   UNL     1       1.399   2.067  -9.271  1.00  0.00     0.002 A 
ENDBRANCH  68  70
ENDBRANCH  63  65
ENDBRANCH  62  63
ENDBRANCH  61  62
ENDBRANCH   1  61
TORSDOF 12
