REMARK SMILES CC[C@H](C)CN(CC)c1nc(C(=O)OCCOC(=O)c2ccc(-c3c4nc(c(-c5c(F)cccc5F)c5ccc([nH]5)c(-c5c(F)cccc5F)c5nc(c(-c6c(F)cccc6F)c6ccc3[nH]6)C=C5)C=C4)cc2)cc2ccccc12
REMARK SMILES IDX 15 1 14 2 12 3 13 4 11 5 9 6 10 7 80 8 75 9 79 10 74 11
REMARK SMILES IDX 76 12 78 13 77 14 6 15 5 16 3 17 4 18 2 19 1 20 7 21 8 22
REMARK SMILES IDX 16 23 17 24 18 25 19 26 20 27 21 28 73 29 22 30 72 31 23 32
REMARK SMILES IDX 24 33 25 34 66 35 26 36 71 37 65 38 67 39 27 40 70 41 64 42
REMARK SMILES IDX 63 43 28 45 54 46 37 47 53 48 38 49 41 50 52 51 68 52 39 53
REMARK SMILES IDX 40 54 51 56 69 57 42 58 29 59 30 60 35 61 31 62 32 63 34 64
REMARK SMILES IDX 36 65 33 66 55 67 56 68 61 69 57 70 58 71 60 72 62 73 59 74
REMARK SMILES IDX 43 75 44 76 49 77 45 78 46 79 48 80 50 81 47 82
REMARK H PARENT 67 44 41 55
REMARK Flexibility Score: inf
ROOT
ATOM      1  C   UNL     1      -1.445  -8.258   2.295  1.00  0.00     0.275 C 
ENDROOT
BRANCH   1   2
ATOM      2  O   UNL     1      -1.011  -6.885   2.197  1.00  0.00    -0.457 OA
BRANCH   2   3
ATOM      3  C   UNL     1      -0.209  -6.624   1.135  1.00  0.00     0.357 C 
ATOM      4  O   UNL     1       0.137  -7.433   0.282  1.00  0.00    -0.244 OA
BRANCH   3   5
ATOM      5  C   UNL     1       0.189  -5.195   1.043  1.00  0.00     0.151 A 
ATOM      6  C   UNL     1       1.255  -3.386   2.001  1.00  0.00     0.137 A 
ATOM      7  N   UNL     1       0.620  -4.572   2.159  1.00  0.00    -0.223 NA
ATOM      8  C   UNL     1       1.543  -2.843   0.716  1.00  0.00     0.024 A 
ATOM      9  C   UNL     1       0.916  -3.431  -0.394  1.00  0.00    -0.012 A 
ATOM     10  C   UNL     1       2.398  -1.744   0.463  1.00  0.00     0.012 A 
ATOM     11  C   UNL     1       0.245  -4.630  -0.219  1.00  0.00     0.045 A 
ATOM     12  C   UNL     1       0.988  -2.836  -1.663  1.00  0.00     0.009 A 
ATOM     13  C   UNL     1       2.509  -1.181  -0.812  1.00  0.00     0.001 A 
ATOM     14  C   UNL     1       1.768  -1.702  -1.866  1.00  0.00     0.001 A 
BRANCH   6  15
ATOM     15  N   UNL     1       1.525  -2.633   3.155  1.00  0.00    -0.356 N 
BRANCH  15  16
ATOM     16  C   UNL     1       0.435  -1.709   3.554  1.00  0.00     0.121 C 
BRANCH  16  17
ATOM     17  C   UNL     1       0.410  -0.378   2.763  1.00  0.00     0.005 C 
ATOM     18  C   UNL     1      -0.455  -0.438   1.490  1.00  0.00     0.009 C 
BRANCH  17  19
ATOM     19  C   UNL     1      -0.041   0.813   3.636  1.00  0.00     0.002 C 
ATOM     20  C   UNL     1      -1.420   0.656   4.265  1.00  0.00     0.004 C 
ENDBRANCH  17  19
ENDBRANCH  16  17
ENDBRANCH  15  16
BRANCH  15  21
ATOM     21  C   UNL     1       2.210  -3.359   4.235  1.00  0.00     0.114 C 
ATOM     22  C   UNL     1       1.323  -4.312   5.031  1.00  0.00     0.027 C 
ENDBRANCH  15  21
ENDBRANCH   6  15
ENDBRANCH   3   5
ENDBRANCH   2   3
ENDBRANCH   1   2
BRANCH   1  23
ATOM     23  C   UNL     1      -2.831  -8.457   1.678  1.00  0.00     0.275 C 
BRANCH  23  24
ATOM     24  O   UNL     1      -2.812  -8.136   0.273  1.00  0.00    -0.458 OA
BRANCH  24  25
ATOM     25  C   UNL     1      -3.687  -7.192  -0.130  1.00  0.00     0.338 C 
ATOM     26  O   UNL     1      -4.532  -6.621   0.556  1.00  0.00    -0.246 OA
BRANCH  25  27
ATOM     27  C   UNL     1      -3.494  -6.862  -1.554  1.00  0.00     0.060 A 
ATOM     28  C   UNL     1      -2.221  -6.572  -2.031  1.00  0.00     0.016 A 
ATOM     29  C   UNL     1      -4.596  -6.669  -2.385  1.00  0.00     0.016 A 
ATOM     30  C   UNL     1      -2.059  -5.934  -3.261  1.00  0.00     0.010 A 
ATOM     31  C   UNL     1      -4.413  -6.171  -3.683  1.00  0.00     0.010 A 
ATOM     32  C   UNL     1      -3.148  -5.741  -4.123  1.00  0.00    -0.014 A 
BRANCH  32  33
ATOM     33  C   UNL     1      -2.973  -5.069  -5.450  1.00  0.00     0.031 A 
ATOM     34  C   UNL     1      -3.856  -3.908  -5.847  1.00  0.00     0.074 A 
ATOM     35  C   UNL     1      -2.016  -5.474  -6.313  1.00  0.00     0.049 A 
ATOM     36  N   UNL     1      -4.016  -3.352  -7.023  1.00  0.00    -0.248 NA
ATOM     37  C   UNL     1      -4.680  -3.304  -4.788  1.00  0.00     0.031 C 
ATOM     38  C   UNL     1      -1.049  -6.547  -6.074  1.00  0.00     0.029 A 
ATOM     39  N   UNL     1      -1.690  -5.018  -7.569  1.00  0.00    -0.354 N 
ATOM     40  C   UNL     1      -5.014  -2.396  -6.862  1.00  0.00     0.074 A 
ATOM     41  C   UNL     1      -5.414  -2.437  -5.472  1.00  0.00     0.031 C 
ATOM     42  C   UNL     1      -0.201  -6.620  -7.109  1.00  0.00     0.029 A 
ATOM     43  C   UNL     1      -0.635  -5.688  -8.142  1.00  0.00     0.049 A 
ATOM     44  H   UNL     1      -2.167  -4.282  -8.016  1.00  0.00     0.167 HD
ATOM     45  C   UNL     1      -5.551  -1.565  -7.788  1.00  0.00     0.037 A 
ATOM     46  C   UNL     1      -0.102  -5.614  -9.376  1.00  0.00     0.037 A 
ATOM     47  C   UNL     1      -5.098  -1.462  -9.152  1.00  0.00     0.049 A 
ATOM     48  C   UNL     1      -0.719  -4.698 -10.390  1.00  0.00     0.074 A 
ATOM     49  C   UNL     1      -5.569  -0.637 -10.160  1.00  0.00     0.029 A 
ATOM     50  N   UNL     1      -4.048  -2.189  -9.692  1.00  0.00    -0.354 N 
ATOM     51  N   UNL     1      -1.726  -3.871 -10.250  1.00  0.00    -0.248 NA
ATOM     52  C   UNL     1      -0.150  -4.731 -11.745  1.00  0.00     0.031 C 
ATOM     53  C   UNL     1      -4.822  -0.883 -11.317  1.00  0.00     0.029 A 
ATOM     54  C   UNL     1      -3.862  -1.837 -11.019  1.00  0.00     0.049 A 
ATOM     55  H   UNL     1      -3.515  -2.858  -9.205  1.00  0.00     0.167 HD
ATOM     56  C   UNL     1      -1.913  -3.288 -11.495  1.00  0.00     0.074 A 
ATOM     57  C   UNL     1      -0.897  -3.835 -12.372  1.00  0.00     0.031 C 
ATOM     58  C   UNL     1      -2.850  -2.389 -11.880  1.00  0.00     0.037 A 
BRANCH  45  59
ATOM     59  C   UNL     1      -6.718  -0.717  -7.372  1.00  0.00     0.057 A 
ATOM     60  C   UNL     1      -6.574   0.410  -6.554  1.00  0.00     0.134 A 
ATOM     61  C   UNL     1      -8.006  -1.014  -7.840  1.00  0.00     0.134 A 
ATOM     62  F   UNL     1      -5.371   0.742  -6.063  1.00  0.00    -0.206 F 
ATOM     63  C   UNL     1      -7.670   1.200  -6.200  1.00  0.00     0.040 A 
ATOM     64  C   UNL     1      -9.106  -0.219  -7.513  1.00  0.00     0.040 A 
ATOM     65  F   UNL     1      -8.214  -2.074  -8.636  1.00  0.00    -0.206 F 
ATOM     66  C   UNL     1      -8.940   0.889  -6.686  1.00  0.00     0.006 A 
ENDBRANCH  45  59
BRANCH  46  67
ATOM     67  C   UNL     1       1.046  -6.484  -9.738  1.00  0.00     0.057 A 
ATOM     68  C   UNL     1       2.319  -5.945  -9.955  1.00  0.00     0.134 A 
ATOM     69  C   UNL     1       0.903  -7.872  -9.857  1.00  0.00     0.134 A 
ATOM     70  F   UNL     1       2.513  -4.620  -9.883  1.00  0.00    -0.206 F 
ATOM     71  C   UNL     1       3.409  -6.756 -10.276  1.00  0.00     0.040 A 
ATOM     72  C   UNL     1       1.989  -8.697 -10.148  1.00  0.00     0.040 A 
ATOM     73  F   UNL     1      -0.292  -8.448  -9.661  1.00  0.00    -0.206 F 
ATOM     74  C   UNL     1       3.247  -8.138 -10.362  1.00  0.00     0.006 A 
ENDBRANCH  46  67
BRANCH  58  75
ATOM     75  C   UNL     1      -2.804  -1.931 -13.305  1.00  0.00     0.057 A 
ATOM     76  C   UNL     1      -3.251  -2.745 -14.353  1.00  0.00     0.134 A 
ATOM     77  C   UNL     1      -2.321  -0.657 -13.631  1.00  0.00     0.134 A 
ATOM     78  F   UNL     1      -3.709  -3.981 -14.105  1.00  0.00    -0.206 F 
ATOM     79  C   UNL     1      -3.201  -2.315 -15.680  1.00  0.00     0.040 A 
ATOM     80  C   UNL     1      -2.285  -0.209 -14.952  1.00  0.00     0.040 A 
ATOM     81  F   UNL     1      -1.882   0.171 -12.671  1.00  0.00    -0.206 F 
ATOM     82  C   UNL     1      -2.721  -1.042 -15.981  1.00  0.00     0.006 A 
ENDBRANCH  58  75
ENDBRANCH  32  33
ENDBRANCH  25  27
ENDBRANCH  24  25
ENDBRANCH  23  24
ENDBRANCH   1  23
TORSDOF 16
