REMARK SMILES O=C(COCC(=O)OCCOC(=O)c1ccc(-c2c3nc(c(-c4c(F)cccc4F)c4ccc([nH]4)c(-c4c(F)cccc4F)c4nc(c(-c5c(F)cccc5F)c5ccc2[nH]5)C=C4)C=C3)cc1)Nc1cccc([N+](=O)[O-])c1
REMARK SMILES IDX 8 1 6 2 7 3 5 4 4 5 3 6 2 7 1 8 68 9 69 11 70 12 77 13 71 14
REMARK SMILES IDX 73 15 72 16 74 17 75 18 76 19 9 20 10 21 11 22 12 23 13 24
REMARK SMILES IDX 14 25 15 26 67 27 16 28 66 29 17 30 18 31 19 32 60 33 20 34
REMARK SMILES IDX 65 35 59 36 61 37 21 38 64 39 58 40 57 41 22 43 48 44 31 45
REMARK SMILES IDX 47 46 32 47 35 48 46 49 62 50 33 51 34 52 45 54 63 55 36 56
REMARK SMILES IDX 23 57 24 58 29 59 25 60 26 61 28 62 30 63 27 64 49 65 50 66
REMARK SMILES IDX 55 67 51 68 52 69 54 70 56 71 53 72 37 73 38 74 43 75 39 76
REMARK SMILES IDX 40 77 42 78 44 79 41 80
REMARK H PARENT 68 10 61 42 35 53
REMARK Flexibility Score: inf
ROOT
ATOM      1  O   UNL     1       2.693  -1.010  -3.967  1.00  0.00    -0.460 OA
ENDROOT
BRANCH   1   2
ATOM      2  C   UNL     1       2.616   0.311  -3.667  1.00  0.00     0.332 C 
ATOM      3  O   UNL     1       1.781   1.089  -4.118  1.00  0.00    -0.250 OA
BRANCH   2   4
ATOM      4  C   UNL     1       3.720   0.784  -2.712  1.00  0.00     0.283 C 
BRANCH   4   5
ATOM      5  O   UNL     1       4.521  -0.043  -1.893  1.00  0.00    -0.360 OA
BRANCH   5   6
ATOM      6  C   UNL     1       3.833  -0.888  -0.983  1.00  0.00     0.261 C 
BRANCH   6   7
ATOM      7  C   UNL     1       3.189  -0.276   0.277  1.00  0.00     0.250 C 
ATOM      8  O   UNL     1       2.400  -0.925   0.956  1.00  0.00    -0.272 OA
ATOM      9  N   UNL     1       3.575   1.031   0.517  1.00  0.00    -0.324 N 
ATOM     10  H   UNL     1       4.258   1.404  -0.086  1.00  0.00     0.170 HD
BRANCH   9  11
ATOM     11  C   UNL     1       3.098   1.888   1.531  1.00  0.00     0.048 A 
ATOM     12  C   UNL     1       3.437   3.245   1.432  1.00  0.00     0.026 A 
ATOM     13  C   UNL     1       2.317   1.461   2.609  1.00  0.00     0.111 A 
ATOM     14  C   UNL     1       2.983   4.172   2.376  1.00  0.00     0.009 A 
ATOM     15  C   UNL     1       1.898   2.389   3.575  1.00  0.00     0.271 A 
ATOM     16  C   UNL     1       2.211   3.747   3.453  1.00  0.00     0.086 A 
BRANCH  15  17
ATOM     17  N   UNL     1       1.175   1.926   4.765  1.00  0.00     0.062 N 
ATOM     18  O   UNL     1       0.941   2.763   5.645  1.00  0.00    -0.258 OA
ATOM     19  O   UNL     1       0.883   0.723   4.832  1.00  0.00    -0.258 OA
ENDBRANCH  15  17
ENDBRANCH   9  11
ENDBRANCH   6   7
ENDBRANCH   5   6
ENDBRANCH   4   5
ENDBRANCH   2   4
ENDBRANCH   1   2
BRANCH   1  20
ATOM     20  C   UNL     1       1.718  -1.479  -4.920  1.00  0.00     0.274 C 
BRANCH  20  21
ATOM     21  C   UNL     1       0.501  -2.111  -4.242  1.00  0.00     0.275 C 
BRANCH  21  22
ATOM     22  O   UNL     1      -0.155  -1.175  -3.366  1.00  0.00    -0.458 OA
BRANCH  22  23
ATOM     23  C   UNL     1      -0.031  -1.442  -2.046  1.00  0.00     0.338 C 
ATOM     24  O   UNL     1       0.553  -2.381  -1.536  1.00  0.00    -0.246 OA
BRANCH  23  25
ATOM     25  C   UNL     1      -0.655  -0.369  -1.259  1.00  0.00     0.060 A 
ATOM     26  C   UNL     1       0.107   0.751  -0.932  1.00  0.00     0.016 A 
ATOM     27  C   UNL     1      -1.938  -0.529  -0.733  1.00  0.00     0.016 A 
ATOM     28  C   UNL     1      -0.387   1.689  -0.030  1.00  0.00     0.010 A 
ATOM     29  C   UNL     1      -2.454   0.443   0.134  1.00  0.00     0.010 A 
ATOM     30  C   UNL     1      -1.670   1.543   0.519  1.00  0.00    -0.014 A 
BRANCH  30  31
ATOM     31  C   UNL     1      -2.155   2.558   1.490  1.00  0.00     0.031 A 
ATOM     32  C   UNL     1      -2.329   2.221   2.946  1.00  0.00     0.074 A 
ATOM     33  C   UNL     1      -2.386   3.815   1.063  1.00  0.00     0.049 A 
ATOM     34  N   UNL     1      -2.616   3.020   3.944  1.00  0.00    -0.248 NA
ATOM     35  C   UNL     1      -2.150   0.815   3.337  1.00  0.00     0.031 C 
ATOM     36  C   UNL     1      -2.269   4.269  -0.324  1.00  0.00     0.029 A 
ATOM     37  N   UNL     1      -2.753   4.942   1.753  1.00  0.00    -0.354 N 
ATOM     38  C   UNL     1      -2.655   2.216   5.078  1.00  0.00     0.074 A 
ATOM     39  C   UNL     1      -2.389   0.863   4.642  1.00  0.00     0.031 C 
ATOM     40  C   UNL     1      -2.532   5.584  -0.379  1.00  0.00     0.029 A 
ATOM     41  C   UNL     1      -2.865   6.059   0.961  1.00  0.00     0.049 A 
ATOM     42  H   UNL     1      -2.921   4.951   2.723  1.00  0.00     0.167 HD
ATOM     43  C   UNL     1      -2.869   2.575   6.367  1.00  0.00     0.037 A 
ATOM     44  C   UNL     1      -3.202   7.323   1.274  1.00  0.00     0.037 A 
ATOM     45  C   UNL     1      -3.105   3.924   6.811  1.00  0.00     0.049 A 
ATOM     46  C   UNL     1      -3.503   7.677   2.700  1.00  0.00     0.074 A 
ATOM     47  C   UNL     1      -3.208   4.402   8.106  1.00  0.00     0.029 A 
ATOM     48  N   UNL     1      -3.296   5.006   5.968  1.00  0.00    -0.354 N 
ATOM     49  N   UNL     1      -3.423   6.926   3.770  1.00  0.00    -0.248 NA
ATOM     50  C   UNL     1      -3.947   9.054   2.960  1.00  0.00     0.031 C 
ATOM     51  C   UNL     1      -3.510   5.769   8.045  1.00  0.00     0.029 A 
ATOM     52  C   UNL     1      -3.571   6.143   6.713  1.00  0.00     0.049 A 
ATOM     53  H   UNL     1      -3.244   4.974   4.986  1.00  0.00     0.167 HD
ATOM     54  C   UNL     1      -3.790   7.740   4.833  1.00  0.00     0.074 A 
ATOM     55  C   UNL     1      -4.082   9.047   4.279  1.00  0.00     0.031 C 
ATOM     56  C   UNL     1      -3.874   7.432   6.150  1.00  0.00     0.037 A 
BRANCH  43  57
ATOM     57  C   UNL     1      -2.868   1.488   7.400  1.00  0.00     0.057 A 
ATOM     58  C   UNL     1      -1.681   0.990   7.949  1.00  0.00     0.134 A 
ATOM     59  C   UNL     1      -4.072   0.970   7.889  1.00  0.00     0.134 A 
ATOM     60  F   UNL     1      -0.493   1.456   7.547  1.00  0.00    -0.206 F 
ATOM     61  C   UNL     1      -1.688  -0.001   8.933  1.00  0.00     0.040 A 
ATOM     62  C   UNL     1      -4.093  -0.010   8.885  1.00  0.00     0.040 A 
ATOM     63  F   UNL     1      -5.246   1.412   7.414  1.00  0.00    -0.206 F 
ATOM     64  C   UNL     1      -2.898  -0.501   9.407  1.00  0.00     0.006 A 
ENDBRANCH  43  57
BRANCH  44  65
ATOM     65  C   UNL     1      -3.272   8.353   0.210  1.00  0.00     0.057 A 
ATOM     66  C   UNL     1      -2.309   9.363   0.117  1.00  0.00     0.134 A 
ATOM     67  C   UNL     1      -4.304   8.350  -0.736  1.00  0.00     0.134 A 
ATOM     68  F   UNL     1      -1.309   9.427   1.008  1.00  0.00    -0.206 F 
ATOM     69  C   UNL     1      -2.373  10.340  -0.877  1.00  0.00     0.040 A 
ATOM     70  C   UNL     1      -4.369   9.309  -1.747  1.00  0.00     0.040 A 
ATOM     71  F   UNL     1      -5.256   7.407  -0.695  1.00  0.00    -0.206 F 
ATOM     72  C   UNL     1      -3.403  10.310  -1.817  1.00  0.00     0.006 A 
ENDBRANCH  44  65
BRANCH  56  73
ATOM     73  C   UNL     1      -4.296   8.533   7.073  1.00  0.00     0.057 A 
ATOM     74  C   UNL     1      -5.631   8.949   7.151  1.00  0.00     0.134 A 
ATOM     75  C   UNL     1      -3.362   9.188   7.885  1.00  0.00     0.134 A 
ATOM     76  F   UNL     1      -6.568   8.375   6.382  1.00  0.00    -0.206 F 
ATOM     77  C   UNL     1      -6.019   9.994   7.991  1.00  0.00     0.040 A 
ATOM     78  C   UNL     1      -3.742  10.221   8.743  1.00  0.00     0.040 A 
ATOM     79  F   UNL     1      -2.068   8.836   7.855  1.00  0.00    -0.206 F 
ATOM     80  C   UNL     1      -5.073  10.631   8.793  1.00  0.00     0.006 A 
ENDBRANCH  56  73
ENDBRANCH  30  31
ENDBRANCH  23  25
ENDBRANCH  22  23
ENDBRANCH  21  22
ENDBRANCH  20  21
ENDBRANCH   1  20
TORSDOF 16
