REMARK SMILES Cc1ccccc1/C=C1\SC(=O)N(CC(=O)Nc2ccccc2C(=O)OCCOC(=O)c2ccc(-c3c4nc(c(-c5c(F)cccc5F)c5ccc([nH]5)c(-c5c(F)cccc5F)c5nc(c(-c6c(F)cccc6F)c6ccc3[nH]6)C=C5)C=C4)cc2)C1=O
REMARK SMILES IDX 27 1 26 2 24 3 25 4 23 5 18 6 19 7 20 8 22 9 21 10 17 11
REMARK SMILES IDX 15 12 16 13 14 15 13 16 8 17 9 18 10 19 86 20 11 21 87 22
REMARK SMILES IDX 12 23 7 24 1 25 2 26 3 27 4 28 6 29 5 30 28 31 29 32 30 33
REMARK SMILES IDX 31 34 32 35 33 36 85 37 34 38 84 39 35 40 36 41 37 42 78 43
REMARK SMILES IDX 38 44 83 45 77 46 79 47 39 48 82 49 76 50 75 51 40 53 66 54
REMARK SMILES IDX 49 55 65 56 50 57 53 58 64 59 80 60 51 61 52 62 63 64 81 65
REMARK SMILES IDX 54 66 41 67 42 68 47 69 43 70 44 71 46 72 48 73 45 74 67 75
REMARK SMILES IDX 68 76 73 77 69 78 70 79 72 80 74 81 71 82 55 83 56 84 61 85
REMARK SMILES IDX 57 86 58 87 60 88 62 89 59 90
REMARK H PARENT 17 14 79 52 53 63
REMARK Flexibility Score: inf
ROOT
ATOM      1  C   UNL     1       4.781   2.059  -0.352  1.00  0.00     0.275 C 
ENDROOT
BRANCH   1   2
ATOM      2  O   UNL     1       3.168   2.355  -1.599  1.00  0.00    -0.458 OA
BRANCH   2   3
ATOM      3  C   UNL     1       2.376   3.351  -2.554  1.00  0.00     0.340 C 
ATOM      4  O   UNL     1       1.769   3.803  -1.530  1.00  0.00    -0.246 OA
BRANCH   3   5
ATOM      5  C   UNL     1       2.187   4.030  -4.596  1.00  0.00     0.083 A 
ATOM      6  C   UNL     1       2.611   5.658  -5.065  1.00  0.00     0.055 A 
ATOM      7  C   UNL     1       2.415   6.175  -6.356  1.00  0.00     0.027 A 
ATOM      8  C   UNL     1       1.921   5.341  -7.356  1.00  0.00     0.002 A 
ATOM      9  C   UNL     1       1.699   3.389  -5.838  1.00  0.00     0.018 A 
ATOM     10  C   UNL     1       1.590   4.006  -7.109  1.00  0.00     0.001 A 
BRANCH   6  11
ATOM     11  N   UNL     1       3.344   6.825  -4.042  1.00  0.00    -0.324 N 
ATOM     12  C   UNL     1       4.063   6.817  -2.625  1.00  0.00     0.244 C 
ATOM     13  O   UNL     1       4.424   7.955  -2.266  1.00  0.00    -0.273 OA
ATOM     14  H   UNL     1       3.310   7.729  -4.431  1.00  0.00     0.170 HD
BRANCH  12  15
ATOM     15  C   UNL     1       4.782   5.345  -1.640  1.00  0.00     0.230 C 
BRANCH  15  16
ATOM     16  N   UNL     1       4.401   3.611  -1.411  1.00  0.00    -0.259 N 
ATOM     17  C   UNL     1       1.388   1.443   0.814  1.00  0.00     0.029 C 
ATOM     18  C   UNL     1       2.533   1.781   0.174  1.00  0.00     0.083 C 
ATOM     19  S   UNL     1       3.314   0.321  -1.262  1.00  0.00    -0.022 SA
ATOM     20  C   UNL     1       3.295   3.543  -0.012  1.00  0.00     0.268 C 
ATOM     21  C   UNL     1       4.704   1.892  -2.236  1.00  0.00     0.294 C 
ATOM     22  O   UNL     1       3.156   4.454   0.798  1.00  0.00    -0.268 OA
ATOM     23  O   UNL     1       5.509   1.272  -2.921  1.00  0.00    -0.261 OA
BRANCH  17  24
ATOM     24  C   UNL     1       0.607   0.177   0.649  1.00  0.00    -0.021 A 
ATOM     25  C   UNL     1       2.444  -1.401   1.464  1.00  0.00     0.045 C 
ATOM     26  C   UNL     1       1.091  -1.121   0.881  1.00  0.00    -0.044 A 
ATOM     27  C   UNL     1       0.292  -2.244   0.550  1.00  0.00     0.004 A 
ATOM     28  C   UNL     1      -1.011  -2.103   0.081  1.00  0.00     0.000 A 
ATOM     29  C   UNL     1      -0.728   0.278   0.217  1.00  0.00     0.008 A 
ATOM     30  C   UNL     1      -1.536  -0.832  -0.054  1.00  0.00     0.001 A 
ENDBRANCH  17  24
ENDBRANCH  15  16
ENDBRANCH  12  15
ENDBRANCH   6  11
ENDBRANCH   3   5
ENDBRANCH   2   3
ENDBRANCH   1   2
BRANCH   1  31
ATOM     31  C   UNL     1       6.387   2.764  -1.024  1.00  0.00     0.275 C 
BRANCH  31  32
ATOM     32  O   UNL     1       6.484   3.315  -2.649  1.00  0.00    -0.458 OA
BRANCH  32  33
ATOM     33  C   UNL     1       5.755   3.317  -3.919  1.00  0.00     0.338 C 
ATOM     34  O   UNL     1       6.329   3.681  -4.940  1.00  0.00    -0.246 OA
BRANCH  33  35
ATOM     35  C   UNL     1       4.115   3.208  -3.987  1.00  0.00     0.060 A 
ATOM     36  C   UNL     1       3.576   4.686  -3.372  1.00  0.00     0.016 A 
ATOM     37  C   UNL     1       2.874   1.961  -4.113  1.00  0.00     0.016 A 
ATOM     38  C   UNL     1       1.779   5.205  -3.004  1.00  0.00     0.010 A 
ATOM     39  C   UNL     1       1.127   2.274  -3.716  1.00  0.00     0.010 A 
ATOM     40  C   UNL     1       0.504   3.919  -3.237  1.00  0.00    -0.014 A 
BRANCH  40  41
ATOM     41  C   UNL     1      -0.751   3.847  -2.400  1.00  0.00     0.031 A 
ATOM     42  C   UNL     1      -1.823   2.928  -2.872  1.00  0.00     0.074 A 
ATOM     43  C   UNL     1      -0.791   4.252  -1.088  1.00  0.00     0.049 A 
ATOM     44  N   UNL     1      -2.868   2.638  -2.183  1.00  0.00    -0.248 NA
ATOM     45  C   UNL     1      -1.843   2.260  -4.171  1.00  0.00     0.031 C 
ATOM     46  C   UNL     1      -1.581   3.641  -0.011  1.00  0.00     0.029 A 
ATOM     47  N   UNL     1      -0.017   5.180  -0.374  1.00  0.00    -0.354 N 
ATOM     48  C   UNL     1      -3.535   1.599  -2.768  1.00  0.00     0.074 A 
ATOM     49  C   UNL     1      -2.883   1.427  -4.038  1.00  0.00     0.031 C 
ATOM     50  C   UNL     1      -1.279   4.166   1.183  1.00  0.00     0.029 A 
ATOM     51  C   UNL     1      -0.515   5.359   0.938  1.00  0.00     0.049 A 
ATOM     52  H   UNL     1       0.770   5.646  -0.739  1.00  0.00     0.167 HD
ATOM     53  C   UNL     1      -4.521   0.997  -2.046  1.00  0.00     0.037 A 
ATOM     54  C   UNL     1      -0.986   6.577   1.345  1.00  0.00     0.037 A 
ATOM     55  C   UNL     1      -4.899   1.840  -0.891  1.00  0.00     0.049 A 
ATOM     56  C   UNL     1      -2.484   6.719   1.180  1.00  0.00     0.074 A 
ATOM     57  C   UNL     1      -4.833   1.718   0.486  1.00  0.00     0.029 A 
ATOM     58  N   UNL     1      -5.209   3.187  -1.130  1.00  0.00    -0.354 N 
ATOM     59  N   UNL     1      -3.306   5.721   0.987  1.00  0.00    -0.248 NA
ATOM     60  C   UNL     1      -3.181   8.001   1.179  1.00  0.00     0.031 C 
ATOM     61  C   UNL     1      -4.985   3.024   1.053  1.00  0.00     0.029 A 
ATOM     62  C   UNL     1      -5.204   3.938   0.034  1.00  0.00     0.049 A 
ATOM     63  H   UNL     1      -5.408   3.555  -2.021  1.00  0.00     0.167 HD
ATOM     64  C   UNL     1      -4.520   6.195   0.581  1.00  0.00     0.074 A 
ATOM     65  C   UNL     1      -4.427   7.620   0.847  1.00  0.00     0.031 C 
ATOM     66  C   UNL     1      -5.454   5.387  -0.015  1.00  0.00     0.037 A 
BRANCH  53  67
ATOM     67  C   UNL     1      -5.084  -0.388  -2.322  1.00  0.00     0.057 A 
ATOM     68  C   UNL     1      -6.141  -0.901  -1.544  1.00  0.00     0.134 A 
ATOM     69  C   UNL     1      -4.569  -1.313  -3.258  1.00  0.00     0.134 A 
ATOM     70  F   UNL     1      -6.722  -0.166  -0.586  1.00  0.00    -0.206 F 
ATOM     71  C   UNL     1      -6.641  -2.207  -1.690  1.00  0.00     0.040 A 
ATOM     72  C   UNL     1      -5.092  -2.603  -3.447  1.00  0.00     0.040 A 
ATOM     73  F   UNL     1      -3.493  -1.054  -4.006  1.00  0.00    -0.206 F 
ATOM     74  C   UNL     1      -6.127  -3.061  -2.653  1.00  0.00     0.006 A 
ENDBRANCH  53  67
BRANCH  54  75
ATOM     75  C   UNL     1       0.051   7.620   1.171  1.00  0.00     0.057 A 
ATOM     76  C   UNL     1       1.101   7.578   2.106  1.00  0.00     0.134 A 
ATOM     77  C   UNL     1       0.332   8.106  -0.108  1.00  0.00     0.134 A 
ATOM     78  F   UNL     1       0.865   7.197   3.371  1.00  0.00    -0.206 F 
ATOM     79  C   UNL     1       2.422   7.757   1.711  1.00  0.00     0.040 A 
ATOM     80  C   UNL     1       1.653   8.292  -0.512  1.00  0.00     0.040 A 
ATOM     81  F   UNL     1      -0.638   8.201  -1.030  1.00  0.00    -0.206 F 
ATOM     82  C   UNL     1       2.699   8.058   0.383  1.00  0.00     0.006 A 
ENDBRANCH  54  75
BRANCH  66  83
ATOM     83  C   UNL     1      -6.730   5.899  -0.657  1.00  0.00     0.057 A 
ATOM     84  C   UNL     1      -6.918   7.194  -1.164  1.00  0.00     0.134 A 
ATOM     85  C   UNL     1      -7.829   5.031  -0.843  1.00  0.00     0.134 A 
ATOM     86  F   UNL     1      -5.914   8.078  -1.243  1.00  0.00    -0.206 F 
ATOM     87  C   UNL     1      -8.147   7.636  -1.674  1.00  0.00     0.040 A 
ATOM     88  C   UNL     1      -9.033   5.437  -1.426  1.00  0.00     0.040 A 
ATOM     89  F   UNL     1      -7.783   3.741  -0.479  1.00  0.00    -0.206 F 
ATOM     90  C   UNL     1      -9.211   6.756  -1.805  1.00  0.00     0.006 A 
ENDBRANCH  66  83
ENDBRANCH  40  41
ENDBRANCH  33  35
ENDBRANCH  32  33
ENDBRANCH  31  32
ENDBRANCH   1  31
TORSDOF 15
