REMARK SMILES Cc1cc(C)c2c(c1)C=C(C(=O)OCCOC(=O)c1ccc(-c3c4nc(c(-c5c(F)cccc5F)c5ccc([nH]5)c(-c5c(F)cccc5F)c5nc(c(-c6c(F)cccc6F)c6ccc3[nH]6)C=C5)C=C4)cc1)[C@@H](C(F)(F)F)O2
REMARK SMILES IDX 15 1 14 2 13 3 11 4 12 5 10 6 1 7 2 8 3 9 8 10 4 11 7 12
REMARK SMILES IDX 5 13 6 14 9 15 78 16 73 17 74 18 75 19 76 20 77 21 16 22
REMARK SMILES IDX 17 23 18 24 19 25 20 26 72 27 21 28 71 29 22 30 23 31 24 32
REMARK SMILES IDX 65 33 25 34 70 35 64 36 66 37 26 38 69 39 63 40 62 41 27 43
REMARK SMILES IDX 53 44 36 45 52 46 37 47 40 48 51 49 67 50 38 51 39 52 50 54
REMARK SMILES IDX 68 55 41 56 28 57 29 58 34 59 30 60 31 61 33 62 35 63 32 64
REMARK SMILES IDX 54 65 55 66 60 67 56 68 57 69 59 70 61 71 58 72 42 73 43 74
REMARK SMILES IDX 48 75 44 76 45 77 47 78 49 79 46 80
REMARK H PARENT 66 42 40 53
REMARK Flexibility Score: inf
ROOT
ATOM      1  C   UNL     1       1.822   9.674   1.560  1.00  0.00     0.275 C 
ENDROOT
BRANCH   1   2
ATOM      2  C   UNL     1       1.855   9.475   0.045  1.00  0.00     0.275 C 
BRANCH   2   3
ATOM      3  O   UNL     1       1.133   8.286  -0.343  1.00  0.00    -0.459 OA
BRANCH   3   4
ATOM      4  C   UNL     1       1.901   7.210  -0.632  1.00  0.00     0.338 C 
ATOM      5  O   UNL     1       3.122   7.157  -0.604  1.00  0.00    -0.246 OA
BRANCH   4   6
ATOM      6  C   UNL     1       1.059   6.045  -0.958  1.00  0.00     0.087 C 
ATOM      7  C   UNL     1       0.794  -0.039  -0.086  1.00  0.00     0.044 C 
ATOM      8  C   UNL     1       0.385   1.282  -0.670  1.00  0.00    -0.050 A 
ATOM      9  C   UNL     1      -0.643   1.375  -1.615  1.00  0.00     0.010 A 
ATOM     10  C   UNL     1       1.019   2.451  -0.247  1.00  0.00     0.015 A 
ATOM     11  C   UNL     1      -1.030   2.619  -2.147  1.00  0.00    -0.008 A 
ATOM     12  C   UNL     1       0.653   3.692  -0.783  1.00  0.00     0.018 A 
ATOM     13  C   UNL     1      -2.121   2.686  -3.177  1.00  0.00     0.048 C 
ATOM     14  C   UNL     1      -0.375   3.783  -1.720  1.00  0.00     0.130 A 
ATOM     15  C   UNL     1       1.376   4.880  -0.385  1.00  0.00     0.027 C 
ATOM     16  O   UNL     1      -0.799   4.977  -2.241  1.00  0.00    -0.475 OA
ATOM     17  C   UNL     1      -0.009   6.177  -2.005  1.00  0.00     0.316 C 
BRANCH  17  18
ATOM     18  C   UNL     1       0.583   6.650  -3.343  1.00  0.00     0.430 C 
ATOM     19  F   UNL     1      -0.371   6.751  -4.298  1.00  0.00    -0.167 F 
ATOM     20  F   UNL     1       1.146   7.878  -3.230  1.00  0.00    -0.167 F 
ATOM     21  F   UNL     1       1.537   5.811  -3.806  1.00  0.00    -0.167 F 
ENDBRANCH  17  18
ENDBRANCH   4   6
ENDBRANCH   3   4
ENDBRANCH   2   3
ENDBRANCH   1   2
BRANCH   1  22
ATOM     22  O   UNL     1       2.544   8.615   2.214  1.00  0.00    -0.458 OA
BRANCH  22  23
ATOM     23  C   UNL     1       1.802   7.783   2.980  1.00  0.00     0.338 C 
ATOM     24  O   UNL     1       0.608   7.850   3.213  1.00  0.00    -0.246 OA
BRANCH  23  25
ATOM     25  C   UNL     1       2.648   6.691   3.488  1.00  0.00     0.060 A 
ATOM     26  C   UNL     1       3.226   5.814   2.579  1.00  0.00     0.016 A 
ATOM     27  C   UNL     1       2.751   6.442   4.854  1.00  0.00     0.016 A 
ATOM     28  C   UNL     1       3.787   4.619   3.017  1.00  0.00     0.010 A 
ATOM     29  C   UNL     1       3.449   5.311   5.300  1.00  0.00     0.010 A 
ATOM     30  C   UNL     1       3.942   4.361   4.386  1.00  0.00    -0.014 A 
BRANCH  30  31
ATOM     31  C   UNL     1       4.617   3.107   4.837  1.00  0.00     0.031 A 
ATOM     32  C   UNL     1       3.928   2.151   5.779  1.00  0.00     0.074 A 
ATOM     33  C   UNL     1       5.846   2.797   4.368  1.00  0.00     0.049 A 
ATOM     34  N   UNL     1       4.406   1.080   6.364  1.00  0.00    -0.248 NA
ATOM     35  C   UNL     1       2.526   2.439   6.121  1.00  0.00     0.031 C 
ATOM     36  C   UNL     1       6.622   3.608   3.426  1.00  0.00     0.029 A 
ATOM     37  N   UNL     1       6.649   1.705   4.594  1.00  0.00    -0.354 N 
ATOM     38  C   UNL     1       3.386   0.601   7.178  1.00  0.00     0.074 A 
ATOM     39  C   UNL     1       2.264   1.500   7.021  1.00  0.00     0.031 C 
ATOM     40  C   UNL     1       7.740   2.951   3.091  1.00  0.00     0.029 A 
ATOM     41  C   UNL     1       7.821   1.724   3.873  1.00  0.00     0.049 A 
ATOM     42  H   UNL     1       6.409   0.978   5.213  1.00  0.00     0.167 HD
ATOM     43  C   UNL     1       3.384  -0.493   7.979  1.00  0.00     0.037 A 
ATOM     44  C   UNL     1       8.864   0.872   3.859  1.00  0.00     0.037 A 
ATOM     45  C   UNL     1       4.480  -1.420   8.090  1.00  0.00     0.049 A 
ATOM     46  C   UNL     1       8.849  -0.316   4.776  1.00  0.00     0.074 A 
ATOM     47  C   UNL     1       4.570  -2.557   8.876  1.00  0.00     0.029 A 
ATOM     48  N   UNL     1       5.667  -1.333   7.378  1.00  0.00    -0.354 N 
ATOM     49  N   UNL     1       7.903  -0.715   5.589  1.00  0.00    -0.248 NA
ATOM     50  C   UNL     1      10.056  -1.154   4.797  1.00  0.00     0.031 C 
ATOM     51  C   UNL     1       5.822  -3.140   8.662  1.00  0.00     0.029 A 
ATOM     52  C   UNL     1       6.495  -2.391   7.712  1.00  0.00     0.049 A 
ATOM     53  H   UNL     1       5.887  -0.624   6.731  1.00  0.00     0.167 HD
ATOM     54  C   UNL     1       8.394  -1.853   6.212  1.00  0.00     0.074 A 
ATOM     55  C   UNL     1       9.715  -2.093   5.670  1.00  0.00     0.031 C 
ATOM     56  C   UNL     1       7.803  -2.624   7.155  1.00  0.00     0.037 A 
BRANCH  43  57
ATOM     57  C   UNL     1       2.165  -0.749   8.817  1.00  0.00     0.057 A 
ATOM     58  C   UNL     1       0.973  -1.231   8.264  1.00  0.00     0.134 A 
ATOM     59  C   UNL     1       2.211  -0.580  10.208  1.00  0.00     0.134 A 
ATOM     60  F   UNL     1       0.859  -1.406   6.939  1.00  0.00    -0.206 F 
ATOM     61  C   UNL     1      -0.135  -1.524   9.063  1.00  0.00     0.040 A 
ATOM     62  C   UNL     1       1.119  -0.892  11.019  1.00  0.00     0.040 A 
ATOM     63  F   UNL     1       3.326  -0.132  10.803  1.00  0.00    -0.206 F 
ATOM     64  C   UNL     1      -0.060  -1.364  10.446  1.00  0.00     0.006 A 
ENDBRANCH  43  57
BRANCH  44  65
ATOM     65  C   UNL     1      10.015   1.129   2.956  1.00  0.00     0.057 A 
ATOM     66  C   UNL     1      10.265   0.300   1.856  1.00  0.00     0.134 A 
ATOM     67  C   UNL     1      10.868   2.223   3.145  1.00  0.00     0.134 A 
ATOM     68  F   UNL     1       9.497  -0.776   1.634  1.00  0.00    -0.206 F 
ATOM     69  C   UNL     1      11.318   0.553   0.976  1.00  0.00     0.040 A 
ATOM     70  C   UNL     1      11.907   2.504   2.257  1.00  0.00     0.040 A 
ATOM     71  F   UNL     1      10.681   3.057   4.179  1.00  0.00    -0.206 F 
ATOM     72  C   UNL     1      12.136   1.665   1.169  1.00  0.00     0.006 A 
ENDBRANCH  44  65
BRANCH  56  73
ATOM     73  C   UNL     1       8.562  -3.816   7.650  1.00  0.00     0.057 A 
ATOM     74  C   UNL     1       9.625  -3.687   8.551  1.00  0.00     0.134 A 
ATOM     75  C   UNL     1       8.175  -5.111   7.281  1.00  0.00     0.134 A 
ATOM     76  F   UNL     1      10.049  -2.473   8.933  1.00  0.00    -0.206 F 
ATOM     77  C   UNL     1      10.280  -4.806   9.067  1.00  0.00     0.040 A 
ATOM     78  C   UNL     1       8.809  -6.237   7.805  1.00  0.00     0.040 A 
ATOM     79  F   UNL     1       7.158  -5.300   6.426  1.00  0.00    -0.206 F 
ATOM     80  C   UNL     1       9.866  -6.086   8.701  1.00  0.00     0.006 A 
ENDBRANCH  56  73
ENDBRANCH  30  31
ENDBRANCH  23  25
ENDBRANCH  22  23
ENDBRANCH   1  22
TORSDOF 12
