REMARK SMILES CS(=O)(=O)c1ccc(/C=C(/C(=O)OCCOCCOC(=O)c2ccc(-c3c4nc(c(-c5c(F)cccc5F)c5ccc([nH]5)c(-c5c(F)cccc5F)c5nc(c(-c6c(F)cccc6F)c6ccc3[nH]6)C=C5)C=C4)cc2)c2cccc(-c3ccc(S(C)(=O)=O)cc3)c2)cc1
REMARK SMILES IDX 15 1 14 2 13 3 11 4 12 5 10 6 9 7 8 8 5 9 6 10 93 11 7 12
REMARK SMILES IDX 92 13 2 14 1 15 3 16 4 17 76 18 77 19 91 20 78 21 80 22
REMARK SMILES IDX 79 23 81 24 82 25 90 26 83 27 89 28 84 29 85 30 86 31 87 32
REMARK SMILES IDX 88 33 16 34 17 35 18 36 19 37 20 38 21 39 22 40 23 41 75 42
REMARK SMILES IDX 24 43 74 44 25 45 26 46 27 47 68 48 28 49 73 50 67 51 69 52
REMARK SMILES IDX 29 53 72 54 66 55 65 56 30 58 56 59 39 60 55 61 40 62 43 63
REMARK SMILES IDX 54 64 70 65 41 66 42 67 53 69 71 70 44 71 31 72 32 73 37 74
REMARK SMILES IDX 33 75 34 76 36 77 38 78 35 79 57 80 58 81 63 82 59 83 60 84
REMARK SMILES IDX 62 85 64 86 61 87 45 88 46 89 51 90 47 91 48 92 50 93 52 94
REMARK SMILES IDX 49 95
REMARK H PARENT 69 57 43 68
REMARK Flexibility Score: inf
ROOT
ATOM      1  C   UNL     1       3.444 -11.485   1.529  1.00  0.00     0.202 C 
ENDROOT
BRANCH   1   2
ATOM      2  C   UNL     1       3.498 -10.558   0.312  1.00  0.00     0.261 C 
BRANCH   2   3
ATOM      3  O   UNL     1       3.098  -9.223   0.671  1.00  0.00    -0.460 OA
BRANCH   3   4
ATOM      4  C   UNL     1       2.095  -8.717  -0.089  1.00  0.00     0.338 C 
ATOM      5  O   UNL     1       1.676  -9.204  -1.130  1.00  0.00    -0.246 OA
BRANCH   4   6
ATOM      6  C   UNL     1       1.452  -7.530   0.554  1.00  0.00     0.067 C 
ATOM      7  C   UNL     1       2.223  -6.552   1.087  1.00  0.00     0.024 C 
BRANCH   7   8
ATOM      8  C   UNL     1       1.821  -5.170   1.469  1.00  0.00    -0.025 A 
ATOM      9  C   UNL     1       1.068  -2.465   1.687  1.00  0.00     0.067 A 
ATOM     10  C   UNL     1       0.152  -3.467   1.998  1.00  0.00     0.021 A 
ATOM     11  C   UNL     1       2.389  -2.792   1.382  1.00  0.00     0.021 A 
ATOM     12  C   UNL     1       0.545  -4.808   1.927  1.00  0.00     0.009 A 
ATOM     13  C   UNL     1       2.756  -4.139   1.268  1.00  0.00     0.009 A 
BRANCH   9  14
ATOM     14  S   UNL     1       0.539  -0.768   1.640  1.00  0.00     0.175 S 
ATOM     15  C   UNL     1       0.976  -0.213   0.010  1.00  0.00     0.163 C 
ATOM     16  O   UNL     1       1.350  -0.052   2.605  1.00  0.00    -0.224 OA
ATOM     17  O   UNL     1      -0.910  -0.761   1.725  1.00  0.00    -0.224 OA
ENDBRANCH   9  14
ENDBRANCH   7   8
BRANCH   6  18
ATOM     18  C   UNL     1      -0.010  -7.435   0.401  1.00  0.00    -0.010 A 
ATOM     19  C   UNL     1      -0.872  -8.149   1.243  1.00  0.00     0.009 A 
ATOM     20  C   UNL     1      -0.547  -6.558  -0.540  1.00  0.00     0.017 A 
ATOM     21  C   UNL     1      -2.252  -7.972   1.155  1.00  0.00     0.001 A 
ATOM     22  C   UNL     1      -1.927  -6.317  -0.594  1.00  0.00    -0.018 A 
ATOM     23  C   UNL     1      -2.775  -7.051   0.248  1.00  0.00     0.009 A 
BRANCH  22  24
ATOM     24  C   UNL     1      -2.415  -5.216  -1.426  1.00  0.00    -0.018 A 
ATOM     25  C   UNL     1      -3.118  -4.153  -0.834  1.00  0.00     0.010 A 
ATOM     26  C   UNL     1      -2.070  -5.128  -2.785  1.00  0.00     0.010 A 
ATOM     27  C   UNL     1      -3.444  -3.017  -1.570  1.00  0.00     0.021 A 
ATOM     28  C   UNL     1      -2.397  -3.997  -3.532  1.00  0.00     0.021 A 
ATOM     29  C   UNL     1      -3.080  -2.949  -2.916  1.00  0.00     0.067 A 
BRANCH  29  30
ATOM     30  S   UNL     1      -3.464  -1.480  -3.831  1.00  0.00     0.175 S 
ATOM     31  C   UNL     1      -5.235  -1.516  -3.925  1.00  0.00     0.163 C 
ATOM     32  O   UNL     1      -3.062  -0.354  -3.011  1.00  0.00    -0.224 OA
ATOM     33  O   UNL     1      -2.943  -1.647  -5.174  1.00  0.00    -0.224 OA
ENDBRANCH  29  30
ENDBRANCH  22  24
ENDBRANCH   6  18
ENDBRANCH   4   6
ENDBRANCH   3   4
ENDBRANCH   2   3
ENDBRANCH   1   2
BRANCH   1  34
ATOM     34  O   UNL     1       2.149 -11.769   2.062  1.00  0.00    -0.374 OA
BRANCH  34  35
ATOM     35  C   UNL     1       1.483 -10.723   2.764  1.00  0.00     0.202 C 
BRANCH  35  36
ATOM     36  C   UNL     1       1.898 -10.471   4.218  1.00  0.00     0.261 C 
BRANCH  36  37
ATOM     37  O   UNL     1       3.301 -10.204   4.350  1.00  0.00    -0.460 OA
BRANCH  37  38
ATOM     38  C   UNL     1       4.016 -11.235   4.856  1.00  0.00     0.338 C 
ATOM     39  O   UNL     1       3.587 -12.293   5.296  1.00  0.00    -0.246 OA
BRANCH  38  40
ATOM     40  C   UNL     1       5.452 -10.995   4.643  1.00  0.00     0.060 A 
ATOM     41  C   UNL     1       6.185 -12.007   4.009  1.00  0.00     0.016 A 
ATOM     42  C   UNL     1       6.080  -9.832   5.093  1.00  0.00     0.016 A 
ATOM     43  C   UNL     1       7.563 -11.882   3.867  1.00  0.00     0.010 A 
ATOM     44  C   UNL     1       7.466  -9.713   4.961  1.00  0.00     0.010 A 
ATOM     45  C   UNL     1       8.215 -10.753   4.380  1.00  0.00    -0.014 A 
BRANCH  45  46
ATOM     46  C   UNL     1       9.693 -10.742   4.451  1.00  0.00     0.031 A 
ATOM     47  C   UNL     1      10.358 -11.130   5.740  1.00  0.00     0.074 A 
ATOM     48  C   UNL     1      10.430 -10.426   3.373  1.00  0.00     0.049 A 
ATOM     49  N   UNL     1      11.632 -11.180   6.035  1.00  0.00    -0.248 NA
ATOM     50  C   UNL     1       9.466 -11.512   6.847  1.00  0.00     0.031 C 
ATOM     51  C   UNL     1       9.896 -10.068   2.061  1.00  0.00     0.029 A 
ATOM     52  N   UNL     1      11.790 -10.352   3.218  1.00  0.00    -0.354 N 
ATOM     53  C   UNL     1      11.694 -11.598   7.358  1.00  0.00     0.074 A 
ATOM     54  C   UNL     1      10.332 -11.754   7.820  1.00  0.00     0.031 C 
ATOM     55  C   UNL     1      10.921  -9.798   1.234  1.00  0.00     0.029 A 
ATOM     56  C   UNL     1      12.177  -9.941   1.968  1.00  0.00     0.049 A 
ATOM     57  H   UNL     1      12.428 -10.572   3.936  1.00  0.00     0.167 HD
ATOM     58  C   UNL     1      12.789 -11.841   8.117  1.00  0.00     0.037 A 
ATOM     59  C   UNL     1      13.407  -9.691   1.480  1.00  0.00     0.037 A 
ATOM     60  C   UNL     1      14.142 -11.677   7.657  1.00  0.00     0.049 A 
ATOM     61  C   UNL     1      14.608  -9.902   2.361  1.00  0.00     0.074 A 
ATOM     62  C   UNL     1      15.322 -11.908   8.343  1.00  0.00     0.029 A 
ATOM     63  N   UNL     1      14.495 -11.229   6.393  1.00  0.00    -0.354 N 
ATOM     64  N   UNL     1      14.659 -10.322   3.603  1.00  0.00    -0.248 NA
ATOM     65  C   UNL     1      15.923  -9.610   1.772  1.00  0.00     0.031 C 
ATOM     66  C   UNL     1      16.388 -11.557   7.508  1.00  0.00     0.029 A 
ATOM     67  C   UNL     1      15.874 -11.154   6.285  1.00  0.00     0.049 A 
ATOM     68  H   UNL     1      13.859 -11.000   5.677  1.00  0.00     0.167 HD
ATOM     69  C   UNL     1      16.008 -10.365   3.936  1.00  0.00     0.074 A 
ATOM     70  C   UNL     1      16.741  -9.940   2.761  1.00  0.00     0.031 C 
ATOM     71  C   UNL     1      16.586 -10.727   5.108  1.00  0.00     0.037 A 
BRANCH  58  72
ATOM     72  C   UNL     1      12.557 -12.282   9.532  1.00  0.00     0.057 A 
ATOM     73  C   UNL     1      12.068 -13.560   9.837  1.00  0.00     0.134 A 
ATOM     74  C   UNL     1      12.829 -11.422  10.602  1.00  0.00     0.134 A 
ATOM     75  F   UNL     1      11.770 -14.426   8.857  1.00  0.00    -0.206 F 
ATOM     76  C   UNL     1      11.832 -13.955  11.155  1.00  0.00     0.040 A 
ATOM     77  C   UNL     1      12.621 -11.814  11.925  1.00  0.00     0.040 A 
ATOM     78  F   UNL     1      13.300 -10.186  10.379  1.00  0.00    -0.206 F 
ATOM     79  C   UNL     1      12.114 -13.082  12.204  1.00  0.00     0.006 A 
ENDBRANCH  58  72
BRANCH  59  80
ATOM     80  C   UNL     1      13.561  -9.204   0.087  1.00  0.00     0.057 A 
ATOM     81  C   UNL     1      14.106 -10.017  -0.912  1.00  0.00     0.134 A 
ATOM     82  C   UNL     1      13.163  -7.911  -0.277  1.00  0.00     0.134 A 
ATOM     83  F   UNL     1      14.525 -11.257  -0.619  1.00  0.00    -0.206 F 
ATOM     84  C   UNL     1      14.259  -9.560  -2.222  1.00  0.00     0.040 A 
ATOM     85  C   UNL     1      13.290  -7.449  -1.587  1.00  0.00     0.040 A 
ATOM     86  F   UNL     1      12.631  -7.084   0.635  1.00  0.00    -0.206 F 
ATOM     87  C   UNL     1      13.844  -8.274  -2.564  1.00  0.00     0.006 A 
ENDBRANCH  59  80
BRANCH  71  88
ATOM     88  C   UNL     1      18.086 -10.703   5.169  1.00  0.00     0.057 A 
ATOM     89  C   UNL     1      18.803  -9.502   5.232  1.00  0.00     0.134 A 
ATOM     90  C   UNL     1      18.817 -11.897   5.211  1.00  0.00     0.134 A 
ATOM     91  F   UNL     1      18.163  -8.324   5.184  1.00  0.00    -0.206 F 
ATOM     92  C   UNL     1      20.197  -9.489   5.313  1.00  0.00     0.040 A 
ATOM     93  C   UNL     1      20.208 -11.898   5.317  1.00  0.00     0.040 A 
ATOM     94  F   UNL     1      18.189 -13.082   5.164  1.00  0.00    -0.206 F 
ATOM     95  C   UNL     1      20.902 -10.690   5.363  1.00  0.00     0.006 A 
ENDBRANCH  71  88
ENDBRANCH  45  46
ENDBRANCH  38  40
ENDBRANCH  37  38
ENDBRANCH  36  37
ENDBRANCH  35  36
ENDBRANCH  34  35
ENDBRANCH   1  34
TORSDOF 19
