REMARK SMILES O=C(OCCOCCOC(=O)c1ncc2ccccc2n1)c1ccc(-c2c3nc(c(-c4c(F)cccc4F)c4ccc([nH]4)c(-c4c(F)cccc4F)c4nc(c(-c5c(F)cccc5F)c5ccc2[nH]5)C=C4)C=C3)cc1
REMARK SMILES IDX 5 1 4 2 3 3 2 4 1 5 22 6 23 7 75 8 24 9 74 10 25 11 26 12
REMARK SMILES IDX 27 13 68 14 28 15 73 16 67 17 69 18 29 19 72 20 66 21 65 22
REMARK SMILES IDX 30 24 56 25 39 26 55 27 40 28 43 29 54 30 70 31 41 32 42 33
REMARK SMILES IDX 53 35 71 36 44 37 31 38 32 39 37 40 33 41 34 42 36 43 38 44
REMARK SMILES IDX 35 45 57 46 58 47 63 48 59 49 60 50 62 51 64 52 61 53 45 54
REMARK SMILES IDX 46 55 51 56 47 57 48 58 50 59 52 60 49 61 6 62 7 63 8 64
REMARK SMILES IDX 9 65 10 66 11 67 12 68 13 69 21 70 14 71 20 72 15 73 19 74
REMARK SMILES IDX 16 75 18 76 17 77
REMARK H PARENT 69 23 43 34
REMARK Flexibility Score: inf
ROOT
ATOM      1  C   UNL     1       4.120  -0.431  -1.766  1.00  0.00     0.202 C 
ENDROOT
BRANCH   1   2
ATOM      2  C   UNL     1       3.870  -1.377  -0.587  1.00  0.00     0.261 C 
BRANCH   2   3
ATOM      3  O   UNL     1       2.519  -1.251  -0.110  1.00  0.00    -0.460 OA
BRANCH   3   4
ATOM      4  C   UNL     1       2.029  -0.480   0.888  1.00  0.00     0.338 C 
ATOM      5  O   UNL     1       0.814  -0.499   1.085  1.00  0.00    -0.246 OA
BRANCH   4   6
ATOM      6  C   UNL     1       2.860   0.378   1.796  1.00  0.00     0.060 A 
ATOM      7  C   UNL     1       4.141   0.861   1.524  1.00  0.00     0.016 A 
ATOM      8  C   UNL     1       2.258   0.781   3.005  1.00  0.00     0.016 A 
ATOM      9  C   UNL     1       4.833   1.646   2.439  1.00  0.00     0.010 A 
ATOM     10  C   UNL     1       2.931   1.601   3.917  1.00  0.00     0.010 A 
ATOM     11  C   UNL     1       4.239   2.009   3.645  1.00  0.00    -0.014 A 
BRANCH  11  12
ATOM     12  C   UNL     1       5.076   2.703   4.640  1.00  0.00     0.031 A 
ATOM     13  C   UNL     1       5.676   1.896   5.752  1.00  0.00     0.074 A 
ATOM     14  C   UNL     1       5.416   3.989   4.442  1.00  0.00     0.049 A 
ATOM     15  N   UNL     1       6.516   2.263   6.681  1.00  0.00    -0.248 NA
ATOM     16  C   UNL     1       5.291   0.476   5.810  1.00  0.00     0.031 C 
ATOM     17  C   UNL     1       4.956   4.819   3.327  1.00  0.00     0.029 A 
ATOM     18  N   UNL     1       6.261   4.806   5.143  1.00  0.00    -0.354 N 
ATOM     19  C   UNL     1       6.753   1.125   7.440  1.00  0.00     0.074 A 
ATOM     20  C   UNL     1       5.959   0.057   6.873  1.00  0.00     0.031 C 
ATOM     21  C   UNL     1       5.557   6.018   3.398  1.00  0.00     0.029 A 
ATOM     22  C   UNL     1       6.407   6.053   4.584  1.00  0.00     0.049 A 
ATOM     23  H   UNL     1       6.721   4.528   5.968  1.00  0.00     0.167 HD
ATOM     24  C   UNL     1       7.561   0.987   8.515  1.00  0.00     0.037 A 
ATOM     25  C   UNL     1       7.146   7.100   4.995  1.00  0.00     0.037 A 
ATOM     26  C   UNL     1       8.338   2.063   9.068  1.00  0.00     0.049 A 
ATOM     27  C   UNL     1       7.978   6.941   6.238  1.00  0.00     0.074 A 
ATOM     28  C   UNL     1       9.143   2.064  10.191  1.00  0.00     0.029 A 
ATOM     29  N   UNL     1       8.399   3.339   8.524  1.00  0.00    -0.354 N 
ATOM     30  N   UNL     1       8.162   5.873   6.978  1.00  0.00    -0.248 NA
ATOM     31  C   UNL     1       8.696   8.132   6.710  1.00  0.00     0.031 C 
ATOM     32  C   UNL     1       9.664   3.354  10.347  1.00  0.00     0.029 A 
ATOM     33  C   UNL     1       9.216   4.143   9.298  1.00  0.00     0.049 A 
ATOM     34  H   UNL     1       7.930   3.629   7.709  1.00  0.00     0.167 HD
ATOM     35  C   UNL     1       9.030   6.256   7.992  1.00  0.00     0.074 A 
ATOM     36  C   UNL     1       9.349   7.651   7.759  1.00  0.00     0.031 C 
ATOM     37  C   UNL     1       9.516   5.527   9.026  1.00  0.00     0.037 A 
BRANCH  24  38
ATOM     38  C   UNL     1       7.576  -0.355   9.182  1.00  0.00     0.057 A 
ATOM     39  C   UNL     1       8.216  -1.463   8.612  1.00  0.00     0.134 A 
ATOM     40  C   UNL     1       6.896  -0.551  10.390  1.00  0.00     0.134 A 
ATOM     41  F   UNL     1       8.859  -1.349   7.440  1.00  0.00    -0.206 F 
ATOM     42  C   UNL     1       8.154  -2.726   9.207  1.00  0.00     0.040 A 
ATOM     43  C   UNL     1       6.844  -1.803  11.004  1.00  0.00     0.040 A 
ATOM     44  F   UNL     1       6.255   0.467  10.983  1.00  0.00    -0.206 F 
ATOM     45  C   UNL     1       7.468  -2.897  10.407  1.00  0.00     0.006 A 
ENDBRANCH  24  38
BRANCH  25  46
ATOM     46  C   UNL     1       7.122   8.380   4.241  1.00  0.00     0.057 A 
ATOM     47  C   UNL     1       8.257   8.856   3.574  1.00  0.00     0.134 A 
ATOM     48  C   UNL     1       5.965   9.167   4.181  1.00  0.00     0.134 A 
ATOM     49  F   UNL     1       9.403   8.161   3.611  1.00  0.00    -0.206 F 
ATOM     50  C   UNL     1       8.246  10.072   2.887  1.00  0.00     0.040 A 
ATOM     51  C   UNL     1       5.932  10.372   3.476  1.00  0.00     0.040 A 
ATOM     52  F   UNL     1       4.843   8.771   4.799  1.00  0.00    -0.206 F 
ATOM     53  C   UNL     1       7.079  10.831   2.832  1.00  0.00     0.006 A 
ENDBRANCH  25  46
BRANCH  37  54
ATOM     54  C   UNL     1      10.460   6.223   9.957  1.00  0.00     0.057 A 
ATOM     55  C   UNL     1      10.010   7.158  10.897  1.00  0.00     0.134 A 
ATOM     56  C   UNL     1      11.827   5.924   9.937  1.00  0.00     0.134 A 
ATOM     57  F   UNL     1       8.712   7.494  10.954  1.00  0.00    -0.206 F 
ATOM     58  C   UNL     1      10.893   7.789  11.773  1.00  0.00     0.040 A 
ATOM     59  C   UNL     1      12.716   6.531  10.823  1.00  0.00     0.040 A 
ATOM     60  F   UNL     1      12.317   5.030   9.065  1.00  0.00    -0.206 F 
ATOM     61  C   UNL     1      12.250   7.470  11.741  1.00  0.00     0.006 A 
ENDBRANCH  37  54
ENDBRANCH  11  12
ENDBRANCH   4   6
ENDBRANCH   3   4
ENDBRANCH   2   3
ENDBRANCH   1   2
BRANCH   1  62
ATOM     62  O   UNL     1       3.856   0.937  -1.452  1.00  0.00    -0.374 OA
BRANCH  62  63
ATOM     63  C   UNL     1       2.535   1.395  -1.763  1.00  0.00     0.202 C 
BRANCH  63  64
ATOM     64  C   UNL     1       2.607   2.537  -2.780  1.00  0.00     0.261 C 
BRANCH  64  65
ATOM     65  O   UNL     1       3.190   2.040  -3.993  1.00  0.00    -0.457 OA
BRANCH  65  66
ATOM     66  C   UNL     1       4.551   2.120  -4.045  1.00  0.00     0.376 C 
ATOM     67  O   UNL     1       5.262   2.834  -3.352  1.00  0.00    -0.242 OA
BRANCH  66  68
ATOM     68  C   UNL     1       5.049   1.057  -4.971  1.00  0.00     0.239 A 
ATOM     69  N   UNL     1       6.137   0.372  -4.561  1.00  0.00    -0.230 NA
ATOM     70  N   UNL     1       4.326   0.800  -6.082  1.00  0.00    -0.222 NA
ATOM     71  C   UNL     1       6.516  -0.643  -5.354  1.00  0.00     0.124 A 
ATOM     72  C   UNL     1       4.754  -0.201  -6.858  1.00  0.00     0.075 A 
ATOM     73  C   UNL     1       5.870  -0.984  -6.532  1.00  0.00     0.019 A 
ATOM     74  C   UNL     1       4.082  -0.489  -8.038  1.00  0.00     0.029 A 
ATOM     75  C   UNL     1       6.291  -2.034  -7.367  1.00  0.00     0.012 A 
ATOM     76  C   UNL     1       4.500  -1.519  -8.887  1.00  0.00     0.002 A 
ATOM     77  C   UNL     1       5.604  -2.294  -8.550  1.00  0.00     0.001 A 
ENDBRANCH  66  68
ENDBRANCH  65  66
ENDBRANCH  64  65
ENDBRANCH  63  64
ENDBRANCH  62  63
ENDBRANCH   1  62
TORSDOF 14
