REMARK SMILES CC[C@@H](C)[C@@H](C(=O)OCCOCCOC(=O)c1ccc(-c2c3nc(c(-c4c(F)cccc4F)c4ccc([nH]4)c(-c4c(F)cccc4F)c4nc(c(-c5c(F)cccc5F)c5ccc2[nH]5)C=C4)C=C3)cc1)N1C(=O)/C(=C/c2ccc(O)cc2)SC1=S
REMARK SMILES IDX 10 1 9 2 8 3 6 4 7 5 5 6 3 7 4 8 2 9 1 10 71 11 72 12 84 13
REMARK SMILES IDX 73 14 74 15 83 16 85 17 75 18 76 19 77 20 82 21 78 22 81 23
REMARK SMILES IDX 79 24 80 25 11 27 12 28 13 29 14 30 15 31 16 32 17 33 18 34
REMARK SMILES IDX 70 35 19 36 69 37 20 38 21 39 22 40 63 41 23 42 68 43 62 44
REMARK SMILES IDX 64 45 24 46 67 47 61 48 60 49 25 51 51 52 34 53 50 54 35 55
REMARK SMILES IDX 38 56 49 57 65 58 36 59 37 60 48 62 66 63 39 64 26 65 27 66
REMARK SMILES IDX 32 67 28 68 29 69 31 70 33 71 30 72 52 73 53 74 58 75 54 76
REMARK SMILES IDX 55 77 57 78 59 79 56 80 40 81 41 82 46 83 42 84 43 85 45 86
REMARK SMILES IDX 47 87 44 88
REMARK H PARENT 80 26 64 50 38 61
REMARK Flexibility Score: inf
ROOT
ATOM      1  C   UNL     1       2.317  -1.463   5.340  1.00  0.00     0.202 C 
ENDROOT
BRANCH   1   2
ATOM      2  C   UNL     1       0.965  -0.776   5.579  1.00  0.00     0.261 C 
BRANCH   2   3
ATOM      3  O   UNL     1       0.685   0.067   4.450  1.00  0.00    -0.462 OA
BRANCH   3   4
ATOM      4  C   UNL     1      -0.131   1.131   4.628  1.00  0.00     0.329 C 
ATOM      5  O   UNL     1      -0.847   1.299   5.607  1.00  0.00    -0.250 OA
BRANCH   4   6
ATOM      6  C   UNL     1       0.051   2.173   3.504  1.00  0.00     0.204 C 
BRANCH   6   7
ATOM      7  C   UNL     1       0.824   1.760   2.180  1.00  0.00     0.020 C 
ATOM      8  C   UNL     1       0.629   2.824   1.080  1.00  0.00     0.010 C 
BRANCH   7   9
ATOM      9  C   UNL     1       0.400   0.370   1.617  1.00  0.00     0.002 C 
ATOM     10  C   UNL     1       0.981   0.003   0.252  1.00  0.00     0.004 C 
ENDBRANCH   7   9
ENDBRANCH   6   7
BRANCH   6  11
ATOM     11  N   UNL     1       0.509   3.491   4.067  1.00  0.00    -0.278 N 
ATOM     12  C   UNL     1      -0.080   4.643   3.563  1.00  0.00     0.267 C 
ATOM     13  C   UNL     1       1.520   3.723   4.984  1.00  0.00     0.149 C 
ATOM     14  O   UNL     1      -1.067   4.689   2.842  1.00  0.00    -0.268 OA
ATOM     15  C   UNL     1       0.673   5.855   3.982  1.00  0.00     0.081 C 
ATOM     16  S   UNL     1       1.984   5.414   4.979  1.00  0.00    -0.054 SA
ATOM     17  S   UNL     1       2.255   2.727   6.091  1.00  0.00    -0.052 S 
ATOM     18  C   UNL     1       0.328   7.094   3.610  1.00  0.00     0.029 C 
BRANCH  18  19
ATOM     19  C   UNL     1       1.013   8.319   4.042  1.00  0.00    -0.024 A 
ATOM     20  C   UNL     1       0.301   9.251   4.805  1.00  0.00     0.012 A 
ATOM     21  C   UNL     1       2.358   8.571   3.731  1.00  0.00     0.012 A 
ATOM     22  C   UNL     1       0.931  10.406   5.271  1.00  0.00     0.047 A 
ATOM     23  C   UNL     1       2.991   9.723   4.205  1.00  0.00     0.047 A 
ATOM     24  C   UNL     1       2.270  10.630   4.974  1.00  0.00     0.115 A 
BRANCH  24  25
ATOM     25  O   UNL     1       2.846  11.762   5.466  1.00  0.00    -0.508 OA
ATOM     26  H   UNL     1       2.341  12.359   5.982  1.00  0.00     0.293 HD
ENDBRANCH  24  25
ENDBRANCH  18  19
ENDBRANCH   6  11
ENDBRANCH   4   6
ENDBRANCH   3   4
ENDBRANCH   2   3
ENDBRANCH   1   2
BRANCH   1  27
ATOM     27  O   UNL     1       3.483  -0.631   5.368  1.00  0.00    -0.374 OA
BRANCH  27  28
ATOM     28  C   UNL     1       3.694   0.253   4.268  1.00  0.00     0.202 C 
BRANCH  28  29
ATOM     29  C   UNL     1       4.452  -0.291   3.060  1.00  0.00     0.261 C 
BRANCH  29  30
ATOM     30  O   UNL     1       3.771  -1.398   2.469  1.00  0.00    -0.460 OA
BRANCH  30  31
ATOM     31  C   UNL     1       4.228  -2.597   2.892  1.00  0.00     0.338 C 
ATOM     32  O   UNL     1       5.186  -2.820   3.619  1.00  0.00    -0.246 OA
BRANCH  31  33
ATOM     33  C   UNL     1       3.285  -3.641   2.476  1.00  0.00     0.060 A 
ATOM     34  C   UNL     1       2.915  -4.596   3.432  1.00  0.00     0.016 A 
ATOM     35  C   UNL     1       2.818  -3.714   1.162  1.00  0.00     0.016 A 
ATOM     36  C   UNL     1       2.136  -5.681   3.057  1.00  0.00     0.010 A 
ATOM     37  C   UNL     1       2.043  -4.806   0.784  1.00  0.00     0.010 A 
ATOM     38  C   UNL     1       1.750  -5.816   1.719  1.00  0.00    -0.014 A 
BRANCH  38  39
ATOM     39  C   UNL     1       1.242  -7.115   1.234  1.00  0.00     0.031 A 
ATOM     40  C   UNL     1       2.204  -8.022   0.521  1.00  0.00     0.074 A 
ATOM     41  C   UNL     1      -0.038  -7.470   1.424  1.00  0.00     0.049 A 
ATOM     42  N   UNL     1       1.977  -9.144  -0.107  1.00  0.00    -0.248 NA
ATOM     43  C   UNL     1       3.615  -7.597   0.506  1.00  0.00     0.031 C 
ATOM     44  C   UNL     1      -1.034  -6.686   2.151  1.00  0.00     0.029 A 
ATOM     45  N   UNL     1      -0.720  -8.578   0.998  1.00  0.00    -0.354 N 
ATOM     46  C   UNL     1       3.209  -9.546  -0.610  1.00  0.00     0.074 A 
ATOM     47  C   UNL     1       4.175  -8.537  -0.238  1.00  0.00     0.031 C 
ATOM     48  C   UNL     1      -2.212  -7.331   2.102  1.00  0.00     0.029 A 
ATOM     49  C   UNL     1      -2.057  -8.546   1.304  1.00  0.00     0.049 A 
ATOM     50  H   UNL     1      -0.293  -9.325   0.519  1.00  0.00     0.167 HD
ATOM     51  C   UNL     1       3.503 -10.663  -1.314  1.00  0.00     0.037 A 
ATOM     52  C   UNL     1      -3.043  -9.389   0.946  1.00  0.00     0.037 A 
ATOM     53  C   UNL     1       2.529 -11.659  -1.669  1.00  0.00     0.049 A 
ATOM     54  C   UNL     1      -2.705 -10.589   0.099  1.00  0.00     0.074 A 
ATOM     55  C   UNL     1       2.715 -12.835  -2.372  1.00  0.00     0.029 A 
ATOM     56  N   UNL     1       1.181 -11.589  -1.347  1.00  0.00    -0.354 N 
ATOM     57  N   UNL     1      -1.540 -10.969  -0.370  1.00  0.00    -0.248 NA
ATOM     58  C   UNL     1      -3.816 -11.477  -0.267  1.00  0.00     0.031 C 
ATOM     59  C   UNL     1       1.469 -13.451  -2.521  1.00  0.00     0.029 A 
ATOM     60  C   UNL     1       0.519 -12.692  -1.854  1.00  0.00     0.049 A 
ATOM     61  H   UNL     1       0.759 -10.862  -0.833  1.00  0.00     0.167 HD
ATOM     62  C   UNL     1      -1.770 -12.160  -1.046  1.00  0.00     0.074 A 
ATOM     63  C   UNL     1      -3.187 -12.438  -0.931  1.00  0.00     0.031 C 
ATOM     64  C   UNL     1      -0.888 -12.959  -1.697  1.00  0.00     0.037 A 
BRANCH  51  65
ATOM     65  C   UNL     1       4.921 -10.844  -1.770  1.00  0.00     0.057 A 
ATOM     66  C   UNL     1       5.962 -11.123  -0.875  1.00  0.00     0.134 A 
ATOM     67  C   UNL     1       5.245 -10.762  -3.130  1.00  0.00     0.134 A 
ATOM     68  F   UNL     1       5.723 -11.197   0.444  1.00  0.00    -0.206 F 
ATOM     69  C   UNL     1       7.277 -11.290  -1.312  1.00  0.00     0.040 A 
ATOM     70  C   UNL     1       6.551 -10.956  -3.583  1.00  0.00     0.040 A 
ATOM     71  F   UNL     1       4.298 -10.498  -4.043  1.00  0.00    -0.206 F 
ATOM     72  C   UNL     1       7.573 -11.214  -2.672  1.00  0.00     0.006 A 
ENDBRANCH  51  65
BRANCH  52  73
ATOM     73  C   UNL     1      -4.439  -9.124   1.372  1.00  0.00     0.057 A 
ATOM     74  C   UNL     1      -5.088  -9.958   2.289  1.00  0.00     0.134 A 
ATOM     75  C   UNL     1      -5.163  -8.036   0.868  1.00  0.00     0.134 A 
ATOM     76  F   UNL     1      -4.454 -11.026   2.795  1.00  0.00    -0.206 F 
ATOM     77  C   UNL     1      -6.411  -9.734   2.674  1.00  0.00     0.040 A 
ATOM     78  C   UNL     1      -6.477  -7.784   1.264  1.00  0.00     0.040 A 
ATOM     79  F   UNL     1      -4.597  -7.194  -0.010  1.00  0.00    -0.206 F 
ATOM     80  C   UNL     1      -7.107  -8.640   2.165  1.00  0.00     0.006 A 
ENDBRANCH  52  73
BRANCH  64  81
ATOM     81  C   UNL     1      -1.407 -14.244  -2.272  1.00  0.00     0.057 A 
ATOM     82  C   UNL     1      -2.197 -14.280  -3.426  1.00  0.00     0.134 A 
ATOM     83  C   UNL     1      -1.032 -15.469  -1.702  1.00  0.00     0.134 A 
ATOM     84  F   UNL     1      -2.597 -13.142  -4.013  1.00  0.00    -0.206 F 
ATOM     85  C   UNL     1      -2.608 -15.490  -3.987  1.00  0.00     0.040 A 
ATOM     86  C   UNL     1      -1.413 -16.684  -2.270  1.00  0.00     0.040 A 
ATOM     87  F   UNL     1      -0.266 -15.502  -0.602  1.00  0.00    -0.206 F 
ATOM     88  C   UNL     1      -2.206 -16.697  -3.415  1.00  0.00     0.006 A 
ENDBRANCH  64  81
ENDBRANCH  38  39
ENDBRANCH  31  33
ENDBRANCH  30  31
ENDBRANCH  29  30
ENDBRANCH  28  29
ENDBRANCH  27  28
ENDBRANCH   1  27
TORSDOF 19
