REMARK SMILES CN(C)S(=O)(=O)c1ccc(-n2c(CCC(=O)OCCOCCOC(=O)c3ccc(-c4c5nc(c(-c6c(F)cccc6F)c6ccc([nH]6)c(-c6c(F)cccc6F)c6nc(c(-c7c(F)cccc7F)c7ccc4[nH]7)C=C6)C=C5)cc3)ccc2-c2ccc(F)cc2)cc1
REMARK SMILES IDX 18 1 17 2 15 3 16 4 14 5 13 6 12 7 11 8 82 9 80 10 81 11
REMARK SMILES IDX 10 12 7 13 8 14 91 15 9 16 90 17 4 18 5 19 6 20 2 21 1 22
REMARK SMILES IDX 3 23 83 24 84 25 89 26 85 27 88 28 86 29 87 30 19 31 20 32
REMARK SMILES IDX 21 33 22 34 23 35 24 36 25 37 26 38 27 39 79 40 28 41 78 42
REMARK SMILES IDX 29 43 30 44 31 45 72 46 32 47 77 48 71 49 73 50 33 51 76 52
REMARK SMILES IDX 70 53 69 54 34 56 60 57 43 58 59 59 44 60 47 61 58 62 74 63
REMARK SMILES IDX 45 64 46 65 57 67 75 68 48 69 35 70 36 71 41 72 37 73 38 74
REMARK SMILES IDX 40 75 42 76 39 77 61 78 62 79 67 80 63 81 64 82 66 83 68 84
REMARK SMILES IDX 65 85 49 86 50 87 55 88 51 89 52 90 54 91 56 92 53 93
REMARK H PARENT 73 55 47 66
REMARK Flexibility Score: inf
ROOT
ATOM      1  C   UNL     1      -0.651   4.910  -1.763  1.00  0.00     0.261 C 
ENDROOT
BRANCH   1   2
ATOM      2  O   UNL     1      -1.845   5.908  -2.524  1.00  0.00    -0.463 OA
BRANCH   2   3
ATOM      3  C   UNL     1      -3.203   5.829  -2.376  1.00  0.00     0.306 C 
ATOM      4  O   UNL     1      -3.828   4.814  -2.670  1.00  0.00    -0.252 OA
BRANCH   3   5
ATOM      5  C   UNL     1      -3.932   7.076  -1.746  1.00  0.00     0.129 C 
BRANCH   5   6
ATOM      6  C   UNL     1      -3.303   8.107  -0.773  1.00  0.00     0.066 C 
BRANCH   6   7
ATOM      7  C   UNL     1      -2.098   8.760  -1.322  1.00  0.00     0.024 A 
ATOM      8  N   UNL     1      -0.883   8.112  -1.448  1.00  0.00    -0.314 N 
ATOM      9  C   UNL     1      -0.123   8.876  -2.373  1.00  0.00     0.053 A 
ATOM     10  C   UNL     1      -1.981  10.038  -1.825  1.00  0.00     0.024 A 
ATOM     11  C   UNL     1      -0.757  10.102  -2.506  1.00  0.00     0.029 A 
BRANCH   8  12
ATOM     12  C   UNL     1      -0.577   6.801  -0.913  1.00  0.00     0.046 A 
ATOM     13  C   UNL     1       0.249   3.283  -0.649  1.00  0.00     0.082 A 
ATOM     14  C   UNL     1       1.437   4.461  -1.249  1.00  0.00     0.024 A 
ATOM     15  C   UNL     1      -1.395   3.808  -0.158  1.00  0.00     0.024 A 
ATOM     16  C   UNL     1       1.050   6.181  -1.335  1.00  0.00     0.028 A 
ATOM     17  C   UNL     1      -1.816   5.588  -0.261  1.00  0.00     0.028 A 
BRANCH  13  18
ATOM     18  S   UNL     1       1.028   1.895   0.188  1.00  0.00     0.242 S 
ATOM     19  O   UNL     1       0.486   1.826   1.526  1.00  0.00    -0.207 OA
ATOM     20  O   UNL     1       2.454   2.026  -0.034  1.00  0.00    -0.207 OA
BRANCH  18  21
ATOM     21  N   UNL     1       0.520   0.504  -0.650  1.00  0.00    -0.204 NA
ATOM     22  C   UNL     1       1.221  -0.701  -0.122  1.00  0.00     0.124 C 
ATOM     23  C   UNL     1      -0.944   0.311  -0.664  1.00  0.00     0.124 C 
ENDBRANCH  18  21
ENDBRANCH  13  18
ENDBRANCH   8  12
BRANCH   9  24
ATOM     24  C   UNL     1       1.068   8.472  -3.147  1.00  0.00    -0.001 A 
ATOM     25  C   UNL     1       2.270   9.179  -2.992  1.00  0.00     0.013 A 
ATOM     26  C   UNL     1       1.050   7.357  -4.006  1.00  0.00     0.013 A 
ATOM     27  C   UNL     1       3.452   8.702  -3.568  1.00  0.00     0.040 A 
ATOM     28  C   UNL     1       2.242   6.857  -4.546  1.00  0.00     0.040 A 
ATOM     29  C   UNL     1       3.434   7.526  -4.307  1.00  0.00     0.123 A 
ATOM     30  F   UNL     1       4.583   7.027  -4.780  1.00  0.00    -0.207 F 
ENDBRANCH   9  24
ENDBRANCH   6   7
ENDBRANCH   5   6
ENDBRANCH   3   5
ENDBRANCH   2   3
ENDBRANCH   1   2
BRANCH   1  31
ATOM     31  C   UNL     1       0.081   5.210   0.294  1.00  0.00     0.202 C 
BRANCH  31  32
ATOM     32  O   UNL     1      -0.650   4.899   1.685  1.00  0.00    -0.374 OA
BRANCH  32  33
ATOM     33  C   UNL     1      -1.285   5.952   2.433  1.00  0.00     0.202 C 
BRANCH  33  34
ATOM     34  C   UNL     1      -0.419   6.961   3.163  1.00  0.00     0.261 C 
BRANCH  34  35
ATOM     35  O   UNL     1       0.515   7.578   2.303  1.00  0.00    -0.460 OA
BRANCH  35  36
ATOM     36  C   UNL     1       1.705   6.939   2.230  1.00  0.00     0.338 C 
ATOM     37  O   UNL     1       2.029   5.888   2.749  1.00  0.00    -0.246 OA
BRANCH  36  38
ATOM     38  C   UNL     1       2.617   7.800   1.473  1.00  0.00     0.060 A 
ATOM     39  C   UNL     1       3.908   7.309   1.287  1.00  0.00     0.016 A 
ATOM     40  C   UNL     1       2.310   9.164   1.446  1.00  0.00     0.016 A 
ATOM     41  C   UNL     1       4.940   8.204   1.419  1.00  0.00     0.010 A 
ATOM     42  C   UNL     1       3.328  10.038   1.696  1.00  0.00     0.010 A 
ATOM     43  C   UNL     1       4.628   9.531   1.748  1.00  0.00    -0.014 A 
BRANCH  43  44
ATOM     44  C   UNL     1       5.731  10.472   1.905  1.00  0.00     0.031 A 
ATOM     45  C   UNL     1       6.071  10.948   0.430  1.00  0.00     0.074 A 
ATOM     46  C   UNL     1       6.157  10.610   3.220  1.00  0.00     0.049 A 
ATOM     47  N   UNL     1       7.184  11.336  -0.104  1.00  0.00    -0.248 NA
ATOM     48  C   UNL     1       5.006  10.915  -0.644  1.00  0.00     0.031 C 
ATOM     49  C   UNL     1       5.482  10.065   4.439  1.00  0.00     0.029 A 
ATOM     50  N   UNL     1       7.192  11.265   3.854  1.00  0.00    -0.354 N 
ATOM     51  C   UNL     1       6.887  11.860  -1.394  1.00  0.00     0.074 A 
ATOM     52  C   UNL     1       5.582  11.421  -1.735  1.00  0.00     0.031 C 
ATOM     53  C   UNL     1       6.212  10.268   5.572  1.00  0.00     0.029 A 
ATOM     54  C   UNL     1       7.418  11.003   5.255  1.00  0.00     0.049 A 
ATOM     55  H   UNL     1       7.765  11.897   3.362  1.00  0.00     0.167 HD
ATOM     56  C   UNL     1       7.653  12.826  -1.977  1.00  0.00     0.037 A 
ATOM     57  C   UNL     1       8.531  11.336   6.024  1.00  0.00     0.037 A 
ATOM     58  C   UNL     1       8.751  13.067  -1.124  1.00  0.00     0.049 A 
ATOM     59  C   UNL     1       9.338  12.160   5.112  1.00  0.00     0.074 A 
ATOM     60  C   UNL     1       9.916  12.392  -0.929  1.00  0.00     0.029 A 
ATOM     61  N   UNL     1       8.504  13.921  -0.081  1.00  0.00    -0.354 N 
ATOM     62  N   UNL     1       8.957  13.303   4.631  1.00  0.00    -0.248 NA
ATOM     63  C   UNL     1      10.361  11.407   4.398  1.00  0.00     0.031 C 
ATOM     64  C   UNL     1      10.212  12.639   0.420  1.00  0.00     0.029 A 
ATOM     65  C   UNL     1       9.234  13.476   0.983  1.00  0.00     0.049 A 
ATOM     66  H   UNL     1       7.911  14.706  -0.096  1.00  0.00     0.167 HD
ATOM     67  C   UNL     1       9.417  13.246   3.337  1.00  0.00     0.074 A 
ATOM     68  C   UNL     1      10.216  12.030   3.245  1.00  0.00     0.031 C 
ATOM     69  C   UNL     1       8.799  13.869   2.301  1.00  0.00     0.037 A 
BRANCH  56  70
ATOM     70  C   UNL     1       7.445  13.846  -3.059  1.00  0.00     0.057 A 
ATOM     71  C   UNL     1       8.588  14.560  -3.508  1.00  0.00     0.134 A 
ATOM     72  C   UNL     1       6.212  14.432  -3.348  1.00  0.00     0.134 A 
ATOM     73  F   UNL     1       9.827  14.073  -3.328  1.00  0.00    -0.206 F 
ATOM     74  C   UNL     1       8.513  15.841  -4.054  1.00  0.00     0.040 A 
ATOM     75  C   UNL     1       6.124  15.694  -3.954  1.00  0.00     0.040 A 
ATOM     76  F   UNL     1       5.062  13.861  -2.965  1.00  0.00    -0.206 F 
ATOM     77  C   UNL     1       7.273  16.421  -4.264  1.00  0.00     0.006 A 
ENDBRANCH  56  70
BRANCH  57  78
ATOM     78  C   UNL     1       9.261  10.936   7.312  1.00  0.00     0.057 A 
ATOM     79  C   UNL     1       8.703  10.310   8.422  1.00  0.00     0.134 A 
ATOM     80  C   UNL     1      10.684  11.113   7.429  1.00  0.00     0.134 A 
ATOM     81  F   UNL     1       7.375  10.196   8.542  1.00  0.00    -0.206 F 
ATOM     82  C   UNL     1       9.500   9.795   9.481  1.00  0.00     0.040 A 
ATOM     83  C   UNL     1      11.489  10.539   8.422  1.00  0.00     0.040 A 
ATOM     84  F   UNL     1      11.383  11.874   6.575  1.00  0.00    -0.206 F 
ATOM     85  C   UNL     1      10.894   9.855   9.456  1.00  0.00     0.006 A 
ENDBRANCH  57  78
BRANCH  69  86
ATOM     86  C   UNL     1       7.536  14.677   2.669  1.00  0.00     0.057 A 
ATOM     87  C   UNL     1       7.617  15.803   3.496  1.00  0.00     0.134 A 
ATOM     88  C   UNL     1       6.215  14.302   2.333  1.00  0.00     0.134 A 
ATOM     89  F   UNL     1       8.815  16.270   3.873  1.00  0.00    -0.206 F 
ATOM     90  C   UNL     1       6.479  16.491   3.963  1.00  0.00     0.040 A 
ATOM     91  C   UNL     1       5.064  14.969   2.800  1.00  0.00     0.040 A 
ATOM     92  F   UNL     1       5.982  13.271   1.521  1.00  0.00    -0.206 F 
ATOM     93  C   UNL     1       5.196  16.073   3.623  1.00  0.00     0.006 A 
ENDBRANCH  69  86
ENDBRANCH  43  44
ENDBRANCH  36  38
ENDBRANCH  35  36
ENDBRANCH  34  35
ENDBRANCH  33  34
ENDBRANCH  32  33
ENDBRANCH  31  32
ENDBRANCH   1  31
TORSDOF 20
