REMARK SMILES O=C(OCCOCCOC(=O)[C@H]1CC[C@@H](CNc2cccc(F)c2[N+](=O)[O-])O1)c1ccc(-c2c3nc(c(-c4c(F)cccc4F)c4ccc([nH]4)c(-c4c(F)cccc4F)c4nc(c(-c5c(F)cccc5F)c5ccc2[nH]5)C=C4)C=C3)cc1
REMARK SMILES IDX 7 1 6 2 5 3 4 4 3 5 2 6 1 7 29 8 30 9 82 10 31 11 81 12
REMARK SMILES IDX 32 13 33 14 34 15 75 16 35 17 80 18 74 19 76 20 36 21 79 22
REMARK SMILES IDX 73 23 72 24 37 26 63 27 46 28 62 29 47 30 50 31 61 32 77 33
REMARK SMILES IDX 48 34 49 35 60 37 78 38 51 39 38 40 39 41 44 42 40 43 41 44
REMARK SMILES IDX 43 45 45 46 42 47 64 48 65 49 70 50 66 51 67 52 69 53 71 54
REMARK SMILES IDX 68 55 52 56 53 57 58 58 54 59 55 60 57 61 59 62 56 63 8 64
REMARK SMILES IDX 9 65 10 66 11 67 12 68 13 69 28 70 14 71 15 72 16 73 17 74
REMARK SMILES IDX 18 76 19 77 24 78 20 79 22 80 21 81 23 82 25 83 26 84 27 85
REMARK H PARENT 76 25 50 36 17 75
REMARK Flexibility Score: inf
ROOT
ATOM      1  C   UNL     1       7.306   1.606  -4.642  1.00  0.00     0.202 C 
ENDROOT
BRANCH   1   2
ATOM      2  O   UNL     1       7.623   0.258  -4.287  1.00  0.00    -0.374 OA
BRANCH   2   3
ATOM      3  C   UNL     1       7.163  -0.172  -3.002  1.00  0.00     0.202 C 
BRANCH   3   4
ATOM      4  C   UNL     1       8.167   0.015  -1.860  1.00  0.00     0.261 C 
BRANCH   4   5
ATOM      5  O   UNL     1       8.596   1.381  -1.767  1.00  0.00    -0.460 OA
BRANCH   5   6
ATOM      6  C   UNL     1       9.627   1.978  -2.410  1.00  0.00     0.338 C 
ATOM      7  O   UNL     1       9.758   3.196  -2.302  1.00  0.00    -0.246 OA
BRANCH   6   8
ATOM      8  C   UNL     1      10.652   1.238  -3.211  1.00  0.00     0.060 A 
ATOM      9  C   UNL     1      10.458   0.004  -3.828  1.00  0.00     0.016 A 
ATOM     10  C   UNL     1      11.896   1.872  -3.396  1.00  0.00     0.016 A 
ATOM     11  C   UNL     1      11.460  -0.616  -4.544  1.00  0.00     0.010 A 
ATOM     12  C   UNL     1      12.912   1.264  -4.141  1.00  0.00     0.010 A 
ATOM     13  C   UNL     1      12.694   0.001  -4.693  1.00  0.00    -0.014 A 
BRANCH  13  14
ATOM     14  C   UNL     1      13.756  -0.832  -5.273  1.00  0.00     0.031 A 
ATOM     15  C   UNL     1      14.696  -1.509  -4.327  1.00  0.00     0.074 A 
ATOM     16  C   UNL     1      13.691  -1.163  -6.574  1.00  0.00     0.049 A 
ATOM     17  N   UNL     1      15.661  -2.348  -4.580  1.00  0.00    -0.248 NA
ATOM     18  C   UNL     1      14.499  -1.230  -2.892  1.00  0.00     0.031 C 
ATOM     19  C   UNL     1      12.676  -0.677  -7.515  1.00  0.00     0.029 A 
ATOM     20  N   UNL     1      14.447  -2.028  -7.314  1.00  0.00    -0.354 N 
ATOM     21  C   UNL     1      16.201  -2.676  -3.344  1.00  0.00     0.074 A 
ATOM     22  C   UNL     1      15.462  -1.949  -2.339  1.00  0.00     0.031 C 
ATOM     23  C   UNL     1      12.857  -1.279  -8.701  1.00  0.00     0.029 A 
ATOM     24  C   UNL     1      14.038  -2.132  -8.621  1.00  0.00     0.049 A 
ATOM     25  H   UNL     1      15.211  -2.529  -6.946  1.00  0.00     0.167 HD
ATOM     26  C   UNL     1      17.232  -3.510  -3.085  1.00  0.00     0.037 A 
ATOM     27  C   UNL     1      14.586  -2.821  -9.639  1.00  0.00     0.037 A 
ATOM     28  C   UNL     1      17.945  -4.211  -4.115  1.00  0.00     0.049 A 
ATOM     29  C   UNL     1      15.810  -3.643  -9.347  1.00  0.00     0.074 A 
ATOM     30  C   UNL     1      19.071  -5.001  -4.004  1.00  0.00     0.029 A 
ATOM     31  N   UNL     1      17.587  -4.199  -5.458  1.00  0.00    -0.354 N 
ATOM     32  N   UNL     1      16.398  -3.863  -8.192  1.00  0.00    -0.248 NA
ATOM     33  C   UNL     1      16.459  -4.300 -10.487  1.00  0.00     0.031 C 
ATOM     34  C   UNL     1      19.422  -5.430  -5.288  1.00  0.00     0.029 A 
ATOM     35  C   UNL     1      18.477  -4.960  -6.191  1.00  0.00     0.049 A 
ATOM     36  H   UNL     1      16.813  -3.719  -5.832  1.00  0.00     0.167 HD
ATOM     37  C   UNL     1      17.474  -4.696  -8.462  1.00  0.00     0.074 A 
ATOM     38  C   UNL     1      17.447  -4.953  -9.890  1.00  0.00     0.031 C 
ATOM     39  C   UNL     1      18.403  -5.200  -7.612  1.00  0.00     0.037 A 
BRANCH  26  40
ATOM     40  C   UNL     1      17.678  -3.624  -1.658  1.00  0.00     0.057 A 
ATOM     41  C   UNL     1      18.875  -3.026  -1.245  1.00  0.00     0.134 A 
ATOM     42  C   UNL     1      16.920  -4.290  -0.686  1.00  0.00     0.134 A 
ATOM     43  F   UNL     1      19.642  -2.361  -2.122  1.00  0.00    -0.206 F 
ATOM     44  C   UNL     1      19.305  -3.089   0.081  1.00  0.00     0.040 A 
ATOM     45  C   UNL     1      17.327  -4.338   0.650  1.00  0.00     0.040 A 
ATOM     46  F   UNL     1      15.745  -4.853  -1.007  1.00  0.00    -0.206 F 
ATOM     47  C   UNL     1      18.526  -3.741   1.035  1.00  0.00     0.006 A 
ENDBRANCH  26  40
BRANCH  27  48
ATOM     48  C   UNL     1      14.007  -2.720 -11.003  1.00  0.00     0.057 A 
ATOM     49  C   UNL     1      14.004  -1.503 -11.701  1.00  0.00     0.134 A 
ATOM     50  C   UNL     1      13.421  -3.820 -11.636  1.00  0.00     0.134 A 
ATOM     51  F   UNL     1      14.550  -0.407 -11.154  1.00  0.00    -0.206 F 
ATOM     52  C   UNL     1      13.417  -1.378 -12.961  1.00  0.00     0.040 A 
ATOM     53  C   UNL     1      12.855  -3.717 -12.910  1.00  0.00     0.040 A 
ATOM     54  F   UNL     1      13.408  -5.018 -11.033  1.00  0.00    -0.206 F 
ATOM     55  C   UNL     1      12.844  -2.490 -13.572  1.00  0.00     0.006 A 
ENDBRANCH  27  48
BRANCH  39  56
ATOM     56  C   UNL     1      19.441  -6.111  -8.194  1.00  0.00     0.057 A 
ATOM     57  C   UNL     1      19.438  -7.476  -7.877  1.00  0.00     0.134 A 
ATOM     58  C   UNL     1      20.490  -5.627  -8.983  1.00  0.00     0.134 A 
ATOM     59  F   UNL     1      18.465  -7.996  -7.113  1.00  0.00    -0.206 F 
ATOM     60  C   UNL     1      20.454  -8.325  -8.311  1.00  0.00     0.040 A 
ATOM     61  C   UNL     1      21.497  -6.473  -9.447  1.00  0.00     0.040 A 
ATOM     62  F   UNL     1      20.542  -4.331  -9.325  1.00  0.00    -0.206 F 
ATOM     63  C   UNL     1      21.487  -7.823  -9.101  1.00  0.00     0.006 A 
ENDBRANCH  39  56
ENDBRANCH  13  14
ENDBRANCH   6   8
ENDBRANCH   5   6
ENDBRANCH   4   5
ENDBRANCH   3   4
ENDBRANCH   2   3
ENDBRANCH   1   2
BRANCH   1  64
ATOM     64  C   UNL     1       6.183   1.649  -5.679  1.00  0.00     0.261 C 
BRANCH  64  65
ATOM     65  O   UNL     1       4.999   1.067  -5.110  1.00  0.00    -0.461 OA
BRANCH  65  66
ATOM     66  C   UNL     1       4.880  -0.280  -5.301  1.00  0.00     0.335 C 
ATOM     67  O   UNL     1       5.481  -0.934  -6.145  1.00  0.00    -0.249 OA
BRANCH  66  68
ATOM     68  C   UNL     1       3.981  -0.879  -4.216  1.00  0.00     0.228 C 
ATOM     69  C   UNL     1       2.804  -1.634  -4.794  1.00  0.00     0.047 C 
ATOM     70  O   UNL     1       4.731  -1.828  -3.437  1.00  0.00    -0.361 OA
ATOM     71  C   UNL     1       3.363  -3.030  -4.951  1.00  0.00     0.037 C 
ATOM     72  C   UNL     1       4.276  -3.161  -3.740  1.00  0.00     0.138 C 
BRANCH  72  73
ATOM     73  C   UNL     1       5.463  -4.157  -3.826  1.00  0.00     0.145 C 
BRANCH  73  74
ATOM     74  N   UNL     1       5.927  -4.387  -5.188  1.00  0.00    -0.377 N 
ATOM     75  H   UNL     1       5.284  -4.796  -5.810  1.00  0.00     0.160 HD
BRANCH  74  76
ATOM     76  C   UNL     1       7.179  -4.089  -5.699  1.00  0.00     0.116 A 
ATOM     77  C   UNL     1       8.335  -4.259  -4.918  1.00  0.00     0.033 A 
ATOM     78  C   UNL     1       7.366  -3.590  -7.012  1.00  0.00     0.327 A 
ATOM     79  C   UNL     1       9.612  -3.985  -5.424  1.00  0.00     0.006 A 
ATOM     80  C   UNL     1       8.638  -3.289  -7.506  1.00  0.00     0.202 A 
ATOM     81  C   UNL     1       9.762  -3.493  -6.716  1.00  0.00     0.047 A 
ATOM     82  F   UNL     1       8.828  -2.847  -8.758  1.00  0.00    -0.199 F 
BRANCH  78  83
ATOM     83  N   UNL     1       6.235  -3.426  -7.917  1.00  0.00     0.068 N 
ATOM     84  O   UNL     1       5.322  -4.270  -7.849  1.00  0.00    -0.258 OA
ATOM     85  O   UNL     1       6.254  -2.491  -8.730  1.00  0.00    -0.258 OA
ENDBRANCH  78  83
ENDBRANCH  74  76
ENDBRANCH  73  74
ENDBRANCH  72  73
ENDBRANCH  66  68
ENDBRANCH  65  66
ENDBRANCH  64  65
ENDBRANCH   1  64
TORSDOF 18
