REMARK SMILES CCC[N@H+]1CCC[C@H](CC(=O)OCCOCCOC(=O)c2ccc(-c3c4nc(c(-c5c(F)cccc5F)c5ccc([nH]5)c(-c5c(F)cccc5F)c5nc(c(-c6c(F)cccc6F)c6ccc3[nH]6)C=C5)C=C4)cc2)C1
REMARK SMILES IDX 14 1 13 2 12 3 10 4 11 5 9 6 8 7 4 8 5 9 75 10 6 12 7 13
REMARK SMILES IDX 3 14 2 15 1 16 15 17 16 18 17 19 18 20 19 21 20 22 21 23
REMARK SMILES IDX 22 24 74 25 23 26 73 27 24 28 25 29 26 30 67 31 27 32 72 33
REMARK SMILES IDX 66 34 68 35 28 36 71 37 65 38 64 39 29 41 55 42 38 43 54 44
REMARK SMILES IDX 39 45 42 46 53 47 69 48 40 49 41 50 52 52 70 53 43 54 30 55
REMARK SMILES IDX 31 56 36 57 32 58 33 59 35 60 37 61 34 62 56 63 57 64 62 65
REMARK SMILES IDX 58 66 59 67 61 68 63 69 60 70 44 71 45 72 50 73 46 74 47 75
REMARK SMILES IDX 49 76 51 77 48 78
REMARK H PARENT 4 11 68 40 42 51
REMARK Flexibility Score: inf
ROOT
ATOM      1  C   UNL     1      -1.303   4.379  -6.546  1.00  0.00     0.202 C 
ENDROOT
BRANCH   1   2
ATOM      2  C   UNL     1      -2.226   4.511  -5.334  1.00  0.00     0.261 C 
BRANCH   2   3
ATOM      3  O   UNL     1      -1.502   4.203  -4.128  1.00  0.00    -0.463 OA
BRANCH   3   4
ATOM      4  C   UNL     1      -2.007   3.208  -3.361  1.00  0.00     0.306 C 
ATOM      5  O   UNL     1      -3.070   2.636  -3.568  1.00  0.00    -0.252 OA
BRANCH   4   6
ATOM      6  C   UNL     1      -1.135   2.880  -2.173  1.00  0.00     0.132 C 
BRANCH   6   7
ATOM      7  C   UNL     1       0.393   3.102  -2.298  1.00  0.00     0.055 C 
ATOM      8  N   UNL     1       0.692   2.794   0.134  1.00  0.00    -0.335 N 
ATOM      9  C   UNL     1       1.115   4.200   0.304  1.00  0.00     0.262 C 
ATOM     10  C   UNL     1       1.112   2.308  -1.188  1.00  0.00     0.266 C 
ATOM     11  H   UNL     1      -0.325   2.723   0.170  1.00  0.00     0.348 HD
ATOM     12  C   UNL     1       0.573   5.122  -0.794  1.00  0.00     0.062 C 
ATOM     13  C   UNL     1       0.837   4.567  -2.189  1.00  0.00     0.016 C 
BRANCH   8  14
ATOM     14  C   UNL     1       1.213   1.975   1.241  1.00  0.00     0.261 C 
BRANCH  14  15
ATOM     15  C   UNL     1       0.495   0.633   1.472  1.00  0.00     0.058 C 
ATOM     16  C   UNL     1       0.904  -0.506   0.551  1.00  0.00     0.010 C 
ENDBRANCH  14  15
ENDBRANCH   8  14
ENDBRANCH   6   7
ENDBRANCH   4   6
ENDBRANCH   3   4
ENDBRANCH   2   3
ENDBRANCH   1   2
BRANCH   1  17
ATOM     17  O   UNL     1      -1.005   3.041  -6.950  1.00  0.00    -0.374 OA
BRANCH  17  18
ATOM     18  C   UNL     1      -0.075   2.313  -6.150  1.00  0.00     0.202 C 
BRANCH  18  19
ATOM     19  C   UNL     1       1.406   2.601  -6.425  1.00  0.00     0.261 C 
BRANCH  19  20
ATOM     20  O   UNL     1       1.762   3.963  -6.119  1.00  0.00    -0.460 OA
BRANCH  20  21
ATOM     21  C   UNL     1       2.047   4.726  -7.199  1.00  0.00     0.338 C 
ATOM     22  O   UNL     1       2.131   4.363  -8.365  1.00  0.00    -0.246 OA
BRANCH  21  23
ATOM     23  C   UNL     1       2.095   6.151  -6.824  1.00  0.00     0.060 A 
ATOM     24  C   UNL     1       1.295   7.035  -7.560  1.00  0.00     0.016 A 
ATOM     25  C   UNL     1       2.962   6.632  -5.839  1.00  0.00     0.016 A 
ATOM     26  C   UNL     1       1.396   8.408  -7.350  1.00  0.00     0.010 A 
ATOM     27  C   UNL     1       3.068   8.014  -5.637  1.00  0.00     0.010 A 
ATOM     28  C   UNL     1       2.312   8.909  -6.417  1.00  0.00    -0.014 A 
BRANCH  28  29
ATOM     29  C   UNL     1       2.575  10.368  -6.374  1.00  0.00     0.031 A 
ATOM     30  C   UNL     1       3.762  10.921  -7.114  1.00  0.00     0.074 A 
ATOM     31  C   UNL     1       1.737  11.201  -5.731  1.00  0.00     0.049 A 
ATOM     32  N   UNL     1       4.171  12.160  -7.222  1.00  0.00    -0.248 NA
ATOM     33  C   UNL     1       4.599   9.946  -7.832  1.00  0.00     0.031 C 
ATOM     34  C   UNL     1       0.531  10.797  -5.011  1.00  0.00     0.029 A 
ATOM     35  N   UNL     1       1.778  12.565  -5.585  1.00  0.00    -0.354 N 
ATOM     36  C   UNL     1       5.308  12.115  -8.018  1.00  0.00     0.074 A 
ATOM     37  C   UNL     1       5.544  10.724  -8.341  1.00  0.00     0.031 C 
ATOM     38  C   UNL     1      -0.053  11.892  -4.494  1.00  0.00     0.029 A 
ATOM     39  C   UNL     1       0.750  13.068  -4.825  1.00  0.00     0.049 A 
ATOM     40  H   UNL     1       2.477  13.130  -5.987  1.00  0.00     0.167 HD
ATOM     41  C   UNL     1       6.080  13.139  -8.452  1.00  0.00     0.037 A 
ATOM     42  C   UNL     1       0.497  14.330  -4.431  1.00  0.00     0.037 A 
ATOM     43  C   UNL     1       5.848  14.524  -8.137  1.00  0.00     0.049 A 
ATOM     44  C   UNL     1       1.412  15.444  -4.865  1.00  0.00     0.074 A 
ATOM     45  C   UNL     1       6.564  15.634  -8.548  1.00  0.00     0.029 A 
ATOM     46  N   UNL     1       4.823  14.987  -7.326  1.00  0.00    -0.354 N 
ATOM     47  N   UNL     1       2.469  15.392  -5.639  1.00  0.00    -0.248 NA
ATOM     48  C   UNL     1       1.098  16.792  -4.370  1.00  0.00     0.031 C 
ATOM     49  C   UNL     1       5.999  16.766  -7.951  1.00  0.00     0.029 A 
ATOM     50  C   UNL     1       4.905  16.364  -7.202  1.00  0.00     0.049 A 
ATOM     51  H   UNL     1       4.139  14.420  -6.901  1.00  0.00     0.167 HD
ATOM     52  C   UNL     1       2.930  16.698  -5.743  1.00  0.00     0.074 A 
ATOM     53  C   UNL     1       2.032  17.523  -4.963  1.00  0.00     0.031 C 
ATOM     54  C   UNL     1       4.002  17.173  -6.424  1.00  0.00     0.037 A 
BRANCH  41  55
ATOM     55  C   UNL     1       7.265  12.796  -9.303  1.00  0.00     0.057 A 
ATOM     56  C   UNL     1       7.124  12.396 -10.638  1.00  0.00     0.134 A 
ATOM     57  C   UNL     1       8.565  12.900  -8.792  1.00  0.00     0.134 A 
ATOM     58  F   UNL     1       5.905  12.263 -11.183  1.00  0.00    -0.206 F 
ATOM     59  C   UNL     1       8.233  12.092 -11.429  1.00  0.00     0.040 A 
ATOM     60  C   UNL     1       9.682  12.621  -9.580  1.00  0.00     0.040 A 
ATOM     61  F   UNL     1       8.768  13.282  -7.522  1.00  0.00    -0.206 F 
ATOM     62  C   UNL     1       9.518  12.211 -10.901  1.00  0.00     0.006 A 
ENDBRANCH  41  55
BRANCH  42  63
ATOM     63  C   UNL     1      -0.671  14.616  -3.560  1.00  0.00     0.057 A 
ATOM     64  C   UNL     1      -1.778  15.325  -4.039  1.00  0.00     0.134 A 
ATOM     65  C   UNL     1      -0.693  14.209  -2.221  1.00  0.00     0.134 A 
ATOM     66  F   UNL     1      -1.802  15.763  -5.306  1.00  0.00    -0.206 F 
ATOM     67  C   UNL     1      -2.861  15.632  -3.213  1.00  0.00     0.040 A 
ATOM     68  C   UNL     1      -1.779  14.489  -1.390  1.00  0.00     0.040 A 
ATOM     69  F   UNL     1       0.339  13.527  -1.702  1.00  0.00    -0.206 F 
ATOM     70  C   UNL     1      -2.864  15.210  -1.885  1.00  0.00     0.006 A 
ENDBRANCH  42  63
BRANCH  54  71
ATOM     71  C   UNL     1       4.250  18.652  -6.376  1.00  0.00     0.057 A 
ATOM     72  C   UNL     1       4.759  19.277  -5.231  1.00  0.00     0.134 A 
ATOM     73  C   UNL     1       4.014  19.453  -7.501  1.00  0.00     0.134 A 
ATOM     74  F   UNL     1       4.994  18.567  -4.117  1.00  0.00    -0.206 F 
ATOM     75  C   UNL     1       5.008  20.650  -5.200  1.00  0.00     0.040 A 
ATOM     76  C   UNL     1       4.281  20.822  -7.490  1.00  0.00     0.040 A 
ATOM     77  F   UNL     1       3.534  18.914  -8.632  1.00  0.00    -0.206 F 
ATOM     78  C   UNL     1       4.775  21.425  -6.335  1.00  0.00     0.006 A 
ENDBRANCH  54  71
ENDBRANCH  28  29
ENDBRANCH  21  23
ENDBRANCH  20  21
ENDBRANCH  19  20
ENDBRANCH  18  19
ENDBRANCH  17  18
ENDBRANCH   1  17
TORSDOF 17
