REMARK SMILES [NH3+][C@H]1CCCC[C@@H]1C(=O)N1CC(C(=O)OCCOCCOC(=O)c2ccc(-c3c4nc(c(-c5c(F)cccc5F)c5ccc([nH]5)c(-c5c(F)cccc5F)c5nc(c(-c6c(F)cccc6F)c6ccc3[nH]6)C=C5)C=C4)cc2)C1
REMARK SMILES IDX 18 1 17 2 16 3 15 4 13 5 14 6 12 7 8 8 9 9 10 10 11 11 78 12
REMARK SMILES IDX 7 13 2 14 3 15 4 16 6 17 5 18 1 19 19 23 20 24 21 25 22 26
REMARK SMILES IDX 23 27 24 28 25 29 77 30 26 31 76 32 27 33 28 34 29 35 70 36
REMARK SMILES IDX 30 37 75 38 69 39 71 40 31 41 74 42 68 43 67 44 32 46 58 47
REMARK SMILES IDX 41 48 57 49 42 50 45 51 56 52 72 53 43 54 44 55 55 57 73 58
REMARK SMILES IDX 46 59 33 60 34 61 39 62 35 63 36 64 38 65 40 66 37 67 59 68
REMARK SMILES IDX 60 69 65 70 61 71 62 72 64 73 66 74 63 75 47 76 48 77 53 78
REMARK SMILES IDX 49 79 50 80 52 81 54 82 51 83
REMARK H PARENT 1 20 1 21 1 22 71 45 45 56
REMARK Flexibility Score: inf
ROOT
ATOM      1  O   UNL     1      -3.642  -2.394  -7.406  1.00  0.00    -0.374 OA
ENDROOT
BRANCH   1   2
ATOM      2  C   UNL     1      -4.075  -1.051  -7.198  1.00  0.00     0.202 C 
BRANCH   2   3
ATOM      3  C   UNL     1      -4.686  -0.738  -5.829  1.00  0.00     0.261 C 
BRANCH   3   4
ATOM      4  O   UNL     1      -3.775  -1.073  -4.770  1.00  0.00    -0.463 OA
BRANCH   4   5
ATOM      5  C   UNL     1      -4.221  -2.014  -3.884  1.00  0.00     0.312 C 
ATOM      6  O   UNL     1      -5.396  -2.372  -3.809  1.00  0.00    -0.252 OA
BRANCH   5   7
ATOM      7  C   UNL     1      -3.090  -2.632  -3.055  1.00  0.00     0.138 C 
ATOM      8  C   UNL     1      -1.228  -2.292  -0.241  1.00  0.00     0.231 C 
ATOM      9  O   UNL     1      -1.396  -3.153   0.631  1.00  0.00    -0.274 OA
ATOM     10  N   UNL     1      -1.869  -2.404  -1.434  1.00  0.00    -0.340 N 
ATOM     11  C   UNL     1      -3.303  -2.657  -1.542  1.00  0.00     0.136 C 
ATOM     12  C   UNL     1      -1.788  -1.848  -2.769  1.00  0.00     0.136 C 
BRANCH   8  13
ATOM     13  C   UNL     1      -0.353  -1.086   0.068  1.00  0.00     0.136 C 
ATOM     14  C   UNL     1      -0.993   0.273  -0.278  1.00  0.00     0.193 C 
ATOM     15  C   UNL     1      -0.122   1.422   0.246  1.00  0.00     0.066 C 
ATOM     16  C   UNL     1       1.312   1.314  -0.270  1.00  0.00     0.006 C 
ATOM     17  C   UNL     1       1.063  -1.196  -0.497  1.00  0.00     0.020 C 
ATOM     18  C   UNL     1       1.929  -0.049   0.035  1.00  0.00     0.001 C 
BRANCH  14  19
ATOM     19  N   UNL     1      -2.350   0.401   0.258  1.00  0.00    -0.354 N 
ATOM     20  H   UNL     1      -2.730   1.313   0.005  1.00  0.00     0.344 HD
ATOM     21  H   UNL     1      -2.324   0.314   1.274  1.00  0.00     0.344 HD
ATOM     22  H   UNL     1      -2.940  -0.334  -0.132  1.00  0.00     0.344 HD
ENDBRANCH  14  19
ENDBRANCH   8  13
ENDBRANCH   5   7
ENDBRANCH   4   5
ENDBRANCH   3   4
ENDBRANCH   2   3
ENDBRANCH   1   2
BRANCH   1  23
ATOM     23  C   UNL     1      -2.408  -2.800  -6.810  1.00  0.00     0.202 C 
BRANCH  23  24
ATOM     24  C   UNL     1      -1.120  -2.246  -7.429  1.00  0.00     0.261 C 
BRANCH  24  25
ATOM     25  O   UNL     1      -0.979  -0.828  -7.219  1.00  0.00    -0.460 OA
BRANCH  25  26
ATOM     26  C   UNL     1      -0.979  -0.083  -8.348  1.00  0.00     0.338 C 
ATOM     27  O   UNL     1      -1.017  -0.490  -9.507  1.00  0.00    -0.246 OA
BRANCH  26  28
ATOM     28  C   UNL     1      -1.099   1.346  -8.022  1.00  0.00     0.060 A 
ATOM     29  C   UNL     1      -2.147   2.064  -8.614  1.00  0.00     0.016 A 
ATOM     30  C   UNL     1      -0.152   1.996  -7.228  1.00  0.00     0.016 A 
ATOM     31  C   UNL     1      -2.225   3.446  -8.454  1.00  0.00     0.010 A 
ATOM     32  C   UNL     1      -0.225   3.385  -7.079  1.00  0.00     0.010 A 
ATOM     33  C   UNL     1      -1.241   4.119  -7.719  1.00  0.00    -0.014 A 
BRANCH  33  34
ATOM     34  C   UNL     1      -1.188   5.601  -7.744  1.00  0.00     0.031 A 
ATOM     35  C   UNL     1      -0.238   6.280  -8.691  1.00  0.00     0.074 A 
ATOM     36  C   UNL     1      -1.987   6.332  -6.948  1.00  0.00     0.049 A 
ATOM     37  N   UNL     1       0.018   7.554  -8.838  1.00  0.00    -0.248 NA
ATOM     38  C   UNL     1       0.526   5.402  -9.593  1.00  0.00     0.031 C 
ATOM     39  C   UNL     1      -2.982   5.794  -6.023  1.00  0.00     0.029 A 
ATOM     40  N   UNL     1      -2.077   7.692  -6.788  1.00  0.00    -0.354 N 
ATOM     41  C   UNL     1       0.974   7.632  -9.844  1.00  0.00     0.074 A 
ATOM     42  C   UNL     1       1.272   6.276 -10.252  1.00  0.00     0.031 C 
ATOM     43  C   UNL     1      -3.575   6.815  -5.380  1.00  0.00     0.029 A 
ATOM     44  C   UNL     1      -2.979   8.073  -5.825  1.00  0.00     0.049 A 
ATOM     45  H   UNL     1      -1.545   8.334  -7.313  1.00  0.00     0.167 HD
ATOM     46  C   UNL     1       1.546   8.735 -10.383  1.00  0.00     0.037 A 
ATOM     47  C   UNL     1      -3.271   9.297  -5.344  1.00  0.00     0.037 A 
ATOM     48  C   UNL     1       1.250  10.083  -9.977  1.00  0.00     0.049 A 
ATOM     49  C   UNL     1      -2.562  10.502  -5.904  1.00  0.00     0.074 A 
ATOM     50  C   UNL     1       1.772  11.267 -10.470  1.00  0.00     0.029 A 
ATOM     51  N   UNL     1       0.355  10.425  -8.976  1.00  0.00    -0.354 N 
ATOM     52  N   UNL     1      -1.669  10.566  -6.861  1.00  0.00    -0.248 NA
ATOM     53  C   UNL     1      -2.902  11.805  -5.313  1.00  0.00     0.031 C 
ATOM     54  C   UNL     1       1.221  12.324  -9.738  1.00  0.00     0.029 A 
ATOM     55  C   UNL     1       0.325  11.801  -8.820  1.00  0.00     0.049 A 
ATOM     56  H   UNL     1      -0.181   9.785  -8.454  1.00  0.00     0.167 HD
ATOM     57  C   UNL     1      -1.364  11.914  -7.008  1.00  0.00     0.074 A 
ATOM     58  C   UNL     1      -2.171  12.633  -6.046  1.00  0.00     0.031 C 
ATOM     59  C   UNL     1      -0.495  12.502  -7.866  1.00  0.00     0.037 A 
BRANCH  46  60
ATOM     60  C   UNL     1       2.570   8.524 -11.458  1.00  0.00     0.057 A 
ATOM     61  C   UNL     1       2.210   8.124 -12.752  1.00  0.00     0.134 A 
ATOM     62  C   UNL     1       3.928   8.753 -11.205  1.00  0.00     0.134 A 
ATOM     63  F   UNL     1       0.927   7.874 -13.053  1.00  0.00    -0.206 F 
ATOM     64  C   UNL     1       3.168   7.939 -13.750  1.00  0.00     0.040 A 
ATOM     65  C   UNL     1       4.892   8.594 -12.202  1.00  0.00     0.040 A 
ATOM     66  F   UNL     1       4.338   9.141  -9.989  1.00  0.00    -0.206 F 
ATOM     67  C   UNL     1       4.513   8.180 -13.477  1.00  0.00     0.006 A 
ENDBRANCH  46  60
BRANCH  47  68
ATOM     68  C   UNL     1      -4.271   9.449  -4.259  1.00  0.00     0.057 A 
ATOM     69  C   UNL     1      -5.510  10.054  -4.496  1.00  0.00     0.134 A 
ATOM     70  C   UNL     1      -4.002   9.016  -2.954  1.00  0.00     0.134 A 
ATOM     71  F   UNL     1      -5.815  10.511  -5.719  1.00  0.00    -0.206 F 
ATOM     72  C   UNL     1      -6.441  10.237  -3.472  1.00  0.00     0.040 A 
ATOM     73  C   UNL     1      -4.933   9.173  -1.926  1.00  0.00     0.040 A 
ATOM     74  F   UNL     1      -2.832   8.429  -2.663  1.00  0.00    -0.206 F 
ATOM     75  C   UNL     1      -6.154   9.792  -2.183  1.00  0.00     0.006 A 
ENDBRANCH  47  68
BRANCH  59  76
ATOM     76  C   UNL     1      -0.400  13.999  -7.833  1.00  0.00     0.057 A 
ATOM     77  C   UNL     1       0.258  14.675  -6.798  1.00  0.00     0.134 A 
ATOM     78  C   UNL     1      -0.931  14.768  -8.876  1.00  0.00     0.134 A 
ATOM     79  F   UNL     1       0.777  13.996  -5.764  1.00  0.00    -0.206 F 
ATOM     80  C   UNL     1       0.371  16.067  -6.795  1.00  0.00     0.040 A 
ATOM     81  C   UNL     1      -0.805  16.158  -8.895  1.00  0.00     0.040 A 
ATOM     82  F   UNL     1      -1.566  14.180  -9.901  1.00  0.00    -0.206 F 
ATOM     83  C   UNL     1      -0.155  16.811  -7.850  1.00  0.00     0.006 A 
ENDBRANCH  59  76
ENDBRANCH  33  34
ENDBRANCH  26  28
ENDBRANCH  25  26
ENDBRANCH  24  25
ENDBRANCH  23  24
ENDBRANCH   1  23
TORSDOF 16
