REMARK SMILES CS(=O)(=O)c1cc(F)ccc1N1CCC[C@@H](C(=O)OCCOCCOC(=O)c2ccc(-c3c4nc(c(-c5c(F)cccc5F)c5ccc([nH]5)c(-c5c(F)cccc5F)c5nc(c(-c6c(F)cccc6F)c6ccc3[nH]6)C=C5)C=C4)cc2)C1
REMARK SMILES IDX 22 1 21 2 20 3 19 4 17 5 18 6 16 7 12 8 13 9 82 10 14 11
REMARK SMILES IDX 15 12 11 13 5 14 6 15 7 16 10 17 8 18 9 19 2 20 1 21 3 22
REMARK SMILES IDX 4 23 23 24 24 25 25 26 26 27 27 28 28 29 29 30 81 31 30 32
REMARK SMILES IDX 80 33 31 34 32 35 33 36 74 37 34 38 79 39 73 40 75 41 35 42
REMARK SMILES IDX 78 43 72 44 71 45 36 47 62 48 45 49 61 50 46 51 49 52 60 53
REMARK SMILES IDX 76 54 47 55 48 56 59 58 77 59 50 60 37 61 38 62 43 63 39 64
REMARK SMILES IDX 40 65 42 66 44 67 41 68 63 69 64 70 69 71 65 72 66 73 68 74
REMARK SMILES IDX 70 75 67 76 51 77 52 78 57 79 53 80 54 81 56 82 58 83 55 84
REMARK H PARENT 75 46 49 57
REMARK Flexibility Score: inf
ROOT
ATOM      1  O   UNL     1       6.267  -3.340   1.016  1.00  0.00    -0.374 OA
ENDROOT
BRANCH   1   2
ATOM      2  C   UNL     1       7.166  -2.636   0.165  1.00  0.00     0.202 C 
BRANCH   2   3
ATOM      3  C   UNL     1       6.663  -1.386  -0.568  1.00  0.00     0.261 C 
BRANCH   3   4
ATOM      4  O   UNL     1       6.096  -0.382   0.292  1.00  0.00    -0.463 OA
BRANCH   4   5
ATOM      5  C   UNL     1       4.737  -0.418   0.329  1.00  0.00     0.310 C 
ATOM      6  O   UNL     1       4.058  -1.260  -0.248  1.00  0.00    -0.252 OA
BRANCH   5   7
ATOM      7  C   UNL     1       4.146   0.681   1.195  1.00  0.00     0.118 C 
ATOM      8  N   UNL     1       1.895   1.723   1.448  1.00  0.00    -0.370 N 
ATOM      9  C   UNL     1       1.788   1.377   2.866  1.00  0.00     0.116 C 
ATOM     10  C   UNL     1       2.750   0.887   0.617  1.00  0.00     0.131 C 
ATOM     11  C   UNL     1       3.176   1.217   3.484  1.00  0.00     0.022 C 
ATOM     12  C   UNL     1       4.057   0.268   2.670  1.00  0.00     0.019 C 
BRANCH   8  13
ATOM     13  C   UNL     1       1.379   2.895   0.937  1.00  0.00     0.056 A 
ATOM     14  C   UNL     1       0.568   3.013  -0.208  1.00  0.00     0.093 A 
ATOM     15  C   UNL     1       0.189   4.286  -0.689  1.00  0.00     0.061 A 
ATOM     16  C   UNL     1       0.590   5.436  -0.036  1.00  0.00     0.124 A 
ATOM     17  C   UNL     1       1.748   4.102   1.581  1.00  0.00     0.030 A 
ATOM     18  F   UNL     1       0.225   6.633  -0.512  1.00  0.00    -0.207 F 
ATOM     19  C   UNL     1       1.362   5.358   1.105  1.00  0.00     0.041 A 
BRANCH  14  20
ATOM     20  S   UNL     1      -0.169   1.696  -1.161  1.00  0.00     0.177 S 
ATOM     21  C   UNL     1      -0.080   0.120  -0.390  1.00  0.00     0.164 C 
ATOM     22  O   UNL     1       0.607   1.621  -2.388  1.00  0.00    -0.224 OA
ATOM     23  O   UNL     1      -1.587   2.017  -1.217  1.00  0.00    -0.224 OA
ENDBRANCH  14  20
ENDBRANCH   8  13
ENDBRANCH   5   7
ENDBRANCH   4   5
ENDBRANCH   3   4
ENDBRANCH   2   3
ENDBRANCH   1   2
BRANCH   1  24
ATOM     24  C   UNL     1       5.959  -2.762   2.282  1.00  0.00     0.202 C 
BRANCH  24  25
ATOM     25  C   UNL     1       7.029  -2.817   3.377  1.00  0.00     0.261 C 
BRANCH  25  26
ATOM     26  O   UNL     1       8.206  -2.077   3.010  1.00  0.00    -0.460 OA
BRANCH  26  27
ATOM     27  C   UNL     1       9.311  -2.838   2.843  1.00  0.00     0.338 C 
ATOM     28  O   UNL     1       9.436  -4.030   3.097  1.00  0.00    -0.246 OA
BRANCH  27  29
ATOM     29  C   UNL     1      10.339  -2.087   2.102  1.00  0.00     0.060 A 
ATOM     30  C   UNL     1      10.854  -2.690   0.948  1.00  0.00     0.016 A 
ATOM     31  C   UNL     1      10.835  -0.859   2.548  1.00  0.00     0.016 A 
ATOM     32  C   UNL     1      11.914  -2.100   0.271  1.00  0.00     0.010 A 
ATOM     33  C   UNL     1      11.910  -0.272   1.870  1.00  0.00     0.010 A 
ATOM     34  C   UNL     1      12.478  -0.912   0.755  1.00  0.00    -0.014 A 
BRANCH  34  35
ATOM     35  C   UNL     1      13.751  -0.446   0.159  1.00  0.00     0.031 A 
ATOM     36  C   UNL     1      15.047  -0.803   0.832  1.00  0.00     0.074 A 
ATOM     37  C   UNL     1      13.754   0.197  -1.022  1.00  0.00     0.049 A 
ATOM     38  N   UNL     1      16.274  -0.587   0.433  1.00  0.00    -0.248 NA
ATOM     39  C   UNL     1      14.948  -1.503   2.123  1.00  0.00     0.031 C 
ATOM     40  C   UNL     1      12.562   0.559  -1.785  1.00  0.00     0.029 A 
ATOM     41  N   UNL     1      14.798   0.637  -1.793  1.00  0.00    -0.354 N 
ATOM     42  C   UNL     1      17.091  -1.135   1.413  1.00  0.00     0.074 A 
ATOM     43  C   UNL     1      16.223  -1.656   2.447  1.00  0.00     0.031 C 
ATOM     44  C   UNL     1      12.942   1.153  -2.928  1.00  0.00     0.029 A 
ATOM     45  C   UNL     1      14.402   1.230  -2.966  1.00  0.00     0.049 A 
ATOM     46  H   UNL     1      15.742   0.538  -1.531  1.00  0.00     0.167 HD
ATOM     47  C   UNL     1      18.442  -1.212   1.440  1.00  0.00     0.037 A 
ATOM     48  C   UNL     1      15.134   1.771  -3.958  1.00  0.00     0.037 A 
ATOM     49  C   UNL     1      19.303  -0.691   0.411  1.00  0.00     0.049 A 
ATOM     50  C   UNL     1      16.635   1.737  -3.872  1.00  0.00     0.074 A 
ATOM     51  C   UNL     1      20.684  -0.734   0.341  1.00  0.00     0.029 A 
ATOM     52  N   UNL     1      18.864  -0.027  -0.724  1.00  0.00    -0.354 N 
ATOM     53  N   UNL     1      17.397   1.200  -2.949  1.00  0.00    -0.248 NA
ATOM     54  C   UNL     1      17.378   2.381  -4.964  1.00  0.00     0.031 C 
ATOM     55  C   UNL     1      21.084  -0.052  -0.813  1.00  0.00     0.029 A 
ATOM     56  C   UNL     1      19.950   0.373  -1.486  1.00  0.00     0.049 A 
ATOM     57  H   UNL     1      17.921   0.137  -0.955  1.00  0.00     0.167 HD
ATOM     58  C   UNL     1      18.706   1.433  -3.352  1.00  0.00     0.074 A 
ATOM     59  C   UNL     1      18.634   2.140  -4.615  1.00  0.00     0.031 C 
ATOM     60  C   UNL     1      19.862   1.094  -2.731  1.00  0.00     0.037 A 
BRANCH  47  61
ATOM     61  C   UNL     1      19.076  -1.874   2.627  1.00  0.00     0.057 A 
ATOM     62  C   UNL     1      19.783  -1.121   3.572  1.00  0.00     0.134 A 
ATOM     63  C   UNL     1      19.029  -3.263   2.809  1.00  0.00     0.134 A 
ATOM     64  F   UNL     1      19.868   0.212   3.455  1.00  0.00    -0.206 F 
ATOM     65  C   UNL     1      20.430  -1.727   4.651  1.00  0.00     0.040 A 
ATOM     66  C   UNL     1      19.652  -3.877   3.896  1.00  0.00     0.040 A 
ATOM     67  F   UNL     1      18.355  -4.039   1.947  1.00  0.00    -0.206 F 
ATOM     68  C   UNL     1      20.363  -3.109   4.816  1.00  0.00     0.006 A 
ENDBRANCH  47  61
BRANCH  48  69
ATOM     69  C   UNL     1      14.448   2.379  -5.125  1.00  0.00     0.057 A 
ATOM     70  C   UNL     1      13.729   3.574  -5.003  1.00  0.00     0.134 A 
ATOM     71  C   UNL     1      14.474   1.765  -6.382  1.00  0.00     0.134 A 
ATOM     72  F   UNL     1      13.666   4.209  -3.823  1.00  0.00    -0.206 F 
ATOM     73  C   UNL     1      13.041   4.127  -6.084  1.00  0.00     0.040 A 
ATOM     74  C   UNL     1      13.808   2.318  -7.477  1.00  0.00     0.040 A 
ATOM     75  F   UNL     1      15.164   0.630  -6.565  1.00  0.00    -0.206 F 
ATOM     76  C   UNL     1      13.081   3.498  -7.327  1.00  0.00     0.006 A 
ENDBRANCH  48  69
BRANCH  60  77
ATOM     77  C   UNL     1      21.146   1.491  -3.400  1.00  0.00     0.057 A 
ATOM     78  C   UNL     1      21.983   0.529  -3.979  1.00  0.00     0.134 A 
ATOM     79  C   UNL     1      21.580   2.822  -3.419  1.00  0.00     0.134 A 
ATOM     80  F   UNL     1      21.631  -0.766  -3.983  1.00  0.00    -0.206 F 
ATOM     81  C   UNL     1      23.209   0.876  -4.547  1.00  0.00     0.040 A 
ATOM     82  C   UNL     1      22.793   3.185  -4.006  1.00  0.00     0.040 A 
ATOM     83  F   UNL     1      20.820   3.793  -2.889  1.00  0.00    -0.206 F 
ATOM     84  C   UNL     1      23.615   2.209  -4.565  1.00  0.00     0.006 A 
ENDBRANCH  60  77
ENDBRANCH  34  35
ENDBRANCH  27  29
ENDBRANCH  26  27
ENDBRANCH  25  26
ENDBRANCH  24  25
ENDBRANCH   1  24
TORSDOF 16
