REMARK SMILES CC1([C@](C)(Nc2cccc(Cl)c2)C(=O)OCCOCCOC(=O)c2ccc(-c3c4nc(c(-c5c(F)cccc5F)c5ccc([nH]5)c(-c5c(F)cccc5F)c5nc(c(-c6c(F)cccc6F)c6ccc3[nH]6)C=C5)C=C4)cc2)CC1
REMARK SMILES IDX 18 1 17 2 16 3 15 4 13 5 14 6 3 7 4 8 2 9 1 10 78 11 79 12
REMARK SMILES IDX 5 13 6 15 7 16 12 17 8 18 10 19 9 20 11 21 19 22 20 23 21 24
REMARK SMILES IDX 22 25 23 26 24 27 25 28 77 29 26 30 76 31 27 32 28 33 29 34
REMARK SMILES IDX 70 35 30 36 75 37 69 38 71 39 31 40 74 41 68 42 67 43 32 45
REMARK SMILES IDX 58 46 41 47 57 48 42 49 45 50 56 51 72 52 43 53 44 54 55 56
REMARK SMILES IDX 73 57 46 58 33 59 34 60 39 61 35 62 36 63 38 64 40 65 37 66
REMARK SMILES IDX 59 67 60 68 65 69 61 70 62 71 64 72 66 73 63 74 47 75 48 76
REMARK SMILES IDX 53 77 49 78 50 79 52 80 54 81 51 82
REMARK H PARENT 5 14 71 44 45 55
REMARK Flexibility Score: inf
ROOT
ATOM      1  O   UNL     1      -3.872   1.615   1.906  1.00  0.00    -0.374 OA
ENDROOT
BRANCH   1   2
ATOM      2  C   UNL     1      -4.315   0.332   1.474  1.00  0.00     0.202 C 
BRANCH   2   3
ATOM      3  C   UNL     1      -3.681  -0.190   0.187  1.00  0.00     0.261 C 
BRANCH   3   4
ATOM      4  O   UNL     1      -2.281  -0.484   0.349  1.00  0.00    -0.461 OA
BRANCH   4   5
ATOM      5  C   UNL     1      -1.441   0.440  -0.195  1.00  0.00     0.332 C 
ATOM      6  O   UNL     1      -1.846   1.476  -0.721  1.00  0.00    -0.249 OA
BRANCH   5   7
ATOM      7  C   UNL     1       0.054   0.011  -0.220  1.00  0.00     0.138 C 
ATOM      8  C   UNL     1       0.817   1.351  -0.477  1.00  0.00     0.048 C 
BRANCH   7   9
ATOM      9  C   UNL     1       0.315  -1.050  -1.343  1.00  0.00     0.001 C 
ATOM     10  C   UNL     1      -0.630  -2.235  -1.369  1.00  0.00     0.014 C 
ATOM     11  C   UNL     1       1.742  -1.319  -1.804  1.00  0.00     0.010 C 
ATOM     12  C   UNL     1       0.787  -0.617  -2.724  1.00  0.00     0.010 C 
ENDBRANCH   7   9
BRANCH   7  13
ATOM     13  N   UNL     1       0.687  -0.471   1.032  1.00  0.00    -0.370 N 
ATOM     14  H   UNL     1       1.669  -0.488   0.971  1.00  0.00     0.161 HD
BRANCH  13  15
ATOM     15  C   UNL     1       0.235  -0.898   2.252  1.00  0.00     0.036 A 
ATOM     16  C   UNL     1      -0.514  -2.058   2.430  1.00  0.00     0.026 A 
ATOM     17  C   UNL     1       0.729  -0.268   3.406  1.00  0.00     0.046 A 
ATOM     18  C   UNL     1      -0.724  -2.604   3.701  1.00  0.00     0.004 A 
ATOM     19  C   UNL     1       0.485  -0.785   4.680  1.00  0.00     0.043 A 
ATOM     20  C   UNL     1      -0.225  -1.967   4.832  1.00  0.00     0.020 A 
ATOM     21  Cl  UNL     1       1.094   0.026   6.071  1.00  0.00    -0.084 Cl
ENDBRANCH  13  15
ENDBRANCH   7  13
ENDBRANCH   5   7
ENDBRANCH   4   5
ENDBRANCH   3   4
ENDBRANCH   2   3
ENDBRANCH   1   2
BRANCH   1  22
ATOM     22  C   UNL     1      -2.677   1.641   2.690  1.00  0.00     0.202 C 
BRANCH  22  23
ATOM     23  C   UNL     1      -2.864   1.296   4.173  1.00  0.00     0.261 C 
BRANCH  23  24
ATOM     24  O   UNL     1      -3.141  -0.105   4.362  1.00  0.00    -0.460 OA
BRANCH  24  25
ATOM     25  C   UNL     1      -4.410  -0.414   4.713  1.00  0.00     0.338 C 
ATOM     26  O   UNL     1      -5.318   0.362   4.978  1.00  0.00    -0.246 OA
BRANCH  25  27
ATOM     27  C   UNL     1      -4.624  -1.867   4.556  1.00  0.00     0.060 A 
ATOM     28  C   UNL     1      -5.755  -2.303   3.856  1.00  0.00     0.016 A 
ATOM     29  C   UNL     1      -3.755  -2.797   5.126  1.00  0.00     0.016 A 
ATOM     30  C   UNL     1      -6.051  -3.666   3.781  1.00  0.00     0.010 A 
ATOM     31  C   UNL     1      -4.023  -4.164   5.006  1.00  0.00     0.010 A 
ATOM     32  C   UNL     1      -5.209  -4.606   4.393  1.00  0.00    -0.014 A 
BRANCH  32  33
ATOM     33  C   UNL     1      -5.673  -6.008   4.589  1.00  0.00     0.031 A 
ATOM     34  C   UNL     1      -6.012  -6.468   5.987  1.00  0.00     0.074 A 
ATOM     35  C   UNL     1      -5.827  -6.859   3.556  1.00  0.00     0.049 A 
ATOM     36  N   UNL     1      -6.407  -7.643   6.408  1.00  0.00    -0.248 NA
ATOM     37  C   UNL     1      -5.858  -5.472   7.061  1.00  0.00     0.031 C 
ATOM     38  C   UNL     1      -5.540  -6.557   2.155  1.00  0.00     0.029 A 
ATOM     39  N   UNL     1      -6.271  -8.159   3.535  1.00  0.00    -0.354 N 
ATOM     40  C   UNL     1      -6.512  -7.533   7.790  1.00  0.00     0.074 A 
ATOM     41  C   UNL     1      -6.085  -6.199   8.143  1.00  0.00     0.031 C 
ATOM     42  C   UNL     1      -5.833  -7.636   1.407  1.00  0.00     0.029 A 
ATOM     43  C   UNL     1      -6.305  -8.712   2.278  1.00  0.00     0.049 A 
ATOM     44  H   UNL     1      -6.539  -8.649   4.345  1.00  0.00     0.167 HD
ATOM     45  C   UNL     1      -6.956  -8.443   8.689  1.00  0.00     0.037 A 
ATOM     46  C   UNL     1      -6.677  -9.944   1.876  1.00  0.00     0.037 A 
ATOM     47  C   UNL     1      -7.443  -9.750   8.342  1.00  0.00     0.049 A 
ATOM     48  C   UNL     1      -7.170 -10.943   2.892  1.00  0.00     0.074 A 
ATOM     49  C   UNL     1      -7.974 -10.721   9.173  1.00  0.00     0.029 A 
ATOM     50  N   UNL     1      -7.468 -10.265   7.055  1.00  0.00    -0.354 N 
ATOM     51  N   UNL     1      -7.310 -10.808   4.188  1.00  0.00    -0.248 NA
ATOM     52  C   UNL     1      -7.568 -12.265   2.383  1.00  0.00     0.031 C 
ATOM     53  C   UNL     1      -8.284 -11.840   8.393  1.00  0.00     0.029 A 
ATOM     54  C   UNL     1      -7.990 -11.546   7.071  1.00  0.00     0.049 A 
ATOM     55  H   UNL     1      -7.159  -9.790   6.250  1.00  0.00     0.167 HD
ATOM     56  C   UNL     1      -7.845 -12.009   4.642  1.00  0.00     0.074 A 
ATOM     57  C   UNL     1      -8.011 -12.858   3.482  1.00  0.00     0.031 C 
ATOM     58  C   UNL     1      -8.171 -12.373   5.907  1.00  0.00     0.037 A 
BRANCH  45  59
ATOM     59  C   UNL     1      -6.933  -8.049  10.138  1.00  0.00     0.057 A 
ATOM     60  C   UNL     1      -7.794  -7.072  10.657  1.00  0.00     0.134 A 
ATOM     61  C   UNL     1      -6.039  -8.659  11.027  1.00  0.00     0.134 A 
ATOM     62  F   UNL     1      -8.664  -6.438   9.856  1.00  0.00    -0.206 F 
ATOM     63  C   UNL     1      -7.740  -6.690  11.998  1.00  0.00     0.040 A 
ATOM     64  C   UNL     1      -5.999  -8.308  12.377  1.00  0.00     0.040 A 
ATOM     65  F   UNL     1      -5.191  -9.607  10.598  1.00  0.00    -0.206 F 
ATOM     66  C   UNL     1      -6.844  -7.313  12.864  1.00  0.00     0.006 A 
ENDBRANCH  45  59
BRANCH  46  67
ATOM     67  C   UNL     1      -6.629 -10.306   0.436  1.00  0.00     0.057 A 
ATOM     68  C   UNL     1      -7.805 -10.498  -0.300  1.00  0.00     0.134 A 
ATOM     69  C   UNL     1      -5.413 -10.497  -0.231  1.00  0.00     0.134 A 
ATOM     70  F   UNL     1      -9.001 -10.354   0.289  1.00  0.00    -0.206 F 
ATOM     71  C   UNL     1      -7.774 -10.887  -1.641  1.00  0.00     0.040 A 
ATOM     72  C   UNL     1      -5.368 -10.862  -1.578  1.00  0.00     0.040 A 
ATOM     73  F   UNL     1      -4.252 -10.327   0.417  1.00  0.00    -0.206 F 
ATOM     74  C   UNL     1      -6.552 -11.066  -2.284  1.00  0.00     0.006 A 
ENDBRANCH  46  67
BRANCH  58  75
ATOM     75  C   UNL     1      -8.791 -13.727   6.102  1.00  0.00     0.057 A 
ATOM     76  C   UNL     1      -8.047 -14.908   5.993  1.00  0.00     0.134 A 
ATOM     77  C   UNL     1     -10.141 -13.844   6.459  1.00  0.00     0.134 A 
ATOM     78  F   UNL     1      -6.752 -14.866   5.645  1.00  0.00    -0.206 F 
ATOM     79  C   UNL     1      -8.628 -16.158   6.211  1.00  0.00     0.040 A 
ATOM     80  C   UNL     1     -10.727 -15.086   6.705  1.00  0.00     0.040 A 
ATOM     81  F   UNL     1     -10.908 -12.751   6.593  1.00  0.00    -0.206 F 
ATOM     82  C   UNL     1      -9.970 -16.249   6.576  1.00  0.00     0.006 A 
ENDBRANCH  58  75
ENDBRANCH  32  33
ENDBRANCH  25  27
ENDBRANCH  24  25
ENDBRANCH  23  24
ENDBRANCH  22  23
ENDBRANCH   1  22
TORSDOF 17
