REMARK SMILES O=CN1CC[NH+](C[C@@H](CC(=O)Nc2ccc(C(F)(F)F)nc2)C(=O)OCCOCCOC(=O)c2ccc(-c3c4nc(c(-c5c(F)cccc5F)c5ccc([nH]5)c(-c5c(F)cccc5F)c5nc(c(-c6c(F)cccc6F)c6ccc3[nH]6)C=C5)C=C4)cc2)CC1
REMARK SMILES IDX 27 1 26 2 25 3 23 4 24 5 8 6 7 7 6 8 1 9 2 10 3 11 4 12
REMARK SMILES IDX 89 13 5 14 88 15 9 17 10 18 11 19 12 20 13 22 14 23 22 24
REMARK SMILES IDX 15 25 21 26 16 27 17 28 18 29 19 30 20 31 28 32 29 33 30 34
REMARK SMILES IDX 31 35 32 36 33 37 34 38 35 39 87 40 36 41 86 42 37 43 38 44
REMARK SMILES IDX 39 45 80 46 40 47 85 48 79 49 81 50 41 51 84 52 78 53 77 54
REMARK SMILES IDX 42 56 68 57 51 58 67 59 52 60 55 61 66 62 82 63 53 64 54 65
REMARK SMILES IDX 65 67 83 68 56 69 43 70 44 71 49 72 45 73 46 74 48 75 50 76
REMARK SMILES IDX 47 77 69 78 70 79 75 80 71 81 72 82 74 83 76 84 73 85 57 86
REMARK SMILES IDX 58 87 63 88 59 89 60 90 62 91 64 92 61 93
REMARK H PARENT 6 16 12 21 81 55 55 66
REMARK Flexibility Score: inf
ROOT
ATOM      1  C   UNL     1       8.532  -4.849   3.093  1.00  0.00     0.202 C 
ENDROOT
BRANCH   1   2
ATOM      2  C   UNL     1       8.583  -3.695   2.093  1.00  0.00     0.261 C 
BRANCH   2   3
ATOM      3  O   UNL     1       7.622  -2.669   2.407  1.00  0.00    -0.463 OA
BRANCH   3   4
ATOM      4  C   UNL     1       6.662  -2.451   1.477  1.00  0.00     0.315 C 
ATOM      5  O   UNL     1       6.474  -3.144   0.485  1.00  0.00    -0.252 OA
BRANCH   4   6
ATOM      6  C   UNL     1       5.753  -1.285   1.834  1.00  0.00     0.163 C 
BRANCH   6   7
ATOM      7  C   UNL     1       4.606  -1.809   2.712  1.00  0.00     0.278 C 
BRANCH   7   8
ATOM      8  N   UNL     1       3.416  -1.022   3.090  1.00  0.00    -0.331 N 
ATOM      9  O   UNL     1       0.513  -0.856  -1.109  1.00  0.00    -0.279 OA
ATOM     10  C   UNL     1       1.270  -0.095  -0.524  1.00  0.00     0.340 C 
ATOM     11  N   UNL     1       1.920  -0.361   0.662  1.00  0.00    -0.334 N 
ATOM     12  C   UNL     1       2.962   0.537   1.138  1.00  0.00     0.180 C 
ATOM     13  C   UNL     1       1.819  -1.696   1.254  1.00  0.00     0.180 C 
ATOM     14  C   UNL     1       3.271   0.364   2.630  1.00  0.00     0.284 C 
ATOM     15  C   UNL     1       2.153  -1.726   2.759  1.00  0.00     0.284 C 
ATOM     16  H   UNL     1       3.598  -0.942   4.090  1.00  0.00     0.348 HD
ENDBRANCH   7   8
ENDBRANCH   6   7
BRANCH   6  17
ATOM     17  C   UNL     1       6.540  -0.026   2.205  1.00  0.00     0.121 C 
BRANCH  17  18
ATOM     18  C   UNL     1       7.475   0.053   3.407  1.00  0.00     0.225 C 
ATOM     19  O   UNL     1       8.683  -0.161   3.272  1.00  0.00    -0.275 OA
ATOM     20  N   UNL     1       7.046   0.590   4.593  1.00  0.00    -0.325 N 
ATOM     21  H   UNL     1       7.659   1.220   5.037  1.00  0.00     0.169 HD
BRANCH  20  22
ATOM     22  C   UNL     1       5.833   0.340   5.242  1.00  0.00     0.059 A 
ATOM     23  C   UNL     1       5.556  -0.921   5.752  1.00  0.00     0.030 A 
ATOM     24  C   UNL     1       4.947   1.366   5.537  1.00  0.00     0.137 A 
ATOM     25  C   UNL     1       4.336  -1.152   6.390  1.00  0.00     0.035 A 
ATOM     26  N   UNL     1       3.754   1.176   6.153  1.00  0.00    -0.250 NA
ATOM     27  C   UNL     1       3.429  -0.098   6.529  1.00  0.00     0.144 A 
BRANCH  27  28
ATOM     28  C   UNL     1       2.049  -0.386   7.110  1.00  0.00     0.433 C 
ATOM     29  F   UNL     1       2.034  -0.355   8.474  1.00  0.00    -0.165 F 
ATOM     30  F   UNL     1       1.080   0.483   6.701  1.00  0.00    -0.165 F 
ATOM     31  F   UNL     1       1.585  -1.628   6.772  1.00  0.00    -0.165 F 
ENDBRANCH  27  28
ENDBRANCH  20  22
ENDBRANCH  17  18
ENDBRANCH   6  17
ENDBRANCH   4   6
ENDBRANCH   3   4
ENDBRANCH   2   3
ENDBRANCH   1   2
BRANCH   1  32
ATOM     32  O   UNL     1       7.357  -5.656   3.067  1.00  0.00    -0.374 OA
BRANCH  32  33
ATOM     33  C   UNL     1       6.189  -5.128   3.689  1.00  0.00     0.202 C 
BRANCH  33  34
ATOM     34  C   UNL     1       6.142  -5.209   5.220  1.00  0.00     0.261 C 
BRANCH  34  35
ATOM     35  O   UNL     1       7.081  -4.304   5.833  1.00  0.00    -0.460 OA
BRANCH  35  36
ATOM     36  C   UNL     1       8.125  -4.911   6.452  1.00  0.00     0.338 C 
ATOM     37  O   UNL     1       8.293  -6.106   6.616  1.00  0.00    -0.246 OA
BRANCH  36  38
ATOM     38  C   UNL     1       9.171  -3.921   6.769  1.00  0.00     0.060 A 
ATOM     39  C   UNL     1      10.468  -4.193   6.315  1.00  0.00     0.016 A 
ATOM     40  C   UNL     1       8.919  -2.812   7.579  1.00  0.00     0.016 A 
ATOM     41  C   UNL     1      11.533  -3.398   6.727  1.00  0.00     0.010 A 
ATOM     42  C   UNL     1       9.992  -2.016   7.997  1.00  0.00     0.010 A 
ATOM     43  C   UNL     1      11.307  -2.337   7.612  1.00  0.00    -0.014 A 
BRANCH  43  44
ATOM     44  C   UNL     1      12.470  -1.698   8.276  1.00  0.00     0.031 A 
ATOM     45  C   UNL     1      12.819  -2.106   9.681  1.00  0.00     0.074 A 
ATOM     46  C   UNL     1      13.237  -0.809   7.623  1.00  0.00     0.049 A 
ATOM     47  N   UNL     1      13.788  -1.685  10.454  1.00  0.00    -0.248 NA
ATOM     48  C   UNL     1      11.954  -3.123  10.299  1.00  0.00     0.031 C 
ATOM     49  C   UNL     1      13.026  -0.359   6.250  1.00  0.00     0.029 A 
ATOM     50  N   UNL     1      14.352  -0.125   8.039  1.00  0.00    -0.354 N 
ATOM     51  C   UNL     1      13.645  -2.380  11.649  1.00  0.00     0.074 A 
ATOM     52  C   UNL     1      12.472  -3.217  11.513  1.00  0.00     0.031 C 
ATOM     53  C   UNL     1      13.977   0.538   5.937  1.00  0.00     0.029 A 
ATOM     54  C   UNL     1      14.844   0.742   7.097  1.00  0.00     0.049 A 
ATOM     55  H   UNL     1      14.759  -0.245   8.927  1.00  0.00     0.167 HD
ATOM     56  C   UNL     1      14.425  -2.337  12.755  1.00  0.00     0.037 A 
ATOM     57  C   UNL     1      15.867   1.615   7.169  1.00  0.00     0.037 A 
ATOM     58  C   UNL     1      15.591  -1.502  12.890  1.00  0.00     0.049 A 
ATOM     59  C   UNL     1      16.691   1.692   8.425  1.00  0.00     0.074 A 
ATOM     60  C   UNL     1      16.461  -1.400  13.961  1.00  0.00     0.029 A 
ATOM     61  N   UNL     1      16.043  -0.617  11.922  1.00  0.00    -0.354 N 
ATOM     62  N   UNL     1      16.565   1.013   9.540  1.00  0.00    -0.248 NA
ATOM     63  C   UNL     1      17.805   2.650   8.430  1.00  0.00     0.031 C 
ATOM     64  C   UNL     1      17.407  -0.413  13.663  1.00  0.00     0.029 A 
ATOM     65  C   UNL     1      17.163   0.057  12.382  1.00  0.00     0.049 A 
ATOM     66  H   UNL     1      15.630  -0.488  11.038  1.00  0.00     0.167 HD
ATOM     67  C   UNL     1      17.595   1.442  10.369  1.00  0.00     0.074 A 
ATOM     68  C   UNL     1      18.343   2.433   9.623  1.00  0.00     0.031 C 
ATOM     69  C   UNL     1      17.896   1.046  11.631  1.00  0.00     0.037 A 
BRANCH  56  70
ATOM     70  C   UNL     1      14.011  -3.194  13.918  1.00  0.00     0.057 A 
ATOM     71  C   UNL     1      14.089  -4.593  13.877  1.00  0.00     0.134 A 
ATOM     72  C   UNL     1      13.516  -2.611  15.091  1.00  0.00     0.134 A 
ATOM     73  F   UNL     1      14.539  -5.218  12.777  1.00  0.00    -0.206 F 
ATOM     74  C   UNL     1      13.650  -5.381  14.943  1.00  0.00     0.040 A 
ATOM     75  C   UNL     1      13.104  -3.387  16.176  1.00  0.00     0.040 A 
ATOM     76  F   UNL     1      13.420  -1.278  15.201  1.00  0.00    -0.206 F 
ATOM     77  C   UNL     1      13.159  -4.777  16.099  1.00  0.00     0.006 A 
ENDBRANCH  56  70
BRANCH  57  78
ATOM     78  C   UNL     1      16.159   2.491   6.007  1.00  0.00     0.057 A 
ATOM     79  C   UNL     1      17.298   2.302   5.218  1.00  0.00     0.134 A 
ATOM     80  C   UNL     1      15.288   3.527   5.647  1.00  0.00     0.134 A 
ATOM     81  F   UNL     1      18.181   1.340   5.526  1.00  0.00    -0.206 F 
ATOM     82  C   UNL     1      17.564   3.113   4.113  1.00  0.00     0.040 A 
ATOM     83  C   UNL     1      15.528   4.330   4.532  1.00  0.00     0.040 A 
ATOM     84  F   UNL     1      14.178   3.758   6.363  1.00  0.00    -0.206 F 
ATOM     85  C   UNL     1      16.672   4.125   3.763  1.00  0.00     0.006 A 
ENDBRANCH  57  78
BRANCH  69  86
ATOM     86  C   UNL     1      19.104   1.664  12.278  1.00  0.00     0.057 A 
ATOM     87  C   UNL     1      19.118   2.998  12.705  1.00  0.00     0.134 A 
ATOM     88  C   UNL     1      20.256   0.900  12.511  1.00  0.00     0.134 A 
ATOM     89  F   UNL     1      18.053   3.788  12.503  1.00  0.00    -0.206 F 
ATOM     90  C   UNL     1      20.242   3.556  13.318  1.00  0.00     0.040 A 
ATOM     91  C   UNL     1      21.375   1.439  13.148  1.00  0.00     0.040 A 
ATOM     92  F   UNL     1      20.307  -0.388  12.137  1.00  0.00    -0.206 F 
ATOM     93  C   UNL     1      21.372   2.773  13.547  1.00  0.00     0.006 A 
ENDBRANCH  69  86
ENDBRANCH  43  44
ENDBRANCH  36  38
ENDBRANCH  35  36
ENDBRANCH  34  35
ENDBRANCH  33  34
ENDBRANCH  32  33
ENDBRANCH   1  32
TORSDOF 20
