REMARK SMILES O=C(OCCOCCOC(=O)[C@H]1CC=CC[C@H]1C(=O)N[C@H]1CCCOc2c1ccc1ccccc21)c1ccc(-c2c3nc(c(-c4c(F)cccc4F)c4ccc([nH]4)c(-c4c(F)cccc4F)c4nc(c(-c5c(F)cccc5F)c5ccc2[nH]5)C=C4)C=C3)cc1
REMARK SMILES IDX 7 1 6 2 5 3 4 4 3 5 2 6 1 7 36 8 37 9 89 10 38 11 88 12
REMARK SMILES IDX 39 13 40 14 41 15 82 16 42 17 87 18 81 19 83 20 43 21 86 22
REMARK SMILES IDX 80 23 79 24 44 26 70 27 53 28 69 29 54 30 57 31 68 32 84 33
REMARK SMILES IDX 55 34 56 35 67 37 85 38 58 39 45 40 46 41 51 42 47 43 48 44
REMARK SMILES IDX 50 45 52 46 49 47 71 48 72 49 77 50 73 51 74 52 76 53 78 54
REMARK SMILES IDX 75 55 59 56 60 57 65 58 61 59 62 60 64 61 66 62 63 63 8 64
REMARK SMILES IDX 9 65 10 66 11 67 12 68 13 69 17 70 14 71 16 72 15 73 18 74
REMARK SMILES IDX 19 75 20 76 21 78 22 79 23 80 27 82 26 83 28 84 35 85 29 86
REMARK SMILES IDX 30 87 34 88 31 89 33 90 32 91 25 92 24 93
REMARK H PARENT 83 25 57 36 20 77
REMARK Flexibility Score: 80.00
ROOT
ATOM      1  C   UNL     1       3.640   2.547   2.160  1.00  0.00     0.202 C 
ENDROOT
BRANCH   1   2
ATOM      2  O   UNL     1       4.966   1.372   2.510  1.00  0.00    -0.374 OA
BRANCH   2   3
ATOM      3  C   UNL     1       5.897   0.215   1.342  1.00  0.00     0.202 C 
BRANCH   3   4
ATOM      4  C   UNL     1       5.199   0.035  -0.477  1.00  0.00     0.261 C 
BRANCH   4   5
ATOM      5  O   UNL     1       3.256   0.191  -0.434  1.00  0.00    -0.460 OA
BRANCH   5   6
ATOM      6  C   UNL     1       1.896  -0.132   0.392  1.00  0.00     0.338 C 
ATOM      7  O   UNL     1       0.858   0.077  -0.150  1.00  0.00    -0.246 OA
BRANCH   6   8
ATOM      8  C   UNL     1       1.849  -0.815   1.890  1.00  0.00     0.060 A 
ATOM      9  C   UNL     1       1.562  -2.143   2.267  1.00  0.00     0.016 A 
ATOM     10  C   UNL     1       2.419  -0.149   2.923  1.00  0.00     0.016 A 
ATOM     11  C   UNL     1       2.151  -2.703   3.483  1.00  0.00     0.010 A 
ATOM     12  C   UNL     1       3.424  -0.798   3.603  1.00  0.00     0.010 A 
ATOM     13  C   UNL     1       3.167  -2.005   4.163  1.00  0.00    -0.014 A 
BRANCH  13  14
ATOM     14  C   UNL     1       4.034  -2.260   5.375  1.00  0.00     0.031 A 
ATOM     15  C   UNL     1       4.361  -1.106   6.395  1.00  0.00     0.074 A 
ATOM     16  C   UNL     1       4.799  -3.368   5.457  1.00  0.00     0.049 A 
ATOM     17  N   UNL     1       5.114  -1.126   7.478  1.00  0.00    -0.248 NA
ATOM     18  C   UNL     1       3.874   0.265   6.106  1.00  0.00     0.031 C 
ATOM     19  C   UNL     1       4.875  -4.429   4.454  1.00  0.00     0.029 A 
ATOM     20  N   UNL     1       5.696  -3.765   6.423  1.00  0.00    -0.354 N 
ATOM     21  C   UNL     1       5.192   0.201   7.926  1.00  0.00     0.074 A 
ATOM     22  C   UNL     1       4.582   1.020   6.924  1.00  0.00     0.031 C 
ATOM     23  C   UNL     1       5.708  -5.389   4.889  1.00  0.00     0.029 A 
ATOM     24  C   UNL     1       6.212  -5.021   6.209  1.00  0.00     0.049 A 
ATOM     25  H   UNL     1       5.943  -3.204   7.193  1.00  0.00     0.167 HD
ATOM     26  C   UNL     1       5.647   0.719   9.095  1.00  0.00     0.037 A 
ATOM     27  C   UNL     1       6.942  -5.811   7.020  1.00  0.00     0.037 A 
ATOM     28  C   UNL     1       6.237  -0.094  10.116  1.00  0.00     0.049 A 
ATOM     29  C   UNL     1       7.293  -5.321   8.400  1.00  0.00     0.074 A 
ATOM     30  C   UNL     1       6.592   0.237  11.410  1.00  0.00     0.029 A 
ATOM     31  N   UNL     1       6.574  -1.422   9.925  1.00  0.00    -0.354 N 
ATOM     32  N   UNL     1       7.108  -4.136   8.933  1.00  0.00    -0.248 NA
ATOM     33  C   UNL     1       7.912  -6.297   9.308  1.00  0.00     0.031 C 
ATOM     34  C   UNL     1       7.192  -0.888  11.988  1.00  0.00     0.029 A 
ATOM     35  C   UNL     1       7.159  -1.925  11.068  1.00  0.00     0.049 A 
ATOM     36  H   UNL     1       6.420  -1.932   9.097  1.00  0.00     0.167 HD
ATOM     37  C   UNL     1       7.559  -4.232  10.244  1.00  0.00     0.074 A 
ATOM     38  C   UNL     1       8.001  -5.599  10.431  1.00  0.00     0.031 C 
ATOM     39  C   UNL     1       7.606  -3.283  11.213  1.00  0.00     0.037 A 
BRANCH  26  40
ATOM     40  C   UNL     1       5.460   2.200   9.353  1.00  0.00     0.057 A 
ATOM     41  C   UNL     1       6.553   3.052   9.562  1.00  0.00     0.134 A 
ATOM     42  C   UNL     1       4.184   2.787   9.426  1.00  0.00     0.134 A 
ATOM     43  F   UNL     1       7.807   2.576   9.521  1.00  0.00    -0.206 F 
ATOM     44  C   UNL     1       6.387   4.418   9.822  1.00  0.00     0.040 A 
ATOM     45  C   UNL     1       4.006   4.156   9.646  1.00  0.00     0.040 A 
ATOM     46  F   UNL     1       3.081   2.045   9.238  1.00  0.00    -0.206 F 
ATOM     47  C   UNL     1       5.111   4.976   9.854  1.00  0.00     0.006 A 
ENDBRANCH  26  40
BRANCH  27  48
ATOM     48  C   UNL     1       7.182  -7.225   6.627  1.00  0.00     0.057 A 
ATOM     49  C   UNL     1       8.111  -7.594   5.650  1.00  0.00     0.134 A 
ATOM     50  C   UNL     1       6.414  -8.247   7.203  1.00  0.00     0.134 A 
ATOM     51  F   UNL     1       8.863  -6.664   5.044  1.00  0.00    -0.206 F 
ATOM     52  C   UNL     1       8.260  -8.926   5.252  1.00  0.00     0.040 A 
ATOM     53  C   UNL     1       6.566  -9.583   6.832  1.00  0.00     0.040 A 
ATOM     54  F   UNL     1       5.511  -7.957   8.152  1.00  0.00    -0.206 F 
ATOM     55  C   UNL     1       7.488  -9.925   5.846  1.00  0.00     0.006 A 
ENDBRANCH  27  48
BRANCH  39  56
ATOM     56  C   UNL     1       8.151  -3.697  12.543  1.00  0.00     0.057 A 
ATOM     57  C   UNL     1       7.307  -3.815  13.653  1.00  0.00     0.134 A 
ATOM     58  C   UNL     1       9.512  -3.970  12.724  1.00  0.00     0.134 A 
ATOM     59  F   UNL     1       5.997  -3.547  13.547  1.00  0.00    -0.206 F 
ATOM     60  C   UNL     1       7.797  -4.209  14.897  1.00  0.00     0.040 A 
ATOM     61  C   UNL     1      10.008  -4.394  13.956  1.00  0.00     0.040 A 
ATOM     62  F   UNL     1      10.368  -3.876  11.695  1.00  0.00    -0.206 F 
ATOM     63  C   UNL     1       9.149  -4.513  15.047  1.00  0.00     0.006 A 
ENDBRANCH  39  56
ENDBRANCH  13  14
ENDBRANCH   6   8
ENDBRANCH   5   6
ENDBRANCH   4   5
ENDBRANCH   3   4
ENDBRANCH   2   3
ENDBRANCH   1   2
BRANCH   1  64
ATOM     64  C   UNL     1       3.207   4.057   1.183  1.00  0.00     0.261 C 
BRANCH  64  65
ATOM     65  O   UNL     1       2.791   4.106  -0.437  1.00  0.00    -0.463 OA
BRANCH  65  66
ATOM     66  C   UNL     1       2.892   5.133  -1.447  1.00  0.00     0.310 C 
ATOM     67  O   UNL     1       2.598   6.295  -1.157  1.00  0.00    -0.252 OA
BRANCH  66  68
ATOM     68  C   UNL     1       3.688   4.818  -3.096  1.00  0.00     0.115 C 
ATOM     69  C   UNL     1       5.298   4.775  -3.417  1.00  0.00     0.043 C 
ATOM     70  C   UNL     1       3.093   3.868  -4.164  1.00  0.00     0.097 C 
ATOM     71  C   UNL     1       5.908   3.381  -3.591  1.00  0.00    -0.030 C 
ATOM     72  C   UNL     1       3.902   2.703  -4.809  1.00  0.00     0.041 C 
ATOM     73  C   UNL     1       5.241   2.416  -4.226  1.00  0.00    -0.030 C 
BRANCH  70  74
ATOM     74  C   UNL     1       1.883   3.302  -3.571  1.00  0.00     0.224 C 
ATOM     75  O   UNL     1       0.769   3.573  -4.008  1.00  0.00    -0.275 OA
ATOM     76  N   UNL     1       2.046   2.532  -2.484  1.00  0.00    -0.349 N 
ATOM     77  H   UNL     1       1.198   2.425  -1.996  1.00  0.00     0.164 HD
BRANCH  76  78
ATOM     78  C   UNL     1       3.162   1.785  -1.799  1.00  0.00     0.116 C 
BRANCH  78  79
ATOM     79  C   UNL     1       3.171   0.086  -2.468  1.00  0.00     0.033 C 
BRANCH  79  80
ATOM     80  C   UNL     1       3.516  -1.458  -1.490  1.00  0.00     0.044 CG0
ATOM     81  G   UNL     1       4.030  -1.378   0.357  1.00  0.00     0.000 G0
ENDBRANCH  79  80
ENDBRANCH  78  79
BRANCH  78  82
ATOM     82  C   UNL     1       4.385   2.381  -0.838  1.00  0.00     0.017 A 
ATOM     83  C   UNL     1       4.883   1.910   0.378  1.00  0.00     0.132 A 
ATOM     84  C   UNL     1       5.098   3.591  -0.907  1.00  0.00     0.010 A 
ATOM     85  C   UNL     1       6.245   2.631   1.285  1.00  0.00     0.024 A 
ATOM     86  C   UNL     1       6.052   4.371  -0.147  1.00  0.00     0.009 A 
ATOM     87  C   UNL     1       6.676   3.891   0.934  1.00  0.00    -0.015 A 
ATOM     88  C   UNL     1       7.158   2.308   2.482  1.00  0.00     0.012 A 
ATOM     89  C   UNL     1       7.643   4.736   1.585  1.00  0.00     0.009 A 
ATOM     90  C   UNL     1       8.185   3.043   3.099  1.00  0.00     0.001 A 
ATOM     91  C   UNL     1       8.412   4.306   2.651  1.00  0.00     0.001 A 
BRANCH  83  92
ATOM     92  O   UNL     1       4.063   0.397   1.085  1.00  0.00    -0.493 OA
BRANCH  92  93
ATOM     93  C   UNL     1       4.030  -1.378   0.357  1.00  0.00     0.229 CG0
ATOM     94  G   UNL     1       3.516  -1.458  -1.490  1.00  0.00     0.000 G0
ENDBRANCH  92  93
ENDBRANCH  83  92
ENDBRANCH  78  82
ENDBRANCH  76  78
ENDBRANCH  70  74
ENDBRANCH  66  68
ENDBRANCH  65  66
ENDBRANCH  64  65
ENDBRANCH   1  64
TORSDOF 16
