REMARK SMILES COC(=O)[C@H]1CC[C@]2(C)[C@H](CC[C@]3(C)[C@H]2CC=C2[C@H]4CC(C)(C)CC[C@]4(C(=O)OCCOCCOC(=O)c4ccc(-c5c6nc(c(-c7c(F)cccc7F)c7ccc([nH]7)c(-c7c(F)cccc7F)c7nc(c(-c8c(F)cccc8F)c8ccc5[nH]8)C=C7)C=C6)cc4)CC[C@@]23C)C1(C)C
REMARK SMILES IDX 32 1 31 2 30 3 29 4 27 5 28 6 26 7 5 8 6 9 96 10 7 11 10 12
REMARK SMILES IDX 97 13 98 14 8 15 11 16 15 17 9 18 12 19 16 20 13 21 17 22
REMARK SMILES IDX 94 23 14 24 18 25 93 26 95 27 19 28 92 29 20 30 21 31 25 32
REMARK SMILES IDX 24 33 22 34 23 35 3 36 4 37 2 38 1 39 33 40 34 41 35 42
REMARK SMILES IDX 36 43 37 44 38 45 39 46 91 47 40 48 90 49 41 50 42 51 43 52
REMARK SMILES IDX 84 53 44 54 89 55 83 56 85 57 45 58 88 59 82 60 81 61 46 63
REMARK SMILES IDX 72 64 55 65 71 66 56 67 59 68 70 69 86 70 57 71 58 72 69 74
REMARK SMILES IDX 87 75 60 76 47 77 48 78 53 79 49 80 50 81 52 82 54 83 51 84
REMARK SMILES IDX 73 85 74 86 79 87 75 88 76 89 78 90 80 91 77 92 61 93 62 94
REMARK SMILES IDX 67 95 63 96 64 97 66 98 68 99 65 100
REMARK H PARENT 85 62 59 73
REMARK Flexibility Score: inf
ROOT
ATOM      1  O   UNL     1      -2.262   9.900  -2.668  1.00  0.00    -0.374 OA
ENDROOT
BRANCH   1   2
ATOM      2  C   UNL     1      -2.388   8.536  -2.262  1.00  0.00     0.202 C 
BRANCH   2   3
ATOM      3  C   UNL     1      -3.803   7.833  -2.472  1.00  0.00     0.261 C 
BRANCH   3   4
ATOM      4  O   UNL     1      -4.132   7.316  -3.829  1.00  0.00    -0.463 OA
BRANCH   4   5
ATOM      5  C   UNL     1      -5.261   7.306  -4.617  1.00  0.00     0.312 C 
ATOM      6  O   UNL     1      -6.242   7.997  -4.383  1.00  0.00    -0.252 OA
BRANCH   5   7
ATOM      7  C   UNL     1      -5.176   6.210  -5.836  1.00  0.00     0.075 C 
ATOM      8  C   UNL     1      -0.134   1.283  -2.988  1.00  0.00     0.105 C 
ATOM      9  C   UNL     1       0.520   2.631  -2.621  1.00  0.00     0.016 C 
ATOM     10  C   UNL     1      -1.587   1.615  -3.451  1.00  0.00    -0.019 C 
ATOM     11  C   UNL     1       0.611   3.652  -3.759  1.00  0.00     0.008 C 
ATOM     12  C   UNL     1      -1.326   2.631  -4.750  1.00  0.00     0.002 C 
ATOM     13  C   UNL     1      -2.291   2.023  -2.097  1.00  0.00     0.012 C 
ATOM     14  C   UNL     1      -2.394   0.351  -3.804  1.00  0.00     0.012 C 
ATOM     15  C   UNL     1      -0.753   4.021  -4.372  1.00  0.00    -0.026 C 
ATOM     16  C   UNL     1      -2.210   2.616  -6.000  1.00  0.00     0.005 C 
ATOM     17  C   UNL     1      -0.377   4.972  -5.634  1.00  0.00     0.006 C 
ATOM     18  C   UNL     1      -1.470   4.744  -3.185  1.00  0.00     0.012 C 
ATOM     19  C   UNL     1      -1.790   3.457  -7.231  1.00  0.00     0.008 C 
ATOM     20  C   UNL     1      -0.425   6.427  -5.143  1.00  0.00     0.032 C 
ATOM     21  C   UNL     1      -1.173   4.869  -7.070  1.00  0.00    -0.020 C 
ATOM     22  C   UNL     1      -1.865   6.848  -5.095  1.00  0.00    -0.027 C 
ATOM     23  C   UNL     1      -2.203   6.145  -7.222  1.00  0.00    -0.006 C 
ATOM     24  C   UNL     1      -0.066   4.999  -8.175  1.00  0.00     0.012 C 
ATOM     25  C   UNL     1      -2.717   6.118  -5.818  1.00  0.00    -0.063 C 
ATOM     26  C   UNL     1      -3.521   6.397  -8.034  1.00  0.00     0.013 C 
ATOM     27  C   UNL     1      -1.371   7.452  -7.698  1.00  0.00     0.017 C 
ATOM     28  C   UNL     1      -4.032   5.291  -5.522  1.00  0.00     0.033 C 
ATOM     29  C   UNL     1      -4.893   6.739  -7.295  1.00  0.00     0.020 C 
ATOM     30  C   UNL     1      -4.409   4.436  -4.236  1.00  0.00     0.015 C 
ATOM     31  C   UNL     1      -5.684   3.520  -4.346  1.00  0.00    -0.035 C 
ATOM     32  C   UNL     1      -6.475   5.341  -6.005  1.00  0.00     0.020 C 
ATOM     33  C   UNL     1      -6.850   4.280  -4.979  1.00  0.00     0.007 C 
ATOM     34  C   UNL     1      -6.156   3.052  -2.945  1.00  0.00     0.011 C 
ATOM     35  C   UNL     1      -5.409   2.206  -5.118  1.00  0.00     0.011 C 
BRANCH   8  36
ATOM     36  C   UNL     1       0.511   0.271  -3.959  1.00  0.00     0.309 C 
ATOM     37  O   UNL     1       0.081  -0.876  -4.061  1.00  0.00    -0.252 OA
BRANCH  36  38
ATOM     38  O   UNL     1       1.522   0.744  -4.724  1.00  0.00    -0.469 OA
ATOM     39  C   UNL     1       2.012  -0.199  -5.694  1.00  0.00     0.282 C 
ENDBRANCH  36  38
ENDBRANCH   8  36
ENDBRANCH   5   7
ENDBRANCH   4   5
ENDBRANCH   3   4
ENDBRANCH   2   3
ENDBRANCH   1   2
BRANCH   1  40
ATOM     40  C   UNL     1      -2.104  10.145  -4.065  1.00  0.00     0.202 C 
BRANCH  40  41
ATOM     41  C   UNL     1      -0.649  10.200  -4.615  1.00  0.00     0.261 C 
BRANCH  41  42
ATOM     42  O   UNL     1       0.168   9.034  -4.324  1.00  0.00    -0.460 OA
BRANCH  42  43
ATOM     43  C   UNL     1       1.515   9.199  -4.245  1.00  0.00     0.338 C 
ATOM     44  O   UNL     1       2.108  10.281  -4.271  1.00  0.00    -0.246 OA
BRANCH  43  45
ATOM     45  C   UNL     1       2.268   7.905  -4.121  1.00  0.00     0.060 A 
ATOM     46  C   UNL     1       2.519   7.365  -2.857  1.00  0.00     0.016 A 
ATOM     47  C   UNL     1       2.823   7.249  -5.234  1.00  0.00     0.016 A 
ATOM     48  C   UNL     1       3.352   6.226  -2.702  1.00  0.00     0.010 A 
ATOM     49  C   UNL     1       3.631   6.086  -5.076  1.00  0.00     0.010 A 
ATOM     50  C   UNL     1       3.956   5.580  -3.800  1.00  0.00    -0.014 A 
BRANCH  50  51
ATOM     51  C   UNL     1       5.042   4.528  -3.564  1.00  0.00     0.031 A 
ATOM     52  C   UNL     1       6.464   4.887  -3.770  1.00  0.00     0.074 A 
ATOM     53  C   UNL     1       4.850   3.262  -3.122  1.00  0.00     0.049 A 
ATOM     54  N   UNL     1       7.506   4.123  -3.589  1.00  0.00    -0.248 NA
ATOM     55  C   UNL     1       6.753   6.231  -4.273  1.00  0.00     0.031 C 
ATOM     56  C   UNL     1       3.541   2.724  -3.054  1.00  0.00     0.029 A 
ATOM     57  N   UNL     1       5.613   2.194  -2.690  1.00  0.00    -0.354 N 
ATOM     58  C   UNL     1       8.587   4.891  -3.949  1.00  0.00     0.074 A 
ATOM     59  C   UNL     1       8.068   6.163  -4.415  1.00  0.00     0.031 C 
ATOM     60  C   UNL     1       3.520   1.504  -2.514  1.00  0.00     0.029 A 
ATOM     61  C   UNL     1       4.868   1.094  -2.278  1.00  0.00     0.049 A 
ATOM     62  H   UNL     1       6.598   2.210  -2.675  1.00  0.00     0.167 HD
ATOM     63  C   UNL     1       9.891   4.554  -3.873  1.00  0.00     0.037 A 
ATOM     64  C   UNL     1       5.154  -0.142  -1.818  1.00  0.00     0.037 A 
ATOM     65  C   UNL     1      10.389   3.273  -3.438  1.00  0.00     0.049 A 
ATOM     66  C   UNL     1       6.585  -0.507  -1.821  1.00  0.00     0.074 A 
ATOM     67  C   UNL     1      11.707   2.876  -3.308  1.00  0.00     0.029 A 
ATOM     68  N   UNL     1       9.610   2.175  -3.086  1.00  0.00    -0.354 N 
ATOM     69  N   UNL     1       7.591   0.259  -2.145  1.00  0.00    -0.248 NA
ATOM     70  C   UNL     1       6.931  -1.888  -1.478  1.00  0.00     0.031 C 
ATOM     71  C   UNL     1      11.729   1.532  -2.928  1.00  0.00     0.029 A 
ATOM     72  C   UNL     1      10.426   1.098  -2.760  1.00  0.00     0.049 A 
ATOM     73  H   UNL     1       8.626   2.163  -3.070  1.00  0.00     0.167 HD
ATOM     74  C   UNL     1       8.701  -0.545  -2.062  1.00  0.00     0.074 A 
ATOM     75  C   UNL     1       8.248  -1.853  -1.622  1.00  0.00     0.031 C 
ATOM     76  C   UNL     1       9.977  -0.208  -2.344  1.00  0.00     0.037 A 
BRANCH  63  77
ATOM     77  C   UNL     1      10.853   5.611  -4.302  1.00  0.00     0.057 A 
ATOM     78  C   UNL     1      11.030   6.788  -3.561  1.00  0.00     0.134 A 
ATOM     79  C   UNL     1      11.576   5.469  -5.489  1.00  0.00     0.134 A 
ATOM     80  F   UNL     1      10.332   6.995  -2.433  1.00  0.00    -0.206 F 
ATOM     81  C   UNL     1      11.876   7.802  -4.005  1.00  0.00     0.040 A 
ATOM     82  C   UNL     1      12.451   6.462  -5.925  1.00  0.00     0.040 A 
ATOM     83  F   UNL     1      11.435   4.371  -6.248  1.00  0.00    -0.206 F 
ATOM     84  C   UNL     1      12.595   7.636  -5.187  1.00  0.00     0.006 A 
ENDBRANCH  63  77
BRANCH  64  85
ATOM     85  C   UNL     1       4.109  -1.157  -1.462  1.00  0.00     0.057 A 
ATOM     86  C   UNL     1       3.896  -1.590  -0.147  1.00  0.00     0.134 A 
ATOM     87  C   UNL     1       3.320  -1.758  -2.450  1.00  0.00     0.134 A 
ATOM     88  F   UNL     1       4.657  -1.115   0.850  1.00  0.00    -0.206 F 
ATOM     89  C   UNL     1       2.929  -2.556   0.168  1.00  0.00     0.040 A 
ATOM     90  C   UNL     1       2.318  -2.686  -2.149  1.00  0.00     0.040 A 
ATOM     91  F   UNL     1       3.529  -1.454  -3.736  1.00  0.00    -0.206 F 
ATOM     92  C   UNL     1       2.122  -3.092  -0.833  1.00  0.00     0.006 A 
ENDBRANCH  64  85
BRANCH  76  93
ATOM     93  C   UNL     1      10.983  -1.284  -2.122  1.00  0.00     0.057 A 
ATOM     94  C   UNL     1      11.091  -2.386  -2.980  1.00  0.00     0.134 A 
ATOM     95  C   UNL     1      11.835  -1.226  -1.015  1.00  0.00     0.134 A 
ATOM     96  F   UNL     1      10.264  -2.516  -4.029  1.00  0.00    -0.206 F 
ATOM     97  C   UNL     1      12.011  -3.402  -2.734  1.00  0.00     0.040 A 
ATOM     98  C   UNL     1      12.779  -2.220  -0.777  1.00  0.00     0.040 A 
ATOM     99  F   UNL     1      11.757  -0.204  -0.149  1.00  0.00    -0.206 F 
ATOM    100  C   UNL     1      12.865  -3.314  -1.636  1.00  0.00     0.006 A 
ENDBRANCH  76  93
ENDBRANCH  50  51
ENDBRANCH  43  45
ENDBRANCH  42  43
ENDBRANCH  41  42
ENDBRANCH  40  41
ENDBRANCH   1  40
TORSDOF 16
