REMARK SMILES Cc1cc2nc(NC(=O)[C@H]3[C@@H](C(=O)OCCOCCOC(=O)c4ccc(-c5c6nc(c(-c7c(F)cccc7F)c7ccc([nH]7)c(-c7c(F)cccc7F)c7nc(c(-c8c(F)cccc8F)c8ccc5[nH]8)C=C7)C=C6)cc4)[C@@H]4C=C[C@H]3C4)sc2cc1C
REMARK SMILES IDX 17 1 16 2 15 3 14 4 12 5 13 6 11 7 10 8 80 9 77 10 79 11
REMARK SMILES IDX 81 12 78 13 8 14 7 15 9 17 6 18 1 19 2 20 3 21 85 22 4 23
REMARK SMILES IDX 84 24 86 25 5 26 83 27 82 28 18 29 19 30 20 31 21 32 22 33
REMARK SMILES IDX 23 34 24 35 76 36 25 37 75 38 26 39 27 40 28 41 69 42 29 43
REMARK SMILES IDX 74 44 68 45 70 46 30 47 73 48 67 49 66 50 31 52 57 53 40 54
REMARK SMILES IDX 56 55 41 56 44 57 55 58 71 59 42 60 43 61 54 63 72 64 45 65
REMARK SMILES IDX 32 66 33 67 38 68 34 69 35 70 37 71 39 72 36 73 58 74 59 75
REMARK SMILES IDX 64 76 60 77 61 78 63 79 65 80 62 81 46 82 47 83 52 84 48 85
REMARK SMILES IDX 49 86 51 87 53 88 50 89
REMARK H PARENT 7 16 70 51 44 62
REMARK Flexibility Score: inf
ROOT
ATOM      1  O   UNL     1       6.858   4.741  -0.951  1.00  0.00    -0.374 OA
ENDROOT
BRANCH   1   2
ATOM      2  C   UNL     1       7.244   5.754  -0.033  1.00  0.00     0.202 C 
BRANCH   2   3
ATOM      3  C   UNL     1       6.249   6.821   0.460  1.00  0.00     0.261 C 
BRANCH   3   4
ATOM      4  O   UNL     1       4.894   6.409   0.669  1.00  0.00    -0.463 OA
BRANCH   4   5
ATOM      5  C   UNL     1       4.180   6.415  -0.483  1.00  0.00     0.310 C 
ATOM      6  O   UNL     1       4.692   6.564  -1.586  1.00  0.00    -0.252 OA
BRANCH   5   7
ATOM      7  C   UNL     1       2.697   6.210  -0.303  1.00  0.00     0.119 C 
ATOM      8  C   UNL     1       1.866   7.420   0.241  1.00  0.00     0.100 C 
ATOM      9  C   UNL     1       1.072   6.751   1.404  1.00  0.00     0.025 C 
ATOM     10  C   UNL     1       2.324   5.055   0.658  1.00  0.00     0.027 C 
ATOM     11  C   UNL     1       0.130   5.728   0.792  1.00  0.00    -0.027 C 
ATOM     12  C   UNL     1       2.103   5.779   1.987  1.00  0.00     0.017 C 
ATOM     13  C   UNL     1       0.881   4.705   0.355  1.00  0.00    -0.027 C 
BRANCH   8  14
ATOM     14  C   UNL     1       2.666   8.637   0.705  1.00  0.00     0.230 C 
ATOM     15  N   UNL     1       3.337   9.430  -0.181  1.00  0.00    -0.302 N 
ATOM     16  H   UNL     1       3.826  10.199   0.192  1.00  0.00     0.172 HD
ATOM     17  O   UNL     1       2.744   8.931   1.902  1.00  0.00    -0.274 OA
BRANCH  15  18
ATOM     18  C   UNL     1       3.394   9.260  -1.534  1.00  0.00     0.190 A 
ATOM     19  C   UNL     1       3.324   6.084  -6.578  1.00  0.00     0.044 C 
ATOM     20  C   UNL     1       3.752   7.175  -5.634  1.00  0.00    -0.046 A 
ATOM     21  C   UNL     1       2.967   7.342  -4.474  1.00  0.00     0.033 A 
ATOM     22  C   UNL     1       4.860   8.015  -5.842  1.00  0.00    -0.047 A 
ATOM     23  C   UNL     1       3.314   8.289  -3.492  1.00  0.00     0.084 A 
ATOM     24  C   UNL     1       5.223   8.960  -4.856  1.00  0.00     0.025 A 
ATOM     25  C   UNL     1       5.748   7.931  -7.056  1.00  0.00     0.044 C 
ATOM     26  N   UNL     1       2.669   8.470  -2.278  1.00  0.00    -0.220 NA
ATOM     27  C   UNL     1       4.448   9.075  -3.692  1.00  0.00     0.057 A 
ATOM     28  S   UNL     1       4.671  10.083  -2.305  1.00  0.00    -0.097 S 
ENDBRANCH  15  18
ENDBRANCH   8  14
ENDBRANCH   5   7
ENDBRANCH   4   5
ENDBRANCH   3   4
ENDBRANCH   2   3
ENDBRANCH   1   2
BRANCH   1  29
ATOM     29  C   UNL     1       5.899   3.758  -0.564  1.00  0.00     0.202 C 
BRANCH  29  30
ATOM     30  C   UNL     1       6.129   2.943   0.716  1.00  0.00     0.261 C 
BRANCH  30  31
ATOM     31  O   UNL     1       6.262   3.788   1.865  1.00  0.00    -0.460 OA
BRANCH  31  32
ATOM     32  C   UNL     1       7.236   3.398   2.728  1.00  0.00     0.338 C 
ATOM     33  O   UNL     1       7.706   2.280   2.859  1.00  0.00    -0.246 OA
BRANCH  32  34
ATOM     34  C   UNL     1       7.889   4.632   3.201  1.00  0.00     0.060 A 
ATOM     35  C   UNL     1       7.149   5.670   3.763  1.00  0.00     0.016 A 
ATOM     36  C   UNL     1       9.236   4.815   2.844  1.00  0.00     0.016 A 
ATOM     37  C   UNL     1       7.765   6.905   3.943  1.00  0.00     0.010 A 
ATOM     38  C   UNL     1       9.840   6.061   2.999  1.00  0.00     0.010 A 
ATOM     39  C   UNL     1       9.104   7.111   3.546  1.00  0.00    -0.014 A 
BRANCH  39  40
ATOM     40  C   UNL     1       9.745   8.355   3.988  1.00  0.00     0.031 A 
ATOM     41  C   UNL     1       9.750   8.490   5.472  1.00  0.00     0.074 A 
ATOM     42  C   UNL     1      10.420   9.278   3.272  1.00  0.00     0.049 A 
ATOM     43  N   UNL     1       9.115   9.357   6.188  1.00  0.00    -0.248 NA
ATOM     44  C   UNL     1      10.449   7.455   6.248  1.00  0.00     0.031 C 
ATOM     45  C   UNL     1      10.844   9.236   1.873  1.00  0.00     0.029 A 
ATOM     46  N   UNL     1      10.941  10.466   3.716  1.00  0.00    -0.354 N 
ATOM     47  C   UNL     1       9.453   9.081   7.509  1.00  0.00     0.074 A 
ATOM     48  C   UNL     1      10.173   7.833   7.496  1.00  0.00     0.031 C 
ATOM     49  C   UNL     1      11.717  10.248   1.641  1.00  0.00     0.029 A 
ATOM     50  C   UNL     1      11.805  11.089   2.826  1.00  0.00     0.049 A 
ATOM     51  H   UNL     1      10.720  10.847   4.597  1.00  0.00     0.167 HD
ATOM     52  C   UNL     1       9.273   9.997   8.496  1.00  0.00     0.037 A 
ATOM     53  C   UNL     1      12.556  12.195   3.065  1.00  0.00     0.037 A 
ATOM     54  C   UNL     1       8.366  11.039   8.099  1.00  0.00     0.049 A 
ATOM     55  C   UNL     1      11.944  12.928   4.196  1.00  0.00     0.074 A 
ATOM     56  C   UNL     1       7.044  11.096   7.705  1.00  0.00     0.029 A 
ATOM     57  N   UNL     1       8.906  12.256   7.772  1.00  0.00    -0.354 N 
ATOM     58  N   UNL     1      10.814  13.572   4.134  1.00  0.00    -0.248 NA
ATOM     59  C   UNL     1      12.458  12.693   5.536  1.00  0.00     0.031 C 
ATOM     60  C   UNL     1       6.982  12.160   6.758  1.00  0.00     0.029 A 
ATOM     61  C   UNL     1       8.264  12.700   6.649  1.00  0.00     0.049 A 
ATOM     62  H   UNL     1       9.624  12.724   8.257  1.00  0.00     0.167 HD
ATOM     63  C   UNL     1      10.271  13.442   5.399  1.00  0.00     0.074 A 
ATOM     64  C   UNL     1      11.378  13.020   6.248  1.00  0.00     0.031 C 
ATOM     65  C   UNL     1       8.920  13.415   5.580  1.00  0.00     0.037 A 
BRANCH  52  66
ATOM     66  C   UNL     1      10.196  10.158   9.678  1.00  0.00     0.057 A 
ATOM     67  C   UNL     1       9.840  11.049  10.708  1.00  0.00     0.134 A 
ATOM     68  C   UNL     1      11.538   9.730   9.691  1.00  0.00     0.134 A 
ATOM     69  F   UNL     1       8.595  11.540  10.795  1.00  0.00    -0.206 F 
ATOM     70  C   UNL     1      10.773  11.544  11.626  1.00  0.00     0.040 A 
ATOM     71  C   UNL     1      12.464  10.177  10.636  1.00  0.00     0.040 A 
ATOM     72  F   UNL     1      12.050   8.946   8.734  1.00  0.00    -0.206 F 
ATOM     73  C   UNL     1      12.093  11.115  11.586  1.00  0.00     0.006 A 
ENDBRANCH  52  66
BRANCH  53  74
ATOM     74  C   UNL     1      13.894  12.582   2.554  1.00  0.00     0.057 A 
ATOM     75  C   UNL     1      14.373  13.896   2.695  1.00  0.00     0.134 A 
ATOM     76  C   UNL     1      14.850  11.614   2.211  1.00  0.00     0.134 A 
ATOM     77  F   UNL     1      13.546  14.890   3.053  1.00  0.00    -0.206 F 
ATOM     78  C   UNL     1      15.728  14.220   2.549  1.00  0.00     0.040 A 
ATOM     79  C   UNL     1      16.206  11.925   2.056  1.00  0.00     0.040 A 
ATOM     80  F   UNL     1      14.515  10.320   2.110  1.00  0.00    -0.206 F 
ATOM     81  C   UNL     1      16.654  13.227   2.245  1.00  0.00     0.006 A 
ENDBRANCH  53  74
BRANCH  65  82
ATOM     82  C   UNL     1       8.043  13.903   4.465  1.00  0.00     0.057 A 
ATOM     83  C   UNL     1       7.950  13.293   3.206  1.00  0.00     0.134 A 
ATOM     84  C   UNL     1       7.136  14.933   4.744  1.00  0.00     0.134 A 
ATOM     85  F   UNL     1       8.717  12.244   2.881  1.00  0.00    -0.206 F 
ATOM     86  C   UNL     1       7.009  13.711   2.260  1.00  0.00     0.040 A 
ATOM     87  C   UNL     1       6.170  15.334   3.821  1.00  0.00     0.040 A 
ATOM     88  F   UNL     1       7.141  15.531   5.947  1.00  0.00    -0.206 F 
ATOM     89  C   UNL     1       6.107  14.726   2.571  1.00  0.00     0.006 A 
ENDBRANCH  65  82
ENDBRANCH  39  40
ENDBRANCH  32  34
ENDBRANCH  31  32
ENDBRANCH  30  31
ENDBRANCH  29  30
ENDBRANCH   1  29
TORSDOF 16
