REMARK SMILES C[C@@H](C(=O)OCCOCCOC(=O)c1ccc(-c2c3nc(c(-c4c(F)cccc4F)c4ccc([nH]4)c(-c4c(F)cccc4F)c4nc(c(-c5c(F)cccc5F)c5ccc2[nH]5)C=C4)C=C3)cc1)c1ccc(C[C@@H]2CCC[C@@H]2O)cc1F
REMARK SMILES IDX 7 1 6 2 5 3 3 4 4 5 2 6 1 7 68 8 69 9 80 10 70 11 79 12
REMARK SMILES IDX 81 13 71 14 72 15 73 16 74 17 77 18 75 19 76 20 78 21 8 23
REMARK SMILES IDX 9 24 10 25 11 26 12 27 13 28 14 29 15 30 67 31 16 32 66 33
REMARK SMILES IDX 17 34 18 35 19 36 60 37 20 38 65 39 59 40 61 41 21 42 64 43
REMARK SMILES IDX 58 44 57 45 22 47 48 48 31 49 47 50 32 51 35 52 46 53 62 54
REMARK SMILES IDX 33 55 34 56 45 58 63 59 36 60 23 61 24 62 29 63 25 64 26 65
REMARK SMILES IDX 28 66 30 67 27 68 49 69 50 70 55 71 51 72 52 73 54 74 56 75
REMARK SMILES IDX 53 76 37 77 38 78 43 79 39 80 40 81 42 82 44 83 41 84
REMARK H PARENT 78 22 61 46 35 57
REMARK Flexibility Score: inf
ROOT
ATOM      1  C   UNL     1     -12.665   1.634   8.084  1.00  0.00     0.202 C 
ENDROOT
BRANCH   1   2
ATOM      2  C   UNL     1     -11.351   2.183   8.645  1.00  0.00     0.261 C 
BRANCH   2   3
ATOM      3  O   UNL     1     -10.934   3.334   7.899  1.00  0.00    -0.463 OA
BRANCH   3   4
ATOM      4  C   UNL     1      -9.595   3.447   7.699  1.00  0.00     0.313 C 
ATOM      5  O   UNL     1      -8.750   2.813   8.322  1.00  0.00    -0.252 OA
BRANCH   4   6
ATOM      6  C   UNL     1      -9.260   4.383   6.533  1.00  0.00     0.129 C 
ATOM      7  C   UNL     1     -10.266   5.540   6.466  1.00  0.00     0.025 C 
BRANCH   6   8
ATOM      8  C   UNL     1      -8.978   3.644   5.220  1.00  0.00     0.002 A 
ATOM      9  C   UNL     1      -8.280   2.423   5.233  1.00  0.00     0.008 A 
ATOM     10  C   UNL     1      -9.273   4.176   3.957  1.00  0.00     0.127 A 
ATOM     11  C   UNL     1      -7.847   1.809   4.050  1.00  0.00     0.004 A 
ATOM     12  C   UNL     1      -8.824   3.578   2.774  1.00  0.00     0.043 A 
ATOM     13  F   UNL     1      -9.967   5.315   3.834  1.00  0.00    -0.207 F 
ATOM     14  C   UNL     1      -8.043   2.420   2.811  1.00  0.00    -0.045 A 
BRANCH  14  15
ATOM     15  C   UNL     1      -7.398   1.869   1.560  1.00  0.00     0.041 C 
BRANCH  15  16
ATOM     16  C   UNL     1      -5.868   2.060   1.375  1.00  0.00     0.022 C 
ATOM     17  C   UNL     1      -4.983   1.391   2.435  1.00  0.00     0.007 C 
ATOM     18  C   UNL     1      -5.322   3.492   1.372  1.00  0.00     0.117 C 
ATOM     19  C   UNL     1      -4.603   2.482   3.443  1.00  0.00     0.003 C 
ATOM     20  C   UNL     1      -5.050   3.810   2.837  1.00  0.00     0.032 C 
BRANCH  18  21
ATOM     21  O   UNL     1      -6.165   4.427   0.736  1.00  0.00    -0.393 OA
ATOM     22  H   UNL     1      -7.022   4.451   1.190  1.00  0.00     0.210 HD
ENDBRANCH  18  21
ENDBRANCH  15  16
ENDBRANCH  14  15
ENDBRANCH   6   8
ENDBRANCH   4   6
ENDBRANCH   3   4
ENDBRANCH   2   3
ENDBRANCH   1   2
BRANCH   1  23
ATOM     23  O   UNL     1     -12.649   1.249   6.709  1.00  0.00    -0.374 OA
BRANCH  23  24
ATOM     24  C   UNL     1     -12.599   2.286   5.726  1.00  0.00     0.202 C 
BRANCH  24  25
ATOM     25  C   UNL     1     -13.863   3.139   5.555  1.00  0.00     0.261 C 
BRANCH  25  26
ATOM     26  O   UNL     1     -14.157   3.937   6.718  1.00  0.00    -0.460 OA
BRANCH  26  27
ATOM     27  C   UNL     1     -15.362   3.690   7.285  1.00  0.00     0.338 C 
ATOM     28  O   UNL     1     -16.234   2.935   6.877  1.00  0.00    -0.246 OA
BRANCH  27  29
ATOM     29  C   UNL     1     -15.453   4.337   8.606  1.00  0.00     0.060 A 
ATOM     30  C   UNL     1     -15.710   3.516   9.711  1.00  0.00     0.016 A 
ATOM     31  C   UNL     1     -15.404   5.725   8.749  1.00  0.00     0.016 A 
ATOM     32  C   UNL     1     -15.966   4.082  10.958  1.00  0.00     0.010 A 
ATOM     33  C   UNL     1     -15.672   6.293  10.001  1.00  0.00     0.010 A 
ATOM     34  C   UNL     1     -15.989   5.476  11.102  1.00  0.00    -0.014 A 
BRANCH  34  35
ATOM     35  C   UNL     1     -16.494   6.068  12.365  1.00  0.00     0.031 A 
ATOM     36  C   UNL     1     -17.927   6.518  12.441  1.00  0.00     0.074 A 
ATOM     37  C   UNL     1     -15.701   6.164  13.447  1.00  0.00     0.049 A 
ATOM     38  N   UNL     1     -18.573   7.070  13.437  1.00  0.00    -0.248 NA
ATOM     39  C   UNL     1     -18.742   6.317  11.232  1.00  0.00     0.031 C 
ATOM     40  C   UNL     1     -14.308   5.727  13.514  1.00  0.00     0.029 A 
ATOM     41  N   UNL     1     -15.960   6.665  14.698  1.00  0.00    -0.354 N 
ATOM     42  C   UNL     1     -19.867   7.280  12.978  1.00  0.00     0.074 A 
ATOM     43  C   UNL     1     -19.907   6.827  11.604  1.00  0.00     0.031 C 
ATOM     44  C   UNL     1     -13.829   5.992  14.742  1.00  0.00     0.029 A 
ATOM     45  C   UNL     1     -14.873   6.637  15.536  1.00  0.00     0.049 A 
ATOM     46  H   UNL     1     -16.840   7.012  14.968  1.00  0.00     0.167 HD
ATOM     47  C   UNL     1     -20.928   7.796  13.642  1.00  0.00     0.037 A 
ATOM     48  C   UNL     1     -14.733   7.098  16.794  1.00  0.00     0.037 A 
ATOM     49  C   UNL     1     -20.891   8.251  15.007  1.00  0.00     0.049 A 
ATOM     50  C   UNL     1     -15.908   7.730  17.489  1.00  0.00     0.074 A 
ATOM     51  C   UNL     1     -21.918   8.781  15.768  1.00  0.00     0.029 A 
ATOM     52  N   UNL     1     -19.762   8.235  15.812  1.00  0.00    -0.354 N 
ATOM     53  N   UNL     1     -17.131   7.907  17.052  1.00  0.00    -0.248 NA
ATOM     54  C   UNL     1     -15.684   8.226  18.856  1.00  0.00     0.031 C 
ATOM     55  C   UNL     1     -21.400   9.124  17.022  1.00  0.00     0.029 A 
ATOM     56  C   UNL     1     -20.062   8.766  17.055  1.00  0.00     0.049 A 
ATOM     57  H   UNL     1     -18.879   7.897  15.540  1.00  0.00     0.167 HD
ATOM     58  C   UNL     1     -17.827   8.509  18.093  1.00  0.00     0.074 A 
ATOM     59  C   UNL     1     -16.892   8.657  19.190  1.00  0.00     0.031 C 
ATOM     60  C   UNL     1     -19.123   8.903  18.138  1.00  0.00     0.037 A 
BRANCH  47  61
ATOM     61  C   UNL     1     -22.221   7.911  12.889  1.00  0.00     0.057 A 
ATOM     62  C   UNL     1     -23.001   6.788  12.587  1.00  0.00     0.134 A 
ATOM     63  C   UNL     1     -22.703   9.163  12.487  1.00  0.00     0.134 A 
ATOM     64  F   UNL     1     -22.587   5.560  12.932  1.00  0.00    -0.206 F 
ATOM     65  C   UNL     1     -24.207   6.904  11.893  1.00  0.00     0.040 A 
ATOM     66  C   UNL     1     -23.918   9.293  11.813  1.00  0.00     0.040 A 
ATOM     67  F   UNL     1     -22.006  10.278  12.749  1.00  0.00    -0.206 F 
ATOM     68  C   UNL     1     -24.671   8.161  11.510  1.00  0.00     0.006 A 
ENDBRANCH  47  61
BRANCH  48  69
ATOM     69  C   UNL     1     -13.420   6.993  17.479  1.00  0.00     0.057 A 
ATOM     70  C   UNL     1     -13.228   6.121  18.555  1.00  0.00     0.134 A 
ATOM     71  C   UNL     1     -12.332   7.781  17.083  1.00  0.00     0.134 A 
ATOM     72  F   UNL     1     -14.240   5.359  18.995  1.00  0.00    -0.206 F 
ATOM     73  C   UNL     1     -12.005   6.045  19.224  1.00  0.00     0.040 A 
ATOM     74  C   UNL     1     -11.097   7.699  17.728  1.00  0.00     0.040 A 
ATOM     75  F   UNL     1     -12.454   8.638  16.059  1.00  0.00    -0.206 F 
ATOM     76  C   UNL     1     -10.934   6.833  18.807  1.00  0.00     0.006 A 
ENDBRANCH  48  69
BRANCH  60  77
ATOM     77  C   UNL     1     -19.616   9.504  19.422  1.00  0.00     0.057 A 
ATOM     78  C   UNL     1     -19.260  10.800  19.815  1.00  0.00     0.134 A 
ATOM     79  C   UNL     1     -20.491   8.792  20.252  1.00  0.00     0.134 A 
ATOM     80  F   UNL     1     -18.416  11.528  19.069  1.00  0.00    -0.206 F 
ATOM     81  C   UNL     1     -19.743  11.360  20.999  1.00  0.00     0.040 A 
ATOM     82  C   UNL     1     -20.998   9.350  21.427  1.00  0.00     0.040 A 
ATOM     83  F   UNL     1     -20.878   7.548  19.929  1.00  0.00    -0.206 F 
ATOM     84  C   UNL     1     -20.620  10.636  21.805  1.00  0.00     0.006 A 
ENDBRANCH  60  77
ENDBRANCH  34  35
ENDBRANCH  27  29
ENDBRANCH  26  27
ENDBRANCH  25  26
ENDBRANCH  24  25
ENDBRANCH  23  24
ENDBRANCH   1  23
TORSDOF 18
