REMARK SMILES Cc1ccc(NC(=O)c2cnn3c2NC2=C(C(=O)CCC2)[C@H]3c2ccc(C(=O)OCCOCCOC(=O)c3ccc(-c4c5nc(c(-c6c(F)cccc6F)c6ccc([nH]6)c(-c6c(F)cccc6F)c6nc(c(-c7c(F)cccc7F)c7ccc4[nH]7)C=C6)C=C5)cc3)cc2)cc1
REMARK SMILES IDX 31 1 30 2 29 3 27 4 28 5 26 6 23 7 24 8 93 9 25 10 92 11
REMARK SMILES IDX 22 12 9 13 10 14 13 15 11 16 12 17 14 18 15 19 16 21 21 22
REMARK SMILES IDX 17 23 20 24 18 25 19 26 7 27 6 28 8 30 5 31 1 32 2 33 3 34
REMARK SMILES IDX 95 35 4 36 94 37 32 38 33 39 34 40 35 41 36 42 37 43 38 44
REMARK SMILES IDX 39 45 91 46 40 47 90 48 41 49 42 50 43 51 84 52 44 53 89 54
REMARK SMILES IDX 83 55 85 56 45 57 88 58 82 59 81 60 46 62 72 63 55 64 71 65
REMARK SMILES IDX 56 66 59 67 70 68 86 69 57 70 58 71 69 73 87 74 60 75 47 76
REMARK SMILES IDX 48 77 53 78 49 79 50 80 52 81 54 82 51 83 73 84 74 85 79 86
REMARK SMILES IDX 75 87 76 88 78 89 80 90 77 91 61 92 62 93 67 94 63 95 64 96
REMARK SMILES IDX 66 97 68 98 65 99
REMARK H PARENT 14 20 6 29 85 61 59 72
REMARK Flexibility Score: inf
ROOT
ATOM      1  C   UNL     1       1.744  -2.125  -7.718  1.00  0.00     0.202 C 
ENDROOT
BRANCH   1   2
ATOM      2  C   UNL     1       0.001  -1.816  -7.172  1.00  0.00     0.261 C 
BRANCH   2   3
ATOM      3  O   UNL     1      -1.163  -3.193  -6.199  1.00  0.00    -0.460 OA
BRANCH   3   4
ATOM      4  C   UNL     1      -1.325  -4.583  -5.656  1.00  0.00     0.338 C 
ATOM      5  O   UNL     1      -1.177  -5.579  -6.385  1.00  0.00    -0.246 OA
BRANCH   4   6
ATOM      6  C   UNL     1      -1.514  -4.987  -4.221  1.00  0.00     0.060 A 
ATOM      7  C   UNL     1      -1.752  -6.072  -1.595  1.00  0.00    -0.019 A 
ATOM      8  C   UNL     1      -2.029  -6.870  -2.708  1.00  0.00     0.007 A 
ATOM      9  C   UNL     1      -1.086  -4.865  -1.832  1.00  0.00     0.007 A 
ATOM     10  C   UNL     1      -1.925  -6.322  -3.995  1.00  0.00     0.016 A 
ATOM     11  C   UNL     1      -1.072  -4.290  -3.109  1.00  0.00     0.016 A 
BRANCH   7  12
ATOM     12  C   UNL     1      -2.495  -6.273  -0.224  1.00  0.00     0.175 C 
ATOM     13  C   UNL     1      -3.604  -2.894  -0.046  1.00  0.00     0.102 A 
ATOM     14  C   UNL     1      -2.770  -3.039   1.105  1.00  0.00     0.151 A 
ATOM     15  C   UNL     1      -3.835  -4.197  -0.439  1.00  0.00     0.142 A 
ATOM     16  N   UNL     1      -2.294  -4.277   1.266  1.00  0.00    -0.178 NA
ATOM     17  N   UNL     1      -2.889  -4.938   0.261  1.00  0.00    -0.237 N 
ATOM     18  N   UNL     1      -4.628  -4.880  -1.331  1.00  0.00    -0.343 N 
ATOM     19  C   UNL     1      -4.736  -6.281  -1.231  1.00  0.00     0.026 C 
ATOM     20  H   UNL     1      -5.116  -4.394  -2.034  1.00  0.00     0.168 HD
ATOM     21  C   UNL     1      -3.841  -6.930  -0.443  1.00  0.00     0.044 C 
ATOM     22  C   UNL     1      -5.980  -7.005  -1.653  1.00  0.00     0.055 C 
ATOM     23  C   UNL     1      -4.519  -7.544   0.737  1.00  0.00     0.163 C 
ATOM     24  C   UNL     1      -6.715  -7.586  -0.442  1.00  0.00     0.014 C 
ATOM     25  O   UNL     1      -3.864  -8.091   1.618  1.00  0.00    -0.294 OA
ATOM     26  C   UNL     1      -6.012  -7.259   0.873  1.00  0.00     0.081 C 
BRANCH  13  27
ATOM     27  C   UNL     1      -4.124  -1.675  -0.630  1.00  0.00     0.261 C 
ATOM     28  N   UNL     1      -3.357  -0.519  -0.593  1.00  0.00    -0.322 N 
ATOM     29  H   UNL     1      -3.879   0.313  -0.666  1.00  0.00     0.170 HD
ATOM     30  O   UNL     1      -5.255  -1.627  -1.111  1.00  0.00    -0.269 OA
BRANCH  28  31
ATOM     31  C   UNL     1      -1.963  -0.318  -0.469  1.00  0.00     0.041 A 
ATOM     32  C   UNL     1       2.285   0.373   0.054  1.00  0.00     0.044 C 
ATOM     33  C   UNL     1       0.816   0.159  -0.163  1.00  0.00    -0.051 A 
ATOM     34  C   UNL     1       0.349  -1.097  -0.541  1.00  0.00     0.005 A 
ATOM     35  C   UNL     1      -0.116   1.185   0.033  1.00  0.00     0.005 A 
ATOM     36  C   UNL     1      -1.021  -1.312  -0.717  1.00  0.00     0.026 A 
ATOM     37  C   UNL     1      -1.492   0.951  -0.130  1.00  0.00     0.026 A 
ENDBRANCH  28  31
ENDBRANCH  13  27
ENDBRANCH   7  12
ENDBRANCH   4   6
ENDBRANCH   3   4
ENDBRANCH   2   3
ENDBRANCH   1   2
BRANCH   1  38
ATOM     38  O   UNL     1       2.271  -3.315  -8.438  1.00  0.00    -0.374 OA
BRANCH  38  39
ATOM     39  C   UNL     1       2.815  -4.435  -7.674  1.00  0.00     0.202 C 
BRANCH  39  40
ATOM     40  C   UNL     1       3.765  -5.400  -8.424  1.00  0.00     0.261 C 
BRANCH  40  41
ATOM     41  O   UNL     1       3.149  -6.157  -9.473  1.00  0.00    -0.460 OA
BRANCH  41  42
ATOM     42  C   UNL     1       2.648  -5.452 -10.513  1.00  0.00     0.338 C 
ATOM     43  O   UNL     1       3.236  -4.608 -11.163  1.00  0.00    -0.246 OA
BRANCH  42  44
ATOM     44  C   UNL     1       1.196  -5.768 -10.574  1.00  0.00     0.060 A 
ATOM     45  C   UNL     1       0.327  -4.853 -11.174  1.00  0.00     0.016 A 
ATOM     46  C   UNL     1       0.679  -6.854  -9.848  1.00  0.00     0.016 A 
ATOM     47  C   UNL     1      -1.051  -4.994 -10.984  1.00  0.00     0.010 A 
ATOM     48  C   UNL     1      -0.680  -6.931  -9.583  1.00  0.00     0.010 A 
ATOM     49  C   UNL     1      -1.548  -5.976 -10.112  1.00  0.00    -0.014 A 
BRANCH  49  50
ATOM     50  C   UNL     1      -2.975  -6.139  -9.806  1.00  0.00     0.031 A 
ATOM     51  C   UNL     1      -3.778  -6.821 -10.799  1.00  0.00     0.074 A 
ATOM     52  C   UNL     1      -3.594  -5.707  -8.686  1.00  0.00     0.049 A 
ATOM     53  N   UNL     1      -5.011  -6.537 -11.035  1.00  0.00    -0.248 NA
ATOM     54  C   UNL     1      -3.218  -7.829 -11.691  1.00  0.00     0.031 C 
ATOM     55  C   UNL     1      -4.889  -5.919  -8.072  1.00  0.00     0.029 A 
ATOM     56  N   UNL     1      -3.062  -4.802  -7.835  1.00  0.00    -0.354 N 
ATOM     57  C   UNL     1      -5.492  -7.670 -11.629  1.00  0.00     0.074 A 
ATOM     58  C   UNL     1      -4.339  -8.202 -12.309  1.00  0.00     0.031 C 
ATOM     59  C   UNL     1      -5.098  -4.984  -7.112  1.00  0.00     0.029 A 
ATOM     60  C   UNL     1      -3.977  -4.043  -7.118  1.00  0.00     0.049 A 
ATOM     61  H   UNL     1      -2.089  -4.689  -7.731  1.00  0.00     0.167 HD
ATOM     62  C   UNL     1      -6.663  -8.184 -11.143  1.00  0.00     0.037 A 
ATOM     63  C   UNL     1      -3.975  -2.664  -7.262  1.00  0.00     0.037 A 
ATOM     64  C   UNL     1      -7.391  -7.191 -10.283  1.00  0.00     0.049 A 
ATOM     65  C   UNL     1      -5.186  -2.320  -8.205  1.00  0.00     0.074 A 
ATOM     66  C   UNL     1      -7.986  -7.179  -9.027  1.00  0.00     0.029 A 
ATOM     67  N   UNL     1      -7.363  -5.837 -10.645  1.00  0.00    -0.354 N 
ATOM     68  N   UNL     1      -6.019  -3.243  -8.637  1.00  0.00    -0.248 NA
ATOM     69  C   UNL     1      -5.592  -1.015  -8.739  1.00  0.00     0.031 C 
ATOM     70  C   UNL     1      -8.310  -5.826  -8.668  1.00  0.00     0.029 A 
ATOM     71  C   UNL     1      -7.903  -4.995  -9.694  1.00  0.00     0.049 A 
ATOM     72  H   UNL     1      -6.992  -5.517 -11.499  1.00  0.00     0.167 HD
ATOM     73  C   UNL     1      -7.001  -2.746  -9.442  1.00  0.00     0.074 A 
ATOM     74  C   UNL     1      -6.680  -1.326  -9.487  1.00  0.00     0.031 C 
ATOM     75  C   UNL     1      -7.973  -3.555  -9.984  1.00  0.00     0.037 A 
BRANCH  62  76
ATOM     76  C   UNL     1      -6.996  -9.683 -11.236  1.00  0.00     0.057 A 
ATOM     77  C   UNL     1      -8.134 -10.208 -10.596  1.00  0.00     0.134 A 
ATOM     78  C   UNL     1      -6.225 -10.687 -11.877  1.00  0.00     0.134 A 
ATOM     79  F   UNL     1      -9.025  -9.419  -9.984  1.00  0.00    -0.206 F 
ATOM     80  C   UNL     1      -8.440 -11.581 -10.553  1.00  0.00     0.040 A 
ATOM     81  C   UNL     1      -6.530 -12.056 -11.861  1.00  0.00     0.040 A 
ATOM     82  F   UNL     1      -5.117 -10.443 -12.573  1.00  0.00    -0.206 F 
ATOM     83  C   UNL     1      -7.638 -12.514 -11.187  1.00  0.00     0.006 A 
ENDBRANCH  62  76
BRANCH  63  84
ATOM     84  C   UNL     1      -2.471  -2.008  -7.212  1.00  0.00     0.057 A 
ATOM     85  C   UNL     1      -1.779  -1.448  -5.663  1.00  0.00     0.134 A 
ATOM     86  C   UNL     1      -1.473  -3.069  -8.177  1.00  0.00     0.134 A 
ATOM     87  F   UNL     1      -2.518  -0.660  -4.868  1.00  0.00    -0.206 F 
ATOM     88  C   UNL     1      -0.202  -2.051  -4.997  1.00  0.00     0.040 A 
ATOM     89  C   UNL     1       0.017  -3.840  -7.560  1.00  0.00     0.040 A 
ATOM     90  F   UNL     1      -1.790  -3.132  -9.473  1.00  0.00    -0.206 F 
ATOM     91  C   UNL     1       0.699  -3.338  -5.905  1.00  0.00     0.006 A 
ENDBRANCH  63  84
BRANCH  75  92
ATOM     92  C   UNL     1      -9.123  -3.099 -10.862  1.00  0.00     0.057 A 
ATOM     93  C   UNL     1      -9.821  -1.904 -10.664  1.00  0.00     0.134 A 
ATOM     94  C   UNL     1      -9.661  -3.940 -11.869  1.00  0.00     0.134 A 
ATOM     95  F   UNL     1      -9.496  -1.069  -9.667  1.00  0.00    -0.206 F 
ATOM     96  C   UNL     1     -10.922  -1.538 -11.458  1.00  0.00     0.040 A 
ATOM     97  C   UNL     1     -10.781  -3.608 -12.634  1.00  0.00     0.040 A 
ATOM     98  F   UNL     1      -9.125  -5.130 -12.173  1.00  0.00    -0.206 F 
ATOM     99  C   UNL     1     -11.405  -2.389 -12.446  1.00  0.00     0.006 A 
ENDBRANCH  75  92
ENDBRANCH  49  50
ENDBRANCH  42  44
ENDBRANCH  41  42
ENDBRANCH  40  41
ENDBRANCH  39  40
ENDBRANCH  38  39
ENDBRANCH   1  38
TORSDOF 17
