REMARK SMILES CC1(C)O[C@@H]2C[C@@H]3[C@H]4CCC5=CC(=O)C=C[C@@]5(C)[C@]4(F)[C@H](O)C[C@]3(C)[C@]2(C(=O)OCCOCCOC(=O)c2ccc(-c3c4nc(c(-c5c(F)cccc5F)c5ccc([nH]5)c(-c5c(F)cccc5F)c5nc(c(-c6c(F)cccc6F)c6ccc3[nH]6)C=C5)C=C4)cc2)O1
REMARK SMILES IDX 33 1 32 2 31 3 30 4 29 5 27 6 28 7 26 8 1 9 2 10 4 11 92 12
REMARK SMILES IDX 3 13 5 14 6 15 24 16 7 17 23 18 25 19 8 20 21 21 9 22 19 23
REMARK SMILES IDX 10 24 17 25 20 26 11 27 16 28 18 29 12 30 15 31 13 32 14 33
REMARK SMILES IDX 22 34 34 36 35 37 36 38 37 39 38 40 39 41 91 42 40 43 90 44
REMARK SMILES IDX 41 45 42 46 43 47 84 48 44 49 89 50 83 51 85 52 45 53 88 54
REMARK SMILES IDX 82 55 81 56 46 58 72 59 55 60 71 61 56 62 59 63 70 64 86 65
REMARK SMILES IDX 57 66 58 67 69 69 87 70 60 71 47 72 48 73 53 74 49 75 50 76
REMARK SMILES IDX 52 77 54 78 51 79 73 80 74 81 79 82 75 83 76 84 78 85 80 86
REMARK SMILES IDX 77 87 61 88 62 89 67 90 63 91 64 92 66 93 68 94 65 95
REMARK H PARENT 22 35 85 57 59 68
REMARK Flexibility Score: inf
ROOT
ATOM      1  C   UNL     1       3.965   2.082   2.106  1.00  0.00     0.202 C 
ENDROOT
BRANCH   1   2
ATOM      2  O   UNL     1       4.630   3.290   2.467  1.00  0.00    -0.374 OA
BRANCH   2   3
ATOM      3  C   UNL     1       4.052   4.137   3.449  1.00  0.00     0.202 C 
BRANCH   3   4
ATOM      4  C   UNL     1       2.750   4.921   3.163  1.00  0.00     0.261 C 
BRANCH   4   5
ATOM      5  O   UNL     1       1.700   4.263   2.427  1.00  0.00    -0.461 OA
BRANCH   5   6
ATOM      6  C   UNL     1       1.914   4.367   1.097  1.00  0.00     0.341 C 
ATOM      7  O   UNL     1       2.975   4.788   0.638  1.00  0.00    -0.249 OA
BRANCH   6   8
ATOM      8  C   UNL     1       0.816   3.872   0.168  1.00  0.00     0.200 C 
ATOM      9  C   UNL     1       0.898   0.516   0.984  1.00  0.00     0.075 C 
ATOM     10  C   UNL     1       0.284   1.562   0.065  1.00  0.00     0.165 C 
ATOM     11  O   UNL     1      -0.791   2.195   0.758  1.00  0.00    -0.344 OA
ATOM     12  O   UNL     1       1.281   2.555  -0.303  1.00  0.00    -0.329 OA
ATOM     13  C   UNL     1      -0.252   0.802  -1.170  1.00  0.00     0.075 C 
ATOM     14  C   UNL     1      -0.673   3.602   0.525  1.00  0.00     0.166 C 
ATOM     15  C   UNL     1      -1.526   3.974  -0.798  1.00  0.00     0.040 C 
ATOM     16  C   UNL     1       0.649   4.969  -0.997  1.00  0.00     0.016 C 
ATOM     17  C   UNL     1      -0.400   4.200  -1.835  1.00  0.00     0.008 C 
ATOM     18  C   UNL     1       1.810   5.484  -1.867  1.00  0.00     0.046 C 
ATOM     19  C   UNL     1       0.094   6.282  -0.335  1.00  0.00     0.015 C 
ATOM     20  C   UNL     1      -0.064   3.664  -3.269  1.00  0.00     0.035 C 
ATOM     21  C   UNL     1       2.299   4.566  -2.962  1.00  0.00     0.154 C 
ATOM     22  C   UNL     1      -1.243   3.450  -4.204  1.00  0.00     0.012 C 
ATOM     23  C   UNL     1       1.158   4.286  -3.980  1.00  0.00     0.152 C 
ATOM     24  C   UNL     1      -0.818   2.425  -5.267  1.00  0.00     0.032 C 
ATOM     25  C   UNL     1       1.631   3.391  -5.207  1.00  0.00     0.044 C 
ATOM     26  F   UNL     1       0.735   5.500  -4.469  1.00  0.00    -0.239 F 
ATOM     27  C   UNL     1       0.444   2.812  -6.006  1.00  0.00    -0.053 C 
ATOM     28  C   UNL     1       2.544   4.190  -6.141  1.00  0.00    -0.009 C 
ATOM     29  C   UNL     1       2.488   2.168  -4.768  1.00  0.00     0.024 C 
ATOM     30  C   UNL     1       0.559   2.545  -7.322  1.00  0.00     0.052 C 
ATOM     31  C   UNL     1       2.658   3.925  -7.450  1.00  0.00     0.048 C 
ATOM     32  C   UNL     1       1.790   2.900  -8.066  1.00  0.00     0.178 C 
ATOM     33  O   UNL     1       2.048   2.405  -9.155  1.00  0.00    -0.290 OA
BRANCH  21  34
ATOM     34  O   UNL     1       2.893   3.408  -2.392  1.00  0.00    -0.390 OA
ATOM     35  H   UNL     1       2.235   2.936  -1.858  1.00  0.00     0.211 HD
ENDBRANCH  21  34
ENDBRANCH   6   8
ENDBRANCH   5   6
ENDBRANCH   4   5
ENDBRANCH   3   4
ENDBRANCH   2   3
ENDBRANCH   1   2
BRANCH   1  36
ATOM     36  C   UNL     1       3.558   1.121   3.226  1.00  0.00     0.261 C 
BRANCH  36  37
ATOM     37  O   UNL     1       2.593   1.717   4.113  1.00  0.00    -0.460 OA
BRANCH  37  38
ATOM     38  C   UNL     1       2.889   1.558   5.425  1.00  0.00     0.338 C 
ATOM     39  O   UNL     1       3.771   0.870   5.908  1.00  0.00    -0.246 OA
BRANCH  38  40
ATOM     40  C   UNL     1       2.112   2.502   6.242  1.00  0.00     0.060 A 
ATOM     41  C   UNL     1       2.820   3.509   6.912  1.00  0.00     0.016 A 
ATOM     42  C   UNL     1       0.754   2.298   6.480  1.00  0.00     0.016 A 
ATOM     43  C   UNL     1       2.182   4.278   7.879  1.00  0.00     0.010 A 
ATOM     44  C   UNL     1       0.119   3.061   7.464  1.00  0.00     0.010 A 
ATOM     45  C   UNL     1       0.844   4.018   8.198  1.00  0.00    -0.014 A 
BRANCH  45  46
ATOM     46  C   UNL     1       0.271   4.621   9.422  1.00  0.00     0.031 A 
ATOM     47  C   UNL     1       0.250   3.807  10.688  1.00  0.00     0.074 A 
ATOM     48  C   UNL     1      -0.169   5.890   9.416  1.00  0.00     0.049 A 
ATOM     49  N   UNL     1      -0.227   4.118  11.865  1.00  0.00    -0.248 NA
ATOM     50  C   UNL     1       0.850   2.464  10.617  1.00  0.00     0.031 C 
ATOM     51  C   UNL     1      -0.148   6.785   8.259  1.00  0.00     0.029 A 
ATOM     52  N   UNL     1      -0.724   6.644  10.417  1.00  0.00    -0.354 N 
ATOM     53  C   UNL     1       0.016   3.014  12.673  1.00  0.00     0.074 A 
ATOM     54  C   UNL     1       0.654   2.013  11.847  1.00  0.00     0.031 C 
ATOM     55  C   UNL     1      -0.686   7.965   8.613  1.00  0.00     0.029 A 
ATOM     56  C   UNL     1      -1.112   7.896  10.009  1.00  0.00     0.049 A 
ATOM     57  H   UNL     1      -0.834   6.318  11.340  1.00  0.00     0.167 HD
ATOM     58  C   UNL     1      -0.257   2.856  13.990  1.00  0.00     0.037 A 
ATOM     59  C   UNL     1      -1.761   8.863  10.684  1.00  0.00     0.037 A 
ATOM     60  C   UNL     1      -0.895   3.855  14.805  1.00  0.00     0.049 A 
ATOM     61  C   UNL     1      -2.120   8.634  12.128  1.00  0.00     0.074 A 
ATOM     62  C   UNL     1      -1.230   3.791  16.146  1.00  0.00     0.029 A 
ATOM     63  N   UNL     1      -1.294   5.103  14.350  1.00  0.00    -0.354 N 
ATOM     64  N   UNL     1      -1.883   7.588  12.884  1.00  0.00    -0.248 NA
ATOM     65  C   UNL     1      -2.831   9.721  12.815  1.00  0.00     0.031 C 
ATOM     66  C   UNL     1      -1.866   4.987  16.494  1.00  0.00     0.029 A 
ATOM     67  C   UNL     1      -1.885   5.813  15.381  1.00  0.00     0.049 A 
ATOM     68  H   UNL     1      -1.175   5.434  13.431  1.00  0.00     0.167 HD
ATOM     69  C   UNL     1      -2.390   7.901  14.138  1.00  0.00     0.074 A 
ATOM     70  C   UNL     1      -2.934   9.240  14.046  1.00  0.00     0.031 C 
ATOM     71  C   UNL     1      -2.407   7.150  15.267  1.00  0.00     0.037 A 
BRANCH  58  72
ATOM     72  C   UNL     1       0.120   1.551  14.626  1.00  0.00     0.057 A 
ATOM     73  C   UNL     1       1.454   1.226  14.904  1.00  0.00     0.134 A 
ATOM     74  C   UNL     1      -0.863   0.629  15.006  1.00  0.00     0.134 A 
ATOM     75  F   UNL     1       2.444   2.059  14.552  1.00  0.00    -0.206 F 
ATOM     76  C   UNL     1       1.797   0.023  15.526  1.00  0.00     0.040 A 
ATOM     77  C   UNL     1      -0.534  -0.566  15.648  1.00  0.00     0.040 A 
ATOM     78  F   UNL     1      -2.160   0.880  14.771  1.00  0.00    -0.206 F 
ATOM     79  C   UNL     1       0.801  -0.873  15.907  1.00  0.00     0.006 A 
ENDBRANCH  58  72
BRANCH  59  80
ATOM     80  C   UNL     1      -2.141  10.125  10.000  1.00  0.00     0.057 A 
ATOM     81  C   UNL     1      -1.555  11.348  10.346  1.00  0.00     0.134 A 
ATOM     82  C   UNL     1      -3.125  10.140   9.004  1.00  0.00     0.134 A 
ATOM     83  F   UNL     1      -0.621  11.401  11.307  1.00  0.00    -0.206 F 
ATOM     84  C   UNL     1      -1.952  12.544   9.745  1.00  0.00     0.040 A 
ATOM     85  C   UNL     1      -3.513  11.325   8.376  1.00  0.00     0.040 A 
ATOM     86  F   UNL     1      -3.723   9.001   8.623  1.00  0.00    -0.206 F 
ATOM     87  C   UNL     1      -2.932  12.533   8.754  1.00  0.00     0.006 A 
ENDBRANCH  59  80
BRANCH  71  88
ATOM     88  C   UNL     1      -2.997   7.774  16.496  1.00  0.00     0.057 A 
ATOM     89  C   UNL     1      -4.378   7.958  16.641  1.00  0.00     0.134 A 
ATOM     90  C   UNL     1      -2.175   8.159  17.563  1.00  0.00     0.134 A 
ATOM     91  F   UNL     1      -5.217   7.621  15.650  1.00  0.00    -0.206 F 
ATOM     92  C   UNL     1      -4.918   8.525  17.796  1.00  0.00     0.040 A 
ATOM     93  C   UNL     1      -2.706   8.703  18.732  1.00  0.00     0.040 A 
ATOM     94  F   UNL     1      -0.845   8.000  17.490  1.00  0.00    -0.206 F 
ATOM     95  C   UNL     1      -4.082   8.893  18.849  1.00  0.00     0.006 A 
ENDBRANCH  71  88
ENDBRANCH  45  46
ENDBRANCH  38  40
ENDBRANCH  37  38
ENDBRANCH  36  37
ENDBRANCH   1  36
TORSDOF 15
