REMARK SMILES O=C(OCCOCCOC(=O)[C@@H](Cc1cccc(F)c1)[C@H]1CCOC2(CCC2)C1)c1ccc(-c2c3nc(c(-c4c(F)cccc4F)c4ccc([nH]4)c(-c4c(F)cccc4F)c4nc(c(-c5c(F)cccc5F)c5ccc2[nH]5)C=C4)C=C3)cc1
REMARK SMILES IDX 6 1 5 2 4 3 3 4 2 5 1 6 30 7 31 8 83 9 32 10 82 11 33 12
REMARK SMILES IDX 34 13 35 14 76 15 36 16 81 17 75 18 77 19 37 20 80 21 74 22
REMARK SMILES IDX 73 23 38 25 64 26 47 27 63 28 48 29 51 30 62 31 78 32 49 33
REMARK SMILES IDX 50 34 61 36 79 37 52 38 39 39 40 40 45 41 41 42 42 43 44 44
REMARK SMILES IDX 46 45 43 46 65 47 66 48 71 49 67 50 68 51 70 52 72 53 69 54
REMARK SMILES IDX 53 55 54 56 59 57 55 58 56 59 58 60 60 61 57 62 7 63 8 64
REMARK SMILES IDX 9 65 10 66 11 67 12 68 13 69 14 70 15 71 20 72 16 73 18 74
REMARK SMILES IDX 17 75 19 76 21 77 22 78 29 79 23 80 25 81 24 82 26 83 28 84
REMARK SMILES IDX 27 85
REMARK H PARENT 77 24 51 35
REMARK Flexibility Score: inf
ROOT
ATOM      1  O   UNL     1       0.522   0.404   3.883  1.00  0.00    -0.374 OA
ENDROOT
BRANCH   1   2
ATOM      2  C   UNL     1       0.377  -0.855   3.247  1.00  0.00     0.202 C 
BRANCH   2   3
ATOM      3  C   UNL     1      -1.044  -1.085   2.742  1.00  0.00     0.261 C 
BRANCH   3   4
ATOM      4  O   UNL     1      -1.324  -0.198   1.646  1.00  0.00    -0.460 OA
BRANCH   4   5
ATOM      5  C   UNL     1      -1.893   1.026   1.648  1.00  0.00     0.338 C 
ATOM      6  O   UNL     1      -1.903   1.657   0.591  1.00  0.00    -0.246 OA
BRANCH   5   7
ATOM      7  C   UNL     1      -2.519   1.683   2.841  1.00  0.00     0.060 A 
ATOM      8  C   UNL     1      -2.202   1.439   4.180  1.00  0.00     0.016 A 
ATOM      9  C   UNL     1      -3.426   2.724   2.566  1.00  0.00     0.016 A 
ATOM     10  C   UNL     1      -2.739   2.201   5.209  1.00  0.00     0.010 A 
ATOM     11  C   UNL     1      -3.992   3.483   3.593  1.00  0.00     0.010 A 
ATOM     12  C   UNL     1      -3.644   3.216   4.918  1.00  0.00    -0.014 A 
BRANCH  12  13
ATOM     13  C   UNL     1      -4.313   3.884   6.040  1.00  0.00     0.031 A 
ATOM     14  C   UNL     1      -5.627   3.334   6.491  1.00  0.00     0.074 A 
ATOM     15  C   UNL     1      -3.689   4.874   6.699  1.00  0.00     0.049 A 
ATOM     16  N   UNL     1      -6.452   3.798   7.386  1.00  0.00    -0.248 NA
ATOM     17  C   UNL     1      -6.062   2.073   5.862  1.00  0.00     0.031 C 
ATOM     18  C   UNL     1      -2.335   5.353   6.412  1.00  0.00     0.029 A 
ATOM     19  N   UNL     1      -4.099   5.640   7.756  1.00  0.00    -0.354 N 
ATOM     20  C   UNL     1      -7.513   2.905   7.410  1.00  0.00     0.074 A 
ATOM     21  C   UNL     1      -7.224   1.857   6.460  1.00  0.00     0.031 C 
ATOM     22  C   UNL     1      -2.028   6.335   7.276  1.00  0.00     0.029 A 
ATOM     23  C   UNL     1      -3.186   6.598   8.124  1.00  0.00     0.049 A 
ATOM     24  H   UNL     1      -4.964   5.516   8.209  1.00  0.00     0.167 HD
ATOM     25  C   UNL     1      -8.638   2.980   8.153  1.00  0.00     0.037 A 
ATOM     26  C   UNL     1      -3.309   7.601   9.014  1.00  0.00     0.037 A 
ATOM     27  C   UNL     1      -8.892   4.047   9.078  1.00  0.00     0.049 A 
ATOM     28  C   UNL     1      -4.623   7.735   9.739  1.00  0.00     0.074 A 
ATOM     29  C   UNL     1     -10.024   4.289   9.830  1.00  0.00     0.029 A 
ATOM     30  N   UNL     1      -7.983   5.056   9.369  1.00  0.00    -0.354 N 
ATOM     31  N   UNL     1      -5.668   6.941   9.700  1.00  0.00    -0.248 NA
ATOM     32  C   UNL     1      -4.796   8.915  10.597  1.00  0.00     0.031 C 
ATOM     33  C   UNL     1      -9.815   5.471  10.547  1.00  0.00     0.029 A 
ATOM     34  C   UNL     1      -8.538   5.942  10.269  1.00  0.00     0.049 A 
ATOM     35  H   UNL     1      -7.078   5.128   8.989  1.00  0.00     0.167 HD
ATOM     36  C   UNL     1      -6.625   7.526  10.517  1.00  0.00     0.074 A 
ATOM     37  C   UNL     1      -6.024   8.728  11.063  1.00  0.00     0.031 C 
ATOM     38  C   UNL     1      -7.891   7.123  10.782  1.00  0.00     0.037 A 
BRANCH  25  39
ATOM     39  C   UNL     1      -9.685   1.937   7.926  1.00  0.00     0.057 A 
ATOM     40  C   UNL     1     -10.821   2.235   7.164  1.00  0.00     0.134 A 
ATOM     41  C   UNL     1      -9.575   0.645   8.452  1.00  0.00     0.134 A 
ATOM     42  F   UNL     1     -10.976   3.452   6.620  1.00  0.00    -0.206 F 
ATOM     43  C   UNL     1     -11.820   1.287   6.942  1.00  0.00     0.040 A 
ATOM     44  C   UNL     1     -10.561  -0.317   8.224  1.00  0.00     0.040 A 
ATOM     45  F   UNL     1      -8.495   0.289   9.162  1.00  0.00    -0.206 F 
ATOM     46  C   UNL     1     -11.691   0.005   7.473  1.00  0.00     0.006 A 
ENDBRANCH  25  39
BRANCH  26  47
ATOM     47  C   UNL     1      -2.214   8.591   9.193  1.00  0.00     0.057 A 
ATOM     48  C   UNL     1      -1.827   9.444   8.150  1.00  0.00     0.134 A 
ATOM     49  C   UNL     1      -1.532   8.719  10.408  1.00  0.00     0.134 A 
ATOM     50  F   UNL     1      -2.441   9.382   6.959  1.00  0.00    -0.206 F 
ATOM     51  C   UNL     1      -0.791  10.369   8.299  1.00  0.00     0.040 A 
ATOM     52  C   UNL     1      -0.511   9.659  10.580  1.00  0.00     0.040 A 
ATOM     53  F   UNL     1      -1.868   7.952  11.455  1.00  0.00    -0.206 F 
ATOM     54  C   UNL     1      -0.133  10.482   9.521  1.00  0.00     0.006 A 
ENDBRANCH  26  47
BRANCH  38  55
ATOM     55  C   UNL     1      -8.709   7.989  11.686  1.00  0.00     0.057 A 
ATOM     56  C   UNL     1      -8.995   7.586  12.995  1.00  0.00     0.134 A 
ATOM     57  C   UNL     1      -9.311   9.160  11.212  1.00  0.00     0.134 A 
ATOM     58  F   UNL     1      -8.455   6.464  13.495  1.00  0.00    -0.206 F 
ATOM     59  C   UNL     1      -9.876   8.307  13.797  1.00  0.00     0.040 A 
ATOM     60  C   UNL     1     -10.178   9.901  12.013  1.00  0.00     0.040 A 
ATOM     61  F   UNL     1      -9.066   9.596   9.967  1.00  0.00    -0.206 F 
ATOM     62  C   UNL     1     -10.473   9.467  13.305  1.00  0.00     0.006 A 
ENDBRANCH  38  55
ENDBRANCH  12  13
ENDBRANCH   5   7
ENDBRANCH   4   5
ENDBRANCH   3   4
ENDBRANCH   2   3
ENDBRANCH   1   2
BRANCH   1  63
ATOM     63  C   UNL     1       1.061   1.473   3.112  1.00  0.00     0.202 C 
BRANCH  63  64
ATOM     64  C   UNL     1       1.829   2.364   4.081  1.00  0.00     0.261 C 
BRANCH  64  65
ATOM     65  O   UNL     1       3.018   1.665   4.466  1.00  0.00    -0.463 OA
BRANCH  65  66
ATOM     66  C   UNL     1       2.910   0.704   5.424  1.00  0.00     0.309 C 
ATOM     67  O   UNL     1       1.956   0.514   6.163  1.00  0.00    -0.252 OA
BRANCH  66  68
ATOM     68  C   UNL     1       4.209  -0.065   5.513  1.00  0.00     0.107 C 
BRANCH  68  69
ATOM     69  C   UNL     1       4.359  -1.061   4.324  1.00  0.00     0.051 C 
BRANCH  69  70
ATOM     70  C   UNL     1       4.300  -0.659   2.853  1.00  0.00    -0.044 A 
ATOM     71  C   UNL     1       4.639   0.602   2.341  1.00  0.00     0.004 A 
ATOM     72  C   UNL     1       3.912  -1.639   1.918  1.00  0.00     0.043 A 
ATOM     73  C   UNL     1       4.516   0.903   0.976  1.00  0.00     0.003 A 
ATOM     74  C   UNL     1       3.806  -1.339   0.558  1.00  0.00     0.123 A 
ATOM     75  C   UNL     1       4.090  -0.069   0.081  1.00  0.00     0.039 A 
ATOM     76  F   UNL     1       3.412  -2.291  -0.298  1.00  0.00    -0.207 F 
ENDBRANCH  69  70
ENDBRANCH  68  69
BRANCH  68  77
ATOM     77  C   UNL     1       5.394   0.891   5.756  1.00  0.00     0.009 C 
ATOM     78  C   UNL     1       5.059   2.106   6.654  1.00  0.00     0.033 C 
ATOM     79  C   UNL     1       6.615   0.198   6.384  1.00  0.00     0.040 C 
ATOM     80  C   UNL     1       6.226   3.078   6.605  1.00  0.00     0.161 C 
ATOM     81  C   UNL     1       7.780   1.194   6.359  1.00  0.00     0.069 C 
ATOM     82  O   UNL     1       7.411   2.425   7.039  1.00  0.00    -0.375 OA
ATOM     83  C   UNL     1       9.149   0.635   6.835  1.00  0.00     0.035 C 
ATOM     84  C   UNL     1       8.435   1.342   4.952  1.00  0.00     0.035 C 
ATOM     85  C   UNL     1       9.793   1.410   5.666  1.00  0.00     0.006 C 
ENDBRANCH  68  77
ENDBRANCH  66  68
ENDBRANCH  65  66
ENDBRANCH  64  65
ENDBRANCH  63  64
ENDBRANCH   1  63
TORSDOF 17
