REMARK SMILES Cc1ccc(C(C)C)c(OCC(=O)Nc2nc(CC(=O)OCCOCCOC(=O)c3ccc(-c4c5nc(c(-c6c(F)cccc6F)c6ccc([nH]6)c(-c6c(F)cccc6F)c6nc(c(-c7c(F)cccc7F)c7ccc4[nH]7)C=C6)C=C5)cc3)cs2)c1
REMARK SMILES IDX 22 1 21 2 19 3 20 4 18 5 17 6 15 7 16 8 85 9 84 10 14 11
REMARK SMILES IDX 12 12 13 13 11 15 10 16 9 17 1 18 2 19 3 20 86 21 4 22 5 23
REMARK SMILES IDX 6 24 7 25 8 26 23 27 24 28 25 29 26 30 27 31 28 32 29 33
REMARK SMILES IDX 30 34 31 35 83 36 32 37 82 38 33 39 34 40 35 41 76 42 36 43
REMARK SMILES IDX 81 44 75 45 77 46 37 47 80 48 74 49 73 50 38 52 64 53 47 54
REMARK SMILES IDX 63 55 48 56 51 57 62 58 78 59 49 60 50 61 61 63 79 64 52 65
REMARK SMILES IDX 39 66 40 67 45 68 41 69 42 70 44 71 46 72 43 73 65 74 66 75
REMARK SMILES IDX 71 76 67 77 68 78 70 79 72 80 69 81 53 82 54 83 59 84 55 85
REMARK SMILES IDX 56 86 58 87 60 88 57 89
REMARK H PARENT 14 14 77 51 51 62
REMARK Flexibility Score: inf
ROOT
ATOM      1  C   UNL     1      -5.106   0.840   3.400  1.00  0.00     0.261 C 
ENDROOT
BRANCH   1   2
ATOM      2  O   UNL     1      -4.832   1.714   2.320  1.00  0.00    -0.463 OA
BRANCH   2   3
ATOM      3  C   UNL     1      -5.858   2.081   1.498  1.00  0.00     0.311 C 
ATOM      4  O   UNL     1      -6.923   1.517   1.389  1.00  0.00    -0.252 OA
BRANCH   3   5
ATOM      5  C   UNL     1      -5.449   3.332   0.738  1.00  0.00     0.179 C 
BRANCH   5   6
ATOM      6  C   UNL     1      -4.398   4.066   1.518  1.00  0.00     0.065 A 
ATOM      7  C   UNL     1      -2.322   4.194   2.228  1.00  0.00     0.189 A 
ATOM      8  N   UNL     1      -3.075   3.792   1.242  1.00  0.00    -0.224 NA
ATOM      9  S   UNL     1      -3.110   4.993   3.507  1.00  0.00    -0.105 S 
ATOM     10  C   UNL     1      -4.589   4.861   2.635  1.00  0.00     0.093 A 
BRANCH   7  11
ATOM     11  N   UNL     1      -0.974   4.088   2.346  1.00  0.00    -0.299 N 
ATOM     12  C   UNL     1      -0.127   3.831   1.309  1.00  0.00     0.264 C 
ATOM     13  O   UNL     1       1.085   3.800   1.553  1.00  0.00    -0.271 OA
ATOM     14  H   UNL     1      -0.581   4.205   3.241  1.00  0.00     0.172 HD
BRANCH  12  15
ATOM     15  C   UNL     1      -0.649   3.715  -0.141  1.00  0.00     0.329 C 
BRANCH  15  16
ATOM     16  O   UNL     1      -1.326   2.537  -0.539  1.00  0.00    -0.483 OA
BRANCH  16  17
ATOM     17  C   UNL     1      -0.645   1.352  -0.564  1.00  0.00     0.123 A 
ATOM     18  C   UNL     1       2.827  -0.104  -0.014  1.00  0.00     0.044 C 
ATOM     19  C   UNL     1       1.362  -0.005  -0.310  1.00  0.00    -0.047 A 
ATOM     20  C   UNL     1       0.602  -1.159  -0.483  1.00  0.00     0.004 A 
ATOM     21  C   UNL     1       0.737   1.244  -0.384  1.00  0.00     0.050 A 
ATOM     22  C   UNL     1      -0.766  -1.063  -0.721  1.00  0.00     0.008 A 
ATOM     23  C   UNL     1      -1.413   0.187  -0.756  1.00  0.00    -0.003 A 
BRANCH  23  24
ATOM     24  C   UNL     1      -2.933   0.240  -0.837  1.00  0.00     0.017 C 
ATOM     25  C   UNL     1      -3.531  -0.541  -2.010  1.00  0.00     0.012 C 
ATOM     26  C   UNL     1      -3.475  -0.294   0.482  1.00  0.00     0.012 C 
ENDBRANCH  23  24
ENDBRANCH  16  17
ENDBRANCH  15  16
ENDBRANCH  12  15
ENDBRANCH   7  11
ENDBRANCH   5   6
ENDBRANCH   3   5
ENDBRANCH   2   3
ENDBRANCH   1   2
BRANCH   1  27
ATOM     27  C   UNL     1      -5.403   1.656   4.633  1.00  0.00     0.202 C 
BRANCH  27  28
ATOM     28  O   UNL     1      -6.705   2.205   4.484  1.00  0.00    -0.374 OA
BRANCH  28  29
ATOM     29  C   UNL     1      -6.964   3.389   5.225  1.00  0.00     0.202 C 
BRANCH  29  30
ATOM     30  C   UNL     1      -6.614   3.330   6.718  1.00  0.00     0.261 C 
BRANCH  30  31
ATOM     31  O   UNL     1      -7.472   2.385   7.385  1.00  0.00    -0.460 OA
BRANCH  31  32
ATOM     32  C   UNL     1      -6.862   1.245   7.806  1.00  0.00     0.338 C 
ATOM     33  O   UNL     1      -5.822   1.193   8.443  1.00  0.00    -0.246 OA
BRANCH  32  34
ATOM     34  C   UNL     1      -7.444   0.078   7.083  1.00  0.00     0.060 A 
ATOM     35  C   UNL     1      -6.806  -1.172   7.172  1.00  0.00     0.016 A 
ATOM     36  C   UNL     1      -8.309   0.342   6.026  1.00  0.00     0.016 A 
ATOM     37  C   UNL     1      -6.888  -2.074   6.104  1.00  0.00     0.010 A 
ATOM     38  C   UNL     1      -8.247  -0.471   4.919  1.00  0.00     0.010 A 
ATOM     39  C   UNL     1      -7.532  -1.674   4.938  1.00  0.00    -0.014 A 
BRANCH  39  40
ATOM     40  C   UNL     1      -7.515  -2.381   3.659  1.00  0.00     0.031 A 
ATOM     41  C   UNL     1      -8.802  -2.825   3.078  1.00  0.00     0.074 A 
ATOM     42  C   UNL     1      -6.400  -2.431   2.894  1.00  0.00     0.049 A 
ATOM     43  N   UNL     1      -8.889  -3.635   2.085  1.00  0.00    -0.248 NA
ATOM     44  C   UNL     1     -10.111  -2.392   3.556  1.00  0.00     0.031 C 
ATOM     45  C   UNL     1      -6.305  -2.720   1.466  1.00  0.00     0.029 A 
ATOM     46  N   UNL     1      -5.069  -2.333   3.292  1.00  0.00    -0.354 N 
ATOM     47  C   UNL     1     -10.165  -3.564   1.585  1.00  0.00     0.074 A 
ATOM     48  C   UNL     1     -10.904  -2.810   2.566  1.00  0.00     0.031 C 
ATOM     49  C   UNL     1      -5.055  -3.106   1.174  1.00  0.00     0.029 A 
ATOM     50  C   UNL     1      -4.306  -3.114   2.414  1.00  0.00     0.049 A 
ATOM     51  H   UNL     1      -4.726  -1.810   4.053  1.00  0.00     0.167 HD
ATOM     52  C   UNL     1     -10.396  -4.059   0.337  1.00  0.00     0.037 A 
ATOM     53  C   UNL     1      -3.471  -4.077   2.875  1.00  0.00     0.037 A 
ATOM     54  C   UNL     1      -9.165  -4.632  -0.228  1.00  0.00     0.049 A 
ATOM     55  C   UNL     1      -3.967  -5.381   2.331  1.00  0.00     0.074 A 
ATOM     56  C   UNL     1      -8.258  -4.194  -1.181  1.00  0.00     0.029 A 
ATOM     57  N   UNL     1      -8.527  -5.672   0.455  1.00  0.00    -0.354 N 
ATOM     58  N   UNL     1      -5.224  -5.572   2.015  1.00  0.00    -0.248 NA
ATOM     59  C   UNL     1      -3.099  -6.465   1.890  1.00  0.00     0.031 C 
ATOM     60  C   UNL     1      -7.063  -4.956  -1.040  1.00  0.00     0.029 A 
ATOM     61  C   UNL     1      -7.239  -5.865  -0.007  1.00  0.00     0.049 A 
ATOM     62  H   UNL     1      -8.943  -6.200   1.174  1.00  0.00     0.167 HD
ATOM     63  C   UNL     1      -5.310  -6.663   1.202  1.00  0.00     0.074 A 
ATOM     64  C   UNL     1      -3.970  -7.230   1.208  1.00  0.00     0.031 C 
ATOM     65  C   UNL     1      -6.423  -6.976   0.475  1.00  0.00     0.037 A 
BRANCH  52  66
ATOM     66  C   UNL     1     -11.669  -3.810  -0.446  1.00  0.00     0.057 A 
ATOM     67  C   UNL     1     -11.675  -3.812  -1.855  1.00  0.00     0.134 A 
ATOM     68  C   UNL     1     -12.928  -3.554   0.130  1.00  0.00     0.134 A 
ATOM     69  F   UNL     1     -10.583  -4.120  -2.565  1.00  0.00    -0.206 F 
ATOM     70  C   UNL     1     -12.812  -3.502  -2.617  1.00  0.00     0.040 A 
ATOM     71  C   UNL     1     -14.058  -3.185  -0.617  1.00  0.00     0.040 A 
ATOM     72  F   UNL     1     -13.150  -3.718   1.439  1.00  0.00    -0.206 F 
ATOM     73  C   UNL     1     -14.003  -3.154  -1.999  1.00  0.00     0.006 A 
ENDBRANCH  52  66
BRANCH  53  74
ATOM     74  C   UNL     1      -2.861  -3.672   4.175  1.00  0.00     0.057 A 
ATOM     75  C   UNL     1      -1.960  -2.584   4.093  1.00  0.00     0.134 A 
ATOM     76  C   UNL     1      -3.534  -3.828   5.393  1.00  0.00     0.134 A 
ATOM     77  F   UNL     1      -1.274  -2.371   2.958  1.00  0.00    -0.206 F 
ATOM     78  C   UNL     1      -1.890  -1.592   5.079  1.00  0.00     0.040 A 
ATOM     79  C   UNL     1      -3.448  -2.849   6.400  1.00  0.00     0.040 A 
ATOM     80  F   UNL     1      -4.419  -4.821   5.560  1.00  0.00    -0.206 F 
ATOM     81  C   UNL     1      -2.677  -1.700   6.218  1.00  0.00     0.006 A 
ENDBRANCH  53  74
BRANCH  65  82
ATOM     82  C   UNL     1      -6.800  -8.383   0.085  1.00  0.00     0.057 A 
ATOM     83  C   UNL     1      -6.240  -9.527   0.672  1.00  0.00     0.134 A 
ATOM     84  C   UNL     1      -7.916  -8.625  -0.748  1.00  0.00     0.134 A 
ATOM     85  F   UNL     1      -5.240  -9.457   1.560  1.00  0.00    -0.206 F 
ATOM     86  C   UNL     1      -6.728 -10.813   0.423  1.00  0.00     0.040 A 
ATOM     87  C   UNL     1      -8.452  -9.897  -0.948  1.00  0.00     0.040 A 
ATOM     88  F   UNL     1      -8.573  -7.637  -1.373  1.00  0.00    -0.206 F 
ATOM     89  C   UNL     1      -7.850 -11.000  -0.370  1.00  0.00     0.006 A 
ENDBRANCH  65  82
ENDBRANCH  39  40
ENDBRANCH  32  34
ENDBRANCH  31  32
ENDBRANCH  30  31
ENDBRANCH  29  30
ENDBRANCH  28  29
ENDBRANCH  27  28
ENDBRANCH   1  27
TORSDOF 20
