REMARK SMILES O=C(OCCOCCOC(=O)c1cc(Cl)ncc1-c1cccc(C(F)(F)F)c1)c1ccc(-c2c3nc(c(-c4c(F)cccc4F)c4ccc([nH]4)c(-c4c(F)cccc4F)c4nc(c(-c5c(F)cccc5F)c5ccc2[nH]5)C=C4)C=C3)cc1
REMARK SMILES IDX 6 1 5 2 4 3 3 4 2 5 1 6 29 7 30 8 82 9 31 10 81 11 32 12
REMARK SMILES IDX 33 13 34 14 75 15 35 16 80 17 74 18 76 19 36 20 79 21 73 22
REMARK SMILES IDX 72 23 37 25 63 26 46 27 62 28 47 29 50 30 61 31 77 32 48 33
REMARK SMILES IDX 49 34 60 36 78 37 51 38 38 39 39 40 44 41 40 42 41 43 43 44
REMARK SMILES IDX 45 45 42 46 64 47 65 48 70 49 66 50 67 51 69 52 71 53 68 54
REMARK SMILES IDX 52 55 53 56 58 57 54 58 55 59 57 60 59 61 56 62 7 63 8 64
REMARK SMILES IDX 9 65 10 66 11 67 12 68 13 69 18 70 14 71 17 72 15 73 16 74
REMARK SMILES IDX 19 75 20 76 28 77 21 78 23 79 22 80 24 81 25 82 26 83 27 84
REMARK H PARENT 76 24 50 35
REMARK Flexibility Score: inf
ROOT
ATOM      1  O   UNL     1       3.814  -1.801  -1.225  1.00  0.00    -0.374 OA
ENDROOT
BRANCH   1   2
ATOM      2  C   UNL     1       4.175  -1.172  -0.006  1.00  0.00     0.202 C 
BRANCH   2   3
ATOM      3  C   UNL     1       3.215  -0.175   0.673  1.00  0.00     0.261 C 
BRANCH   3   4
ATOM      4  O   UNL     1       1.871  -0.152   0.164  1.00  0.00    -0.460 OA
BRANCH   4   5
ATOM      5  C   UNL     1       1.370   0.954  -0.451  1.00  0.00     0.338 C 
ATOM      6  O   UNL     1       0.217   1.325  -0.284  1.00  0.00    -0.246 OA
BRANCH   5   7
ATOM      7  C   UNL     1       2.256   1.639  -1.420  1.00  0.00     0.060 A 
ATOM      8  C   UNL     1       3.216   0.905  -2.097  1.00  0.00     0.016 A 
ATOM      9  C   UNL     1       2.092   2.977  -1.754  1.00  0.00     0.016 A 
ATOM     10  C   UNL     1       4.171   1.473  -2.893  1.00  0.00     0.010 A 
ATOM     11  C   UNL     1       2.893   3.517  -2.764  1.00  0.00     0.010 A 
ATOM     12  C   UNL     1       3.934   2.756  -3.334  1.00  0.00    -0.014 A 
BRANCH  12  13
ATOM     13  C   UNL     1       4.760   3.255  -4.442  1.00  0.00     0.031 A 
ATOM     14  C   UNL     1       5.561   4.480  -4.207  1.00  0.00     0.074 A 
ATOM     15  C   UNL     1       4.773   2.593  -5.616  1.00  0.00     0.049 A 
ATOM     16  N   UNL     1       6.105   5.284  -5.072  1.00  0.00    -0.248 NA
ATOM     17  C   UNL     1       5.747   4.869  -2.799  1.00  0.00     0.031 C 
ATOM     18  C   UNL     1       4.118   1.304  -5.883  1.00  0.00     0.029 A 
ATOM     19  N   UNL     1       5.352   2.913  -6.813  1.00  0.00    -0.354 N 
ATOM     20  C   UNL     1       6.624   6.325  -4.320  1.00  0.00     0.074 A 
ATOM     21  C   UNL     1       6.337   6.045  -2.931  1.00  0.00     0.031 C 
ATOM     22  C   UNL     1       4.337   0.946  -7.155  1.00  0.00     0.029 A 
ATOM     23  C   UNL     1       5.031   2.034  -7.821  1.00  0.00     0.049 A 
ATOM     24  H   UNL     1       5.939   3.693  -6.941  1.00  0.00     0.167 HD
ATOM     25  C   UNL     1       7.255   7.426  -4.781  1.00  0.00     0.037 A 
ATOM     26  C   UNL     1       5.200   2.146  -9.149  1.00  0.00     0.037 A 
ATOM     27  C   UNL     1       7.510   7.635  -6.180  1.00  0.00     0.049 A 
ATOM     28  C   UNL     1       5.838   3.407  -9.651  1.00  0.00     0.074 A 
ATOM     29  C   UNL     1       8.110   8.709  -6.803  1.00  0.00     0.029 A 
ATOM     30  N   UNL     1       7.163   6.727  -7.179  1.00  0.00    -0.354 N 
ATOM     31  N   UNL     1       6.266   4.440  -8.961  1.00  0.00    -0.248 NA
ATOM     32  C   UNL     1       6.002   3.538 -11.101  1.00  0.00     0.031 C 
ATOM     33  C   UNL     1       8.076   8.476  -8.183  1.00  0.00     0.029 A 
ATOM     34  C   UNL     1       7.518   7.225  -8.417  1.00  0.00     0.049 A 
ATOM     35  H   UNL     1       6.728   5.857  -7.024  1.00  0.00     0.167 HD
ATOM     36  C   UNL     1       6.774   5.336  -9.886  1.00  0.00     0.074 A 
ATOM     37  C   UNL     1       6.600   4.719 -11.190  1.00  0.00     0.031 C 
ATOM     38  C   UNL     1       7.336   6.553  -9.684  1.00  0.00     0.037 A 
BRANCH  25  39
ATOM     39  C   UNL     1       7.581   8.484  -3.771  1.00  0.00     0.057 A 
ATOM     40  C   UNL     1       8.512   8.285  -2.741  1.00  0.00     0.134 A 
ATOM     41  C   UNL     1       6.865   9.688  -3.765  1.00  0.00     0.134 A 
ATOM     42  F   UNL     1       9.209   7.141  -2.666  1.00  0.00    -0.206 F 
ATOM     43  C   UNL     1       8.675   9.217  -1.713  1.00  0.00     0.040 A 
ATOM     44  C   UNL     1       7.045  10.643  -2.762  1.00  0.00     0.040 A 
ATOM     45  F   UNL     1       5.952   9.944  -4.714  1.00  0.00    -0.206 F 
ATOM     46  C   UNL     1       7.939  10.399  -1.722  1.00  0.00     0.006 A 
ENDBRANCH  25  39
BRANCH  26  47
ATOM     47  C   UNL     1       4.693   1.084 -10.058  1.00  0.00     0.057 A 
ATOM     48  C   UNL     1       5.568   0.267 -10.780  1.00  0.00     0.134 A 
ATOM     49  C   UNL     1       3.321   0.823 -10.187  1.00  0.00     0.134 A 
ATOM     50  F   UNL     1       6.892   0.468 -10.708  1.00  0.00    -0.206 F 
ATOM     51  C   UNL     1       5.101  -0.764 -11.599  1.00  0.00     0.040 A 
ATOM     52  C   UNL     1       2.841  -0.221 -10.981  1.00  0.00     0.040 A 
ATOM     53  F   UNL     1       2.424   1.558  -9.513  1.00  0.00    -0.206 F 
ATOM     54  C   UNL     1       3.733  -1.016 -11.694  1.00  0.00     0.006 A 
ENDBRANCH  26  47
BRANCH  38  55
ATOM     55  C   UNL     1       7.858   7.266 -10.891  1.00  0.00     0.057 A 
ATOM     56  C   UNL     1       7.008   7.900 -11.803  1.00  0.00     0.134 A 
ATOM     57  C   UNL     1       9.239   7.409 -11.072  1.00  0.00     0.134 A 
ATOM     58  F   UNL     1       5.676   7.784 -11.687  1.00  0.00    -0.206 F 
ATOM     59  C   UNL     1       7.516   8.658 -12.856  1.00  0.00     0.040 A 
ATOM     60  C   UNL     1       9.758   8.187 -12.103  1.00  0.00     0.040 A 
ATOM     61  F   UNL     1      10.101   6.828 -10.223  1.00  0.00    -0.206 F 
ATOM     62  C   UNL     1       8.895   8.816 -12.998  1.00  0.00     0.006 A 
ENDBRANCH  38  55
ENDBRANCH  12  13
ENDBRANCH   5   7
ENDBRANCH   4   5
ENDBRANCH   3   4
ENDBRANCH   2   3
ENDBRANCH   1   2
BRANCH   1  63
ATOM     63  C   UNL     1       2.668  -2.638  -1.210  1.00  0.00     0.202 C 
BRANCH  63  64
ATOM     64  C   UNL     1       3.107  -4.090  -1.241  1.00  0.00     0.261 C 
BRANCH  64  65
ATOM     65  O   UNL     1       3.712  -4.415   0.023  1.00  0.00    -0.460 OA
BRANCH  65  66
ATOM     66  C   UNL     1       5.050  -4.218   0.176  1.00  0.00     0.339 C 
ATOM     67  O   UNL     1       5.864  -3.887  -0.667  1.00  0.00    -0.246 OA
BRANCH  66  68
ATOM     68  C   UNL     1       5.338  -4.442   1.611  1.00  0.00     0.072 A 
ATOM     69  C   UNL     1       4.753  -5.606   2.137  1.00  0.00     0.057 A 
ATOM     70  C   UNL     1       6.094  -3.577   2.435  1.00  0.00     0.015 A 
ATOM     71  C   UNL     1       4.929  -5.875   3.470  1.00  0.00     0.129 A 
ATOM     72  C   UNL     1       6.207  -3.992   3.765  1.00  0.00     0.122 A 
ATOM     73  Cl  UNL     1       4.209  -7.253   4.186  1.00  0.00    -0.062 Cl
ATOM     74  N   UNL     1       5.646  -5.103   4.300  1.00  0.00    -0.244 NA
BRANCH  70  75
ATOM     75  C   UNL     1       6.734  -2.290   2.076  1.00  0.00    -0.015 A 
ATOM     76  C   UNL     1       7.992  -2.251   1.460  1.00  0.00     0.009 A 
ATOM     77  C   UNL     1       6.167  -1.052   2.466  1.00  0.00     0.021 A 
ATOM     78  C   UNL     1       8.652  -1.035   1.235  1.00  0.00     0.001 A 
ATOM     79  C   UNL     1       6.786   0.184   2.176  1.00  0.00     0.056 A 
ATOM     80  C   UNL     1       8.050   0.174   1.577  1.00  0.00     0.013 A 
BRANCH  79  81
ATOM     81  C   UNL     1       6.097   1.507   2.424  1.00  0.00     0.416 C 
ATOM     82  F   UNL     1       6.849   2.386   3.139  1.00  0.00    -0.166 F 
ATOM     83  F   UNL     1       5.786   2.143   1.257  1.00  0.00    -0.166 F 
ATOM     84  F   UNL     1       4.916   1.383   3.091  1.00  0.00    -0.166 F 
ENDBRANCH  79  81
ENDBRANCH  70  75
ENDBRANCH  66  68
ENDBRANCH  65  66
ENDBRANCH  64  65
ENDBRANCH  63  64
ENDBRANCH   1  63
TORSDOF 16
