REMARK SMILES O=C(OCCOCCOC(=O)[C@H]1Cc2ccc(Cl)cc2C[N@@H+]1Cc1ccc(Cl)cc1)c1ccc(-c2c3nc(c(-c4c(F)cccc4F)c4ccc([nH]4)c(-c4c(F)cccc4F)c4nc(c(-c5c(F)cccc5F)c5ccc2[nH]5)C=C4)C=C3)cc1
REMARK SMILES IDX 6 1 5 2 4 3 3 4 2 5 1 6 31 7 32 8 84 9 33 10 83 11 34 12
REMARK SMILES IDX 35 13 36 14 77 15 37 16 82 17 76 18 78 19 38 20 81 21 75 22
REMARK SMILES IDX 74 23 39 25 65 26 48 27 64 28 49 29 52 30 63 31 79 32 50 33
REMARK SMILES IDX 51 34 62 36 80 37 53 38 40 39 41 40 46 41 42 42 43 43 45 44
REMARK SMILES IDX 47 45 44 46 66 47 67 48 72 49 68 50 69 51 71 52 73 53 70 54
REMARK SMILES IDX 54 55 55 56 60 57 56 58 57 59 59 60 61 61 58 62 7 63 8 64
REMARK SMILES IDX 9 65 10 66 11 67 12 68 13 69 22 70 14 71 21 72 15 74 20 75
REMARK SMILES IDX 16 76 19 77 17 78 18 79 23 80 24 81 25 82 30 83 26 84 29 85
REMARK SMILES IDX 27 86 28 87
REMARK H PARENT 78 24 52 35 22 73
REMARK Flexibility Score: inf
ROOT
ATOM      1  O   UNL     1       4.039  -0.148  -1.179  1.00  0.00    -0.374 OA
ENDROOT
BRANCH   1   2
ATOM      2  C   UNL     1       4.489  -1.034  -0.159  1.00  0.00     0.202 C 
BRANCH   2   3
ATOM      3  C   UNL     1       4.502  -0.478   1.265  1.00  0.00     0.261 C 
BRANCH   3   4
ATOM      4  O   UNL     1       3.200  -0.055   1.688  1.00  0.00    -0.460 OA
BRANCH   4   5
ATOM      5  C   UNL     1       2.488   1.007   1.252  1.00  0.00     0.338 C 
ATOM      6  O   UNL     1       1.275   1.011   1.465  1.00  0.00    -0.246 OA
BRANCH   5   7
ATOM      7  C   UNL     1       3.074   2.188   0.534  1.00  0.00     0.060 A 
ATOM      8  C   UNL     1       2.207   3.278   0.325  1.00  0.00     0.016 A 
ATOM      9  C   UNL     1       4.357   2.272  -0.012  1.00  0.00     0.016 A 
ATOM     10  C   UNL     1       2.591   4.370  -0.454  1.00  0.00     0.010 A 
ATOM     11  C   UNL     1       4.732   3.323  -0.830  1.00  0.00     0.010 A 
ATOM     12  C   UNL     1       3.850   4.372  -1.053  1.00  0.00    -0.014 A 
BRANCH  12  13
ATOM     13  C   UNL     1       4.378   5.508  -1.809  1.00  0.00     0.031 A 
ATOM     14  C   UNL     1       4.419   5.466  -3.302  1.00  0.00     0.074 A 
ATOM     15  C   UNL     1       5.021   6.441  -1.087  1.00  0.00     0.049 A 
ATOM     16  N   UNL     1       4.912   6.346  -4.130  1.00  0.00    -0.248 NA
ATOM     17  C   UNL     1       3.863   4.267  -3.953  1.00  0.00     0.031 C 
ATOM     18  C   UNL     1       5.140   6.431   0.377  1.00  0.00     0.029 A 
ATOM     19  N   UNL     1       5.746   7.528  -1.475  1.00  0.00    -0.354 N 
ATOM     20  C   UNL     1       4.702   5.826  -5.400  1.00  0.00     0.074 A 
ATOM     21  C   UNL     1       4.091   4.526  -5.235  1.00  0.00     0.031 C 
ATOM     22  C   UNL     1       5.915   7.455   0.760  1.00  0.00     0.029 A 
ATOM     23  C   UNL     1       6.337   8.186  -0.426  1.00  0.00     0.049 A 
ATOM     24  H   UNL     1       5.836   7.812  -2.413  1.00  0.00     0.167 HD
ATOM     25  C   UNL     1       4.988   6.411  -6.587  1.00  0.00     0.037 A 
ATOM     26  C   UNL     1       7.128   9.270  -0.439  1.00  0.00     0.037 A 
ATOM     27  C   UNL     1       5.644   7.690  -6.688  1.00  0.00     0.049 A 
ATOM     28  C   UNL     1       7.402   9.911  -1.766  1.00  0.00     0.074 A 
ATOM     29  C   UNL     1       5.917   8.440  -7.816  1.00  0.00     0.029 A 
ATOM     30  N   UNL     1       6.153   8.395  -5.603  1.00  0.00    -0.354 N 
ATOM     31  N   UNL     1       7.051   9.507  -2.965  1.00  0.00    -0.248 NA
ATOM     32  C   UNL     1       8.149  11.171  -1.746  1.00  0.00     0.031 C 
ATOM     33  C   UNL     1       6.636   9.572  -7.419  1.00  0.00     0.029 A 
ATOM     34  C   UNL     1       6.758   9.560  -6.038  1.00  0.00     0.049 A 
ATOM     35  H   UNL     1       6.093   8.107  -4.664  1.00  0.00     0.167 HD
ATOM     36  C   UNL     1       7.493  10.486  -3.840  1.00  0.00     0.074 A 
ATOM     37  C   UNL     1       8.133  11.505  -3.029  1.00  0.00     0.031 C 
ATOM     38  C   UNL     1       7.377  10.548  -5.189  1.00  0.00     0.037 A 
BRANCH  25  39
ATOM     39  C   UNL     1       4.582   5.702  -7.848  1.00  0.00     0.057 A 
ATOM     40  C   UNL     1       5.537   5.250  -8.767  1.00  0.00     0.134 A 
ATOM     41  C   UNL     1       3.233   5.540  -8.195  1.00  0.00     0.134 A 
ATOM     42  F   UNL     1       6.847   5.376  -8.507  1.00  0.00    -0.206 F 
ATOM     43  C   UNL     1       5.168   4.675  -9.986  1.00  0.00     0.040 A 
ATOM     44  C   UNL     1       2.851   4.945  -9.400  1.00  0.00     0.040 A 
ATOM     45  F   UNL     1       2.262   5.946  -7.363  1.00  0.00    -0.206 F 
ATOM     46  C   UNL     1       3.820   4.519 -10.305  1.00  0.00     0.006 A 
ENDBRANCH  25  39
BRANCH  26  47
ATOM     47  C   UNL     1       7.625   9.844   0.833  1.00  0.00     0.057 A 
ATOM     48  C   UNL     1       8.591   9.194   1.609  1.00  0.00     0.134 A 
ATOM     49  C   UNL     1       7.119  11.056   1.315  1.00  0.00     0.134 A 
ATOM     50  F   UNL     1       9.090   8.011   1.221  1.00  0.00    -0.206 F 
ATOM     51  C   UNL     1       9.047   9.737   2.811  1.00  0.00     0.040 A 
ATOM     52  C   UNL     1       7.584  11.624   2.500  1.00  0.00     0.040 A 
ATOM     53  F   UNL     1       6.184  11.721   0.619  1.00  0.00    -0.206 F 
ATOM     54  C   UNL     1       8.553  10.963   3.253  1.00  0.00     0.006 A 
ENDBRANCH  26  47
BRANCH  38  55
ATOM     55  C   UNL     1       7.911  11.783  -5.848  1.00  0.00     0.057 A 
ATOM     56  C   UNL     1       7.032  12.725  -6.396  1.00  0.00     0.134 A 
ATOM     57  C   UNL     1       9.285  12.026  -5.961  1.00  0.00     0.134 A 
ATOM     58  F   UNL     1       5.705  12.542  -6.325  1.00  0.00    -0.206 F 
ATOM     59  C   UNL     1       7.503  13.867  -7.040  1.00  0.00     0.040 A 
ATOM     60  C   UNL     1       9.767  13.182  -6.574  1.00  0.00     0.040 A 
ATOM     61  F   UNL     1      10.174  11.168  -5.439  1.00  0.00    -0.206 F 
ATOM     62  C   UNL     1       8.874  14.102  -7.122  1.00  0.00     0.006 A 
ENDBRANCH  38  55
ENDBRANCH  12  13
ENDBRANCH   5   7
ENDBRANCH   4   5
ENDBRANCH   3   4
ENDBRANCH   2   3
ENDBRANCH   1   2
BRANCH   1  63
ATOM     63  C   UNL     1       2.759  -0.467  -1.734  1.00  0.00     0.202 C 
BRANCH  63  64
ATOM     64  C   UNL     1       2.866  -1.405  -2.935  1.00  0.00     0.261 C 
BRANCH  64  65
ATOM     65  O   UNL     1       3.284  -2.717  -2.523  1.00  0.00    -0.459 OA
BRANCH  65  66
ATOM     66  C   UNL     1       4.622  -2.968  -2.576  1.00  0.00     0.365 C 
ATOM     67  O   UNL     1       5.468  -2.158  -2.950  1.00  0.00    -0.245 OA
BRANCH  66  68
ATOM     68  C   UNL     1       4.985  -4.351  -2.032  1.00  0.00     0.300 C 
ATOM     69  C   UNL     1       5.068  -4.218  -0.507  1.00  0.00     0.113 C 
ATOM     70  N   UNL     1       4.018  -5.420  -2.401  1.00  0.00    -0.315 N 
ATOM     71  C   UNL     1       5.351  -5.510   0.188  1.00  0.00    -0.033 A 
ATOM     72  C   UNL     1       4.449  -6.722  -1.858  1.00  0.00     0.300 C 
ATOM     73  H   UNL     1       3.131  -5.163  -1.967  1.00  0.00     0.349 HD
ATOM     74  C   UNL     1       5.899  -5.509   1.480  1.00  0.00     0.006 A 
ATOM     75  C   UNL     1       4.987  -6.707  -0.439  1.00  0.00     0.011 A 
ATOM     76  C   UNL     1       6.125  -6.713   2.139  1.00  0.00     0.021 A 
ATOM     77  C   UNL     1       5.223  -7.913   0.235  1.00  0.00     0.030 A 
ATOM     78  C   UNL     1       5.790  -7.910   1.512  1.00  0.00     0.041 A 
ATOM     79  Cl  UNL     1       6.090  -9.402   2.315  1.00  0.00    -0.084 Cl
BRANCH  70  80
ATOM     80  C   UNL     1       3.712  -5.492  -3.853  1.00  0.00     0.300 C 
BRANCH  80  81
ATOM     81  C   UNL     1       4.904  -5.343  -4.784  1.00  0.00     0.006 A 
ATOM     82  C   UNL     1       5.824  -6.386  -4.944  1.00  0.00     0.011 A 
ATOM     83  C   UNL     1       5.174  -4.111  -5.405  1.00  0.00     0.011 A 
ATOM     84  C   UNL     1       7.047  -6.163  -5.580  1.00  0.00     0.021 A 
ATOM     85  C   UNL     1       6.396  -3.886  -6.042  1.00  0.00     0.021 A 
ATOM     86  C   UNL     1       7.339  -4.906  -6.100  1.00  0.00     0.041 A 
ATOM     87  Cl  UNL     1       8.882  -4.610  -6.800  1.00  0.00    -0.084 Cl
ENDBRANCH  80  81
ENDBRANCH  70  80
ENDBRANCH  66  68
ENDBRANCH  65  66
ENDBRANCH  64  65
ENDBRANCH  63  64
ENDBRANCH   1  63
TORSDOF 16
