REMARK SMILES CCN(C(=O)c1ccccc1C(=O)OCCOCCOC(=O)c1ccc(-c2c3nc(c(-c4c(F)cccc4F)c4ccc([nH]4)c(-c4c(F)cccc4F)c4nc(c(-c5c(F)cccc5F)c5ccc2[nH]5)C=C4)C=C3)cc1)[C@H](CCO)c1ccccc1
REMARK SMILES IDX 15 1 14 2 12 3 13 4 11 5 6 6 7 7 8 8 10 9 9 10 4 11 5 12
REMARK SMILES IDX 3 13 2 14 1 15 77 16 81 17 82 18 86 19 83 20 85 21 84 22
REMARK SMILES IDX 78 23 79 24 80 25 16 27 17 28 18 29 19 30 20 31 21 32 22 33
REMARK SMILES IDX 23 34 24 35 76 36 25 37 75 38 26 39 27 40 28 41 69 42 29 43
REMARK SMILES IDX 74 44 68 45 70 46 30 47 73 48 67 49 66 50 31 52 57 53 40 54
REMARK SMILES IDX 56 55 41 56 44 57 55 58 71 59 42 60 43 61 54 63 72 64 45 65
REMARK SMILES IDX 32 66 33 67 38 68 34 69 35 70 37 71 39 72 36 73 58 74 59 75
REMARK SMILES IDX 64 76 60 77 61 78 63 79 65 80 62 81 46 82 47 83 52 84 48 85
REMARK SMILES IDX 49 86 51 87 53 88 50 89
REMARK H PARENT 80 26 70 51 44 62
REMARK Flexibility Score: inf
ROOT
ATOM      1  C   UNL     1       5.455   0.011   5.866  1.00  0.00     0.261 C 
ENDROOT
BRANCH   1   2
ATOM      2  O   UNL     1       4.606  -1.020   5.340  1.00  0.00    -0.460 OA
BRANCH   2   3
ATOM      3  C   UNL     1       5.217  -2.194   5.068  1.00  0.00     0.339 C 
ATOM      4  O   UNL     1       6.407  -2.447   5.228  1.00  0.00    -0.246 OA
BRANCH   3   5
ATOM      5  C   UNL     1       4.280  -3.212   4.552  1.00  0.00     0.072 A 
ATOM      6  C   UNL     1       3.220  -2.943   3.677  1.00  0.00     0.054 A 
ATOM      7  C   UNL     1       2.423  -4.002   3.205  1.00  0.00     0.015 A 
ATOM      8  C   UNL     1       2.696  -5.319   3.580  1.00  0.00     0.001 A 
ATOM      9  C   UNL     1       4.551  -4.545   4.914  1.00  0.00     0.016 A 
ATOM     10  C   UNL     1       3.761  -5.590   4.436  1.00  0.00     0.001 A 
BRANCH   6  11
ATOM     11  C   UNL     1       2.769  -1.586   3.306  1.00  0.00     0.255 C 
ATOM     12  O   UNL     1       1.767  -1.211   3.912  1.00  0.00    -0.269 OA
BRANCH  11  13
ATOM     13  N   UNL     1       3.404  -0.862   2.257  1.00  0.00    -0.332 N 
BRANCH  13  14
ATOM     14  C   UNL     1       4.878  -0.987   2.182  1.00  0.00     0.117 C 
ATOM     15  C   UNL     1       5.681  -0.702   0.929  1.00  0.00     0.027 C 
ENDBRANCH  13  14
BRANCH  13  16
ATOM     16  C   UNL     1       2.691   0.399   1.818  1.00  0.00     0.118 C 
BRANCH  16  17
ATOM     17  C   UNL     1       3.267   1.050   0.572  1.00  0.00    -0.025 A 
ATOM     18  C   UNL     1       3.304   0.382  -0.662  1.00  0.00     0.006 A 
ATOM     19  C   UNL     1       3.751   2.369   0.636  1.00  0.00     0.006 A 
ATOM     20  C   UNL     1       3.845   1.004  -1.790  1.00  0.00     0.000 A 
ATOM     21  C   UNL     1       4.269   2.996  -0.496  1.00  0.00     0.000 A 
ATOM     22  C   UNL     1       4.324   2.310  -1.707  1.00  0.00     0.000 A 
ENDBRANCH  16  17
BRANCH  16  23
ATOM     23  C   UNL     1       1.138   0.220   1.671  1.00  0.00     0.058 C 
BRANCH  23  24
ATOM     24  C   UNL     1       0.356   1.222   0.820  1.00  0.00     0.158 C 
BRANCH  24  25
ATOM     25  O   UNL     1       0.209   0.746  -0.513  1.00  0.00    -0.396 OA
ATOM     26  H   UNL     1       1.085   0.626  -0.912  1.00  0.00     0.210 HD
ENDBRANCH  24  25
ENDBRANCH  23  24
ENDBRANCH  16  23
ENDBRANCH  13  16
ENDBRANCH  11  13
ENDBRANCH   6  11
ENDBRANCH   3   5
ENDBRANCH   2   3
ENDBRANCH   1   2
BRANCH   1  27
ATOM     27  C   UNL     1       5.022   0.502   7.248  1.00  0.00     0.202 C 
BRANCH  27  28
ATOM     28  O   UNL     1       4.877  -0.471   8.277  1.00  0.00    -0.374 OA
BRANCH  28  29
ATOM     29  C   UNL     1       3.840  -1.440   8.147  1.00  0.00     0.202 C 
BRANCH  29  30
ATOM     30  C   UNL     1       2.382  -0.959   8.185  1.00  0.00     0.261 C 
BRANCH  30  31
ATOM     31  O   UNL     1       2.040   0.008   7.176  1.00  0.00    -0.460 OA
BRANCH  31  32
ATOM     32  C   UNL     1       1.703   1.226   7.655  1.00  0.00     0.338 C 
ATOM     33  O   UNL     1       1.707   1.591   8.826  1.00  0.00    -0.246 OA
BRANCH  32  34
ATOM     34  C   UNL     1       1.408   2.175   6.569  1.00  0.00     0.060 A 
ATOM     35  C   UNL     1       2.188   3.334   6.477  1.00  0.00     0.016 A 
ATOM     36  C   UNL     1       0.256   2.032   5.794  1.00  0.00     0.016 A 
ATOM     37  C   UNL     1       1.785   4.383   5.651  1.00  0.00     0.010 A 
ATOM     38  C   UNL     1      -0.152   3.090   4.972  1.00  0.00     0.010 A 
ATOM     39  C   UNL     1       0.587   4.286   4.930  1.00  0.00    -0.014 A 
BRANCH  39  40
ATOM     40  C   UNL     1       0.049   5.476   4.226  1.00  0.00     0.031 A 
ATOM     41  C   UNL     1      -1.015   6.312   4.879  1.00  0.00     0.074 A 
ATOM     42  C   UNL     1       0.511   5.820   3.012  1.00  0.00     0.049 A 
ATOM     43  N   UNL     1      -1.631   7.373   4.421  1.00  0.00    -0.248 NA
ATOM     44  C   UNL     1      -1.435   5.904   6.228  1.00  0.00     0.031 C 
ATOM     45  C   UNL     1       1.568   5.119   2.290  1.00  0.00     0.029 A 
ATOM     46  N   UNL     1       0.139   6.836   2.169  1.00  0.00    -0.354 N 
ATOM     47  C   UNL     1      -2.504   7.766   5.426  1.00  0.00     0.074 A 
ATOM     48  C   UNL     1      -2.365   6.809   6.504  1.00  0.00     0.031 C 
ATOM     49  C   UNL     1       1.740   5.706   1.095  1.00  0.00     0.029 A 
ATOM     50  C   UNL     1       0.791   6.809   0.962  1.00  0.00     0.049 A 
ATOM     51  H   UNL     1      -0.530   7.517   2.406  1.00  0.00     0.167 HD
ATOM     52  C   UNL     1      -3.335   8.836   5.456  1.00  0.00     0.037 A 
ATOM     53  C   UNL     1       0.626   7.570  -0.137  1.00  0.00     0.037 A 
ATOM     54  C   UNL     1      -3.483   9.786   4.384  1.00  0.00     0.049 A 
ATOM     55  C   UNL     1      -0.380   8.686  -0.124  1.00  0.00     0.074 A 
ATOM     56  C   UNL     1      -4.267  10.926   4.343  1.00  0.00     0.029 A 
ATOM     57  N   UNL     1      -2.844   9.696   3.157  1.00  0.00    -0.354 N 
ATOM     58  N   UNL     1      -1.163   9.079   0.851  1.00  0.00    -0.248 NA
ATOM     59  C   UNL     1      -0.519   9.469  -1.360  1.00  0.00     0.031 C 
ATOM     60  C   UNL     1      -4.136  11.502   3.073  1.00  0.00     0.029 A 
ATOM     61  C   UNL     1      -3.239  10.743   2.339  1.00  0.00     0.049 A 
ATOM     62  H   UNL     1      -2.203   8.993   2.904  1.00  0.00     0.167 HD
ATOM     63  C   UNL     1      -1.862  10.174   0.360  1.00  0.00     0.074 A 
ATOM     64  C   UNL     1      -1.412  10.382  -1.002  1.00  0.00     0.031 C 
ATOM     65  C   UNL     1      -2.784  10.945   0.987  1.00  0.00     0.037 A 
BRANCH  52  66
ATOM     66  C   UNL     1      -4.161   9.023   6.692  1.00  0.00     0.057 A 
ATOM     67  C   UNL     1      -3.597   9.475   7.892  1.00  0.00     0.134 A 
ATOM     68  C   UNL     1      -5.537   8.764   6.680  1.00  0.00     0.134 A 
ATOM     69  F   UNL     1      -2.282   9.730   7.971  1.00  0.00    -0.206 F 
ATOM     70  C   UNL     1      -4.368   9.639   9.044  1.00  0.00     0.040 A 
ATOM     71  C   UNL     1      -6.322   8.944   7.820  1.00  0.00     0.040 A 
ATOM     72  F   UNL     1      -6.139   8.334   5.561  1.00  0.00    -0.206 F 
ATOM     73  C   UNL     1      -5.736   9.377   9.008  1.00  0.00     0.006 A 
ENDBRANCH  52  66
BRANCH  53  74
ATOM     74  C   UNL     1       1.434   7.290  -1.348  1.00  0.00     0.057 A 
ATOM     75  C   UNL     1       2.463   8.149  -1.748  1.00  0.00     0.134 A 
ATOM     76  C   UNL     1       1.198   6.152  -2.129  1.00  0.00     0.134 A 
ATOM     77  F   UNL     1       2.723   9.263  -1.049  1.00  0.00    -0.206 F 
ATOM     78  C   UNL     1       3.225   7.891  -2.888  1.00  0.00     0.040 A 
ATOM     79  C   UNL     1       1.965   5.872  -3.260  1.00  0.00     0.040 A 
ATOM     80  F   UNL     1       0.226   5.291  -1.794  1.00  0.00    -0.206 F 
ATOM     81  C   UNL     1       2.980   6.745  -3.645  1.00  0.00     0.006 A 
ENDBRANCH  53  74
BRANCH  65  82
ATOM     82  C   UNL     1      -3.337  12.111   0.223  1.00  0.00     0.057 A 
ATOM     83  C   UNL     1      -4.272  11.944  -0.806  1.00  0.00     0.134 A 
ATOM     84  C   UNL     1      -2.949  13.418   0.541  1.00  0.00     0.134 A 
ATOM     85  F   UNL     1      -4.672  10.716  -1.169  1.00  0.00    -0.206 F 
ATOM     86  C   UNL     1      -4.787  13.037  -1.505  1.00  0.00     0.040 A 
ATOM     87  C   UNL     1      -3.473  14.520  -0.136  1.00  0.00     0.040 A 
ATOM     88  F   UNL     1      -2.060  13.646   1.520  1.00  0.00    -0.206 F 
ATOM     89  C   UNL     1      -4.392  14.331  -1.166  1.00  0.00     0.006 A 
ENDBRANCH  65  82
ENDBRANCH  39  40
ENDBRANCH  32  34
ENDBRANCH  31  32
ENDBRANCH  30  31
ENDBRANCH  29  30
ENDBRANCH  28  29
ENDBRANCH  27  28
ENDBRANCH   1  27
TORSDOF 22
