REMARK SMILES C[C@@H](Nc1cccc(C(=O)OCCOCCOC(=O)c2ccc(-c3c4nc(c(-c5c(F)cccc5F)c5ccc([nH]5)c(-c5c(F)cccc5F)c5nc(c(-c6c(F)cccc6F)c6ccc3[nH]6)C=C5)C=C4)cc2)c1)C1CC[NH+](C)CC1
REMARK SMILES IDX 13 1 12 2 11 3 9 4 10 5 8 6 4 7 5 8 74 9 6 10 7 11 3 12 2 14
REMARK SMILES IDX 1 15 75 16 76 17 81 18 77 19 80 20 78 21 79 22 14 24 15 25
REMARK SMILES IDX 16 26 17 27 18 28 19 29 20 30 21 31 73 32 22 33 72 34 23 35
REMARK SMILES IDX 24 36 25 37 66 38 26 39 71 40 65 41 67 42 27 43 70 44 64 45
REMARK SMILES IDX 63 46 28 48 54 49 37 50 53 51 38 52 41 53 52 54 68 55 39 56
REMARK SMILES IDX 40 57 51 59 69 60 42 61 29 62 30 63 35 64 31 65 32 66 34 67
REMARK SMILES IDX 36 68 33 69 55 70 56 71 61 72 57 73 58 74 60 75 62 76 59 77
REMARK SMILES IDX 43 78 44 79 49 80 45 81 46 82 48 83 50 84 47 85
REMARK H PARENT 3 13 78 23 67 47 41 58
REMARK Flexibility Score: inf
ROOT
ATOM      1  C   UNL     1      -4.690  -6.759   3.420  1.00  0.00     0.202 C 
ENDROOT
BRANCH   1   2
ATOM      2  C   UNL     1      -4.826  -5.305   2.979  1.00  0.00     0.261 C 
BRANCH   2   3
ATOM      3  O   UNL     1      -3.574  -4.617   3.059  1.00  0.00    -0.460 OA
BRANCH   3   4
ATOM      4  C   UNL     1      -3.521  -3.682   4.033  1.00  0.00     0.338 C 
ATOM      5  O   UNL     1      -4.403  -3.385   4.822  1.00  0.00    -0.246 OA
BRANCH   4   6
ATOM      6  C   UNL     1      -2.227  -2.993   4.017  1.00  0.00     0.062 A 
ATOM      7  C   UNL     1       0.467  -2.148   2.610  1.00  0.00     0.035 A 
ATOM      8  C   UNL     1       0.484  -0.608   3.585  1.00  0.00     0.026 A 
ATOM      9  C   UNL     1      -0.810  -3.416   2.905  1.00  0.00     0.041 A 
ATOM     10  C   UNL     1      -0.857  -0.262   4.761  1.00  0.00     0.003 A 
ATOM     11  C   UNL     1      -2.242  -1.421   4.919  1.00  0.00     0.016 A 
BRANCH   7  12
ATOM     12  N   UNL     1       1.180  -2.172   1.407  1.00  0.00    -0.382 N 
ATOM     13  H   UNL     1       1.905  -2.820   1.257  1.00  0.00     0.160 HD
BRANCH  12  14
ATOM     14  C   UNL     1       0.803  -1.185   0.368  1.00  0.00     0.079 C 
ATOM     15  C   UNL     1       1.806  -0.026   0.353  1.00  0.00     0.031 C 
BRANCH  14  16
ATOM     16  C   UNL     1      -0.662  -0.650   0.242  1.00  0.00     0.022 C 
ATOM     17  C   UNL     1      -1.131   0.500   1.131  1.00  0.00     0.067 C 
ATOM     18  C   UNL     1      -1.760  -1.687   0.269  1.00  0.00     0.067 C 
ATOM     19  C   UNL     1      -1.657   0.114   2.524  1.00  0.00     0.262 C 
ATOM     20  C   UNL     1      -2.234  -2.041   1.683  1.00  0.00     0.262 C 
ATOM     21  N   UNL     1      -1.430  -1.378   2.962  1.00  0.00    -0.337 N 
ATOM     22  C   UNL     1      -0.364  -2.252   4.512  1.00  0.00     0.332 C 
ATOM     23  H   UNL     1      -1.090  -1.745   3.851  1.00  0.00     0.347 HD
ENDBRANCH  14  16
ENDBRANCH  12  14
ENDBRANCH   7  12
ENDBRANCH   4   6
ENDBRANCH   3   4
ENDBRANCH   2   3
ENDBRANCH   1   2
BRANCH   1  24
ATOM     24  O   UNL     1      -4.265  -7.019   4.754  1.00  0.00    -0.374 OA
BRANCH  24  25
ATOM     25  C   UNL     1      -2.932  -6.690   5.136  1.00  0.00     0.202 C 
BRANCH  25  26
ATOM     26  C   UNL     1      -1.776  -7.514   4.555  1.00  0.00     0.261 C 
BRANCH  26  27
ATOM     27  O   UNL     1      -1.715  -7.500   3.120  1.00  0.00    -0.460 OA
BRANCH  27  28
ATOM     28  C   UNL     1      -2.072  -8.673   2.542  1.00  0.00     0.338 C 
ATOM     29  O   UNL     1      -2.398  -9.707   3.101  1.00  0.00    -0.246 OA
BRANCH  28  30
ATOM     30  C   UNL     1      -2.185  -8.514   1.083  1.00  0.00     0.060 A 
ATOM     31  C   UNL     1      -3.416  -8.832   0.494  1.00  0.00     0.016 A 
ATOM     32  C   UNL     1      -1.076  -8.202   0.296  1.00  0.00     0.016 A 
ATOM     33  C   UNL     1      -3.528  -8.900  -0.890  1.00  0.00     0.010 A 
ATOM     34  C   UNL     1      -1.186  -8.285  -1.095  1.00  0.00     0.010 A 
ATOM     35  C   UNL     1      -2.400  -8.679  -1.688  1.00  0.00    -0.014 A 
BRANCH  35  36
ATOM     36  C   UNL     1      -2.454  -9.052  -3.120  1.00  0.00     0.031 A 
ATOM     37  C   UNL     1      -1.926 -10.397  -3.537  1.00  0.00     0.074 A 
ATOM     38  C   UNL     1      -3.023  -8.235  -4.022  1.00  0.00     0.049 A 
ATOM     39  N   UNL     1      -1.867 -10.934  -4.728  1.00  0.00    -0.248 NA
ATOM     40  C   UNL     1      -1.396 -11.253  -2.463  1.00  0.00     0.031 C 
ATOM     41  C   UNL     1      -3.623  -6.936  -3.724  1.00  0.00     0.029 A 
ATOM     42  N   UNL     1      -3.191  -8.385  -5.374  1.00  0.00    -0.354 N 
ATOM     43  C   UNL     1      -1.294 -12.187  -4.548  1.00  0.00     0.074 A 
ATOM     44  C   UNL     1      -0.993 -12.318  -3.139  1.00  0.00     0.031 C 
ATOM     45  C   UNL     1      -4.092  -6.403  -4.866  1.00  0.00     0.029 A 
ATOM     46  C   UNL     1      -3.796  -7.309  -5.974  1.00  0.00     0.049 A 
ATOM     47  H   UNL     1      -2.904  -9.187  -5.868  1.00  0.00     0.167 HD
ATOM     48  C   UNL     1      -1.051 -13.146  -5.473  1.00  0.00     0.037 A 
ATOM     49  C   UNL     1      -4.063  -7.079  -7.274  1.00  0.00     0.037 A 
ATOM     50  C   UNL     1      -1.348 -13.009  -6.874  1.00  0.00     0.049 A 
ATOM     51  C   UNL     1      -3.699  -8.123  -8.296  1.00  0.00     0.074 A 
ATOM     52  C   UNL     1      -1.142 -13.921  -7.894  1.00  0.00     0.029 A 
ATOM     53  N   UNL     1      -1.910 -11.881  -7.452  1.00  0.00    -0.354 N 
ATOM     54  N   UNL     1      -3.165  -9.307  -8.116  1.00  0.00    -0.248 NA
ATOM     55  C   UNL     1      -3.973  -7.795  -9.702  1.00  0.00     0.031 C 
ATOM     56  C   UNL     1      -1.537 -13.326  -9.097  1.00  0.00     0.029 A 
ATOM     57  C   UNL     1      -2.035 -12.063  -8.819  1.00  0.00     0.049 A 
ATOM     58  H   UNL     1      -2.180 -11.070  -6.963  1.00  0.00     0.167 HD
ATOM     59  C   UNL     1      -3.068  -9.877  -9.379  1.00  0.00     0.074 A 
ATOM     60  C   UNL     1      -3.607  -8.912 -10.315  1.00  0.00     0.031 C 
ATOM     61  C   UNL     1      -2.579 -11.092  -9.734  1.00  0.00     0.037 A 
BRANCH  48  62
ATOM     62  C   UNL     1      -0.405 -14.414  -4.995  1.00  0.00     0.057 A 
ATOM     63  C   UNL     1      -1.097 -15.352  -4.218  1.00  0.00     0.134 A 
ATOM     64  C   UNL     1       0.923 -14.707  -5.329  1.00  0.00     0.134 A 
ATOM     65  F   UNL     1      -2.367 -15.124  -3.850  1.00  0.00    -0.206 F 
ATOM     66  C   UNL     1      -0.484 -16.523  -3.768  1.00  0.00     0.040 A 
ATOM     67  C   UNL     1       1.540 -15.886  -4.907  1.00  0.00     0.040 A 
ATOM     68  F   UNL     1       1.643 -13.853  -6.072  1.00  0.00    -0.206 F 
ATOM     69  C   UNL     1       0.837 -16.795  -4.118  1.00  0.00     0.006 A 
ENDBRANCH  48  62
BRANCH  49  70
ATOM     70  C   UNL     1      -4.701  -5.804  -7.687  1.00  0.00     0.057 A 
ATOM     71  C   UNL     1      -6.008  -5.776  -8.186  1.00  0.00     0.134 A 
ATOM     72  C   UNL     1      -4.013  -4.587  -7.608  1.00  0.00     0.134 A 
ATOM     73  F   UNL     1      -6.709  -6.912  -8.307  1.00  0.00    -0.206 F 
ATOM     74  C   UNL     1      -6.604  -4.585  -8.606  1.00  0.00     0.040 A 
ATOM     75  C   UNL     1      -4.605  -3.386  -8.002  1.00  0.00     0.040 A 
ATOM     76  F   UNL     1      -2.758  -4.547  -7.139  1.00  0.00    -0.206 F 
ATOM     77  C   UNL     1      -5.903  -3.385  -8.509  1.00  0.00     0.006 A 
ENDBRANCH  49  70
BRANCH  61  78
ATOM     78  C   UNL     1      -2.638 -11.457 -11.188  1.00  0.00     0.057 A 
ATOM     79  C   UNL     1      -1.787 -10.872 -12.134  1.00  0.00     0.134 A 
ATOM     80  C   UNL     1      -3.534 -12.436 -11.640  1.00  0.00     0.134 A 
ATOM     81  F   UNL     1      -0.916  -9.920 -11.768  1.00  0.00    -0.206 F 
ATOM     82  C   UNL     1      -1.840 -11.231 -13.482  1.00  0.00     0.040 A 
ATOM     83  C   UNL     1      -3.577 -12.822 -12.980  1.00  0.00     0.040 A 
ATOM     84  F   UNL     1      -4.370 -13.042 -10.784  1.00  0.00    -0.206 F 
ATOM     85  C   UNL     1      -2.733 -12.214 -13.907  1.00  0.00     0.006 A 
ENDBRANCH  61  78
ENDBRANCH  35  36
ENDBRANCH  28  30
ENDBRANCH  27  28
ENDBRANCH  26  27
ENDBRANCH  25  26
ENDBRANCH  24  25
ENDBRANCH   1  24
TORSDOF 17
