REMARK SMILES C[C@@H]1[C@@H](C(=O)OCCOCCOC(=O)c2ccc(-c3c4nc(c(-c5c(F)cccc5F)c5ccc([nH]5)c(-c5c(F)cccc5F)c5nc(c(-c6c(F)cccc6F)c6ccc3[nH]6)C=C5)C=C4)cc2)CCN1C(=O)N[C@@H](C)Cc1ccco1
REMARK SMILES IDX 8 1 7 2 6 3 4 4 5 5 3 6 1 7 2 8 71 9 69 10 70 11 72 12 73 13
REMARK SMILES IDX 74 14 75 16 76 17 77 18 78 19 79 20 82 21 80 22 81 23 9 24
REMARK SMILES IDX 10 25 11 26 12 27 13 28 14 29 15 30 16 31 68 32 17 33 67 34
REMARK SMILES IDX 18 35 19 36 20 37 61 38 21 39 66 40 60 41 62 42 22 43 65 44
REMARK SMILES IDX 59 45 58 46 23 48 49 49 32 50 48 51 33 52 36 53 47 54 63 55
REMARK SMILES IDX 34 56 35 57 46 59 64 60 37 61 24 62 25 63 30 64 26 65 27 66
REMARK SMILES IDX 29 67 31 68 28 69 50 70 51 71 56 72 52 73 53 74 55 75 57 76
REMARK SMILES IDX 54 77 38 78 39 79 44 80 40 81 41 82 43 83 45 84 42 85
REMARK H PARENT 74 15 62 47 36 58
REMARK Flexibility Score: inf
ROOT
ATOM      1  C   UNL     1      -1.482   2.455  -4.571  1.00  0.00     0.202 C 
ENDROOT
BRANCH   1   2
ATOM      2  C   UNL     1      -2.314   1.621  -3.592  1.00  0.00     0.261 C 
BRANCH   2   3
ATOM      3  O   UNL     1      -1.853   1.738  -2.240  1.00  0.00    -0.463 OA
BRANCH   3   4
ATOM      4  C   UNL     1      -1.451   0.561  -1.683  1.00  0.00     0.311 C 
ATOM      5  O   UNL     1      -1.631  -0.538  -2.187  1.00  0.00    -0.252 OA
BRANCH   4   6
ATOM      6  C   UNL     1      -0.742   0.800  -0.359  1.00  0.00     0.123 C 
ATOM      7  C   UNL     1       1.543   0.461   0.706  1.00  0.00     0.032 C 
ATOM      8  C   UNL     1       0.512  -0.086  -0.290  1.00  0.00     0.098 C 
ATOM      9  N   UNL     1       0.003  -1.377   0.172  1.00  0.00    -0.321 N 
ATOM     10  C   UNL     1      -1.591   0.293   0.796  1.00  0.00     0.039 C 
ATOM     11  C   UNL     1      -1.311  -1.206   0.791  1.00  0.00     0.122 C 
BRANCH   9  12
ATOM     12  C   UNL     1       0.399  -2.643  -0.123  1.00  0.00     0.317 C 
ATOM     13  O   UNL     1      -0.277  -3.619   0.224  1.00  0.00    -0.249 OA
ATOM     14  N   UNL     1       1.517  -2.938  -0.807  1.00  0.00    -0.335 N 
ATOM     15  H   UNL     1       1.553  -3.894  -1.040  1.00  0.00     0.165 HD
BRANCH  14  16
ATOM     16  C   UNL     1       2.697  -2.224  -1.299  1.00  0.00     0.088 C 
ATOM     17  C   UNL     1       3.903  -2.659  -0.463  1.00  0.00     0.031 C 
BRANCH  16  18
ATOM     18  C   UNL     1       2.974  -2.505  -2.789  1.00  0.00     0.100 C 
BRANCH  18  19
ATOM     19  C   UNL     1       1.823  -2.200  -3.677  1.00  0.00     0.105 A 
ATOM     20  C   UNL     1       0.777  -2.963  -4.151  1.00  0.00     0.045 A 
ATOM     21  O   UNL     1       1.751  -0.937  -4.185  1.00  0.00    -0.469 OA
ATOM     22  C   UNL     1       0.019  -2.121  -4.995  1.00  0.00     0.042 A 
ATOM     23  C   UNL     1       0.655  -0.903  -4.988  1.00  0.00     0.195 A 
ENDBRANCH  18  19
ENDBRANCH  16  18
ENDBRANCH  14  16
ENDBRANCH   9  12
ENDBRANCH   4   6
ENDBRANCH   3   4
ENDBRANCH   2   3
ENDBRANCH   1   2
BRANCH   1  24
ATOM     24  O   UNL     1      -0.066   2.327  -4.536  1.00  0.00    -0.374 OA
BRANCH  24  25
ATOM     25  C   UNL     1       0.644   2.784  -3.387  1.00  0.00     0.202 C 
BRANCH  25  26
ATOM     26  C   UNL     1       0.600   4.282  -3.057  1.00  0.00     0.261 C 
BRANCH  26  27
ATOM     27  O   UNL     1      -0.724   4.763  -2.761  1.00  0.00    -0.460 OA
BRANCH  27  28
ATOM     28  C   UNL     1      -1.199   5.690  -3.627  1.00  0.00     0.338 C 
ATOM     29  O   UNL     1      -0.615   6.183  -4.584  1.00  0.00    -0.246 OA
BRANCH  28  30
ATOM     30  C   UNL     1      -2.632   5.920  -3.387  1.00  0.00     0.060 A 
ATOM     31  C   UNL     1      -3.529   5.619  -4.421  1.00  0.00     0.016 A 
ATOM     32  C   UNL     1      -3.078   6.520  -2.209  1.00  0.00     0.016 A 
ATOM     33  C   UNL     1      -4.876   5.945  -4.293  1.00  0.00     0.010 A 
ATOM     34  C   UNL     1      -4.429   6.862  -2.089  1.00  0.00     0.010 A 
ATOM     35  C   UNL     1      -5.325   6.604  -3.142  1.00  0.00    -0.014 A 
BRANCH  35  36
ATOM     36  C   UNL     1      -6.699   7.157  -3.111  1.00  0.00     0.031 A 
ATOM     37  C   UNL     1      -6.905   8.613  -3.423  1.00  0.00     0.074 A 
ATOM     38  C   UNL     1      -7.751   6.365  -2.839  1.00  0.00     0.049 A 
ATOM     39  N   UNL     1      -8.009   9.314  -3.420  1.00  0.00    -0.248 NA
ATOM     40  C   UNL     1      -5.703   9.381  -3.787  1.00  0.00     0.031 C 
ATOM     41  C   UNL     1      -7.680   4.931  -2.566  1.00  0.00     0.029 A 
ATOM     42  N   UNL     1      -9.086   6.663  -2.745  1.00  0.00    -0.354 N 
ATOM     43  C   UNL     1      -7.636  10.604  -3.775  1.00  0.00     0.074 A 
ATOM     44  C   UNL     1      -6.201  10.596  -3.958  1.00  0.00     0.031 C 
ATOM     45  C   UNL     1      -8.920   4.474  -2.321  1.00  0.00     0.029 A 
ATOM     46  C   UNL     1      -9.864   5.588  -2.391  1.00  0.00     0.049 A 
ATOM     47  H   UNL     1      -9.452   7.561  -2.914  1.00  0.00     0.167 HD
ATOM     48  C   UNL     1      -8.421  11.695  -3.942  1.00  0.00     0.037 A 
ATOM     49  C   UNL     1     -11.184   5.520  -2.132  1.00  0.00     0.037 A 
ATOM     50  C   UNL     1      -9.849  11.699  -3.759  1.00  0.00     0.049 A 
ATOM     51  C   UNL     1     -12.024   6.763  -2.253  1.00  0.00     0.074 A 
ATOM     52  C   UNL     1     -10.736  12.749  -3.917  1.00  0.00     0.029 A 
ATOM     53  N   UNL     1     -10.597  10.599  -3.369  1.00  0.00    -0.354 N 
ATOM     54  N   UNL     1     -11.667   7.973  -2.609  1.00  0.00    -0.248 NA
ATOM     55  C   UNL     1     -13.454   6.629  -1.937  1.00  0.00     0.031 C 
ATOM     56  C   UNL     1     -12.015  12.296  -3.577  1.00  0.00     0.029 A 
ATOM     57  C   UNL     1     -11.932  10.950  -3.256  1.00  0.00     0.049 A 
ATOM     58  H   UNL     1     -10.233   9.700  -3.196  1.00  0.00     0.167 HD
ATOM     59  C   UNL     1     -12.828   8.736  -2.589  1.00  0.00     0.074 A 
ATOM     60  C   UNL     1     -13.903   7.849  -2.196  1.00  0.00     0.031 C 
ATOM     61  C   UNL     1     -12.991  10.052  -2.872  1.00  0.00     0.037 A 
BRANCH  48  62
ATOM     62  C   UNL     1      -7.747  12.981  -4.317  1.00  0.00     0.057 A 
ATOM     63  C   UNL     1      -7.212  13.193  -5.595  1.00  0.00     0.134 A 
ATOM     64  C   UNL     1      -7.656  14.033  -3.397  1.00  0.00     0.134 A 
ATOM     65  F   UNL     1      -7.253  12.220  -6.518  1.00  0.00    -0.206 F 
ATOM     66  C   UNL     1      -6.593  14.396  -5.937  1.00  0.00     0.040 A 
ATOM     67  C   UNL     1      -7.062  15.250  -3.735  1.00  0.00     0.040 A 
ATOM     68  F   UNL     1      -8.149  13.898  -2.157  1.00  0.00    -0.206 F 
ATOM     69  C   UNL     1      -6.523  15.432  -5.007  1.00  0.00     0.006 A 
ENDBRANCH  48  62
BRANCH  49  70
ATOM     70  C   UNL     1     -11.795   4.231  -1.719  1.00  0.00     0.057 A 
ATOM     71  C   UNL     1     -12.686   3.549  -2.555  1.00  0.00     0.134 A 
ATOM     72  C   UNL     1     -11.519   3.664  -0.469  1.00  0.00     0.134 A 
ATOM     73  F   UNL     1     -13.008   4.055  -3.754  1.00  0.00    -0.206 F 
ATOM     74  C   UNL     1     -13.295   2.358  -2.156  1.00  0.00     0.040 A 
ATOM     75  C   UNL     1     -12.101   2.460  -0.068  1.00  0.00     0.040 A 
ATOM     76  F   UNL     1     -10.673   4.268   0.378  1.00  0.00    -0.206 F 
ATOM     77  C   UNL     1     -12.998   1.808  -0.911  1.00  0.00     0.006 A 
ENDBRANCH  49  70
BRANCH  61  78
ATOM     78  C   UNL     1     -14.385  10.603  -2.805  1.00  0.00     0.057 A 
ATOM     79  C   UNL     1     -15.042  10.813  -1.586  1.00  0.00     0.134 A 
ATOM     80  C   UNL     1     -15.064  10.966  -3.976  1.00  0.00     0.134 A 
ATOM     81  F   UNL     1     -14.452  10.476  -0.429  1.00  0.00    -0.206 F 
ATOM     82  C   UNL     1     -16.332  11.344  -1.536  1.00  0.00     0.040 A 
ATOM     83  C   UNL     1     -16.343  11.522  -3.937  1.00  0.00     0.040 A 
ATOM     84  F   UNL     1     -14.488  10.801  -5.177  1.00  0.00    -0.206 F 
ATOM     85  C   UNL     1     -16.983  11.706  -2.713  1.00  0.00     0.006 A 
ENDBRANCH  61  78
ENDBRANCH  35  36
ENDBRANCH  28  30
ENDBRANCH  27  28
ENDBRANCH  26  27
ENDBRANCH  25  26
ENDBRANCH  24  25
ENDBRANCH   1  24
TORSDOF 18
