REMARK SMILES O=C1C[C@@H](C(=O)Nc2cccc(C(=O)OCCOCCOC(=O)c3ccc(-c4c5nc(c(-c6c(F)cccc6F)c6ccc([nH]6)c(-c6c(F)cccc6F)c6nc(c(-c7c(F)cccc7F)c7ccc4[nH]7)C=C6)C=C5)cc3)c2)[C@H](c2ccccc2)O1
REMARK SMILES IDX 17 1 16 2 15 3 13 4 14 5 12 6 8 7 9 8 78 9 10 10 11 11 7 12
REMARK SMILES IDX 5 13 6 14 4 16 1 17 2 18 3 19 86 20 79 21 80 22 81 23 85 24
REMARK SMILES IDX 82 25 84 26 83 27 18 28 19 29 20 30 21 31 22 32 23 33 24 34
REMARK SMILES IDX 25 35 77 36 26 37 76 38 27 39 28 40 29 41 70 42 30 43 75 44
REMARK SMILES IDX 69 45 71 46 31 47 74 48 68 49 67 50 32 52 58 53 41 54 57 55
REMARK SMILES IDX 42 56 45 57 56 58 72 59 43 60 44 61 55 63 73 64 46 65 33 66
REMARK SMILES IDX 34 67 39 68 35 69 36 70 38 71 40 72 37 73 59 74 60 75 65 76
REMARK SMILES IDX 61 77 62 78 64 79 66 80 63 81 47 82 48 83 53 84 49 85 50 86
REMARK SMILES IDX 52 87 54 88 51 89
REMARK H PARENT 7 15 71 51 45 62
REMARK Flexibility Score: inf
ROOT
ATOM      1  C   UNL     1       5.763   3.859  -4.041  1.00  0.00     0.202 C 
ENDROOT
BRANCH   1   2
ATOM      2  C   UNL     1       4.893   2.598  -4.075  1.00  0.00     0.261 C 
BRANCH   2   3
ATOM      3  O   UNL     1       4.757   2.029  -2.765  1.00  0.00    -0.460 OA
BRANCH   3   4
ATOM      4  C   UNL     1       5.452   0.888  -2.552  1.00  0.00     0.338 C 
ATOM      5  O   UNL     1       6.087   0.248  -3.381  1.00  0.00    -0.246 OA
BRANCH   4   6
ATOM      6  C   UNL     1       5.446   0.545  -1.109  1.00  0.00     0.062 A 
ATOM      7  C   UNL     1       4.317   0.468   1.028  1.00  0.00     0.042 A 
ATOM      8  C   UNL     1       5.356  -0.319   1.536  1.00  0.00     0.026 A 
ATOM      9  C   UNL     1       4.428   0.989  -0.258  1.00  0.00     0.041 A 
ATOM     10  C   UNL     1       6.420  -0.701   0.715  1.00  0.00     0.003 A 
ATOM     11  C   UNL     1       6.444  -0.301  -0.619  1.00  0.00     0.016 A 
BRANCH   7  12
ATOM     12  N   UNL     1       3.197   0.674   1.846  1.00  0.00    -0.326 N 
ATOM     13  C   UNL     1       1.871   0.836   1.542  1.00  0.00     0.232 C 
ATOM     14  O   UNL     1       1.109   1.094   2.477  1.00  0.00    -0.274 OA
ATOM     15  H   UNL     1       3.400   0.708   2.809  1.00  0.00     0.169 HD
BRANCH  13  16
ATOM     16  C   UNL     1       1.327   0.565   0.140  1.00  0.00     0.135 C 
ATOM     17  O   UNL     1      -2.160  -0.023   0.308  1.00  0.00    -0.252 OA
ATOM     18  C   UNL     1      -0.945  -0.061   0.208  1.00  0.00     0.307 C 
ATOM     19  C   UNL     1      -0.070   1.124  -0.037  1.00  0.00     0.140 C 
ATOM     20  O   UNL     1      -0.219  -1.213   0.210  1.00  0.00    -0.457 OA
ATOM     21  C   UNL     1       1.156  -0.934  -0.081  1.00  0.00     0.220 C 
BRANCH  21  22
ATOM     22  C   UNL     1       1.515  -1.377  -1.494  1.00  0.00    -0.007 A 
ATOM     23  C   UNL     1       0.560  -1.539  -2.508  1.00  0.00     0.007 A 
ATOM     24  C   UNL     1       2.860  -1.616  -1.818  1.00  0.00     0.007 A 
ATOM     25  C   UNL     1       0.946  -1.880  -3.808  1.00  0.00     0.000 A 
ATOM     26  C   UNL     1       3.251  -1.920  -3.124  1.00  0.00     0.000 A 
ATOM     27  C   UNL     1       2.293  -2.048  -4.122  1.00  0.00     0.000 A 
ENDBRANCH  21  22
ENDBRANCH  13  16
ENDBRANCH   7  12
ENDBRANCH   4   6
ENDBRANCH   3   4
ENDBRANCH   2   3
ENDBRANCH   1   2
BRANCH   1  28
ATOM     28  O   UNL     1       7.144   3.690  -3.724  1.00  0.00    -0.374 OA
BRANCH  28  29
ATOM     29  C   UNL     1       7.500   3.454  -2.364  1.00  0.00     0.202 C 
BRANCH  29  30
ATOM     30  C   UNL     1       7.508   4.652  -1.409  1.00  0.00     0.261 C 
BRANCH  30  31
ATOM     31  O   UNL     1       6.236   5.314  -1.332  1.00  0.00    -0.460 OA
BRANCH  31  32
ATOM     32  C   UNL     1       6.197   6.505  -1.975  1.00  0.00     0.338 C 
ATOM     33  O   UNL     1       7.122   7.080  -2.530  1.00  0.00    -0.246 OA
BRANCH  32  34
ATOM     34  C   UNL     1       4.810   6.987  -2.073  1.00  0.00     0.060 A 
ATOM     35  C   UNL     1       4.336   7.316  -3.349  1.00  0.00     0.016 A 
ATOM     36  C   UNL     1       4.023   7.209  -0.941  1.00  0.00     0.016 A 
ATOM     37  C   UNL     1       3.094   7.928  -3.493  1.00  0.00     0.010 A 
ATOM     38  C   UNL     1       2.779   7.832  -1.087  1.00  0.00     0.010 A 
ATOM     39  C   UNL     1       2.329   8.230  -2.360  1.00  0.00    -0.014 A 
BRANCH  39  40
ATOM     40  C   UNL     1       1.141   9.104  -2.505  1.00  0.00     0.031 A 
ATOM     41  C   UNL     1       1.270  10.568  -2.185  1.00  0.00     0.074 A 
ATOM     42  C   UNL     1      -0.020   8.612  -2.972  1.00  0.00     0.049 A 
ATOM     43  N   UNL     1       0.364  11.511  -2.228  1.00  0.00    -0.248 NA
ATOM     44  C   UNL     1       2.602  11.033  -1.763  1.00  0.00     0.031 C 
ATOM     45  C   UNL     1      -0.255   7.222  -3.357  1.00  0.00     0.029 A 
ATOM     46  N   UNL     1      -1.222   9.233  -3.198  1.00  0.00    -0.354 N 
ATOM     47  C   UNL     1       1.015  12.678  -1.850  1.00  0.00     0.074 A 
ATOM     48  C   UNL     1       2.383  12.321  -1.541  1.00  0.00     0.031 C 
ATOM     49  C   UNL     1      -1.532   7.091  -3.758  1.00  0.00     0.029 A 
ATOM     50  C   UNL     1      -2.207   8.382  -3.633  1.00  0.00     0.049 A 
ATOM     51  H   UNL     1      -1.365  10.198  -3.062  1.00  0.00     0.167 HD
ATOM     52  C   UNL     1       0.523  13.938  -1.783  1.00  0.00     0.037 A 
ATOM     53  C   UNL     1      -3.510   8.615  -3.880  1.00  0.00     0.037 A 
ATOM     54  C   UNL     1      -0.839  14.292  -2.082  1.00  0.00     0.049 A 
ATOM     55  C   UNL     1      -4.053  10.011  -3.720  1.00  0.00     0.074 A 
ATOM     56  C   UNL     1      -1.440  15.537  -2.024  1.00  0.00     0.029 A 
ATOM     57  N   UNL     1      -1.813  13.396  -2.496  1.00  0.00    -0.354 N 
ATOM     58  N   UNL     1      -3.426  11.109  -3.370  1.00  0.00    -0.248 NA
ATOM     59  C   UNL     1      -5.484  10.203  -3.996  1.00  0.00     0.031 C 
ATOM     60  C   UNL     1      -2.787  15.389  -2.369  1.00  0.00     0.029 A 
ATOM     61  C   UNL     1      -3.013  14.060  -2.687  1.00  0.00     0.049 A 
ATOM     62  H   UNL     1      -1.672  12.432  -2.635  1.00  0.00     0.167 HD
ATOM     63  C   UNL     1      -4.376  12.122  -3.414  1.00  0.00     0.074 A 
ATOM     64  C   UNL     1      -5.619  11.512  -3.839  1.00  0.00     0.031 C 
ATOM     65  C   UNL     1      -4.235  13.439  -3.128  1.00  0.00     0.037 A 
BRANCH  52  66
ATOM     66  C   UNL     1       1.464  15.027  -1.363  1.00  0.00     0.057 A 
ATOM     67  C   UNL     1       2.470  15.498  -2.217  1.00  0.00     0.134 A 
ATOM     68  C   UNL     1       1.335  15.645  -0.113  1.00  0.00     0.134 A 
ATOM     69  F   UNL     1       2.655  14.938  -3.422  1.00  0.00    -0.206 F 
ATOM     70  C   UNL     1       3.324  16.535  -1.837  1.00  0.00     0.040 A 
ATOM     71  C   UNL     1       2.168  16.698   0.270  1.00  0.00     0.040 A 
ATOM     72  F   UNL     1       0.391  15.244   0.751  1.00  0.00    -0.206 F 
ATOM     73  C   UNL     1       3.168  17.144  -0.593  1.00  0.00     0.006 A 
ENDBRANCH  52  66
BRANCH  53  74
ATOM     74  C   UNL     1      -4.407   7.501  -4.279  1.00  0.00     0.057 A 
ATOM     75  C   UNL     1      -4.981   7.445  -5.554  1.00  0.00     0.134 A 
ATOM     76  C   UNL     1      -4.748   6.487  -3.374  1.00  0.00     0.134 A 
ATOM     77  F   UNL     1      -4.712   8.399  -6.458  1.00  0.00    -0.206 F 
ATOM     78  C   UNL     1      -5.882   6.438  -5.907  1.00  0.00     0.040 A 
ATOM     79  C   UNL     1      -5.625   5.460  -3.722  1.00  0.00     0.040 A 
ATOM     80  F   UNL     1      -4.230   6.482  -2.137  1.00  0.00    -0.206 F 
ATOM     81  C   UNL     1      -6.204   5.440  -4.989  1.00  0.00     0.006 A 
ENDBRANCH  53  74
BRANCH  65  82
ATOM     82  C   UNL     1      -5.439  14.316  -3.308  1.00  0.00     0.057 A 
ATOM     83  C   UNL     1      -6.526  14.273  -2.427  1.00  0.00     0.134 A 
ATOM     84  C   UNL     1      -5.492  15.245  -4.356  1.00  0.00     0.134 A 
ATOM     85  F   UNL     1      -6.543  13.399  -1.410  1.00  0.00    -0.206 F 
ATOM     86  C   UNL     1      -7.634  15.106  -2.595  1.00  0.00     0.040 A 
ATOM     87  C   UNL     1      -6.582  16.100  -4.519  1.00  0.00     0.040 A 
ATOM     88  F   UNL     1      -4.478  15.344  -5.230  1.00  0.00    -0.206 F 
ATOM     89  C   UNL     1      -7.660  16.028  -3.640  1.00  0.00     0.006 A 
ENDBRANCH  65  82
ENDBRANCH  39  40
ENDBRANCH  32  34
ENDBRANCH  31  32
ENDBRANCH  30  31
ENDBRANCH  29  30
ENDBRANCH  28  29
ENDBRANCH   1  28
TORSDOF 17
