REMARK SMILES O=C(CNc1ccccc1C(=O)N1CCCC1)OCCOCCOC(=O)c1ccc(-c2c3nc(c(-c4c(F)cccc4F)c4ccc([nH]4)c(-c4c(F)cccc4F)c4nc(c(-c5c(F)cccc5F)c5ccc2[nH]5)C=C4)C=C3)cc1
REMARK SMILES IDX 20 1 19 2 18 3 2 4 1 5 3 6 4 7 5 9 6 10 10 11 7 12 9 13 8 14
REMARK SMILES IDX 11 15 12 16 13 17 14 18 17 19 15 20 16 21 21 22 22 23 23 24
REMARK SMILES IDX 24 25 25 26 26 27 27 28 28 29 80 30 29 31 79 32 30 33 31 34
REMARK SMILES IDX 32 35 73 36 33 37 78 38 72 39 74 40 34 41 77 42 71 43 70 44
REMARK SMILES IDX 35 46 61 47 44 48 60 49 45 50 48 51 59 52 75 53 46 54 47 55
REMARK SMILES IDX 58 57 76 58 49 59 36 60 37 61 42 62 38 63 39 64 41 65 43 66
REMARK SMILES IDX 40 67 62 68 63 69 68 70 64 71 65 72 67 73 69 74 66 75 50 76
REMARK SMILES IDX 51 77 56 78 52 79 53 80 55 81 57 82 54 83
REMARK H PARENT 4 8 74 45 48 56
REMARK Flexibility Score: inf
ROOT
ATOM      1  C   UNL     1       4.885  -1.578   0.572  1.00  0.00     0.202 C 
ENDROOT
BRANCH   1   2
ATOM      2  C   UNL     1       4.783  -0.307   1.405  1.00  0.00     0.261 C 
BRANCH   2   3
ATOM      3  O   UNL     1       3.434  -0.045   1.828  1.00  0.00    -0.462 OA
BRANCH   3   4
ATOM      4  C   UNL     1       2.663   0.910   1.258  1.00  0.00     0.325 C 
ATOM      5  O   UNL     1       1.692   1.358   1.868  1.00  0.00    -0.250 OA
BRANCH   4   6
ATOM      6  C   UNL     1       2.976   1.368  -0.158  1.00  0.00     0.236 C 
BRANCH   6   7
ATOM      7  N   UNL     1       3.890   2.497  -0.235  1.00  0.00    -0.374 N 
ATOM      8  H   UNL     1       3.630   3.347   0.189  1.00  0.00     0.161 HD
BRANCH   7   9
ATOM      9  C   UNL     1       5.120   2.421  -0.886  1.00  0.00     0.047 A 
ATOM     10  C   UNL     1       6.206   2.905  -0.106  1.00  0.00     0.026 A 
ATOM     11  C   UNL     1       5.430   1.780  -2.112  1.00  0.00     0.063 A 
ATOM     12  C   UNL     1       7.542   2.725  -0.467  1.00  0.00     0.002 A 
ATOM     13  C   UNL     1       6.799   1.656  -2.475  1.00  0.00     0.016 A 
ATOM     14  C   UNL     1       7.841   2.098  -1.660  1.00  0.00     0.001 A 
BRANCH  11  15
ATOM     15  C   UNL     1       4.524   1.037  -3.060  1.00  0.00     0.255 C 
ATOM     16  O   UNL     1       5.027   0.092  -3.683  1.00  0.00    -0.269 OA
ATOM     17  N   UNL     1       3.182   1.310  -3.260  1.00  0.00    -0.339 N 
ATOM     18  C   UNL     1       2.438   2.548  -3.141  1.00  0.00     0.120 C 
ATOM     19  C   UNL     1       2.366   0.330  -3.948  1.00  0.00     0.120 C 
ATOM     20  C   UNL     1       0.968   2.109  -3.109  1.00  0.00     0.023 C 
ATOM     21  C   UNL     1       0.967   0.614  -3.442  1.00  0.00     0.023 C 
ENDBRANCH  11  15
ENDBRANCH   7   9
ENDBRANCH   6   7
ENDBRANCH   4   6
ENDBRANCH   3   4
ENDBRANCH   2   3
ENDBRANCH   1   2
BRANCH   1  22
ATOM     22  O   UNL     1       4.225  -1.486  -0.687  1.00  0.00    -0.374 OA
BRANCH  22  23
ATOM     23  C   UNL     1       2.900  -2.024  -0.732  1.00  0.00     0.202 C 
BRANCH  23  24
ATOM     24  C   UNL     1       2.861  -3.366  -1.460  1.00  0.00     0.261 C 
BRANCH  24  25
ATOM     25  O   UNL     1       3.347  -4.370  -0.562  1.00  0.00    -0.460 OA
BRANCH  25  26
ATOM     26  C   UNL     1       4.669  -4.629  -0.662  1.00  0.00     0.338 C 
ATOM     27  O   UNL     1       5.399  -4.421  -1.616  1.00  0.00    -0.246 OA
BRANCH  26  28
ATOM     28  C   UNL     1       5.157  -4.987   0.686  1.00  0.00     0.060 A 
ATOM     29  C   UNL     1       6.457  -4.591   1.024  1.00  0.00     0.016 A 
ATOM     30  C   UNL     1       4.331  -5.605   1.634  1.00  0.00     0.016 A 
ATOM     31  C   UNL     1       6.951  -4.854   2.294  1.00  0.00     0.010 A 
ATOM     32  C   UNL     1       4.827  -5.875   2.906  1.00  0.00     0.010 A 
ATOM     33  C   UNL     1       6.153  -5.539   3.219  1.00  0.00    -0.014 A 
BRANCH  33  34
ATOM     34  C   UNL     1       6.805  -6.122   4.406  1.00  0.00     0.031 A 
ATOM     35  C   UNL     1       7.288  -7.541   4.299  1.00  0.00     0.074 A 
ATOM     36  C   UNL     1       7.026  -5.386   5.506  1.00  0.00     0.049 A 
ATOM     37  N   UNL     1       7.951  -8.259   5.164  1.00  0.00    -0.248 NA
ATOM     38  C   UNL     1       6.983  -8.243   3.039  1.00  0.00     0.031 C 
ATOM     39  C   UNL     1       6.611  -3.996   5.693  1.00  0.00     0.029 A 
ATOM     40  N   UNL     1       7.665  -5.710   6.673  1.00  0.00    -0.354 N 
ATOM     41  C   UNL     1       8.160  -9.485   4.545  1.00  0.00     0.074 A 
ATOM     42  C   UNL     1       7.508  -9.437   3.258  1.00  0.00     0.031 C 
ATOM     43  C   UNL     1       7.004  -3.587   6.912  1.00  0.00     0.029 A 
ATOM     44  C   UNL     1       7.685  -4.688   7.589  1.00  0.00     0.049 A 
ATOM     45  H   UNL     1       8.070  -6.591   6.839  1.00  0.00     0.167 HD
ATOM     46  C   UNL     1       8.856 -10.550   5.004  1.00  0.00     0.037 A 
ATOM     47  C   UNL     1       8.195  -4.661   8.834  1.00  0.00     0.037 A 
ATOM     48  C   UNL     1       9.479 -10.593   6.298  1.00  0.00     0.049 A 
ATOM     49  C   UNL     1       8.915  -5.882   9.346  1.00  0.00     0.074 A 
ATOM     50  C   UNL     1      10.188 -11.625   6.883  1.00  0.00     0.029 A 
ATOM     51  N   UNL     1       9.458  -9.548   7.211  1.00  0.00    -0.354 N 
ATOM     52  N   UNL     1       9.129  -7.030   8.746  1.00  0.00    -0.248 NA
ATOM     53  C   UNL     1       9.478  -5.798  10.700  1.00  0.00     0.031 C 
ATOM     54  C   UNL     1      10.563 -11.218   8.168  1.00  0.00     0.029 A 
ATOM     55  C   UNL     1      10.131  -9.915   8.363  1.00  0.00     0.049 A 
ATOM     56  H   UNL     1       9.028  -8.676   7.061  1.00  0.00     0.167 HD
ATOM     57  C   UNL     1       9.867  -7.796   9.639  1.00  0.00     0.074 A 
ATOM     58  C   UNL     1      10.085  -6.970  10.810  1.00  0.00     0.031 C 
ATOM     59  C   UNL     1      10.324  -9.067   9.512  1.00  0.00     0.037 A 
BRANCH  46  60
ATOM     60  C   UNL     1       8.955 -11.744   4.101  1.00  0.00     0.057 A 
ATOM     61  C   UNL     1       9.730 -11.722   2.933  1.00  0.00     0.134 A 
ATOM     62  C   UNL     1       8.267 -12.926   4.397  1.00  0.00     0.134 A 
ATOM     63  F   UNL     1      10.393 -10.610   2.578  1.00  0.00    -0.206 F 
ATOM     64  C   UNL     1       9.802 -12.826   2.083  1.00  0.00     0.040 A 
ATOM     65  C   UNL     1       8.351 -14.046   3.568  1.00  0.00     0.040 A 
ATOM     66  F   UNL     1       7.500 -13.012   5.495  1.00  0.00    -0.206 F 
ATOM     67  C   UNL     1       9.116 -13.996   2.404  1.00  0.00     0.006 A 
ENDBRANCH  46  60
BRANCH  47  68
ATOM     68  C   UNL     1       8.043  -3.449   9.679  1.00  0.00     0.057 A 
ATOM     69  C   UNL     1       9.143  -2.663  10.041  1.00  0.00     0.134 A 
ATOM     70  C   UNL     1       6.788  -3.060  10.164  1.00  0.00     0.134 A 
ATOM     71  F   UNL     1      10.374  -2.993   9.625  1.00  0.00    -0.206 F 
ATOM     72  C   UNL     1       9.005  -1.550  10.872  1.00  0.00     0.040 A 
ATOM     73  C   UNL     1       6.631  -1.934  10.974  1.00  0.00     0.040 A 
ATOM     74  F   UNL     1       5.692  -3.767   9.851  1.00  0.00    -0.206 F 
ATOM     75  C   UNL     1       7.745  -1.180  11.338  1.00  0.00     0.006 A 
ENDBRANCH  47  68
BRANCH  59  76
ATOM     76  C   UNL     1      11.117  -9.620  10.659  1.00  0.00     0.057 A 
ATOM     77  C   UNL     1      10.517  -9.952  11.880  1.00  0.00     0.134 A 
ATOM     78  C   UNL     1      12.495  -9.841  10.531  1.00  0.00     0.134 A 
ATOM     79  F   UNL     1       9.203  -9.755  12.068  1.00  0.00    -0.206 F 
ATOM     80  C   UNL     1      11.266 -10.451  12.947  1.00  0.00     0.040 A 
ATOM     81  C   UNL     1      13.248 -10.368  11.580  1.00  0.00     0.040 A 
ATOM     82  F   UNL     1      13.127  -9.558   9.383  1.00  0.00    -0.206 F 
ATOM     83  C   UNL     1      12.635 -10.664  12.796  1.00  0.00     0.006 A 
ENDBRANCH  59  76
ENDBRANCH  33  34
ENDBRANCH  26  28
ENDBRANCH  25  26
ENDBRANCH  24  25
ENDBRANCH  23  24
ENDBRANCH  22  23
ENDBRANCH   1  22
TORSDOF 17
