REMARK SMILES O=C(OCCOCCOC(=O)[C@@H]1[C@@H](C(=O)NCc2ccccc2OCc2ccccc2)[C@@H]2C=C[C@H]1C2)c1ccc(-c2c3nc(c(-c4c(F)cccc4F)c4ccc([nH]4)c(-c4c(F)cccc4F)c4nc(c(-c5c(F)cccc5F)c5ccc2[nH]5)C=C4)C=C3)cc1
REMARK SMILES IDX 8 1 7 2 6 3 5 4 4 5 3 6 2 7 1 8 37 9 38 10 90 11 39 12 89 13
REMARK SMILES IDX 40 14 41 15 42 16 83 17 43 18 88 19 82 20 84 21 44 22 87 23
REMARK SMILES IDX 81 24 80 25 45 27 71 28 54 29 70 30 55 31 58 32 69 33 85 34
REMARK SMILES IDX 56 35 57 36 68 38 86 39 59 40 46 41 47 42 52 43 48 44 49 45
REMARK SMILES IDX 51 46 53 47 50 48 72 49 73 50 78 51 74 52 75 53 77 54 79 55
REMARK SMILES IDX 76 56 60 57 61 58 66 59 62 60 63 61 65 62 67 63 64 64 9 65
REMARK SMILES IDX 10 66 11 67 12 68 13 69 35 70 32 71 34 72 36 73 33 74 14 75
REMARK SMILES IDX 15 76 16 77 17 79 18 80 19 81 23 82 20 83 22 84 21 85 24 86
REMARK SMILES IDX 25 87 26 88 27 89 31 90 28 91 30 92 29 93
REMARK H PARENT 84 26 58 37 16 78
REMARK Flexibility Score: inf
ROOT
ATOM      1  C   UNL     1       2.227   1.406   3.238  1.00  0.00     0.261 C 
ENDROOT
BRANCH   1   2
ATOM      2  C   UNL     1       2.162   1.014   1.766  1.00  0.00     0.202 C 
BRANCH   2   3
ATOM      3  O   UNL     1       3.428   0.486   1.366  1.00  0.00    -0.374 OA
BRANCH   3   4
ATOM      4  C   UNL     1       3.904   0.851   0.075  1.00  0.00     0.202 C 
BRANCH   4   5
ATOM      5  C   UNL     1       3.016   0.639  -1.155  1.00  0.00     0.261 C 
BRANCH   5   6
ATOM      6  O   UNL     1       1.676   0.215  -0.866  1.00  0.00    -0.460 OA
BRANCH   6   7
ATOM      7  C   UNL     1       1.241  -1.064  -0.991  1.00  0.00     0.338 C 
ATOM      8  O   UNL     1       0.052  -1.330  -1.087  1.00  0.00    -0.246 OA
BRANCH   7   9
ATOM      9  C   UNL     1       2.244  -2.148  -1.013  1.00  0.00     0.060 A 
ATOM     10  C   UNL     1       3.242  -2.219  -0.046  1.00  0.00     0.016 A 
ATOM     11  C   UNL     1       2.144  -3.154  -1.972  1.00  0.00     0.016 A 
ATOM     12  C   UNL     1       4.242  -3.168  -0.125  1.00  0.00     0.010 A 
ATOM     13  C   UNL     1       3.057  -4.211  -1.953  1.00  0.00     0.010 A 
ATOM     14  C   UNL     1       4.121  -4.217  -1.034  1.00  0.00    -0.014 A 
BRANCH  14  15
ATOM     15  C   UNL     1       5.085  -5.338  -0.977  1.00  0.00     0.031 A 
ATOM     16  C   UNL     1       5.890  -5.675  -2.193  1.00  0.00     0.074 A 
ATOM     17  C   UNL     1       5.232  -6.030   0.171  1.00  0.00     0.049 A 
ATOM     18  N   UNL     1       6.602  -6.739  -2.443  1.00  0.00    -0.248 NA
ATOM     19  C   UNL     1       5.877  -4.686  -3.284  1.00  0.00     0.031 C 
ATOM     20  C   UNL     1       4.551  -5.735   1.438  1.00  0.00     0.029 A 
ATOM     21  N   UNL     1       6.010  -7.118   0.470  1.00  0.00    -0.354 N 
ATOM     22  C   UNL     1       7.064  -6.583  -3.742  1.00  0.00     0.074 A 
ATOM     23  C   UNL     1       6.564  -5.316  -4.226  1.00  0.00     0.031 C 
ATOM     24  C   UNL     1       4.979  -6.582   2.384  1.00  0.00     0.029 A 
ATOM     25  C   UNL     1       5.864  -7.556   1.766  1.00  0.00     0.049 A 
ATOM     26  H   UNL     1       6.615  -7.544  -0.179  1.00  0.00     0.167 HD
ATOM     27  C   UNL     1       7.824  -7.441  -4.461  1.00  0.00     0.037 A 
ATOM     28  C   UNL     1       6.339  -8.661   2.368  1.00  0.00     0.037 A 
ATOM     29  C   UNL     1       8.328  -8.680  -3.931  1.00  0.00     0.049 A 
ATOM     30  C   UNL     1       7.144  -9.616   1.536  1.00  0.00     0.074 A 
ATOM     31  C   UNL     1       9.073  -9.657  -4.563  1.00  0.00     0.029 A 
ATOM     32  N   UNL     1       8.142  -9.100  -2.619  1.00  0.00    -0.354 N 
ATOM     33  N   UNL     1       7.504  -9.511   0.278  1.00  0.00    -0.248 NA
ATOM     34  C   UNL     1       7.581 -10.854   2.189  1.00  0.00     0.031 C 
ATOM     35  C   UNL     1       9.312 -10.683  -3.641  1.00  0.00     0.029 A 
ATOM     36  C   UNL     1       8.755 -10.324  -2.422  1.00  0.00     0.049 A 
ATOM     37  H   UNL     1       7.647  -8.600  -1.930  1.00  0.00     0.167 HD
ATOM     38  C   UNL     1       8.221 -10.662  -0.009  1.00  0.00     0.074 A 
ATOM     39  C   UNL     1       8.263 -11.440   1.214  1.00  0.00     0.031 C 
ATOM     40  C   UNL     1       8.784 -11.052  -1.179  1.00  0.00     0.037 A 
BRANCH  27  41
ATOM     41  C   UNL     1       8.085  -7.091  -5.896  1.00  0.00     0.057 A 
ATOM     42  C   UNL     1       8.944  -6.049  -6.270  1.00  0.00     0.134 A 
ATOM     43  C   UNL     1       7.442  -7.795  -6.923  1.00  0.00     0.134 A 
ATOM     44  F   UNL     1       9.570  -5.316  -5.337  1.00  0.00    -0.206 F 
ATOM     45  C   UNL     1       9.130  -5.702  -7.611  1.00  0.00     0.040 A 
ATOM     46  C   UNL     1       7.639  -7.474  -8.267  1.00  0.00     0.040 A 
ATOM     47  F   UNL     1       6.603  -8.802  -6.636  1.00  0.00    -0.206 F 
ATOM     48  C   UNL     1       8.479  -6.418  -8.614  1.00  0.00     0.006 A 
ENDBRANCH  27  41
BRANCH  28  49
ATOM     49  C   UNL     1       6.010  -8.952   3.789  1.00  0.00     0.057 A 
ATOM     50  C   UNL     1       7.004  -8.983   4.773  1.00  0.00     0.134 A 
ATOM     51  C   UNL     1       4.695  -9.213   4.202  1.00  0.00     0.134 A 
ATOM     52  F   UNL     1       8.286  -8.761   4.444  1.00  0.00    -0.206 F 
ATOM     53  C   UNL     1       6.709  -9.277   6.106  1.00  0.00     0.040 A 
ATOM     54  C   UNL     1       4.381  -9.476   5.536  1.00  0.00     0.040 A 
ATOM     55  F   UNL     1       3.690  -9.196   3.314  1.00  0.00    -0.206 F 
ATOM     56  C   UNL     1       5.392  -9.519   6.492  1.00  0.00     0.006 A 
ENDBRANCH  28  49
BRANCH  40  57
ATOM     57  C   UNL     1       9.527 -12.351  -1.161  1.00  0.00     0.057 A 
ATOM     58  C   UNL     1       8.860 -13.581  -1.133  1.00  0.00     0.134 A 
ATOM     59  C   UNL     1      10.926 -12.365  -1.214  1.00  0.00     0.134 A 
ATOM     60  F   UNL     1       7.521 -13.628  -1.064  1.00  0.00    -0.206 F 
ATOM     61  C   UNL     1       9.563 -14.785  -1.140  1.00  0.00     0.040 A 
ATOM     62  C   UNL     1      11.638 -13.562  -1.247  1.00  0.00     0.040 A 
ATOM     63  F   UNL     1      11.618 -11.216  -1.248  1.00  0.00    -0.206 F 
ATOM     64  C   UNL     1      10.956 -14.777  -1.206  1.00  0.00     0.006 A 
ENDBRANCH  40  57
ENDBRANCH  14  15
ENDBRANCH   7   9
ENDBRANCH   6   7
ENDBRANCH   5   6
ENDBRANCH   4   5
ENDBRANCH   3   4
ENDBRANCH   2   3
ENDBRANCH   1   2
BRANCH   1  65
ATOM     65  O   UNL     1       3.253   2.409   3.357  1.00  0.00    -0.463 OA
BRANCH  65  66
ATOM     66  C   UNL     1       4.388   1.988   3.972  1.00  0.00     0.310 C 
ATOM     67  O   UNL     1       4.454   1.024   4.725  1.00  0.00    -0.252 OA
BRANCH  66  68
ATOM     68  C   UNL     1       5.565   2.888   3.651  1.00  0.00     0.119 C 
ATOM     69  C   UNL     1       5.672   3.391   2.160  1.00  0.00     0.100 C 
ATOM     70  C   UNL     1       6.886   2.079   3.821  1.00  0.00     0.027 C 
ATOM     71  C   UNL     1       7.055   2.838   1.746  1.00  0.00     0.025 C 
ATOM     72  C   UNL     1       6.892   0.877   2.890  1.00  0.00    -0.027 C 
ATOM     73  C   UNL     1       7.854   2.961   3.044  1.00  0.00     0.017 C 
ATOM     74  C   UNL     1       6.988   1.341   1.639  1.00  0.00    -0.027 C 
BRANCH  69  75
ATOM     75  C   UNL     1       5.644   4.909   1.979  1.00  0.00     0.224 C 
ATOM     76  O   UNL     1       5.522   5.677   2.932  1.00  0.00    -0.275 OA
ATOM     77  N   UNL     1       5.742   5.443   0.717  1.00  0.00    -0.352 N 
ATOM     78  H   UNL     1       5.765   6.426   0.679  1.00  0.00     0.163 HD
BRANCH  77  79
ATOM     79  C   UNL     1       5.818   4.769  -0.575  1.00  0.00     0.155 C 
BRANCH  79  80
ATOM     80  C   UNL     1       5.833   5.684  -1.777  1.00  0.00     0.013 A 
ATOM     81  C   UNL     1       4.804   6.656  -1.848  1.00  0.00     0.009 A 
ATOM     82  C   UNL     1       6.672   5.535  -2.899  1.00  0.00     0.124 A 
ATOM     83  C   UNL     1       4.595   7.434  -2.989  1.00  0.00     0.001 A 
ATOM     84  C   UNL     1       6.425   6.311  -4.050  1.00  0.00     0.047 A 
ATOM     85  C   UNL     1       5.400   7.251  -4.100  1.00  0.00     0.004 A 
BRANCH  82  86
ATOM     86  O   UNL     1       7.693   4.661  -3.134  1.00  0.00    -0.489 OA
BRANCH  86  87
ATOM     87  C   UNL     1       8.650   4.224  -2.167  1.00  0.00     0.265 C 
BRANCH  87  88
ATOM     88  C   UNL     1       9.242   5.244  -1.222  1.00  0.00    -0.011 A 
ATOM     89  C   UNL     1       9.551   4.864   0.093  1.00  0.00     0.007 A 
ATOM     90  C   UNL     1       9.548   6.547  -1.624  1.00  0.00     0.007 A 
ATOM     91  C   UNL     1       9.992   5.797   1.029  1.00  0.00     0.000 A 
ATOM     92  C   UNL     1      10.037   7.474  -0.700  1.00  0.00     0.000 A 
ATOM     93  C   UNL     1      10.225   7.108   0.633  1.00  0.00     0.000 A 
ENDBRANCH  87  88
ENDBRANCH  86  87
ENDBRANCH  82  86
ENDBRANCH  79  80
ENDBRANCH  77  79
ENDBRANCH  69  75
ENDBRANCH  66  68
ENDBRANCH  65  66
ENDBRANCH   1  65
TORSDOF 20
