REMARK SMILES Cc1n[nH]c(C(=O)Nc2cc(C(=O)OCCOCCOC(=O)c3ccc(-c4c5nc(c(-c6c(F)cccc6F)c6ccc([nH]6)c(-c6c(F)cccc6F)c6nc(c(-c7c(F)cccc7F)c7ccc4[nH]7)C=C6)C=C5)cc3)[nH]n2)n1
REMARK SMILES IDX 17 1 16 2 15 3 14 4 12 5 13 6 11 7 9 8 10 9 78 10 77 11 8 13
REMARK SMILES IDX 6 14 7 15 5 17 1 18 2 19 3 20 79 21 4 22 18 24 19 25 20 26
REMARK SMILES IDX 21 27 22 28 23 29 24 30 76 31 25 32 75 33 26 34 27 35 28 36
REMARK SMILES IDX 69 37 29 38 74 39 68 40 70 41 30 42 73 43 67 44 66 45 31 47
REMARK SMILES IDX 57 48 40 49 56 50 41 51 44 52 55 53 71 54 42 55 43 56 54 58
REMARK SMILES IDX 72 59 45 60 32 61 33 62 38 63 34 64 35 65 37 66 39 67 36 68
REMARK SMILES IDX 58 69 59 70 64 71 60 72 61 73 63 74 65 75 62 76 46 77 47 78
REMARK SMILES IDX 52 79 48 80 49 81 51 82 53 83 50 84
REMARK H PARENT 77 12 8 16 4 23 70 46 44 57
REMARK Flexibility Score: inf
ROOT
ATOM      1  O   UNL     1      -0.828   0.412   9.217  1.00  0.00    -0.374 OA
ENDROOT
BRANCH   1   2
ATOM      2  C   UNL     1      -0.097  -0.484   8.379  1.00  0.00     0.202 C 
BRANCH   2   3
ATOM      3  C   UNL     1      -0.538  -0.643   6.924  1.00  0.00     0.261 C 
BRANCH   3   4
ATOM      4  O   UNL     1      -0.325   0.556   6.167  1.00  0.00    -0.459 OA
BRANCH   4   5
ATOM      5  C   UNL     1      -1.448   1.288   5.940  1.00  0.00     0.356 C 
ATOM      6  O   UNL     1      -2.584   0.982   6.235  1.00  0.00    -0.244 OA
BRANCH   5   7
ATOM      7  C   UNL     1      -1.083   2.569   5.413  1.00  0.00     0.145 A 
ATOM      8  C   UNL     1      -0.377   4.272   4.216  1.00  0.00     0.155 A 
ATOM      9  C   UNL     1       0.014   3.009   4.708  1.00  0.00     0.084 A 
ATOM     10  N   UNL     1      -1.452   4.731   4.853  1.00  0.00    -0.157 NA
ATOM     11  N   UNL     1      -1.889   3.666   5.545  1.00  0.00    -0.269 N 
ATOM     12  H   UNL     1      -2.708   3.673   6.093  1.00  0.00     0.190 HD
BRANCH   8  13
ATOM     13  N   UNL     1       0.139   4.977   3.163  1.00  0.00    -0.302 N 
ATOM     14  C   UNL     1       0.738   4.478   2.023  1.00  0.00     0.294 C 
ATOM     15  O   UNL     1       1.344   5.278   1.307  1.00  0.00    -0.265 OA
ATOM     16  H   UNL     1       0.076   5.957   3.226  1.00  0.00     0.172 HD
BRANCH  14  17
ATOM     17  C   UNL     1       0.534   3.083   1.653  1.00  0.00     0.214 A 
ATOM     18  C   UNL     1       1.243   0.041  -0.019  1.00  0.00     0.092 C 
ATOM     19  C   UNL     1       0.718   1.149   0.801  1.00  0.00     0.148 A 
ATOM     20  N   UNL     1      -0.442   1.067   1.460  1.00  0.00    -0.159 NA
ATOM     21  N   UNL     1       1.351   2.361   0.904  1.00  0.00    -0.207 NA
ATOM     22  N   UNL     1      -0.571   2.318   1.921  1.00  0.00    -0.255 N 
ATOM     23  H   UNL     1      -1.366   2.649   2.396  1.00  0.00     0.192 HD
ENDBRANCH  14  17
ENDBRANCH   8  13
ENDBRANCH   5   7
ENDBRANCH   4   5
ENDBRANCH   3   4
ENDBRANCH   2   3
ENDBRANCH   1   2
BRANCH   1  24
ATOM     24  C   UNL     1      -0.747   1.820   9.040  1.00  0.00     0.202 C 
BRANCH  24  25
ATOM     25  C   UNL     1       0.561   2.541   9.321  1.00  0.00     0.261 C 
BRANCH  25  26
ATOM     26  O   UNL     1       1.651   2.009   8.589  1.00  0.00    -0.460 OA
BRANCH  26  27
ATOM     27  C   UNL     1       2.436   1.196   9.333  1.00  0.00     0.338 C 
ATOM     28  O   UNL     1       2.146   0.646  10.382  1.00  0.00    -0.246 OA
BRANCH  27  29
ATOM     29  C   UNL     1       3.789   1.220   8.779  1.00  0.00     0.060 A 
ATOM     30  C   UNL     1       4.751   0.500   9.491  1.00  0.00     0.016 A 
ATOM     31  C   UNL     1       4.129   2.192   7.826  1.00  0.00     0.016 A 
ATOM     32  C   UNL     1       6.054   0.931   9.427  1.00  0.00     0.010 A 
ATOM     33  C   UNL     1       5.427   2.631   7.777  1.00  0.00     0.010 A 
ATOM     34  C   UNL     1       6.347   2.056   8.648  1.00  0.00    -0.014 A 
BRANCH  34  35
ATOM     35  C   UNL     1       7.705   2.546   8.655  1.00  0.00     0.031 A 
ATOM     36  C   UNL     1       8.605   1.648   7.903  1.00  0.00     0.074 A 
ATOM     37  C   UNL     1       8.042   3.730   9.198  1.00  0.00     0.049 A 
ATOM     38  N   UNL     1       9.521   0.878   8.385  1.00  0.00    -0.248 NA
ATOM     39  C   UNL     1       8.296   1.403   6.483  1.00  0.00     0.031 C 
ATOM     40  C   UNL     1       7.162   4.777   9.723  1.00  0.00     0.029 A 
ATOM     41  N   UNL     1       9.276   4.290   9.305  1.00  0.00    -0.354 N 
ATOM     42  C   UNL     1      10.069   0.235   7.282  1.00  0.00     0.074 A 
ATOM     43  C   UNL     1       9.137   0.408   6.202  1.00  0.00     0.031 C 
ATOM     44  C   UNL     1       7.869   5.923   9.872  1.00  0.00     0.029 A 
ATOM     45  C   UNL     1       9.266   5.655   9.580  1.00  0.00     0.049 A 
ATOM     46  H   UNL     1      10.107   3.774   9.197  1.00  0.00     0.167 HD
ATOM     47  C   UNL     1      11.386  -0.101   7.268  1.00  0.00     0.037 A 
ATOM     48  C   UNL     1      10.338   6.484   9.479  1.00  0.00     0.037 A 
ATOM     49  C   UNL     1      11.920  -0.148   8.607  1.00  0.00     0.049 A 
ATOM     50  C   UNL     1      11.557   5.630   9.491  1.00  0.00     0.074 A 
ATOM     51  C   UNL     1      11.612  -0.865   9.748  1.00  0.00     0.029 A 
ATOM     52  N   UNL     1      12.671   0.923   9.029  1.00  0.00    -0.354 N 
ATOM     53  N   UNL     1      11.959   4.964  10.538  1.00  0.00    -0.248 NA
ATOM     54  C   UNL     1      12.031   5.126   8.209  1.00  0.00     0.031 C 
ATOM     55  C   UNL     1      11.776   0.059  10.822  1.00  0.00     0.029 A 
ATOM     56  C   UNL     1      12.250   1.258  10.290  1.00  0.00     0.049 A 
ATOM     57  H   UNL     1      13.383   1.369   8.517  1.00  0.00     0.167 HD
ATOM     58  C   UNL     1      12.353   3.730  10.040  1.00  0.00     0.074 A 
ATOM     59  C   UNL     1      12.432   3.910   8.591  1.00  0.00     0.031 C 
ATOM     60  C   UNL     1      12.283   2.605  10.810  1.00  0.00     0.037 A 
BRANCH  47  61
ATOM     61  C   UNL     1      12.261   0.057   6.049  1.00  0.00     0.057 A 
ATOM     62  C   UNL     1      13.585  -0.406   6.106  1.00  0.00     0.134 A 
ATOM     63  C   UNL     1      11.968   0.895   4.950  1.00  0.00     0.134 A 
ATOM     64  F   UNL     1      13.993  -1.199   7.108  1.00  0.00    -0.206 F 
ATOM     65  C   UNL     1      14.562   0.003   5.190  1.00  0.00     0.040 A 
ATOM     66  C   UNL     1      12.921   1.266   4.001  1.00  0.00     0.040 A 
ATOM     67  F   UNL     1      10.782   1.490   4.782  1.00  0.00    -0.206 F 
ATOM     68  C   UNL     1      14.233   0.849   4.138  1.00  0.00     0.006 A 
ENDBRANCH  47  61
BRANCH  48  69
ATOM     69  C   UNL     1      10.382   7.895   9.025  1.00  0.00     0.057 A 
ATOM     70  C   UNL     1      11.525   8.685   9.220  1.00  0.00     0.134 A 
ATOM     71  C   UNL     1       9.423   8.412   8.137  1.00  0.00     0.134 A 
ATOM     72  F   UNL     1      12.519   8.259  10.014  1.00  0.00    -0.206 F 
ATOM     73  C   UNL     1      11.716   9.903   8.552  1.00  0.00     0.040 A 
ATOM     74  C   UNL     1       9.598   9.629   7.467  1.00  0.00     0.040 A 
ATOM     75  F   UNL     1       8.325   7.712   7.816  1.00  0.00    -0.206 F 
ATOM     76  C   UNL     1      10.755  10.372   7.662  1.00  0.00     0.006 A 
ENDBRANCH  48  69
BRANCH  60  77
ATOM     77  C   UNL     1      12.000   2.771  12.279  1.00  0.00     0.057 A 
ATOM     78  C   UNL     1      10.813   3.308  12.802  1.00  0.00     0.134 A 
ATOM     79  C   UNL     1      12.904   2.226  13.196  1.00  0.00     0.134 A 
ATOM     80  F   UNL     1       9.844   3.764  11.998  1.00  0.00    -0.206 F 
ATOM     81  C   UNL     1      10.561   3.337  14.178  1.00  0.00     0.040 A 
ATOM     82  C   UNL     1      12.649   2.217  14.569  1.00  0.00     0.040 A 
ATOM     83  F   UNL     1      14.035   1.645  12.765  1.00  0.00    -0.206 F 
ATOM     84  C   UNL     1      11.478   2.783  15.065  1.00  0.00     0.006 A 
ENDBRANCH  60  77
ENDBRANCH  34  35
ENDBRANCH  27  29
ENDBRANCH  26  27
ENDBRANCH  25  26
ENDBRANCH  24  25
ENDBRANCH   1  24
TORSDOF 16
