REMARK SMILES Cc1cc(C)cc(-c2cccc(Cl)c2C(=O)OCCOCCOC(=O)c2ccc(-c3c4nc(c(-c5c(F)cccc5F)c5ccc([nH]5)c(-c5c(F)cccc5F)c5nc(c(-c6c(F)cccc6F)c6ccc3[nH]6)C=C5)C=C4)cc2)c1
REMARK SMILES IDX 21 1 20 2 19 3 18 4 17 5 15 6 16 7 14 8 8 9 9 10 10 11 12 12
REMARK SMILES IDX 11 13 13 14 7 15 1 16 2 17 3 18 80 19 4 20 5 21 6 22 22 23
REMARK SMILES IDX 23 24 24 25 25 26 26 27 27 28 79 29 28 30 78 31 29 32 30 33
REMARK SMILES IDX 31 34 72 35 32 36 77 37 71 38 73 39 33 40 76 41 70 42 69 43
REMARK SMILES IDX 34 45 60 46 43 47 59 48 44 49 47 50 58 51 74 52 45 53 46 54
REMARK SMILES IDX 57 56 75 57 48 58 35 59 36 60 41 61 37 62 38 63 40 64 42 65
REMARK SMILES IDX 39 66 61 67 62 68 67 69 63 70 64 71 66 72 68 73 65 74 49 75
REMARK SMILES IDX 50 76 55 77 51 78 52 79 54 80 56 81 53 82
REMARK H PARENT 73 44 47 55
REMARK Flexibility Score: inf
ROOT
ATOM      1  C   UNL     1      -3.352  -1.741  -1.895  1.00  0.00     0.202 C 
ENDROOT
BRANCH   1   2
ATOM      2  O   UNL     1      -3.466  -1.363  -3.260  1.00  0.00    -0.374 OA
BRANCH   2   3
ATOM      3  C   UNL     1      -3.068  -2.320  -4.242  1.00  0.00     0.202 C 
BRANCH   3   4
ATOM      4  C   UNL     1      -1.593  -2.723  -4.266  1.00  0.00     0.261 C 
BRANCH   4   5
ATOM      5  O   UNL     1      -1.287  -3.513  -3.104  1.00  0.00    -0.460 OA
BRANCH   5   6
ATOM      6  C   UNL     1      -0.095  -3.260  -2.513  1.00  0.00     0.340 C 
ATOM      7  O   UNL     1       0.777  -2.516  -2.926  1.00  0.00    -0.246 OA
BRANCH   6   8
ATOM      8  C   UNL     1      -0.013  -3.981  -1.222  1.00  0.00     0.086 A 
ATOM      9  C   UNL     1       0.263  -3.260  -0.032  1.00  0.00    -0.002 A 
ATOM     10  C   UNL     1       0.496  -3.988   1.151  1.00  0.00     0.010 A 
ATOM     11  C   UNL     1       0.417  -5.379   1.171  1.00  0.00     0.002 A 
ATOM     12  C   UNL     1      -0.122  -5.382  -1.188  1.00  0.00     0.056 A 
ATOM     13  C   UNL     1       0.084  -6.072   0.011  1.00  0.00     0.021 A 
ATOM     14  Cl  UNL     1      -0.474  -6.347  -2.582  1.00  0.00    -0.083 Cl
BRANCH   9  15
ATOM     15  C   UNL     1       0.263  -1.788   0.056  1.00  0.00    -0.017 A 
ATOM     16  C   UNL     1       2.698   1.146  -0.126  1.00  0.00     0.044 C 
ATOM     17  C   UNL     1       1.432   0.353  -0.001  1.00  0.00    -0.050 A 
ATOM     18  C   UNL     1       0.215   1.022   0.178  1.00  0.00     0.006 A 
ATOM     19  C   UNL     1       1.444  -1.047  -0.085  1.00  0.00     0.012 A 
ATOM     20  C   UNL     1      -0.974   0.309   0.343  1.00  0.00    -0.050 A 
ATOM     21  C   UNL     1      -2.273   1.051   0.470  1.00  0.00     0.044 C 
ATOM     22  C   UNL     1      -0.929  -1.091   0.324  1.00  0.00     0.012 A 
ENDBRANCH   9  15
ENDBRANCH   6   8
ENDBRANCH   5   6
ENDBRANCH   4   5
ENDBRANCH   3   4
ENDBRANCH   2   3
ENDBRANCH   1   2
BRANCH   1  23
ATOM     23  C   UNL     1      -4.468  -2.587  -1.273  1.00  0.00     0.261 C 
BRANCH  23  24
ATOM     24  O   UNL     1      -4.849  -3.703  -2.075  1.00  0.00    -0.460 OA
BRANCH  24  25
ATOM     25  C   UNL     1      -5.886  -3.444  -2.905  1.00  0.00     0.338 C 
ATOM     26  O   UNL     1      -6.547  -2.421  -2.990  1.00  0.00    -0.246 OA
BRANCH  25  27
ATOM     27  C   UNL     1      -6.019  -4.570  -3.836  1.00  0.00     0.060 A 
ATOM     28  C   UNL     1      -5.959  -4.304  -5.211  1.00  0.00     0.016 A 
ATOM     29  C   UNL     1      -6.226  -5.863  -3.356  1.00  0.00     0.016 A 
ATOM     30  C   UNL     1      -6.139  -5.338  -6.122  1.00  0.00     0.010 A 
ATOM     31  C   UNL     1      -6.423  -6.894  -4.269  1.00  0.00     0.010 A 
ATOM     32  C   UNL     1      -6.412  -6.627  -5.650  1.00  0.00    -0.014 A 
BRANCH  32  33
ATOM     33  C   UNL     1      -6.878  -7.679  -6.574  1.00  0.00     0.031 A 
ATOM     34  C   UNL     1      -8.348  -7.974  -6.618  1.00  0.00     0.074 A 
ATOM     35  C   UNL     1      -6.005  -8.384  -7.312  1.00  0.00     0.049 A 
ATOM     36  N   UNL     1      -8.979  -8.964  -7.189  1.00  0.00    -0.248 NA
ATOM     37  C   UNL     1      -9.222  -7.030  -5.901  1.00  0.00     0.031 C 
ATOM     38  C   UNL     1      -4.566  -8.143  -7.380  1.00  0.00     0.029 A 
ATOM     39  N   UNL     1      -6.208  -9.470  -8.123  1.00  0.00    -0.354 N 
ATOM     40  C   UNL     1     -10.320  -8.777  -6.881  1.00  0.00     0.074 A 
ATOM     41  C   UNL     1     -10.410  -7.595  -6.053  1.00  0.00     0.031 C 
ATOM     42  C   UNL     1      -4.008  -9.077  -8.170  1.00  0.00     0.029 A 
ATOM     43  C   UNL     1      -5.045 -10.004  -8.617  1.00  0.00     0.049 A 
ATOM     44  H   UNL     1      -7.101  -9.831  -8.330  1.00  0.00     0.167 HD
ATOM     45  C   UNL     1     -11.379  -9.529  -7.258  1.00  0.00     0.037 A 
ATOM     46  C   UNL     1      -4.845 -11.139  -9.315  1.00  0.00     0.037 A 
ATOM     47  C   UNL     1     -11.268 -10.704  -8.079  1.00  0.00     0.049 A 
ATOM     48  C   UNL     1      -6.029 -12.004  -9.657  1.00  0.00     0.074 A 
ATOM     49  C   UNL     1     -12.274 -11.538  -8.532  1.00  0.00     0.029 A 
ATOM     50  N   UNL     1     -10.072 -11.214  -8.564  1.00  0.00    -0.354 N 
ATOM     51  N   UNL     1      -7.297 -11.824  -9.370  1.00  0.00    -0.248 NA
ATOM     52  C   UNL     1      -5.758 -13.232 -10.417  1.00  0.00     0.031 C 
ATOM     53  C   UNL     1     -11.682 -12.585  -9.243  1.00  0.00     0.029 A 
ATOM     54  C   UNL     1     -10.314 -12.364  -9.294  1.00  0.00     0.049 A 
ATOM     55  H   UNL     1      -9.185 -10.818  -8.411  1.00  0.00     0.167 HD
ATOM     56  C   UNL     1      -7.977 -12.886  -9.954  1.00  0.00     0.074 A 
ATOM     57  C   UNL     1      -6.980 -13.711 -10.605  1.00  0.00     0.031 C 
ATOM     58  C   UNL     1      -9.306 -13.151  -9.960  1.00  0.00     0.037 A 
BRANCH  45  59
ATOM     59  C   UNL     1     -12.733  -9.124  -6.755  1.00  0.00     0.057 A 
ATOM     60  C   UNL     1     -13.374  -7.959  -7.197  1.00  0.00     0.134 A 
ATOM     61  C   UNL     1     -13.416  -9.924  -5.829  1.00  0.00     0.134 A 
ATOM     62  F   UNL     1     -12.770  -7.139  -8.070  1.00  0.00    -0.206 F 
ATOM     63  C   UNL     1     -14.633  -7.591  -6.717  1.00  0.00     0.040 A 
ATOM     64  C   UNL     1     -14.687  -9.583  -5.366  1.00  0.00     0.040 A 
ATOM     65  F   UNL     1     -12.861 -11.054  -5.364  1.00  0.00    -0.206 F 
ATOM     66  C   UNL     1     -15.296  -8.409  -5.804  1.00  0.00     0.006 A 
ENDBRANCH  45  59
BRANCH  46  67
ATOM     67  C   UNL     1      -3.471 -11.530  -9.720  1.00  0.00     0.057 A 
ATOM     68  C   UNL     1      -3.090 -11.534 -11.067  1.00  0.00     0.134 A 
ATOM     69  C   UNL     1      -2.512 -11.922  -8.778  1.00  0.00     0.134 A 
ATOM     70  F   UNL     1      -3.970 -11.188 -12.018  1.00  0.00    -0.206 F 
ATOM     71  C   UNL     1      -1.812 -11.931 -11.464  1.00  0.00     0.040 A 
ATOM     72  C   UNL     1      -1.222 -12.295  -9.159  1.00  0.00     0.040 A 
ATOM     73  F   UNL     1      -2.811 -11.937  -7.471  1.00  0.00    -0.206 F 
ATOM     74  C   UNL     1      -0.872 -12.308 -10.508  1.00  0.00     0.006 A 
ENDBRANCH  46  67
BRANCH  58  75
ATOM     75  C   UNL     1      -9.780 -14.331 -10.757  1.00  0.00     0.057 A 
ATOM     76  C   UNL     1      -9.580 -15.649 -10.334  1.00  0.00     0.134 A 
ATOM     77  C   UNL     1     -10.528 -14.132 -11.926  1.00  0.00     0.134 A 
ATOM     78  F   UNL     1      -8.864 -15.908  -9.229  1.00  0.00    -0.206 F 
ATOM     79  C   UNL     1     -10.099 -16.730 -11.050  1.00  0.00     0.040 A 
ATOM     80  C   UNL     1     -11.076 -15.201 -12.634  1.00  0.00     0.040 A 
ATOM     81  F   UNL     1     -10.766 -12.892 -12.380  1.00  0.00    -0.206 F 
ATOM     82  C   UNL     1     -10.859 -16.506 -12.197  1.00  0.00     0.006 A 
ENDBRANCH  58  75
ENDBRANCH  32  33
ENDBRANCH  25  27
ENDBRANCH  24  25
ENDBRANCH  23  24
ENDBRANCH   1  23
TORSDOF 15
