REMARK SMILES C[C@@H](C(=O)OCCOCCOC(=O)c1ccc(-c2c3nc(c(-c4c(F)cccc4F)c4ccc([nH]4)c(-c4c(F)cccc4F)c4nc(c(-c5c(F)cccc5F)c5ccc2[nH]5)C=C4)C=C3)cc1)c1ccn(C(F)F)c(=O)c1
REMARK SMILES IDX 8 1 7 2 6 3 5 4 3 5 4 6 2 7 1 8 68 9 69 10 77 11 70 12 75 13
REMARK SMILES IDX 71 14 76 15 72 16 73 17 74 18 9 19 10 20 11 21 12 22 13 23
REMARK SMILES IDX 14 24 15 25 67 26 16 27 66 28 17 29 18 30 19 31 60 32 20 33
REMARK SMILES IDX 65 34 59 35 61 36 21 37 64 38 58 39 57 40 22 42 48 43 31 44
REMARK SMILES IDX 47 45 32 46 35 47 46 48 62 49 33 50 34 51 45 53 63 54 36 55
REMARK SMILES IDX 23 56 24 57 29 58 25 59 26 60 28 61 30 62 27 63 49 64 50 65
REMARK SMILES IDX 55 66 51 67 52 68 54 69 56 70 53 71 37 72 38 73 43 74 39 75
REMARK SMILES IDX 40 76 42 77 44 78 41 79
REMARK H PARENT 61 41 35 52
REMARK Flexibility Score: inf
ROOT
ATOM      1  O   UNL     1       0.948   2.158   4.206  1.00  0.00    -0.374 OA
ENDROOT
BRANCH   1   2
ATOM      2  C   UNL     1       2.152   1.394   4.317  1.00  0.00     0.202 C 
BRANCH   2   3
ATOM      3  C   UNL     1       1.985  -0.120   4.166  1.00  0.00     0.261 C 
BRANCH   3   4
ATOM      4  O   UNL     1       1.725  -0.448   2.787  1.00  0.00    -0.463 OA
BRANCH   4   5
ATOM      5  C   UNL     1       0.706  -1.319   2.557  1.00  0.00     0.313 C 
ATOM      6  O   UNL     1       0.141  -1.967   3.432  1.00  0.00    -0.252 OA
BRANCH   5   7
ATOM      7  C   UNL     1       0.325  -1.396   1.071  1.00  0.00     0.126 C 
ATOM      8  C   UNL     1       1.177  -0.520   0.143  1.00  0.00     0.025 C 
BRANCH   7   9
ATOM      9  C   UNL     1      -1.175  -1.141   0.944  1.00  0.00    -0.027 A 
ATOM     10  C   UNL     1      -2.050  -2.293   1.079  1.00  0.00     0.023 A 
ATOM     11  C   UNL     1      -1.736   0.060   0.712  1.00  0.00     0.076 A 
ATOM     12  C   UNL     1      -3.379  -2.161   0.980  1.00  0.00     0.095 A 
ATOM     13  C   UNL     1      -3.216   0.230   0.625  1.00  0.00     0.255 A 
ATOM     14  N   UNL     1      -3.961  -0.928   0.751  1.00  0.00    -0.258 N 
ATOM     15  O   UNL     1      -3.660   1.360   0.449  1.00  0.00    -0.269 OA
BRANCH  14  16
ATOM     16  C   UNL     1      -5.392  -0.801   0.658  1.00  0.00     0.451 C 
ATOM     17  F   UNL     1      -5.878  -0.007   1.643  1.00  0.00    -0.185 F 
ATOM     18  F   UNL     1      -5.756  -0.262  -0.532  1.00  0.00    -0.185 F 
ENDBRANCH  14  16
ENDBRANCH   7   9
ENDBRANCH   5   7
ENDBRANCH   4   5
ENDBRANCH   3   4
ENDBRANCH   2   3
ENDBRANCH   1   2
BRANCH   1  19
ATOM     19  C   UNL     1       0.389   2.304   2.903  1.00  0.00     0.202 C 
BRANCH  19  20
ATOM     20  C   UNL     1       1.000   3.405   2.028  1.00  0.00     0.261 C 
BRANCH  20  21
ATOM     21  O   UNL     1       2.406   3.197   1.798  1.00  0.00    -0.460 OA
BRANCH  21  22
ATOM     22  C   UNL     1       3.212   4.073   2.441  1.00  0.00     0.338 C 
ATOM     23  O   UNL     1       2.876   5.058   3.085  1.00  0.00    -0.246 OA
BRANCH  22  24
ATOM     24  C   UNL     1       4.607   3.599   2.416  1.00  0.00     0.060 A 
ATOM     25  C   UNL     1       5.280   3.529   3.643  1.00  0.00     0.016 A 
ATOM     26  C   UNL     1       5.273   3.306   1.223  1.00  0.00     0.016 A 
ATOM     27  C   UNL     1       6.637   3.221   3.678  1.00  0.00     0.010 A 
ATOM     28  C   UNL     1       6.640   3.004   1.261  1.00  0.00     0.010 A 
ATOM     29  C   UNL     1       7.334   2.998   2.484  1.00  0.00    -0.014 A 
BRANCH  29  30
ATOM     30  C   UNL     1       8.815   2.915   2.517  1.00  0.00     0.031 A 
ATOM     31  C   UNL     1       9.620   4.144   2.196  1.00  0.00     0.074 A 
ATOM     32  C   UNL     1       9.434   1.778   2.879  1.00  0.00     0.049 A 
ATOM     33  N   UNL     1      10.919   4.303   2.170  1.00  0.00    -0.248 NA
ATOM     34  C   UNL     1       8.858   5.358   1.861  1.00  0.00     0.031 C 
ATOM     35  C   UNL     1       8.765   0.534   3.254  1.00  0.00     0.029 A 
ATOM     36  N   UNL     1      10.771   1.490   2.991  1.00  0.00    -0.354 N 
ATOM     37  C   UNL     1      11.130   5.629   1.815  1.00  0.00     0.074 A 
ATOM     38  C   UNL     1       9.828   6.225   1.606  1.00  0.00     0.031 C 
ATOM     39  C   UNL     1       9.697  -0.388   3.551  1.00  0.00     0.029 A 
ATOM     40  C   UNL     1      11.024   0.193   3.363  1.00  0.00     0.049 A 
ATOM     41  H   UNL     1      11.481   2.151   2.821  1.00  0.00     0.167 HD
ATOM     42  C   UNL     1      12.302   6.294   1.684  1.00  0.00     0.037 A 
ATOM     43  C   UNL     1      12.196  -0.453   3.519  1.00  0.00     0.037 A 
ATOM     44  C   UNL     1      13.597   5.705   1.897  1.00  0.00     0.049 A 
ATOM     45  C   UNL     1      13.487   0.291   3.301  1.00  0.00     0.074 A 
ATOM     46  C   UNL     1      14.842   6.303   1.810  1.00  0.00     0.029 A 
ATOM     47  N   UNL     1      13.813   4.377   2.232  1.00  0.00    -0.354 N 
ATOM     48  N   UNL     1      13.674   1.551   2.991  1.00  0.00    -0.248 NA
ATOM     49  C   UNL     1      14.730  -0.479   3.455  1.00  0.00     0.031 C 
ATOM     50  C   UNL     1      15.814   5.326   2.050  1.00  0.00     0.029 A 
ATOM     51  C   UNL     1      15.173   4.130   2.330  1.00  0.00     0.049 A 
ATOM     52  H   UNL     1      13.106   3.709   2.379  1.00  0.00     0.167 HD
ATOM     53  C   UNL     1      15.051   1.731   2.941  1.00  0.00     0.074 A 
ATOM     54  C   UNL     1      15.652   0.454   3.262  1.00  0.00     0.031 C 
ATOM     55  C   UNL     1      15.755   2.854   2.657  1.00  0.00     0.037 A 
BRANCH  42  56
ATOM     56  C   UNL     1      12.236   7.734   1.269  1.00  0.00     0.057 A 
ATOM     57  C   UNL     1      11.807   8.738   2.146  1.00  0.00     0.134 A 
ATOM     58  C   UNL     1      12.634   8.123  -0.016  1.00  0.00     0.134 A 
ATOM     59  F   UNL     1      11.399   8.428   3.386  1.00  0.00    -0.206 F 
ATOM     60  C   UNL     1      11.759  10.077   1.754  1.00  0.00     0.040 A 
ATOM     61  C   UNL     1      12.611   9.461  -0.413  1.00  0.00     0.040 A 
ATOM     62  F   UNL     1      13.057   7.211  -0.904  1.00  0.00    -0.206 F 
ATOM     63  C   UNL     1      12.168  10.442   0.472  1.00  0.00     0.006 A 
ENDBRANCH  42  56
BRANCH  43  64
ATOM     64  C   UNL     1      12.209  -1.889   3.894  1.00  0.00     0.057 A 
ATOM     65  C   UNL     1      12.656  -2.307   5.152  1.00  0.00     0.134 A 
ATOM     66  C   UNL     1      11.797  -2.879   2.993  1.00  0.00     0.134 A 
ATOM     67  F   UNL     1      13.086  -1.407   6.049  1.00  0.00    -0.206 F 
ATOM     68  C   UNL     1      12.708  -3.658   5.497  1.00  0.00     0.040 A 
ATOM     69  C   UNL     1      11.822  -4.232   3.333  1.00  0.00     0.040 A 
ATOM     70  F   UNL     1      11.359  -2.542   1.771  1.00  0.00    -0.206 F 
ATOM     71  C   UNL     1      12.285  -4.625   4.587  1.00  0.00     0.006 A 
ENDBRANCH  43  64
BRANCH  55  72
ATOM     72  C   UNL     1      17.251   2.762   2.713  1.00  0.00     0.057 A 
ATOM     73  C   UNL     1      17.988   2.105   1.720  1.00  0.00     0.134 A 
ATOM     74  C   UNL     1      17.965   3.375   3.751  1.00  0.00     0.134 A 
ATOM     75  F   UNL     1      17.363   1.487   0.707  1.00  0.00    -0.206 F 
ATOM     76  C   UNL     1      19.382   2.043   1.768  1.00  0.00     0.040 A 
ATOM     77  C   UNL     1      19.359   3.341   3.797  1.00  0.00     0.040 A 
ATOM     78  F   UNL     1      17.319   4.029   4.729  1.00  0.00    -0.206 F 
ATOM     79  C   UNL     1      20.071   2.669   2.806  1.00  0.00     0.006 A 
ENDBRANCH  55  72
ENDBRANCH  29  30
ENDBRANCH  22  24
ENDBRANCH  21  22
ENDBRANCH  20  21
ENDBRANCH  19  20
ENDBRANCH   1  19
TORSDOF 16
