REMARK SMILES [NH3+][C@H]1C=C[C@@H](C(=O)N2CCC(CC(=O)OCCOCCOC(=O)c3ccc(-c4c5nc(c(-c6c(F)cccc6F)c6ccc([nH]6)c(-c6c(F)cccc6F)c6nc(c(-c7c(F)cccc7F)c7ccc4[nH]7)C=C6)C=C5)cc3)CC2)C1
REMARK SMILES IDX 17 1 16 2 15 3 13 4 14 5 12 6 11 7 6 8 7 9 8 10 9 11 79 12
REMARK SMILES IDX 10 13 78 14 5 15 2 16 3 17 80 18 4 19 1 20 18 24 19 25 20 26
REMARK SMILES IDX 21 27 22 28 23 29 24 30 25 31 77 32 26 33 76 34 27 35 28 36
REMARK SMILES IDX 29 37 70 38 30 39 75 40 69 41 71 42 31 43 74 44 68 45 67 46
REMARK SMILES IDX 32 48 58 49 41 50 57 51 42 52 45 53 56 54 72 55 43 56 44 57
REMARK SMILES IDX 55 59 73 60 46 61 33 62 34 63 39 64 35 65 36 66 38 67 40 68
REMARK SMILES IDX 37 69 59 70 60 71 65 72 61 73 62 74 64 75 66 76 63 77 47 78
REMARK SMILES IDX 48 79 53 80 49 81 50 82 52 83 54 84 51 85
REMARK H PARENT 1 21 1 22 1 23 71 47 45 58
REMARK Flexibility Score: inf
ROOT
ATOM      1  C   UNL     1       8.661  -7.884   1.001  1.00  0.00     0.202 C 
ENDROOT
BRANCH   1   2
ATOM      2  C   UNL     1       7.510  -8.779   1.464  1.00  0.00     0.261 C 
BRANCH   2   3
ATOM      3  O   UNL     1       6.255  -8.072   1.399  1.00  0.00    -0.463 OA
BRANCH   3   4
ATOM      4  C   UNL     1       5.581  -7.923   2.565  1.00  0.00     0.306 C 
ATOM      5  O   UNL     1       5.930  -8.392   3.641  1.00  0.00    -0.252 OA
BRANCH   4   6
ATOM      6  C   UNL     1       4.289  -7.148   2.401  1.00  0.00     0.126 C 
BRANCH   6   7
ATOM      7  C   UNL     1       4.301  -5.906   1.485  1.00  0.00     0.003 C 
ATOM      8  C   UNL     1       1.687  -4.479  -1.136  1.00  0.00     0.229 C 
ATOM      9  O   UNL     1       1.405  -5.609  -1.552  1.00  0.00    -0.274 OA
ATOM     10  N   UNL     1       2.888  -4.255  -0.473  1.00  0.00    -0.342 N 
ATOM     11  C   UNL     1       4.040  -5.043  -0.889  1.00  0.00     0.120 C 
ATOM     12  C   UNL     1       2.957  -3.800   0.906  1.00  0.00     0.120 C 
ATOM     13  C   UNL     1       4.232  -6.277  -0.008  1.00  0.00     0.026 C 
ATOM     14  C   UNL     1       3.110  -4.993   1.855  1.00  0.00     0.026 C 
BRANCH   8  15
ATOM     15  C   UNL     1       0.831  -3.279  -1.590  1.00  0.00     0.107 C 
ATOM     16  C   UNL     1       0.437  -0.899  -1.094  1.00  0.00     0.205 C 
ATOM     17  C   UNL     1       1.429  -1.080  -2.188  1.00  0.00     0.033 C 
ATOM     18  C   UNL     1       0.190  -2.328  -0.576  1.00  0.00     0.087 C 
ATOM     19  C   UNL     1       1.640  -2.368  -2.469  1.00  0.00    -0.012 C 
BRANCH  16  20
ATOM     20  N   UNL     1       0.957  -0.006  -0.074  1.00  0.00    -0.352 N 
ATOM     21  H   UNL     1       1.100   0.921  -0.475  1.00  0.00     0.345 HD
ATOM     22  H   UNL     1       1.846  -0.367   0.272  1.00  0.00     0.345 HD
ATOM     23  H   UNL     1       0.292   0.055   0.696  1.00  0.00     0.345 HD
ENDBRANCH  16  20
ENDBRANCH   8  15
ENDBRANCH   6   7
ENDBRANCH   4   6
ENDBRANCH   3   4
ENDBRANCH   2   3
ENDBRANCH   1   2
BRANCH   1  24
ATOM     24  O   UNL     1       9.065  -6.874   1.927  1.00  0.00    -0.374 OA
BRANCH  24  25
ATOM     25  C   UNL     1       8.237  -5.717   2.022  1.00  0.00     0.202 C 
BRANCH  25  26
ATOM     26  C   UNL     1       8.470  -4.645   0.951  1.00  0.00     0.261 C 
BRANCH  26  27
ATOM     27  O   UNL     1       8.109  -5.107  -0.365  1.00  0.00    -0.460 OA
BRANCH  27  28
ATOM     28  C   UNL     1       9.158  -5.333  -1.191  1.00  0.00     0.338 C 
ATOM     29  O   UNL     1      10.341  -5.105  -0.967  1.00  0.00    -0.246 OA
BRANCH  28  30
ATOM     30  C   UNL     1       8.717  -6.067  -2.390  1.00  0.00     0.060 A 
ATOM     31  C   UNL     1       9.432  -7.220  -2.741  1.00  0.00     0.016 A 
ATOM     32  C   UNL     1       7.678  -5.603  -3.201  1.00  0.00     0.016 A 
ATOM     33  C   UNL     1       9.146  -7.886  -3.931  1.00  0.00     0.010 A 
ATOM     34  C   UNL     1       7.399  -6.269  -4.400  1.00  0.00     0.010 A 
ATOM     35  C   UNL     1       8.154  -7.391  -4.787  1.00  0.00    -0.014 A 
BRANCH  35  36
ATOM     36  C   UNL     1       8.009  -7.957  -6.150  1.00  0.00     0.031 A 
ATOM     37  C   UNL     1       8.639  -7.234  -7.309  1.00  0.00     0.074 A 
ATOM     38  C   UNL     1       7.339  -9.104  -6.356  1.00  0.00     0.049 A 
ATOM     39  N   UNL     1       8.579  -7.505  -8.588  1.00  0.00    -0.248 NA
ATOM     40  C   UNL     1       9.442  -6.045  -6.982  1.00  0.00     0.031 C 
ATOM     41  C   UNL     1       6.718  -9.919  -5.313  1.00  0.00     0.029 A 
ATOM     42  N   UNL     1       7.056  -9.773  -7.521  1.00  0.00    -0.354 N 
ATOM     43  C   UNL     1       9.320  -6.513  -9.218  1.00  0.00     0.074 A 
ATOM     44  C   UNL     1       9.807  -5.625  -8.185  1.00  0.00     0.031 C 
ATOM     45  C   UNL     1       6.105 -10.968  -5.889  1.00  0.00     0.029 A 
ATOM     46  C   UNL     1       6.262 -10.879  -7.340  1.00  0.00     0.049 A 
ATOM     47  H   UNL     1       7.389  -9.486  -8.402  1.00  0.00     0.167 HD
ATOM     48  C   UNL     1       9.575  -6.359 -10.539  1.00  0.00     0.037 A 
ATOM     49  C   UNL     1       5.701 -11.705  -8.245  1.00  0.00     0.037 A 
ATOM     50  C   UNL     1       9.104  -7.251 -11.565  1.00  0.00     0.049 A 
ATOM     51  C   UNL     1       5.949 -11.478  -9.713  1.00  0.00     0.074 A 
ATOM     52  C   UNL     1       9.344  -7.199 -12.927  1.00  0.00     0.029 A 
ATOM     53  N   UNL     1       8.291  -8.351 -11.342  1.00  0.00    -0.354 N 
ATOM     54  N   UNL     1       6.678 -10.557 -10.295  1.00  0.00    -0.248 NA
ATOM     55  C   UNL     1       5.295 -12.405 -10.649  1.00  0.00     0.031 C 
ATOM     56  C   UNL     1       8.637  -8.241 -13.534  1.00  0.00     0.029 A 
ATOM     57  C   UNL     1       7.996  -8.969 -12.545  1.00  0.00     0.049 A 
ATOM     58  H   UNL     1       7.971  -8.649 -10.460  1.00  0.00     0.167 HD
ATOM     59  C   UNL     1       6.593 -10.810 -11.659  1.00  0.00     0.074 A 
ATOM     60  C   UNL     1       5.748 -11.974 -11.819  1.00  0.00     0.031 C 
ATOM     61  C   UNL     1       7.166 -10.137 -12.687  1.00  0.00     0.037 A 
BRANCH  48  62
ATOM     62  C   UNL     1      10.379  -5.166 -10.957  1.00  0.00     0.057 A 
ATOM     63  C   UNL     1      11.760  -5.088 -10.738  1.00  0.00     0.134 A 
ATOM     64  C   UNL     1       9.769  -4.101 -11.633  1.00  0.00     0.134 A 
ATOM     65  F   UNL     1      12.401  -6.069 -10.085  1.00  0.00    -0.206 F 
ATOM     66  C   UNL     1      12.504  -3.986 -11.164  1.00  0.00     0.040 A 
ATOM     67  C   UNL     1      10.505  -3.005 -12.084  1.00  0.00     0.040 A 
ATOM     68  F   UNL     1       8.450  -4.117 -11.878  1.00  0.00    -0.206 F 
ATOM     69  C   UNL     1      11.877  -2.944 -11.846  1.00  0.00     0.006 A 
ENDBRANCH  48  62
BRANCH  49  70
ATOM     70  C   UNL     1       4.818 -12.809  -7.793  1.00  0.00     0.057 A 
ATOM     71  C   UNL     1       5.203 -14.148  -7.917  1.00  0.00     0.134 A 
ATOM     72  C   UNL     1       3.554 -12.549  -7.248  1.00  0.00     0.134 A 
ATOM     73  F   UNL     1       6.391 -14.462  -8.455  1.00  0.00    -0.206 F 
ATOM     74  C   UNL     1       4.358 -15.191  -7.531  1.00  0.00     0.040 A 
ATOM     75  C   UNL     1       2.709 -13.580  -6.835  1.00  0.00     0.040 A 
ATOM     76  F   UNL     1       3.126 -11.286  -7.104  1.00  0.00    -0.206 F 
ATOM     77  C   UNL     1       3.108 -14.906  -6.984  1.00  0.00     0.006 A 
ENDBRANCH  49  70
BRANCH  61  78
ATOM     78  C   UNL     1       6.937 -10.662 -14.074  1.00  0.00     0.057 A 
ATOM     79  C   UNL     1       5.715 -10.492 -14.735  1.00  0.00     0.134 A 
ATOM     80  C   UNL     1       7.975 -11.285 -14.779  1.00  0.00     0.134 A 
ATOM     81  F   UNL     1       4.679  -9.913 -14.111  1.00  0.00    -0.206 F 
ATOM     82  C   UNL     1       5.530 -10.934 -16.047  1.00  0.00     0.040 A 
ATOM     83  C   UNL     1       7.809 -11.710 -16.097  1.00  0.00     0.040 A 
ATOM     84  F   UNL     1       9.174 -11.469 -14.204  1.00  0.00    -0.206 F 
ATOM     85  C   UNL     1       6.582 -11.537 -16.734  1.00  0.00     0.006 A 
ENDBRANCH  61  78
ENDBRANCH  35  36
ENDBRANCH  28  30
ENDBRANCH  27  28
ENDBRANCH  26  27
ENDBRANCH  25  26
ENDBRANCH  24  25
ENDBRANCH   1  24
TORSDOF 17
