REMARK SMILES Cc1ccc(S(=O)(=O)Nc2cc(C(=O)OCCOCCOC(=O)c3ccc(-c4c5nc(c(-c6c(F)cccc6F)c6ccc([nH]6)c(-c6c(F)cccc6F)c6nc(c(-c7c(F)cccc7F)c7ccc4[nH]7)C=C6)C=C5)cc3)cnc2N2CCCC2)c(C)c1
REMARK SMILES IDX 17 1 16 2 15 3 13 4 14 5 12 6 10 7 11 8 80 9 79 10 78 11
REMARK SMILES IDX 9 12 6 14 7 15 8 16 5 17 1 18 2 19 3 20 88 21 4 22 86 23
REMARK SMILES IDX 87 24 81 25 82 26 85 27 83 28 84 29 18 30 19 31 20 32 21 33
REMARK SMILES IDX 22 34 23 35 24 36 25 37 77 38 26 39 76 40 27 41 28 42 29 43
REMARK SMILES IDX 70 44 30 45 75 46 69 47 71 48 31 49 74 50 68 51 67 52 32 54
REMARK SMILES IDX 58 55 41 56 57 57 42 58 45 59 56 60 72 61 43 62 44 63 55 65
REMARK SMILES IDX 73 66 46 67 33 68 34 69 39 70 35 71 36 72 38 73 40 74 37 75
REMARK SMILES IDX 59 76 60 77 65 78 61 79 62 80 64 81 66 82 63 83 47 84 48 85
REMARK SMILES IDX 53 86 49 87 50 88 52 89 54 90 51 91
REMARK H PARENT 9 13 71 53 45 64
REMARK Flexibility Score: inf
ROOT
ATOM      1  C   UNL     1       3.889  -2.866   3.882  1.00  0.00     0.202 C 
ENDROOT
BRANCH   1   2
ATOM      2  C   UNL     1       3.572  -2.145   2.570  1.00  0.00     0.261 C 
BRANCH   2   3
ATOM      3  O   UNL     1       2.373  -2.660   1.970  1.00  0.00    -0.460 OA
BRANCH   3   4
ATOM      4  C   UNL     1       2.541  -3.298   0.790  1.00  0.00     0.339 C 
ATOM      5  O   UNL     1       3.581  -3.403   0.153  1.00  0.00    -0.246 OA
BRANCH   4   6
ATOM      6  C   UNL     1       1.291  -3.949   0.367  1.00  0.00     0.080 A 
ATOM      7  C   UNL     1      -1.081  -4.011   0.102  1.00  0.00     0.092 A 
ATOM      8  C   UNL     1       0.033  -3.516   0.775  1.00  0.00     0.048 A 
ATOM      9  C   UNL     1      -0.930  -5.062  -0.835  1.00  0.00     0.153 A 
ATOM     10  N   UNL     1       0.288  -5.556  -1.144  1.00  0.00    -0.236 NA
ATOM     11  C   UNL     1       1.367  -4.971  -0.569  1.00  0.00     0.129 A 
BRANCH   7  12
ATOM     12  N   UNL     1      -2.377  -3.450   0.368  1.00  0.00    -0.276 N 
ATOM     13  H   UNL     1      -3.026  -3.976   0.888  1.00  0.00     0.180 HD
BRANCH  12  14
ATOM     14  S   UNL     1      -2.827  -1.897  -0.190  1.00  0.00     0.262 S 
ATOM     15  O   UNL     1      -3.595  -1.361   0.917  1.00  0.00    -0.201 OA
ATOM     16  O   UNL     1      -3.450  -2.067  -1.485  1.00  0.00    -0.201 OA
BRANCH  14  17
ATOM     17  C   UNL     1      -1.409  -0.832  -0.455  1.00  0.00     0.090 A 
ATOM     18  C   UNL     1       2.350   1.265  -0.243  1.00  0.00     0.044 C 
ATOM     19  C   UNL     1       1.030   0.569  -0.393  1.00  0.00    -0.051 A 
ATOM     20  C   UNL     1       0.927  -0.631  -1.095  1.00  0.00     0.005 A 
ATOM     21  C   UNL     1      -0.141   1.155   0.097  1.00  0.00     0.008 A 
ATOM     22  C   UNL     1      -0.296  -1.308  -1.157  1.00  0.00     0.023 A 
ATOM     23  C   UNL     1      -1.379   0.486   0.033  1.00  0.00    -0.030 A 
ATOM     24  C   UNL     1      -2.598   1.288   0.399  1.00  0.00     0.046 C 
ENDBRANCH  14  17
ENDBRANCH  12  14
ENDBRANCH   7  12
BRANCH   9  25
ATOM     25  N   UNL     1      -2.051  -5.600  -1.451  1.00  0.00    -0.355 N 
ATOM     26  C   UNL     1      -2.475  -4.994  -2.707  1.00  0.00     0.118 C 
ATOM     27  C   UNL     1      -2.117  -7.056  -1.612  1.00  0.00     0.118 C 
ATOM     28  C   UNL     1      -3.661  -5.871  -3.074  1.00  0.00     0.023 C 
ATOM     29  C   UNL     1      -3.184  -7.270  -2.698  1.00  0.00     0.023 C 
ENDBRANCH   9  25
ENDBRANCH   4   6
ENDBRANCH   3   4
ENDBRANCH   2   3
ENDBRANCH   1   2
BRANCH   1  30
ATOM     30  O   UNL     1       4.265  -4.240   3.796  1.00  0.00    -0.374 OA
BRANCH  30  31
ATOM     31  C   UNL     1       3.260  -5.198   3.472  1.00  0.00     0.202 C 
BRANCH  31  32
ATOM     32  C   UNL     1       2.264  -5.594   4.569  1.00  0.00     0.261 C 
BRANCH  32  33
ATOM     33  O   UNL     1       1.615  -4.472   5.184  1.00  0.00    -0.460 OA
BRANCH  33  34
ATOM     34  C   UNL     1       2.059  -4.202   6.435  1.00  0.00     0.338 C 
ATOM     35  O   UNL     1       2.870  -4.843   7.087  1.00  0.00    -0.246 OA
BRANCH  34  36
ATOM     36  C   UNL     1       1.549  -2.900   6.897  1.00  0.00     0.060 A 
ATOM     37  C   UNL     1       2.494  -1.986   7.378  1.00  0.00     0.016 A 
ATOM     38  C   UNL     1       0.183  -2.611   6.957  1.00  0.00     0.016 A 
ATOM     39  C   UNL     1       2.073  -0.805   7.980  1.00  0.00     0.010 A 
ATOM     40  C   UNL     1      -0.238  -1.422   7.567  1.00  0.00     0.010 A 
ATOM     41  C   UNL     1       0.704  -0.537   8.119  1.00  0.00    -0.014 A 
BRANCH  41  42
ATOM     42  C   UNL     1       0.296   0.612   8.961  1.00  0.00     0.031 A 
ATOM     43  C   UNL     1      -0.096   0.378  10.393  1.00  0.00     0.074 A 
ATOM     44  C   UNL     1       0.363   1.864   8.478  1.00  0.00     0.049 A 
ATOM     45  N   UNL     1      -0.351   1.249  11.336  1.00  0.00    -0.248 NA
ATOM     46  C   UNL     1      -0.215  -1.025  10.819  1.00  0.00     0.031 C 
ATOM     47  C   UNL     1       0.733   2.220   7.110  1.00  0.00     0.029 A 
ATOM     48  N   UNL     1       0.135   3.068   9.094  1.00  0.00    -0.354 N 
ATOM     49  C   UNL     1      -0.645   0.502  12.469  1.00  0.00     0.074 A 
ATOM     50  C   UNL     1      -0.585  -0.892  12.084  1.00  0.00     0.031 C 
ATOM     51  C   UNL     1       0.712   3.558   6.990  1.00  0.00     0.029 A 
ATOM     52  C   UNL     1       0.322   4.149   8.269  1.00  0.00     0.049 A 
ATOM     53  H   UNL     1      -0.136   3.150  10.037  1.00  0.00     0.167 HD
ATOM     54  C   UNL     1      -0.924   0.936  13.722  1.00  0.00     0.037 A 
ATOM     55  C   UNL     1       0.199   5.466   8.520  1.00  0.00     0.037 A 
ATOM     56  C   UNL     1      -1.000   2.322  14.103  1.00  0.00     0.049 A 
ATOM     57  C   UNL     1      -0.136   5.928   9.911  1.00  0.00     0.074 A 
ATOM     58  C   UNL     1      -1.262   2.864  15.350  1.00  0.00     0.029 A 
ATOM     59  N   UNL     1      -0.826   3.389  13.234  1.00  0.00    -0.354 N 
ATOM     60  N   UNL     1      -0.359   5.214  10.988  1.00  0.00    -0.248 NA
ATOM     61  C   UNL     1      -0.215   7.379  10.124  1.00  0.00     0.031 C 
ATOM     62  C   UNL     1      -1.288   4.258  15.225  1.00  0.00     0.029 A 
ATOM     63  C   UNL     1      -0.995   4.586  13.911  1.00  0.00     0.049 A 
ATOM     64  H   UNL     1      -0.614   3.308  12.276  1.00  0.00     0.167 HD
ATOM     65  C   UNL     1      -0.585   6.127  12.011  1.00  0.00     0.074 A 
ATOM     66  C   UNL     1      -0.455   7.447  11.427  1.00  0.00     0.031 C 
ATOM     67  C   UNL     1      -0.872   5.893  13.316  1.00  0.00     0.037 A 
BRANCH  54  68
ATOM     68  C   UNL     1      -1.185  -0.113  14.764  1.00  0.00     0.057 A 
ATOM     69  C   UNL     1      -0.160  -0.927  15.265  1.00  0.00     0.134 A 
ATOM     70  C   UNL     1      -2.475  -0.312  15.272  1.00  0.00     0.134 A 
ATOM     71  F   UNL     1       1.095  -0.797  14.810  1.00  0.00    -0.206 F 
ATOM     72  C   UNL     1      -0.415  -1.923  16.210  1.00  0.00     0.040 A 
ATOM     73  C   UNL     1      -2.737  -1.288  16.235  1.00  0.00     0.040 A 
ATOM     74  F   UNL     1      -3.501   0.435  14.839  1.00  0.00    -0.206 F 
ATOM     75  C   UNL     1      -1.707  -2.103  16.700  1.00  0.00     0.006 A 
ENDBRANCH  54  68
BRANCH  55  76
ATOM     76  C   UNL     1       0.419   6.439   7.423  1.00  0.00     0.057 A 
ATOM     77  C   UNL     1       1.564   7.241   7.378  1.00  0.00     0.134 A 
ATOM     78  C   UNL     1      -0.505   6.569   6.380  1.00  0.00     0.134 A 
ATOM     79  F   UNL     1       2.476   7.172   8.359  1.00  0.00    -0.206 F 
ATOM     80  C   UNL     1       1.780   8.146   6.337  1.00  0.00     0.040 A 
ATOM     81  C   UNL     1      -0.292   7.454   5.322  1.00  0.00     0.040 A 
ATOM     82  F   UNL     1      -1.619   5.823   6.365  1.00  0.00    -0.206 F 
ATOM     83  C   UNL     1       0.853   8.248   5.301  1.00  0.00     0.006 A 
ENDBRANCH  55  76
BRANCH  67  84
ATOM     84  C   UNL     1      -1.045   7.093  14.202  1.00  0.00     0.057 A 
ATOM     85  C   UNL     1      -2.173   7.920  14.116  1.00  0.00     0.134 A 
ATOM     86  C   UNL     1      -0.081   7.413  15.166  1.00  0.00     0.134 A 
ATOM     87  F   UNL     1      -3.127   7.675  13.205  1.00  0.00    -0.206 F 
ATOM     88  C   UNL     1      -2.321   9.040  14.936  1.00  0.00     0.040 A 
ATOM     89  C   UNL     1      -0.230   8.515  16.009  1.00  0.00     0.040 A 
ATOM     90  F   UNL     1       1.018   6.658  15.308  1.00  0.00    -0.206 F 
ATOM     91  C   UNL     1      -1.349   9.337  15.890  1.00  0.00     0.006 A 
ENDBRANCH  67  84
ENDBRANCH  41  42
ENDBRANCH  34  36
ENDBRANCH  33  34
ENDBRANCH  32  33
ENDBRANCH  31  32
ENDBRANCH  30  31
ENDBRANCH   1  30
TORSDOF 18
