REMARK SMILES CCCC[C@@H](C(=O)OCCOCCOC(=O)c1ccc(-c2c3nc(c(-c4c(F)cccc4F)c4ccc([nH]4)c(-c4c(F)cccc4F)c4nc(c(-c5c(F)cccc5F)c5ccc2[nH]5)C=C4)C=C3)cc1)[C@@H](O)c1cccc(C(F)(F)F)c1
REMARK SMILES IDX 10 1 9 2 8 3 6 4 7 5 5 6 4 7 3 8 2 9 1 10 71 11 72 12 73 14
REMARK SMILES IDX 74 15 82 16 75 17 77 18 76 19 78 20 79 21 80 22 81 23 11 24
REMARK SMILES IDX 12 25 13 26 14 27 15 28 16 29 17 30 18 31 70 32 19 33 69 34
REMARK SMILES IDX 20 35 21 36 22 37 63 38 23 39 68 40 62 41 64 42 24 43 67 44
REMARK SMILES IDX 61 45 60 46 25 48 51 49 34 50 50 51 35 52 38 53 49 54 65 55
REMARK SMILES IDX 36 56 37 57 48 59 66 60 39 61 26 62 27 63 32 64 28 65 29 66
REMARK SMILES IDX 31 67 33 68 30 69 52 70 53 71 58 72 54 73 55 74 57 75 59 76
REMARK SMILES IDX 56 77 40 78 41 79 46 80 42 81 43 82 45 83 47 84 44 85
REMARK H PARENT 72 13 64 47 38 58
REMARK Flexibility Score: inf
ROOT
ATOM      1  C   UNL     1      -1.919   6.240  -0.015  1.00  0.00     0.202 C 
ENDROOT
BRANCH   1   2
ATOM      2  C   UNL     1      -2.368   4.816   0.323  1.00  0.00     0.261 C 
BRANCH   2   3
ATOM      3  O   UNL     1      -1.480   3.876  -0.292  1.00  0.00    -0.463 OA
BRANCH   3   4
ATOM      4  C   UNL     1      -1.992   2.640  -0.506  1.00  0.00     0.312 C 
ATOM      5  O   UNL     1      -3.024   2.225   0.005  1.00  0.00    -0.252 OA
BRANCH   4   6
ATOM      6  C   UNL     1      -1.166   1.857  -1.517  1.00  0.00     0.132 C 
BRANCH   6   7
ATOM      7  C   UNL     1       0.358   2.122  -1.445  1.00  0.00     0.018 C 
BRANCH   7   8
ATOM      8  C   UNL     1       1.008   2.106  -0.056  1.00  0.00     0.001 C 
BRANCH   8   9
ATOM      9  C   UNL     1       0.660   0.910   0.826  1.00  0.00    -0.003 C 
ATOM     10  C   UNL     1       1.082  -0.420   0.225  1.00  0.00     0.004 C 
ENDBRANCH   8   9
ENDBRANCH   7   8
ENDBRANCH   6   7
BRANCH   6  11
ATOM     11  C   UNL     1      -1.673   2.117  -2.958  1.00  0.00     0.158 C 
BRANCH  11  12
ATOM     12  O   UNL     1      -1.142   1.120  -3.840  1.00  0.00    -0.388 OA
ATOM     13  H   UNL     1      -1.475   0.247  -3.579  1.00  0.00     0.211 HD
ENDBRANCH  11  12
BRANCH  11  14
ATOM     14  C   UNL     1      -3.178   2.095  -3.113  1.00  0.00    -0.018 A 
ATOM     15  C   UNL     1      -3.889   3.291  -3.300  1.00  0.00     0.006 A 
ATOM     16  C   UNL     1      -3.893   0.893  -3.000  1.00  0.00     0.019 A 
ATOM     17  C   UNL     1      -5.283   3.288  -3.346  1.00  0.00     0.001 A 
ATOM     18  C   UNL     1      -5.296   0.879  -3.039  1.00  0.00     0.056 A 
ATOM     19  C   UNL     1      -5.983   2.090  -3.208  1.00  0.00     0.013 A 
BRANCH  18  20
ATOM     20  C   UNL     1      -6.060  -0.407  -2.857  1.00  0.00     0.416 C 
ATOM     21  F   UNL     1      -6.723  -0.455  -1.667  1.00  0.00    -0.166 F 
ATOM     22  F   UNL     1      -7.009  -0.594  -3.817  1.00  0.00    -0.166 F 
ATOM     23  F   UNL     1      -5.277  -1.522  -2.890  1.00  0.00    -0.166 F 
ENDBRANCH  18  20
ENDBRANCH  11  14
ENDBRANCH   6  11
ENDBRANCH   4   6
ENDBRANCH   3   4
ENDBRANCH   2   3
ENDBRANCH   1   2
BRANCH   1  24
ATOM     24  O   UNL     1      -1.842   6.566  -1.405  1.00  0.00    -0.374 OA
BRANCH  24  25
ATOM     25  C   UNL     1      -0.824   5.940  -2.186  1.00  0.00     0.202 C 
BRANCH  25  26
ATOM     26  C   UNL     1       0.627   6.379  -1.952  1.00  0.00     0.261 C 
BRANCH  26  27
ATOM     27  O   UNL     1       1.090   6.118  -0.615  1.00  0.00    -0.460 OA
BRANCH  27  28
ATOM     28  C   UNL     1       1.401   7.229   0.094  1.00  0.00     0.338 C 
ATOM     29  O   UNL     1       1.391   8.388  -0.303  1.00  0.00    -0.246 OA
BRANCH  28  30
ATOM     30  C   UNL     1       1.614   6.903   1.513  1.00  0.00     0.060 A 
ATOM     31  C   UNL     1       0.810   7.564   2.451  1.00  0.00     0.016 A 
ATOM     32  C   UNL     1       2.654   6.070   1.930  1.00  0.00     0.016 A 
ATOM     33  C   UNL     1       1.075   7.436   3.811  1.00  0.00     0.010 A 
ATOM     34  C   UNL     1       2.925   5.950   3.299  1.00  0.00     0.010 A 
ATOM     35  C   UNL     1       2.162   6.664   4.242  1.00  0.00    -0.014 A 
BRANCH  35  36
ATOM     36  C   UNL     1       2.580   6.735   5.664  1.00  0.00     0.031 A 
ATOM     37  C   UNL     1       3.723   7.635   6.047  1.00  0.00     0.074 A 
ATOM     38  C   UNL     1       1.919   6.045   6.610  1.00  0.00     0.049 A 
ATOM     39  N   UNL     1       4.256   7.845   7.224  1.00  0.00    -0.248 NA
ATOM     40  C   UNL     1       4.348   8.402   4.958  1.00  0.00     0.031 C 
ATOM     41  C   UNL     1       0.772   5.171   6.371  1.00  0.00     0.029 A 
ATOM     42  N   UNL     1       2.124   5.972   7.965  1.00  0.00    -0.354 N 
ATOM     43  C   UNL     1       5.281   8.759   7.016  1.00  0.00     0.074 A 
ATOM     44  C   UNL     1       5.314   9.045   5.598  1.00  0.00     0.031 C 
ATOM     45  C   UNL     1       0.380   4.639   7.542  1.00  0.00     0.029 A 
ATOM     46  C   UNL     1       1.265   5.114   8.605  1.00  0.00     0.049 A 
ATOM     47  H   UNL     1       2.821   6.485   8.433  1.00  0.00     0.167 HD
ATOM     48  C   UNL     1       6.114   9.318   7.927  1.00  0.00     0.037 A 
ATOM     49  C   UNL     1       1.212   4.739   9.898  1.00  0.00     0.037 A 
ATOM     50  C   UNL     1       6.076   9.041   9.339  1.00  0.00     0.049 A 
ATOM     51  C   UNL     1       2.188   5.329  10.881  1.00  0.00     0.074 A 
ATOM     52  C   UNL     1       6.861   9.579  10.344  1.00  0.00     0.029 A 
ATOM     53  N   UNL     1       5.210   8.144   9.944  1.00  0.00    -0.354 N 
ATOM     54  N   UNL     1       3.133   6.215  10.678  1.00  0.00    -0.248 NA
ATOM     55  C   UNL     1       2.087   4.869  12.274  1.00  0.00     0.031 C 
ATOM     56  C   UNL     1       6.503   8.970  11.551  1.00  0.00     0.029 A 
ATOM     57  C   UNL     1       5.461   8.091  11.305  1.00  0.00     0.049 A 
ATOM     58  H   UNL     1       4.520   7.621   9.476  1.00  0.00     0.167 HD
ATOM     59  C   UNL     1       3.719   6.438  11.919  1.00  0.00     0.074 A 
ATOM     60  C   UNL     1       3.015   5.604  12.870  1.00  0.00     0.031 C 
ATOM     61  C   UNL     1       4.747   7.261  12.241  1.00  0.00     0.037 A 
BRANCH  48  62
ATOM     62  C   UNL     1       7.157  10.270   7.419  1.00  0.00     0.057 A 
ATOM     63  C   UNL     1       6.833  11.557   6.972  1.00  0.00     0.134 A 
ATOM     64  C   UNL     1       8.509   9.905   7.413  1.00  0.00     0.134 A 
ATOM     65  F   UNL     1       5.554  11.963   6.938  1.00  0.00    -0.206 F 
ATOM     66  C   UNL     1       7.814  12.440   6.519  1.00  0.00     0.040 A 
ATOM     67  C   UNL     1       9.502  10.788   6.986  1.00  0.00     0.040 A 
ATOM     68  F   UNL     1       8.889   8.688   7.833  1.00  0.00    -0.206 F 
ATOM     69  C   UNL     1       9.155  12.059   6.532  1.00  0.00     0.006 A 
ENDBRANCH  48  62
BRANCH  49  70
ATOM     70  C   UNL     1       0.208   3.738  10.340  1.00  0.00     0.057 A 
ATOM     71  C   UNL     1      -0.855   4.093  11.177  1.00  0.00     0.134 A 
ATOM     72  C   UNL     1       0.304   2.396   9.952  1.00  0.00     0.134 A 
ATOM     73  F   UNL     1      -0.986   5.358  11.602  1.00  0.00    -0.206 F 
ATOM     74  C   UNL     1      -1.777   3.147  11.628  1.00  0.00     0.040 A 
ATOM     75  C   UNL     1      -0.625   1.444  10.375  1.00  0.00     0.040 A 
ATOM     76  F   UNL     1       1.301   1.992   9.151  1.00  0.00    -0.206 F 
ATOM     77  C   UNL     1      -1.665   1.818  11.222  1.00  0.00     0.006 A 
ENDBRANCH  49  70
BRANCH  61  78
ATOM     78  C   UNL     1       5.151   7.326  13.686  1.00  0.00     0.057 A 
ATOM     79  C   UNL     1       5.835   6.276  14.311  1.00  0.00     0.134 A 
ATOM     80  C   UNL     1       4.888   8.472  14.448  1.00  0.00     0.134 A 
ATOM     81  F   UNL     1       6.107   5.146  13.640  1.00  0.00    -0.206 F 
ATOM     82  C   UNL     1       6.223   6.354  15.650  1.00  0.00     0.040 A 
ATOM     83  C   UNL     1       5.294   8.572  15.779  1.00  0.00     0.040 A 
ATOM     84  F   UNL     1       4.246   9.518  13.906  1.00  0.00    -0.206 F 
ATOM     85  C   UNL     1       5.958   7.508  16.386  1.00  0.00     0.006 A 
ENDBRANCH  61  78
ENDBRANCH  35  36
ENDBRANCH  28  30
ENDBRANCH  27  28
ENDBRANCH  26  27
ENDBRANCH  25  26
ENDBRANCH  24  25
ENDBRANCH   1  24
TORSDOF 21
