REMARK SMILES O=C(OCCOCCOC(=O)[C@H]1C[C@@H](O)CN1C(=O)C[C@@H]1CSCC[NH2+]1)c1ccc(-c2c3nc(c(-c4c(F)cccc4F)c4ccc([nH]4)c(-c4c(F)cccc4F)c4nc(c(-c5c(F)cccc5F)c5ccc2[nH]5)C=C4)C=C3)cc1
REMARK SMILES IDX 7 1 6 2 5 3 4 4 3 5 2 6 1 7 27 8 28 9 80 10 29 11 79 12
REMARK SMILES IDX 30 13 31 14 32 15 73 16 33 17 78 18 72 19 74 20 34 21 77 22
REMARK SMILES IDX 71 23 70 24 35 26 61 27 44 28 60 29 45 30 48 31 59 32 75 33
REMARK SMILES IDX 46 34 47 35 58 37 76 38 49 39 36 40 37 41 42 42 38 43 39 44
REMARK SMILES IDX 41 45 43 46 40 47 62 48 63 49 68 50 64 51 65 52 67 53 69 54
REMARK SMILES IDX 66 55 50 56 51 57 56 58 52 59 53 60 55 61 57 62 54 63 8 64
REMARK SMILES IDX 9 65 10 66 11 67 12 68 13 69 17 70 14 71 16 72 18 73 19 74
REMARK SMILES IDX 20 75 21 76 22 77 26 78 23 79 25 80 24 83 15 84
REMARK H PARENT 74 25 48 36 26 81 26 82 15 85
REMARK Flexibility Score: inf
ROOT
ATOM      1  C   UNL     1       1.869  -0.286   1.986  1.00  0.00     0.202 C 
ENDROOT
BRANCH   1   2
ATOM      2  O   UNL     1       3.154  -0.320   1.365  1.00  0.00    -0.374 OA
BRANCH   2   3
ATOM      3  C   UNL     1       3.635   0.952   0.927  1.00  0.00     0.202 C 
BRANCH   3   4
ATOM      4  C   UNL     1       3.421   1.196  -0.568  1.00  0.00     0.261 C 
BRANCH   4   5
ATOM      5  O   UNL     1       2.105   0.792  -0.966  1.00  0.00    -0.460 OA
BRANCH   5   6
ATOM      6  C   UNL     1       1.751  -0.404  -1.496  1.00  0.00     0.338 C 
ATOM      7  O   UNL     1       0.565  -0.616  -1.742  1.00  0.00    -0.246 OA
BRANCH   6   8
ATOM      8  C   UNL     1       2.737  -1.468  -1.862  1.00  0.00     0.060 A 
ATOM      9  C   UNL     1       3.892  -1.774  -1.138  1.00  0.00     0.016 A 
ATOM     10  C   UNL     1       2.405  -2.292  -2.950  1.00  0.00     0.016 A 
ATOM     11  C   UNL     1       4.708  -2.841  -1.484  1.00  0.00     0.010 A 
ATOM     12  C   UNL     1       3.195  -3.398  -3.278  1.00  0.00     0.010 A 
ATOM     13  C   UNL     1       4.343  -3.680  -2.531  1.00  0.00    -0.014 A 
BRANCH  13  14
ATOM     14  C   UNL     1       5.185  -4.855  -2.808  1.00  0.00     0.031 A 
ATOM     15  C   UNL     1       6.079  -4.842  -4.002  1.00  0.00     0.074 A 
ATOM     16  C   UNL     1       5.189  -5.875  -1.929  1.00  0.00     0.049 A 
ATOM     17  N   UNL     1       6.809  -5.804  -4.494  1.00  0.00    -0.248 NA
ATOM     18  C   UNL     1       6.173  -3.570  -4.737  1.00  0.00     0.031 C 
ATOM     19  C   UNL     1       4.426  -5.912  -0.676  1.00  0.00     0.029 A 
ATOM     20  N   UNL     1       5.868  -7.063  -1.938  1.00  0.00    -0.354 N 
ATOM     21  C   UNL     1       7.413  -5.271  -5.623  1.00  0.00     0.074 A 
ATOM     22  C   UNL     1       6.987  -3.894  -5.732  1.00  0.00     0.031 C 
ATOM     23  C   UNL     1       4.695  -7.057  -0.031  1.00  0.00     0.029 A 
ATOM     24  C   UNL     1       5.580  -7.865  -0.860  1.00  0.00     0.049 A 
ATOM     25  H   UNL     1       6.501  -7.318  -2.647  1.00  0.00     0.167 HD
ATOM     26  C   UNL     1       8.232  -5.899  -6.497  1.00  0.00     0.037 A 
ATOM     27  C   UNL     1       5.953  -9.133  -0.607  1.00  0.00     0.037 A 
ATOM     28  C   UNL     1       8.639  -7.271  -6.350  1.00  0.00     0.049 A 
ATOM     29  C   UNL     1       6.808  -9.827  -1.631  1.00  0.00     0.074 A 
ATOM     30  C   UNL     1       9.419  -8.039  -7.192  1.00  0.00     0.029 A 
ATOM     31  N   UNL     1       8.290  -8.076  -5.274  1.00  0.00    -0.354 N 
ATOM     32  N   UNL     1       7.318  -9.347  -2.741  1.00  0.00    -0.248 NA
ATOM     33  C   UNL     1       7.111 -11.243  -1.391  1.00  0.00     0.031 C 
ATOM     34  C   UNL     1       9.515  -9.322  -6.640  1.00  0.00     0.029 A 
ATOM     35  C   UNL     1       8.824  -9.341  -5.437  1.00  0.00     0.049 A 
ATOM     36  H   UNL     1       7.743  -7.789  -4.507  1.00  0.00     0.167 HD
ATOM     37  C   UNL     1       7.998 -10.399  -3.334  1.00  0.00     0.074 A 
ATOM     38  C   UNL     1       7.863 -11.535  -2.442  1.00  0.00     0.031 C 
ATOM     39  C   UNL     1       8.662 -10.437  -4.516  1.00  0.00     0.037 A 
BRANCH  26  40
ATOM     40  C   UNL     1       8.658  -5.129  -7.707  1.00  0.00     0.057 A 
ATOM     41  C   UNL     1       9.632  -4.125  -7.651  1.00  0.00     0.134 A 
ATOM     42  C   UNL     1       8.062  -5.385  -8.949  1.00  0.00     0.134 A 
ATOM     43  F   UNL     1      10.218  -3.811  -6.486  1.00  0.00    -0.206 F 
ATOM     44  C   UNL     1       9.987  -3.392  -8.786  1.00  0.00     0.040 A 
ATOM     45  C   UNL     1       8.420  -4.671 -10.093  1.00  0.00     0.040 A 
ATOM     46  F   UNL     1       7.114  -6.327  -9.067  1.00  0.00    -0.206 F 
ATOM     47  C   UNL     1       9.383  -3.666 -10.012  1.00  0.00     0.006 A 
ENDBRANCH  26  40
BRANCH  27  48
ATOM     48  C   UNL     1       5.459  -9.844   0.601  1.00  0.00     0.057 A 
ATOM     49  C   UNL     1       6.332 -10.269   1.607  1.00  0.00     0.134 A 
ATOM     50  C   UNL     1       4.098 -10.139   0.768  1.00  0.00     0.134 A 
ATOM     51  F   UNL     1       7.649 -10.041   1.499  1.00  0.00    -0.206 F 
ATOM     52  C   UNL     1       5.876 -10.973   2.725  1.00  0.00     0.040 A 
ATOM     53  C   UNL     1       3.624 -10.815   1.893  1.00  0.00     0.040 A 
ATOM     54  F   UNL     1       3.204  -9.763  -0.159  1.00  0.00    -0.206 F 
ATOM     55  C   UNL     1       4.516 -11.243   2.872  1.00  0.00     0.006 A 
ENDBRANCH  27  48
BRANCH  39  56
ATOM     56  C   UNL     1       9.286 -11.744  -4.889  1.00  0.00     0.057 A 
ATOM     57  C   UNL     1       8.515 -12.809  -5.369  1.00  0.00     0.134 A 
ATOM     58  C   UNL     1      10.671 -11.922  -4.805  1.00  0.00     0.134 A 
ATOM     59  F   UNL     1       7.181 -12.699  -5.454  1.00  0.00    -0.206 F 
ATOM     60  C   UNL     1       9.103 -14.017  -5.742  1.00  0.00     0.040 A 
ATOM     61  C   UNL     1      11.272 -13.117  -5.196  1.00  0.00     0.040 A 
ATOM     62  F   UNL     1      11.459 -10.933  -4.357  1.00  0.00    -0.206 F 
ATOM     63  C   UNL     1      10.486 -14.170  -5.662  1.00  0.00     0.006 A 
ENDBRANCH  39  56
ENDBRANCH  13  14
ENDBRANCH   6   8
ENDBRANCH   5   6
ENDBRANCH   4   5
ENDBRANCH   3   4
ENDBRANCH   2   3
ENDBRANCH   1   2
BRANCH   1  64
ATOM     64  C   UNL     1       2.014  -0.533   3.488  1.00  0.00     0.261 C 
BRANCH  64  65
ATOM     65  O   UNL     1       2.953   0.406   4.048  1.00  0.00    -0.462 OA
BRANCH  65  66
ATOM     66  C   UNL     1       4.238  -0.041   4.104  1.00  0.00     0.329 C 
ATOM     67  O   UNL     1       4.593  -1.203   3.909  1.00  0.00    -0.250 OA
BRANCH  66  68
ATOM     68  C   UNL     1       5.222   1.096   4.419  1.00  0.00     0.197 C 
ATOM     69  C   UNL     1       6.077   0.710   5.625  1.00  0.00     0.070 C 
ATOM     70  N   UNL     1       6.234   1.238   3.369  1.00  0.00    -0.326 N 
ATOM     71  C   UNL     1       7.205  -0.151   5.026  1.00  0.00     0.136 C 
ATOM     72  C   UNL     1       7.249   0.208   3.532  1.00  0.00     0.152 C 
BRANCH  70  73
ATOM     73  C   UNL     1       6.252   2.311   2.512  1.00  0.00     0.229 C 
ATOM     74  O   UNL     1       5.362   3.166   2.535  1.00  0.00    -0.275 OA
BRANCH  73  75
ATOM     75  C   UNL     1       7.383   2.433   1.507  1.00  0.00     0.166 C 
BRANCH  75  76
ATOM     76  C   UNL     1       8.423   3.553   1.780  1.00  0.00     0.201 C 
ATOM     77  C   UNL     1       9.878   3.033   1.809  1.00  0.00     0.135 C 
ATOM     78  N   UNL     1       8.141   4.513   2.862  1.00  0.00    -0.342 N 
ATOM     79  S   UNL     1      10.346   2.201   3.355  1.00  0.00    -0.150 SA
ATOM     80  C   UNL     1       8.374   4.003   4.216  1.00  0.00     0.271 C 
ATOM     81  H   UNL     1       7.162   4.790   2.792  1.00  0.00     0.346 HD
ATOM     82  H   UNL     1       8.790   5.289   2.732  1.00  0.00     0.346 HD
ATOM     83  C   UNL     1       9.784   3.483   4.512  1.00  0.00     0.131 C 
ENDBRANCH  75  76
ENDBRANCH  73  75
ENDBRANCH  70  73
BRANCH  71  84
ATOM     84  O   UNL     1       6.930  -1.531   5.231  1.00  0.00    -0.391 OA
ATOM     85  H   UNL     1       6.077  -1.755   4.827  1.00  0.00     0.211 HD
ENDBRANCH  71  84
ENDBRANCH  66  68
ENDBRANCH  65  66
ENDBRANCH  64  65
ENDBRANCH   1  64
TORSDOF 18
