REMARK SMILES CCCCCCNC(=O)Oc1cccc(-c2ccc([C@@H](C)C(=O)OCCOCCOC(=O)c3ccc(-c4c5nc(c(-c6c(F)cccc6F)c6ccc([nH]6)c(-c6c(F)cccc6F)c6nc(c(-c7c(F)cccc7F)c7ccc4[nH]7)C=C6)C=C5)cc3)cc2F)c1
REMARK SMILES IDX 22 1 23 2 20 3 21 4 19 5 16 6 17 7 88 8 18 9 87 10 89 11
REMARK SMILES IDX 15 12 11 13 12 14 90 15 13 16 14 17 10 18 8 19 7 20 9 22
REMARK SMILES IDX 6 23 5 24 4 25 3 26 2 27 1 28 24 29 25 30 26 31 27 32 28 33
REMARK SMILES IDX 29 34 30 35 31 36 32 37 33 38 34 39 86 40 35 41 85 42 36 43
REMARK SMILES IDX 37 44 38 45 79 46 39 47 84 48 78 49 80 50 40 51 83 52 77 53
REMARK SMILES IDX 76 54 41 56 67 57 50 58 66 59 51 60 54 61 65 62 81 63 52 64
REMARK SMILES IDX 53 65 64 67 82 68 55 69 42 70 43 71 48 72 44 73 45 74 47 75
REMARK SMILES IDX 49 76 46 77 68 78 69 79 74 80 70 81 71 82 73 83 75 84 72 85
REMARK SMILES IDX 56 86 57 87 62 88 58 89 59 90 61 91 63 92 60 93
REMARK H PARENT 7 21 80 55 54 66
REMARK Flexibility Score: inf
ROOT
ATOM      1  C   UNL     1      -3.961   9.619 -11.554  1.00  0.00     0.313 C 
ATOM      2  O   UNL     1      -3.713   9.477 -12.748  1.00  0.00    -0.252 OA
ENDROOT
BRANCH   1   3
ATOM      3  C   UNL     1      -5.106   8.877 -10.882  1.00  0.00     0.126 C 
ATOM      4  C   UNL     1      -6.418   9.584 -11.210  1.00  0.00     0.025 C 
BRANCH   3   5
ATOM      5  C   UNL     1      -4.983   8.565  -9.393  1.00  0.00    -0.031 A 
ATOM      6  C   UNL     1      -4.961   7.878  -6.618  1.00  0.00     0.018 A 
ATOM      7  C   UNL     1      -4.997   9.218  -7.040  1.00  0.00     0.012 A 
ATOM      8  C   UNL     1      -4.900   6.899  -7.616  1.00  0.00     0.131 A 
ATOM      9  C   UNL     1      -5.008   9.557  -8.403  1.00  0.00     0.005 A 
ATOM     10  C   UNL     1      -4.911   7.227  -8.974  1.00  0.00     0.044 A 
ATOM     11  F   UNL     1      -4.869   5.598  -7.286  1.00  0.00    -0.206 F 
BRANCH   6  12
ATOM     12  C   UNL     1      -5.034   7.523  -5.189  1.00  0.00    -0.012 A 
ATOM     13  C   UNL     1      -4.179   6.360  -3.233  1.00  0.00     0.133 A 
ATOM     14  C   UNL     1      -5.251   6.803  -2.463  1.00  0.00     0.047 A 
ATOM     15  C   UNL     1      -4.072   6.696  -4.586  1.00  0.00     0.056 A 
ATOM     16  C   UNL     1      -6.213   7.622  -3.045  1.00  0.00     0.004 A 
ATOM     17  C   UNL     1      -6.103   7.981  -4.393  1.00  0.00     0.009 A 
BRANCH  13  18
ATOM     18  O   UNL     1      -3.279   5.476  -2.616  1.00  0.00    -0.410 OA
BRANCH  18  19
ATOM     19  C   UNL     1      -1.937   5.825  -2.623  1.00  0.00     0.412 C 
ATOM     20  N   UNL     1      -1.140   4.928  -1.966  1.00  0.00    -0.321 N 
ATOM     21  H   UNL     1      -0.174   5.117  -1.968  1.00  0.00     0.167 HD
ATOM     22  O   UNL     1      -1.456   6.830  -3.137  1.00  0.00    -0.224 OA
BRANCH  20  23
ATOM     23  C   UNL     1      -1.560   3.730  -1.265  1.00  0.00     0.119 C 
BRANCH  23  24
ATOM     24  C   UNL     1      -0.945   2.465  -1.863  1.00  0.00     0.021 C 
BRANCH  24  25
ATOM     25  C   UNL     1       0.584   2.381  -1.771  1.00  0.00     0.002 C 
BRANCH  25  26
ATOM     26  C   UNL     1       1.167   2.409  -0.353  1.00  0.00    -0.000 C 
BRANCH  26  27
ATOM     27  C   UNL     1       0.697   1.288   0.577  1.00  0.00    -0.003 C 
ATOM     28  C   UNL     1       1.091  -0.101   0.098  1.00  0.00     0.004 C 
ENDBRANCH  26  27
ENDBRANCH  25  26
ENDBRANCH  24  25
ENDBRANCH  23  24
ENDBRANCH  20  23
ENDBRANCH  18  19
ENDBRANCH  13  18
ENDBRANCH   6  12
ENDBRANCH   3   5
ENDBRANCH   1   3
BRANCH   1  29
ATOM     29  O   UNL     1      -3.286  10.458 -10.726  1.00  0.00    -0.463 OA
BRANCH  29  30
ATOM     30  C   UNL     1      -2.112  11.079 -11.280  1.00  0.00     0.261 C 
BRANCH  30  31
ATOM     31  C   UNL     1      -0.852  10.654 -10.522  1.00  0.00     0.202 C 
BRANCH  31  32
ATOM     32  O   UNL     1      -0.472   9.284 -10.650  1.00  0.00    -0.374 OA
BRANCH  32  33
ATOM     33  C   UNL     1      -1.218   8.320  -9.907  1.00  0.00     0.202 C 
BRANCH  33  34
ATOM     34  C   UNL     1      -0.918   8.221  -8.407  1.00  0.00     0.261 C 
BRANCH  34  35
ATOM     35  O   UNL     1      -1.286   9.414  -7.693  1.00  0.00    -0.460 OA
BRANCH  35  36
ATOM     36  C   UNL     1      -0.237  10.132  -7.222  1.00  0.00     0.338 C 
ATOM     37  O   UNL     1       0.945   9.851  -7.296  1.00  0.00    -0.246 OA
BRANCH  36  38
ATOM     38  C   UNL     1      -0.699  11.453  -6.748  1.00  0.00     0.060 A 
ATOM     39  C   UNL     1      -0.008  12.575  -7.223  1.00  0.00     0.016 A 
ATOM     40  C   UNL     1      -1.713  11.593  -5.799  1.00  0.00     0.016 A 
ATOM     41  C   UNL     1      -0.282  13.836  -6.701  1.00  0.00     0.010 A 
ATOM     42  C   UNL     1      -1.987  12.862  -5.274  1.00  0.00     0.010 A 
ATOM     43  C   UNL     1      -1.241  13.981  -5.690  1.00  0.00    -0.014 A 
BRANCH  43  44
ATOM     44  C   UNL     1      -1.329  15.273  -4.965  1.00  0.00     0.031 A 
ATOM     45  C   UNL     1      -0.653  15.408  -3.627  1.00  0.00     0.074 A 
ATOM     46  C   UNL     1      -1.938  16.336  -5.519  1.00  0.00     0.049 A 
ATOM     47  N   UNL     1      -0.568  16.450  -2.840  1.00  0.00    -0.248 NA
ATOM     48  C   UNL     1       0.020  14.205  -3.110  1.00  0.00     0.031 C 
ATOM     49  C   UNL     1      -2.589  16.350  -6.827  1.00  0.00     0.029 A 
ATOM     50  N   UNL     1      -2.098  17.615  -5.048  1.00  0.00    -0.354 N 
ATOM     51  C   UNL     1       0.166  16.030  -1.736  1.00  0.00     0.074 A 
ATOM     52  C   UNL     1       0.467  14.629  -1.938  1.00  0.00     0.031 C 
ATOM     53  C   UNL     1      -3.074  17.582  -7.058  1.00  0.00     0.029 A 
ATOM     54  C   UNL     1      -2.791  18.434  -5.905  1.00  0.00     0.049 A 
ATOM     55  H   UNL     1      -1.750  17.917  -4.178  1.00  0.00     0.167 HD
ATOM     56  C   UNL     1       0.565  16.747  -0.659  1.00  0.00     0.037 A 
ATOM     57  C   UNL     1      -3.160  19.722  -5.769  1.00  0.00     0.037 A 
ATOM     58  C   UNL     1       0.265  18.140  -0.456  1.00  0.00     0.049 A 
ATOM     59  C   UNL     1      -2.774  20.479  -4.527  1.00  0.00     0.074 A 
ATOM     60  C   UNL     1       0.637  18.959   0.596  1.00  0.00     0.029 A 
ATOM     61  N   UNL     1      -0.490  18.919  -1.320  1.00  0.00    -0.354 N 
ATOM     62  N   UNL     1      -2.062  20.079  -3.501  1.00  0.00    -0.248 NA
ATOM     63  C   UNL     1      -3.244  21.868  -4.425  1.00  0.00     0.031 C 
ATOM     64  C   UNL     1       0.067  20.220   0.392  1.00  0.00     0.029 A 
ATOM     65  C   UNL     1      -0.619  20.201  -0.812  1.00  0.00     0.049 A 
ATOM     66  H   UNL     1      -0.877  18.606  -2.170  1.00  0.00     0.167 HD
ATOM     67  C   UNL     1      -1.972  21.172  -2.648  1.00  0.00     0.074 A 
ATOM     68  C   UNL     1      -2.697  22.255  -3.280  1.00  0.00     0.031 C 
ATOM     69  C   UNL     1      -1.342  21.271  -1.452  1.00  0.00     0.037 A 
BRANCH  56  70
ATOM     70  C   UNL     1       1.350  16.021   0.394  1.00  0.00     0.057 A 
ATOM     71  C   UNL     1       2.670  15.601   0.178  1.00  0.00     0.134 A 
ATOM     72  C   UNL     1       0.780  15.742   1.643  1.00  0.00     0.134 A 
ATOM     73  F   UNL     1       3.270  15.825  -1.001  1.00  0.00    -0.206 F 
ATOM     74  C   UNL     1       3.382  14.902   1.154  1.00  0.00     0.040 A 
ATOM     75  C   UNL     1       1.492  15.067   2.636  1.00  0.00     0.040 A 
ATOM     76  F   UNL     1      -0.477  16.120   1.918  1.00  0.00    -0.206 F 
ATOM     77  C   UNL     1       2.794  14.637   2.389  1.00  0.00     0.006 A 
ENDBRANCH  56  70
BRANCH  57  78
ATOM     78  C   UNL     1      -3.934  20.385  -6.848  1.00  0.00     0.057 A 
ATOM     79  C   UNL     1      -3.360  21.382  -7.644  1.00  0.00     0.134 A 
ATOM     80  C   UNL     1      -5.267  20.041  -7.105  1.00  0.00     0.134 A 
ATOM     81  F   UNL     1      -2.094  21.771  -7.429  1.00  0.00    -0.206 F 
ATOM     82  C   UNL     1      -4.084  22.020  -8.652  1.00  0.00     0.040 A 
ATOM     83  C   UNL     1      -5.996  20.654  -8.125  1.00  0.00     0.040 A 
ATOM     84  F   UNL     1      -5.875  19.093  -6.376  1.00  0.00    -0.206 F 
ATOM     85  C   UNL     1      -5.405  21.651  -8.899  1.00  0.00     0.006 A 
ENDBRANCH  57  78
BRANCH  69  86
ATOM     86  C   UNL     1      -1.379  22.604  -0.761  1.00  0.00     0.057 A 
ATOM     87  C   UNL     1      -2.543  23.090  -0.153  1.00  0.00     0.134 A 
ATOM     88  C   UNL     1      -0.224  23.391  -0.668  1.00  0.00     0.134 A 
ATOM     89  F   UNL     1      -3.687  22.392  -0.216  1.00  0.00    -0.206 F 
ATOM     90  C   UNL     1      -2.562  24.322   0.505  1.00  0.00     0.040 A 
ATOM     91  C   UNL     1      -0.223  24.611   0.009  1.00  0.00     0.040 A 
ATOM     92  F   UNL     1       0.927  22.979  -1.220  1.00  0.00    -0.206 F 
ATOM     93  C   UNL     1      -1.397  25.083   0.593  1.00  0.00     0.006 A 
ENDBRANCH  69  86
ENDBRANCH  43  44
ENDBRANCH  36  38
ENDBRANCH  35  36
ENDBRANCH  34  35
ENDBRANCH  33  34
ENDBRANCH  32  33
ENDBRANCH  31  32
ENDBRANCH  30  31
ENDBRANCH  29  30
ENDBRANCH   1  29
TORSDOF 23
