REMARK SMILES CCc1cc(/C=C/C(=O)OCCOCCOC(=O)c2ccc(-c3c4nc(c(-c5c(F)cccc5F)c5ccc([nH]5)c(-c5c(F)cccc5F)c5nc(c(-c6c(F)cccc6F)c6ccc3[nH]6)C=C5)C=C4)cc2)cc(C(=O)c2ccccc2)c1
REMARK SMILES IDX 12 1 11 2 10 3 8 4 9 5 7 6 6 7 5 8 3 9 4 10 83 11 74 12
REMARK SMILES IDX 73 13 2 14 1 15 75 16 76 17 77 18 78 19 82 20 79 21 81 22
REMARK SMILES IDX 80 23 13 24 14 25 15 26 16 27 17 28 18 29 19 30 20 31 72 32
REMARK SMILES IDX 21 33 71 34 22 35 23 36 24 37 65 38 25 39 70 40 64 41 66 42
REMARK SMILES IDX 26 43 69 44 63 45 62 46 27 48 53 49 36 50 52 51 37 52 40 53
REMARK SMILES IDX 51 54 67 55 38 56 39 57 50 59 68 60 41 61 28 62 29 63 34 64
REMARK SMILES IDX 30 65 31 66 33 67 35 68 32 69 54 70 55 71 60 72 56 73 57 74
REMARK SMILES IDX 59 75 61 76 58 77 42 78 43 79 48 80 44 81 45 82 47 83 49 84
REMARK SMILES IDX 46 85
REMARK H PARENT 66 47 40 58
REMARK Flexibility Score: inf
ROOT
ATOM      1  C   UNL     1       1.297   0.166  10.382  1.00  0.00     0.202 C 
ENDROOT
BRANCH   1   2
ATOM      2  C   UNL     1       2.640   0.591   9.786  1.00  0.00     0.261 C 
BRANCH   2   3
ATOM      3  O   UNL     1       2.477   1.032   8.427  1.00  0.00    -0.460 OA
BRANCH   3   4
ATOM      4  C   UNL     1       3.120   0.290   7.496  1.00  0.00     0.330 C 
ATOM      5  O   UNL     1       3.917  -0.613   7.707  1.00  0.00    -0.247 OA
BRANCH   4   6
ATOM      6  C   UNL     1       2.679   0.609   6.122  1.00  0.00     0.094 C 
ATOM      7  C   UNL     1       1.878   1.621   5.751  1.00  0.00     0.015 C 
BRANCH   7   8
ATOM      8  C   UNL     1       1.446   1.811   4.353  1.00  0.00    -0.024 A 
ATOM      9  C   UNL     1       0.806   0.887   2.174  1.00  0.00    -0.047 A 
ATOM     10  C   UNL     1       1.179   0.715   3.515  1.00  0.00     0.011 A 
ATOM     11  C   UNL     1       0.653   2.189   1.686  1.00  0.00     0.016 A 
ATOM     12  C   UNL     1       0.846   3.300   2.519  1.00  0.00     0.023 A 
ATOM     13  C   UNL     1       1.249   3.103   3.850  1.00  0.00     0.020 A 
BRANCH   9  14
ATOM     14  C   UNL     1       0.511  -0.324   1.318  1.00  0.00     0.032 C 
ATOM     15  C   UNL     1       1.050  -0.252  -0.106  1.00  0.00     0.009 C 
ENDBRANCH   9  14
BRANCH  12  16
ATOM     16  C   UNL     1       0.681   4.699   2.017  1.00  0.00     0.193 C 
ATOM     17  O   UNL     1       1.062   5.648   2.698  1.00  0.00    -0.289 OA
BRANCH  16  18
ATOM     18  C   UNL     1       0.112   4.979   0.677  1.00  0.00     0.022 A 
ATOM     19  C   UNL     1       0.851   5.772  -0.206  1.00  0.00     0.012 A 
ATOM     20  C   UNL     1      -1.127   4.459   0.286  1.00  0.00     0.012 A 
ATOM     21  C   UNL     1       0.378   5.997  -1.499  1.00  0.00     0.001 A 
ATOM     22  C   UNL     1      -1.592   4.680  -1.011  1.00  0.00     0.001 A 
ATOM     23  C   UNL     1      -0.836   5.440  -1.905  1.00  0.00     0.000 A 
ENDBRANCH  16  18
ENDBRANCH  12  16
ENDBRANCH   7   8
ENDBRANCH   4   6
ENDBRANCH   3   4
ENDBRANCH   2   3
ENDBRANCH   1   2
BRANCH   1  24
ATOM     24  O   UNL     1       0.703  -0.984   9.779  1.00  0.00    -0.374 OA
BRANCH  24  25
ATOM     25  C   UNL     1      -0.059  -0.761   8.591  1.00  0.00     0.202 C 
BRANCH  25  26
ATOM     26  C   UNL     1      -1.494  -0.270   8.816  1.00  0.00     0.261 C 
BRANCH  26  27
ATOM     27  O   UNL     1      -1.518   1.084   9.306  1.00  0.00    -0.460 OA
BRANCH  27  28
ATOM     28  C   UNL     1      -1.931   1.223  10.587  1.00  0.00     0.338 C 
ATOM     29  O   UNL     1      -2.373   0.351  11.323  1.00  0.00    -0.246 OA
BRANCH  28  30
ATOM     30  C   UNL     1      -1.615   2.580  11.073  1.00  0.00     0.060 A 
ATOM     31  C   UNL     1      -0.946   2.687  12.299  1.00  0.00     0.016 A 
ATOM     32  C   UNL     1      -2.016   3.726  10.383  1.00  0.00     0.016 A 
ATOM     33  C   UNL     1      -0.719   3.940  12.864  1.00  0.00     0.010 A 
ATOM     34  C   UNL     1      -1.794   4.984  10.956  1.00  0.00     0.010 A 
ATOM     35  C   UNL     1      -1.176   5.094  12.215  1.00  0.00    -0.014 A 
BRANCH  35  36
ATOM     36  C   UNL     1      -1.131   6.396  12.924  1.00  0.00     0.031 A 
ATOM     37  C   UNL     1      -2.376   6.906  13.596  1.00  0.00     0.074 A 
ATOM     38  C   UNL     1       0.011   7.100  12.999  1.00  0.00     0.049 A 
ATOM     39  N   UNL     1      -2.565   8.015  14.264  1.00  0.00    -0.248 NA
ATOM     40  C   UNL     1      -3.570   6.049  13.502  1.00  0.00     0.031 C 
ATOM     41  C   UNL     1       1.290   6.700  12.416  1.00  0.00     0.029 A 
ATOM     42  N   UNL     1       0.275   8.307  13.598  1.00  0.00    -0.354 N 
ATOM     43  C   UNL     1      -3.894   7.992  14.666  1.00  0.00     0.074 A 
ATOM     44  C   UNL     1      -4.475   6.775  14.142  1.00  0.00     0.031 C 
ATOM     45  C   UNL     1       2.205   7.650  12.680  1.00  0.00     0.029 A 
ATOM     46  C   UNL     1       1.569   8.733  13.428  1.00  0.00     0.049 A 
ATOM     47  H   UNL     1      -0.399   8.817  14.101  1.00  0.00     0.167 HD
ATOM     48  C   UNL     1      -4.568   8.898  15.415  1.00  0.00     0.037 A 
ATOM     49  C   UNL     1       2.166   9.876  13.818  1.00  0.00     0.037 A 
ATOM     50  C   UNL     1      -3.992  10.108  15.939  1.00  0.00     0.049 A 
ATOM     51  C   UNL     1       1.380  10.896  14.598  1.00  0.00     0.074 A 
ATOM     52  C   UNL     1      -4.589  11.078  16.726  1.00  0.00     0.029 A 
ATOM     53  N   UNL     1      -2.685  10.517  15.724  1.00  0.00    -0.354 N 
ATOM     54  N   UNL     1       0.133  10.848  15.001  1.00  0.00    -0.248 NA
ATOM     55  C   UNL     1       2.087  12.126  14.983  1.00  0.00     0.031 C 
ATOM     56  C   UNL     1      -3.656  12.095  16.950  1.00  0.00     0.029 A 
ATOM     57  C   UNL     1      -2.463  11.735  16.343  1.00  0.00     0.049 A 
ATOM     58  H   UNL     1      -2.014  10.015  15.207  1.00  0.00     0.167 HD
ATOM     59  C   UNL     1      -0.084  12.024  15.710  1.00  0.00     0.074 A 
ATOM     60  C   UNL     1       1.162  12.760  15.690  1.00  0.00     0.031 C 
ATOM     61  C   UNL     1      -1.214  12.452  16.325  1.00  0.00     0.037 A 
BRANCH  48  62
ATOM     62  C   UNL     1      -6.015   8.620  15.695  1.00  0.00     0.057 A 
ATOM     63  C   UNL     1      -6.417   7.619  16.589  1.00  0.00     0.134 A 
ATOM     64  C   UNL     1      -7.019   9.384  15.086  1.00  0.00     0.134 A 
ATOM     65  F   UNL     1      -5.505   6.843  17.194  1.00  0.00    -0.206 F 
ATOM     66  C   UNL     1      -7.766   7.373  16.850  1.00  0.00     0.040 A 
ATOM     67  C   UNL     1      -8.370   9.163  15.358  1.00  0.00     0.040 A 
ATOM     68  F   UNL     1      -6.702  10.361  14.223  1.00  0.00    -0.206 F 
ATOM     69  C   UNL     1      -8.746   8.151  16.238  1.00  0.00     0.006 A 
ENDBRANCH  48  62
BRANCH  49  70
ATOM     70  C   UNL     1       3.589  10.124  13.476  1.00  0.00     0.057 A 
ATOM     71  C   UNL     1       4.583  10.125  14.460  1.00  0.00     0.134 A 
ATOM     72  C   UNL     1       3.984  10.385  12.158  1.00  0.00     0.134 A 
ATOM     73  F   UNL     1       4.262   9.905  15.743  1.00  0.00    -0.206 F 
ATOM     74  C   UNL     1       5.918  10.393  14.150  1.00  0.00     0.040 A 
ATOM     75  C   UNL     1       5.318  10.631  11.830  1.00  0.00     0.040 A 
ATOM     76  F   UNL     1       3.078  10.398  11.169  1.00  0.00    -0.206 F 
ATOM     77  C   UNL     1       6.289  10.642  12.830  1.00  0.00     0.006 A 
ENDBRANCH  49  70
BRANCH  61  78
ATOM     78  C   UNL     1      -1.145  13.757  17.063  1.00  0.00     0.057 A 
ATOM     79  C   UNL     1      -1.095  14.986  16.392  1.00  0.00     0.134 A 
ATOM     80  C   UNL     1      -1.174  13.785  18.463  1.00  0.00     0.134 A 
ATOM     81  F   UNL     1      -1.053  15.028  15.052  1.00  0.00    -0.206 F 
ATOM     82  C   UNL     1      -1.055  16.195  17.089  1.00  0.00     0.040 A 
ATOM     83  C   UNL     1      -1.159  14.987  19.170  1.00  0.00     0.040 A 
ATOM     84  F   UNL     1      -1.232  12.643  19.166  1.00  0.00    -0.206 F 
ATOM     85  C   UNL     1      -1.094  16.197  18.483  1.00  0.00     0.006 A 
ENDBRANCH  61  78
ENDBRANCH  35  36
ENDBRANCH  28  30
ENDBRANCH  27  28
ENDBRANCH  26  27
ENDBRANCH  25  26
ENDBRANCH  24  25
ENDBRANCH   1  24
TORSDOF 18
