REMARK SMILES Nc1c(N2CCC(C(=O)OCCOCCOC(=O)c3ccc(-c4c5nc(c(-c6c(F)cccc6F)c6ccc([nH]6)c(-c6c(F)cccc6F)c6nc(c(-c7c(F)cccc7F)c7ccc4[nH]7)C=C6)C=C5)cc3)CC2)ncnc1N1CCN(c2ccccc2)CC1
REMARK SMILES IDX 12 1 11 2 10 3 8 4 9 5 7 6 4 7 5 8 74 9 6 10 73 11 3 12 2 13
REMARK SMILES IDX 78 14 75 15 77 16 76 17 1 18 79 21 80 22 90 23 81 24 89 25
REMARK SMILES IDX 82 26 83 27 84 28 88 29 85 30 87 31 86 32 13 33 14 34 15 35
REMARK SMILES IDX 16 36 17 37 18 38 19 39 20 40 72 41 21 42 71 43 22 44 23 45
REMARK SMILES IDX 24 46 65 47 25 48 70 49 64 50 66 51 26 52 69 53 63 54 62 55
REMARK SMILES IDX 27 57 53 58 36 59 52 60 37 61 40 62 51 63 67 64 38 65 39 66
REMARK SMILES IDX 50 68 68 69 41 70 28 71 29 72 34 73 30 74 31 75 33 76 35 77
REMARK SMILES IDX 32 78 54 79 55 80 60 81 56 82 57 83 59 84 61 85 58 86 42 87
REMARK SMILES IDX 43 88 48 89 44 90 45 91 47 92 49 93 46 94
REMARK H PARENT 1 19 1 20 66 56 40 67
REMARK Flexibility Score: inf
ROOT
ATOM      1  C   UNL     1      -4.856  -1.778   7.396  1.00  0.00     0.202 C 
ENDROOT
BRANCH   1   2
ATOM      2  C   UNL     1      -3.373  -1.414   7.314  1.00  0.00     0.261 C 
BRANCH   2   3
ATOM      3  O   UNL     1      -2.985  -1.069   5.976  1.00  0.00    -0.463 OA
BRANCH   3   4
ATOM      4  C   UNL     1      -2.135  -1.940   5.379  1.00  0.00     0.309 C 
ATOM      5  O   UNL     1      -1.631  -2.920   5.917  1.00  0.00    -0.252 OA
BRANCH   4   6
ATOM      6  C   UNL     1      -1.827  -1.575   3.949  1.00  0.00     0.103 C 
ATOM      7  N   UNL     1      -1.033  -0.084   1.689  1.00  0.00    -0.355 N 
ATOM      8  C   UNL     1      -2.426  -0.476   1.770  1.00  0.00     0.119 C 
ATOM      9  C   UNL     1      -0.011  -0.762   2.476  1.00  0.00     0.119 C 
ATOM     10  C   UNL     1      -2.852  -0.698   3.220  1.00  0.00     0.037 C 
ATOM     11  C   UNL     1      -0.461  -0.901   3.917  1.00  0.00     0.037 C 
BRANCH   7  12
ATOM     12  C   UNL     1      -0.695   1.114   1.071  1.00  0.00     0.157 A 
ATOM     13  C   UNL     1       0.378   1.139   0.171  1.00  0.00     0.118 A 
ATOM     14  C   UNL     1       0.784   2.399  -0.285  1.00  0.00     0.157 A 
ATOM     15  N   UNL     1      -1.354   2.228   1.428  1.00  0.00    -0.217 NA
ATOM     16  N   UNL     1       0.195   3.530   0.134  1.00  0.00    -0.217 NA
ATOM     17  C   UNL     1      -0.865   3.379   0.942  1.00  0.00     0.226 A 
BRANCH  13  18
ATOM     18  N   UNL     1       0.994  -0.047  -0.274  1.00  0.00    -0.393 N 
ATOM     19  H   UNL     1       0.687  -0.918   0.065  1.00  0.00     0.156 HD
ATOM     20  H   UNL     1       1.732  -0.004  -0.925  1.00  0.00     0.156 HD
ENDBRANCH  13  18
BRANCH  14  21
ATOM     21  N   UNL     1       1.847   2.490  -1.152  1.00  0.00    -0.351 N 
ATOM     22  C   UNL     1       2.986   3.351  -0.860  1.00  0.00     0.139 C 
ATOM     23  C   UNL     1       1.776   1.916  -2.496  1.00  0.00     0.139 C 
ATOM     24  C   UNL     1       4.291   2.553  -1.124  1.00  0.00     0.138 C 
ATOM     25  C   UNL     1       3.074   1.143  -2.807  1.00  0.00     0.138 C 
ATOM     26  N   UNL     1       4.256   1.955  -2.469  1.00  0.00    -0.368 N 
BRANCH  26  27
ATOM     27  C   UNL     1       5.379   1.873  -3.260  1.00  0.00     0.037 A 
ATOM     28  C   UNL     1       6.629   1.502  -2.757  1.00  0.00     0.026 A 
ATOM     29  C   UNL     1       5.288   2.189  -4.623  1.00  0.00     0.026 A 
ATOM     30  C   UNL     1       7.751   1.444  -3.590  1.00  0.00     0.002 A 
ATOM     31  C   UNL     1       6.405   2.152  -5.456  1.00  0.00     0.002 A 
ATOM     32  C   UNL     1       7.639   1.776  -4.938  1.00  0.00     0.000 A 
ENDBRANCH  26  27
ENDBRANCH  14  21
ENDBRANCH   7  12
ENDBRANCH   4   6
ENDBRANCH   3   4
ENDBRANCH   2   3
ENDBRANCH   1   2
BRANCH   1  33
ATOM     33  O   UNL     1      -5.283  -2.923   6.662  1.00  0.00    -0.374 OA
BRANCH  33  34
ATOM     34  C   UNL     1      -5.437  -2.791   5.250  1.00  0.00     0.202 C 
BRANCH  34  35
ATOM     35  C   UNL     1      -6.624  -1.956   4.752  1.00  0.00     0.261 C 
BRANCH  35  36
ATOM     36  O   UNL     1      -6.470  -0.554   5.047  1.00  0.00    -0.460 OA
BRANCH  36  37
ATOM     37  C   UNL     1      -7.411  -0.040   5.874  1.00  0.00     0.338 C 
ATOM     38  O   UNL     1      -8.396  -0.610   6.325  1.00  0.00    -0.246 OA
BRANCH  37  39
ATOM     39  C   UNL     1      -7.001   1.294   6.342  1.00  0.00     0.060 A 
ATOM     40  C   UNL     1      -6.842   1.477   7.722  1.00  0.00     0.016 A 
ATOM     41  C   UNL     1      -6.872   2.371   5.463  1.00  0.00     0.016 A 
ATOM     42  C   UNL     1      -6.591   2.748   8.233  1.00  0.00     0.010 A 
ATOM     43  C   UNL     1      -6.634   3.650   5.980  1.00  0.00     0.010 A 
ATOM     44  C   UNL     1      -6.526   3.848   7.368  1.00  0.00    -0.014 A 
BRANCH  44  45
ATOM     45  C   UNL     1      -6.498   5.215   7.941  1.00  0.00     0.031 A 
ATOM     46  C   UNL     1      -7.788   5.978   8.069  1.00  0.00     0.074 A 
ATOM     47  C   UNL     1      -5.351   5.745   8.400  1.00  0.00     0.049 A 
ATOM     48  N   UNL     1      -7.998   7.174   8.557  1.00  0.00    -0.248 NA
ATOM     49  C   UNL     1      -9.003   5.301   7.590  1.00  0.00     0.031 C 
ATOM     50  C   UNL     1      -4.049   5.083   8.379  1.00  0.00     0.029 A 
ATOM     51  N   UNL     1      -5.103   6.963   8.982  1.00  0.00    -0.354 N 
ATOM     52  C   UNL     1      -9.366   7.388   8.451  1.00  0.00     0.074 A 
ATOM     53  C   UNL     1      -9.933   6.217   7.820  1.00  0.00     0.031 C 
ATOM     54  C   UNL     1      -3.136   5.903   8.929  1.00  0.00     0.029 A 
ATOM     55  C   UNL     1      -3.785   7.155   9.314  1.00  0.00     0.049 A 
ATOM     56  H   UNL     1      -5.804   7.635   9.146  1.00  0.00     0.167 HD
ATOM     57  C   UNL     1     -10.087   8.459   8.859  1.00  0.00     0.037 A 
ATOM     58  C   UNL     1      -3.171   8.225   9.858  1.00  0.00     0.037 A 
ATOM     59  C   UNL     1      -9.524   9.625   9.484  1.00  0.00     0.049 A 
ATOM     60  C   UNL     1      -3.981   9.444  10.213  1.00  0.00     0.074 A 
ATOM     61  C   UNL     1     -10.176  10.759   9.937  1.00  0.00     0.029 A 
ATOM     62  N   UNL     1      -8.174   9.810   9.739  1.00  0.00    -0.354 N 
ATOM     63  N   UNL     1      -5.276   9.630  10.122  1.00  0.00    -0.248 NA
ATOM     64  C   UNL     1      -3.245  10.602  10.742  1.00  0.00     0.031 C 
ATOM     65  C   UNL     1      -9.216  11.649  10.424  1.00  0.00     0.029 A 
ATOM     66  C   UNL     1      -7.970  11.051  10.318  1.00  0.00     0.049 A 
ATOM     67  H   UNL     1      -7.466   9.156   9.539  1.00  0.00     0.167 HD
ATOM     68  C   UNL     1      -5.512  10.913  10.601  1.00  0.00     0.074 A 
ATOM     69  C   UNL     1      -4.228  11.457  10.992  1.00  0.00     0.031 C 
ATOM     70  C   UNL     1      -6.687  11.579  10.707  1.00  0.00     0.037 A 
BRANCH  57  71
ATOM     71  C   UNL     1     -11.569   8.424   8.636  1.00  0.00     0.057 A 
ATOM     72  C   UNL     1     -12.410   7.614   9.410  1.00  0.00     0.134 A 
ATOM     73  C   UNL     1     -12.168   9.249   7.676  1.00  0.00     0.134 A 
ATOM     74  F   UNL     1     -11.897   6.792  10.337  1.00  0.00    -0.206 F 
ATOM     75  C   UNL     1     -13.794   7.618   9.229  1.00  0.00     0.040 A 
ATOM     76  C   UNL     1     -13.552   9.279   7.501  1.00  0.00     0.040 A 
ATOM     77  F   UNL     1     -11.419  10.052   6.905  1.00  0.00    -0.206 F 
ATOM     78  C   UNL     1     -14.369   8.459   8.278  1.00  0.00     0.006 A 
ENDBRANCH  57  71
BRANCH  58  79
ATOM     79  C   UNL     1      -1.708   8.191  10.102  1.00  0.00     0.057 A 
ATOM     80  C   UNL     1      -1.193   8.142  11.402  1.00  0.00     0.134 A 
ATOM     81  C   UNL     1      -0.790   8.203   9.045  1.00  0.00     0.134 A 
ATOM     82  F   UNL     1      -2.022   8.152  12.457  1.00  0.00    -0.206 F 
ATOM     83  C   UNL     1       0.182   8.112  11.643  1.00  0.00     0.040 A 
ATOM     84  C   UNL     1       0.586   8.151   9.270  1.00  0.00     0.040 A 
ATOM     85  F   UNL     1      -1.220   8.252   7.776  1.00  0.00    -0.206 F 
ATOM     86  C   UNL     1       1.075   8.109  10.574  1.00  0.00     0.006 A 
ENDBRANCH  58  79
BRANCH  70  87
ATOM     87  C   UNL     1      -6.657  12.965  11.280  1.00  0.00     0.057 A 
ATOM     88  C   UNL     1      -6.184  14.055  10.539  1.00  0.00     0.134 A 
ATOM     89  C   UNL     1      -7.191  13.226  12.549  1.00  0.00     0.134 A 
ATOM     90  F   UNL     1      -5.653  13.870   9.321  1.00  0.00    -0.206 F 
ATOM     91  C   UNL     1      -6.238  15.356  11.043  1.00  0.00     0.040 A 
ATOM     92  C   UNL     1      -7.272  14.525  13.053  1.00  0.00     0.040 A 
ATOM     93  F   UNL     1      -7.671  12.227  13.304  1.00  0.00    -0.206 F 
ATOM     94  C   UNL     1      -6.794  15.594  12.299  1.00  0.00     0.006 A 
ENDBRANCH  70  87
ENDBRANCH  44  45
ENDBRANCH  37  39
ENDBRANCH  36  37
ENDBRANCH  35  36
ENDBRANCH  34  35
ENDBRANCH  33  34
ENDBRANCH   1  33
TORSDOF 18
