REMARK SMILES CCC1(C)CC[NH+]([C@@H]2CC[C@]([NH2+]C3CC3)(C(=O)OCCOCCOC(=O)c3ccc(-c4c5nc(c(-c6c(F)cccc6F)c6ccc([nH]6)c(-c6c(F)cccc6F)c6nc(c(-c7c(F)cccc7F)c7ccc4[nH]7)C=C6)C=C5)cc3)C2)CC1
REMARK SMILES IDX 21 1 20 2 19 3 18 4 16 5 17 6 11 7 8 8 9 9 81 10 10 11 7 12
REMARK SMILES IDX 3 13 4 14 5 15 83 16 6 17 82 18 2 20 1 21 12 22 13 25 14 26
REMARK SMILES IDX 15 27 22 28 23 29 24 30 25 31 26 32 27 33 28 34 80 35 29 36
REMARK SMILES IDX 79 37 30 38 31 39 32 40 73 41 33 42 78 43 72 44 74 45 34 46
REMARK SMILES IDX 77 47 71 48 70 49 35 51 61 52 44 53 60 54 45 55 48 56 59 57
REMARK SMILES IDX 75 58 46 59 47 60 58 62 76 63 49 64 36 65 37 66 42 67 38 68
REMARK SMILES IDX 39 69 41 70 43 71 40 72 62 73 63 74 68 75 64 76 65 77 67 78
REMARK SMILES IDX 69 79 66 80 50 81 51 82 56 83 52 84 53 85 55 86 57 87 54 88
REMARK H PARENT 7 19 12 23 12 24 74 50 48 61
REMARK Flexibility Score: inf
ROOT
ATOM      1  O   UNL     1      -4.244   3.424   3.865  1.00  0.00    -0.374 OA
ENDROOT
BRANCH   1   2
ATOM      2  C   UNL     1      -4.306   4.234   5.034  1.00  0.00     0.202 C 
BRANCH   2   3
ATOM      3  C   UNL     1      -4.156   3.548   6.397  1.00  0.00     0.261 C 
BRANCH   3   4
ATOM      4  O   UNL     1      -3.192   2.490   6.403  1.00  0.00    -0.459 OA
BRANCH   4   5
ATOM      5  C   UNL     1      -3.740   1.274   6.150  1.00  0.00     0.368 C 
ATOM      6  O   UNL     1      -4.944   1.076   5.986  1.00  0.00    -0.245 OA
BRANCH   5   7
ATOM      7  C   UNL     1      -2.730   0.103   6.147  1.00  0.00     0.200 C 
ATOM      8  C   UNL     1      -0.554  -0.730   5.418  1.00  0.00     0.191 C 
ATOM      9  C   UNL     1      -1.575  -1.151   4.355  1.00  0.00     0.072 C 
ATOM     10  C   UNL     1      -1.225   0.477   6.106  1.00  0.00     0.146 C 
ATOM     11  C   UNL     1      -2.932  -0.612   4.795  1.00  0.00     0.087 C 
BRANCH   8  12
ATOM     12  N   UNL     1       0.866  -0.667   5.048  1.00  0.00    -0.332 N 
ATOM     13  C   UNL     1       1.504  -0.978   2.124  1.00  0.00    -0.022 C 
ATOM     14  C   UNL     1       3.023  -1.020   1.857  1.00  0.00     0.012 C 
ATOM     15  C   UNL     1       1.143  -2.174   3.044  1.00  0.00     0.068 C 
ATOM     16  C   UNL     1       1.111   0.376   2.775  1.00  0.00     0.068 C 
ATOM     17  C   UNL     1       1.410  -1.929   4.532  1.00  0.00     0.263 C 
ATOM     18  C   UNL     1       1.368   0.462   4.279  1.00  0.00     0.263 C 
ATOM     19  H   UNL     1       1.238  -0.478   5.978  1.00  0.00     0.348 HD
BRANCH  13  20
ATOM     20  C   UNL     1       0.730  -1.160   0.784  1.00  0.00     0.004 C 
ATOM     21  C   UNL     1       0.925  -0.057  -0.250  1.00  0.00     0.004 C 
ENDBRANCH  13  20
ENDBRANCH   8  12
BRANCH   7  22
ATOM     22  N   UNL     1      -3.154  -0.718   7.311  1.00  0.00    -0.329 N 
ATOM     23  H   UNL     1      -4.162  -0.850   7.230  1.00  0.00     0.347 HD
ATOM     24  H   UNL     1      -2.823  -0.184   8.115  1.00  0.00     0.347 HD
BRANCH  22  25
ATOM     25  C   UNL     1      -2.568  -2.036   7.507  1.00  0.00     0.183 C 
ATOM     26  C   UNL     1      -1.569  -2.222   8.614  1.00  0.00     0.071 C 
ATOM     27  C   UNL     1      -2.949  -2.792   8.748  1.00  0.00     0.071 C 
ENDBRANCH  22  25
ENDBRANCH   7  22
ENDBRANCH   5   7
ENDBRANCH   4   5
ENDBRANCH   3   4
ENDBRANCH   2   3
ENDBRANCH   1   2
BRANCH   1  28
ATOM     28  C   UNL     1      -2.947   3.022   3.418  1.00  0.00     0.202 C 
BRANCH  28  29
ATOM     29  C   UNL     1      -2.108   4.072   2.683  1.00  0.00     0.261 C 
BRANCH  29  30
ATOM     30  O   UNL     1      -1.679   5.121   3.568  1.00  0.00    -0.460 OA
BRANCH  30  31
ATOM     31  C   UNL     1      -2.265   6.322   3.353  1.00  0.00     0.338 C 
ATOM     32  O   UNL     1      -3.023   6.626   2.441  1.00  0.00    -0.246 OA
BRANCH  31  33
ATOM     33  C   UNL     1      -2.026   7.201   4.511  1.00  0.00     0.060 A 
ATOM     34  C   UNL     1      -3.140   7.826   5.090  1.00  0.00     0.016 A 
ATOM     35  C   UNL     1      -0.740   7.447   4.995  1.00  0.00     0.016 A 
ATOM     36  C   UNL     1      -2.966   8.746   6.119  1.00  0.00     0.010 A 
ATOM     37  C   UNL     1      -0.566   8.380   6.021  1.00  0.00     0.010 A 
ATOM     38  C   UNL     1      -1.674   9.060   6.557  1.00  0.00    -0.014 A 
BRANCH  38  39
ATOM     39  C   UNL     1      -1.473  10.225   7.450  1.00  0.00     0.031 A 
ATOM     40  C   UNL     1      -1.048  11.532   6.842  1.00  0.00     0.074 A 
ATOM     41  C   UNL     1      -1.692  10.126   8.772  1.00  0.00     0.049 A 
ATOM     42  N   UNL     1      -0.774  12.670   7.425  1.00  0.00    -0.248 NA
ATOM     43  C   UNL     1      -0.911  11.558   5.376  1.00  0.00     0.031 C 
ATOM     44  C   UNL     1      -2.146   8.923   9.466  1.00  0.00     0.029 A 
ATOM     45  N   UNL     1      -1.554  11.060   9.767  1.00  0.00    -0.354 N 
ATOM     46  C   UNL     1      -0.425  13.543   6.402  1.00  0.00     0.074 A 
ATOM     47  C   UNL     1      -0.493  12.797   5.165  1.00  0.00     0.031 C 
ATOM     48  C   UNL     1      -2.238   9.189  10.781  1.00  0.00     0.029 A 
ATOM     49  C   UNL     1      -1.820  10.569  11.020  1.00  0.00     0.049 A 
ATOM     50  H   UNL     1      -1.289  11.993   9.598  1.00  0.00     0.167 HD
ATOM     51  C   UNL     1      -0.088  14.851   6.487  1.00  0.00     0.037 A 
ATOM     52  C   UNL     1      -1.715  11.164  12.224  1.00  0.00     0.037 A 
ATOM     53  C   UNL     1      -0.025  15.588   7.721  1.00  0.00     0.049 A 
ATOM     54  C   UNL     1      -1.269  12.600  12.299  1.00  0.00     0.074 A 
ATOM     55  C   UNL     1       0.288  16.922   7.914  1.00  0.00     0.029 A 
ATOM     56  N   UNL     1      -0.272  15.048   8.974  1.00  0.00    -0.354 N 
ATOM     57  N   UNL     1      -0.965  13.425  11.325  1.00  0.00    -0.248 NA
ATOM     58  C   UNL     1      -1.155  13.189  13.640  1.00  0.00     0.031 C 
ATOM     59  C   UNL     1       0.278  17.177   9.289  1.00  0.00     0.029 A 
ATOM     60  C   UNL     1      -0.094  16.016   9.949  1.00  0.00     0.049 A 
ATOM     61  H   UNL     1      -0.536  14.115   9.146  1.00  0.00     0.167 HD
ATOM     62  C   UNL     1      -0.653  14.635  11.933  1.00  0.00     0.074 A 
ATOM     63  C   UNL     1      -0.816  14.439  13.359  1.00  0.00     0.031 C 
ATOM     64  C   UNL     1      -0.268  15.804  11.363  1.00  0.00     0.037 A 
BRANCH  51  65
ATOM     65  C   UNL     1       0.265  15.558   5.212  1.00  0.00     0.057 A 
ATOM     66  C   UNL     1      -0.702  15.879   4.249  1.00  0.00     0.134 A 
ATOM     67  C   UNL     1       1.586  15.945   4.954  1.00  0.00     0.134 A 
ATOM     68  F   UNL     1      -1.983  15.522   4.426  1.00  0.00    -0.206 F 
ATOM     69  C   UNL     1      -0.363  16.540   3.067  1.00  0.00     0.040 A 
ATOM     70  C   UNL     1       1.932  16.630   3.788  1.00  0.00     0.040 A 
ATOM     71  F   UNL     1       2.560  15.670   5.834  1.00  0.00    -0.206 F 
ATOM     72  C   UNL     1       0.957  16.924   2.837  1.00  0.00     0.006 A 
ENDBRANCH  51  65
BRANCH  52  73
ATOM     73  C   UNL     1      -2.024  10.401  13.460  1.00  0.00     0.057 A 
ATOM     74  C   UNL     1      -3.142  10.709  14.242  1.00  0.00     0.134 A 
ATOM     75  C   UNL     1      -1.198   9.358  13.898  1.00  0.00     0.134 A 
ATOM     76  F   UNL     1      -3.958  11.713  13.887  1.00  0.00    -0.206 F 
ATOM     77  C   UNL     1      -3.420  10.021  15.425  1.00  0.00     0.040 A 
ATOM     78  C   UNL     1      -1.477   8.645  15.064  1.00  0.00     0.040 A 
ATOM     79  F   UNL     1      -0.111   9.014  13.193  1.00  0.00    -0.206 F 
ATOM     80  C   UNL     1      -2.588   8.981  15.835  1.00  0.00     0.006 A 
ENDBRANCH  52  73
BRANCH  64  81
ATOM     81  C   UNL     1      -0.036  16.971  12.277  1.00  0.00     0.057 A 
ATOM     82  C   UNL     1       1.081  17.043  13.118  1.00  0.00     0.134 A 
ATOM     83  C   UNL     1      -0.921  18.057  12.283  1.00  0.00     0.134 A 
ATOM     84  F   UNL     1       1.961  16.031  13.169  1.00  0.00    -0.206 F 
ATOM     85  C   UNL     1       1.298  18.144  13.949  1.00  0.00     0.040 A 
ATOM     86  C   UNL     1      -0.701  19.175  13.088  1.00  0.00     0.040 A 
ATOM     87  F   UNL     1      -2.006  18.056  11.493  1.00  0.00    -0.206 F 
ATOM     88  C   UNL     1       0.409  19.217  13.930  1.00  0.00     0.006 A 
ENDBRANCH  64  81
ENDBRANCH  38  39
ENDBRANCH  31  33
ENDBRANCH  30  31
ENDBRANCH  29  30
ENDBRANCH  28  29
ENDBRANCH   1  28
TORSDOF 18
