REMARK SMILES Cc1ccc(-c2c(C)sc(NC(=O)[C@H]3CC=CC[C@H]3C(=O)OCCOCCOC(=O)c3ccc(-c4c5nc(c(-c6c(F)cccc6F)c6ccc([nH]6)c(-c6c(F)cccc6F)c6nc(c(-c7c(F)cccc7F)c7ccc4[nH]7)C=C6)C=C5)cc3)c2C(N)=O)cc1
REMARK SMILES IDX 24 1 23 2 22 3 20 4 21 5 19 6 14 7 15 8 16 9 18 10 17 11
REMARK SMILES IDX 12 12 11 13 13 15 10 16 6 17 7 18 85 19 8 20 9 21 5 22 1 23
REMARK SMILES IDX 2 24 3 25 90 26 4 27 89 28 86 29 87 30 88 31 25 34 26 35
REMARK SMILES IDX 27 36 28 37 29 38 30 39 31 40 32 41 84 42 33 43 83 44 34 45
REMARK SMILES IDX 35 46 36 47 77 48 37 49 82 50 76 51 78 52 38 53 81 54 75 55
REMARK SMILES IDX 74 56 39 58 65 59 48 60 64 61 49 62 52 63 63 64 79 65 50 66
REMARK SMILES IDX 51 67 62 69 80 70 53 71 40 72 41 73 46 74 42 75 43 76 45 77
REMARK SMILES IDX 47 78 44 79 66 80 67 81 72 82 68 83 69 84 71 85 73 86 70 87
REMARK SMILES IDX 54 88 55 89 60 90 56 91 57 92 59 93 61 94 58 95
REMARK H PARENT 11 14 87 32 87 33 78 57 52 68
REMARK Flexibility Score: inf
ROOT
ATOM      1  C   UNL     1     -10.475  -1.616   1.159  1.00  0.00     0.202 C 
ENDROOT
BRANCH   1   2
ATOM      2  C   UNL     1      -9.338  -2.564   0.923  1.00  0.00     0.261 C 
BRANCH   2   3
ATOM      3  O   UNL     1      -8.247  -1.957   0.222  1.00  0.00    -0.463 OA
BRANCH   3   4
ATOM      4  C   UNL     1      -8.448  -1.693  -1.096  1.00  0.00     0.310 C 
ATOM      5  O   UNL     1      -9.067  -2.380  -1.879  1.00  0.00    -0.252 OA
BRANCH   4   6
ATOM      6  C   UNL     1      -7.837  -0.377  -1.459  1.00  0.00     0.116 C 
ATOM      7  C   UNL     1      -7.878   0.688  -0.342  1.00  0.00     0.097 C 
ATOM      8  C   UNL     1      -7.520   2.054  -0.942  1.00  0.00     0.041 C 
ATOM      9  C   UNL     1      -6.559   1.994  -2.111  1.00  0.00    -0.030 C 
ATOM     10  C   UNL     1      -6.488  -0.507  -2.141  1.00  0.00     0.043 C 
ATOM     11  C   UNL     1      -6.071   0.852  -2.628  1.00  0.00    -0.030 C 
BRANCH   7  12
ATOM     12  C   UNL     1      -7.374   0.330   1.105  1.00  0.00     0.229 C 
ATOM     13  N   UNL     1      -6.180  -0.260   1.423  1.00  0.00    -0.317 N 
ATOM     14  H   UNL     1      -6.241  -1.069   1.980  1.00  0.00     0.170 HD
ATOM     15  O   UNL     1      -8.181   0.420   2.046  1.00  0.00    -0.274 OA
BRANCH  13  16
ATOM     16  C   UNL     1      -4.908   0.124   1.071  1.00  0.00     0.109 A 
ATOM     17  C   UNL     1      -2.702   0.195   0.400  1.00  0.00     0.010 A 
ATOM     18  C   UNL     1      -3.322   1.144  -0.402  1.00  0.00     0.012 A 
ATOM     19  C   UNL     1      -3.646  -0.402   1.346  1.00  0.00     0.082 A 
ATOM     20  C   UNL     1      -2.912   1.811  -1.669  1.00  0.00     0.057 C 
ATOM     21  S   UNL     1      -4.702   1.675   0.424  1.00  0.00    -0.122 S 
BRANCH  17  22
ATOM     22  C   UNL     1      -1.263   0.023   0.277  1.00  0.00    -0.016 A 
ATOM     23  C   UNL     1       3.011  -0.207  -0.107  1.00  0.00     0.044 C 
ATOM     24  C   UNL     1       1.520  -0.125  -0.006  1.00  0.00    -0.051 A 
ATOM     25  C   UNL     1       0.728  -1.278  -0.120  1.00  0.00     0.004 A 
ATOM     26  C   UNL     1       0.912   1.103   0.254  1.00  0.00     0.004 A 
ATOM     27  C   UNL     1      -0.664  -1.204   0.005  1.00  0.00     0.009 A 
ATOM     28  C   UNL     1      -0.464   1.169   0.416  1.00  0.00     0.009 A 
ENDBRANCH  17  22
BRANCH  19  29
ATOM     29  C   UNL     1      -3.303  -1.408   2.354  1.00  0.00     0.252 C 
ATOM     30  N   UNL     1      -4.111  -1.488   3.456  1.00  0.00    -0.365 N 
ATOM     31  O   UNL     1      -2.314  -2.128   2.307  1.00  0.00    -0.269 OA
ATOM     32  H   UNL     1      -4.912  -0.920   3.520  1.00  0.00     0.159 HD
ATOM     33  H   UNL     1      -3.890  -2.113   4.184  1.00  0.00     0.159 HD
ENDBRANCH  19  29
ENDBRANCH  13  16
ENDBRANCH   7  12
ENDBRANCH   4   6
ENDBRANCH   3   4
ENDBRANCH   2   3
ENDBRANCH   1   2
BRANCH   1  34
ATOM     34  O   UNL     1     -11.144  -1.446  -0.083  1.00  0.00    -0.374 OA
BRANCH  34  35
ATOM     35  C   UNL     1     -12.246  -0.554  -0.050  1.00  0.00     0.202 C 
BRANCH  35  36
ATOM     36  C   UNL     1     -13.282  -0.892   1.035  1.00  0.00     0.261 C 
BRANCH  36  37
ATOM     37  O   UNL     1     -13.853  -2.196   0.776  1.00  0.00    -0.460 OA
BRANCH  37  38
ATOM     38  C   UNL     1     -13.412  -3.223   1.556  1.00  0.00     0.338 C 
ATOM     39  O   UNL     1     -13.345  -3.209   2.775  1.00  0.00    -0.246 OA
BRANCH  38  40
ATOM     40  C   UNL     1     -12.731  -4.246   0.704  1.00  0.00     0.060 A 
ATOM     41  C   UNL     1     -11.949  -5.257   1.297  1.00  0.00     0.016 A 
ATOM     42  C   UNL     1     -12.591  -3.974  -0.654  1.00  0.00     0.016 A 
ATOM     43  C   UNL     1     -10.916  -5.871   0.569  1.00  0.00     0.010 A 
ATOM     44  C   UNL     1     -11.498  -4.485  -1.320  1.00  0.00     0.010 A 
ATOM     45  C   UNL     1     -10.629  -5.409  -0.711  1.00  0.00    -0.014 A 
BRANCH  45  46
ATOM     46  C   UNL     1      -9.439  -5.722  -1.513  1.00  0.00     0.031 A 
ATOM     47  C   UNL     1      -9.668  -6.371  -2.821  1.00  0.00     0.074 A 
ATOM     48  C   UNL     1      -8.220  -5.192  -1.238  1.00  0.00     0.049 A 
ATOM     49  N   UNL     1      -8.732  -6.784  -3.597  1.00  0.00    -0.248 NA
ATOM     50  C   UNL     1     -10.997  -6.655  -3.353  1.00  0.00     0.031 C 
ATOM     51  C   UNL     1      -7.104  -4.939  -2.158  1.00  0.00     0.029 A 
ATOM     52  N   UNL     1      -7.698  -4.755  -0.016  1.00  0.00    -0.354 N 
ATOM     53  C   UNL     1      -9.286  -7.068  -4.822  1.00  0.00     0.074 A 
ATOM     54  C   UNL     1     -10.703  -7.087  -4.580  1.00  0.00     0.031 C 
ATOM     55  C   UNL     1      -5.980  -4.710  -1.452  1.00  0.00     0.029 A 
ATOM     56  C   UNL     1      -6.307  -4.940  -0.058  1.00  0.00     0.049 A 
ATOM     57  H   UNL     1      -8.213  -4.385   0.737  1.00  0.00     0.167 HD
ATOM     58  C   UNL     1      -8.446  -7.128  -5.895  1.00  0.00     0.037 A 
ATOM     59  C   UNL     1      -5.702  -5.780   0.823  1.00  0.00     0.037 A 
ATOM     60  C   UNL     1      -7.046  -7.059  -5.434  1.00  0.00     0.049 A 
ATOM     61  C   UNL     1      -5.066  -6.893   0.041  1.00  0.00     0.074 A 
ATOM     62  C   UNL     1      -6.081  -6.065  -5.450  1.00  0.00     0.029 A 
ATOM     63  N   UNL     1      -6.587  -8.025  -4.535  1.00  0.00    -0.354 N 
ATOM     64  N   UNL     1      -5.485  -7.240  -1.147  1.00  0.00    -0.248 NA
ATOM     65  C   UNL     1      -3.862  -7.605   0.445  1.00  0.00     0.031 C 
ATOM     66  C   UNL     1      -5.074  -6.416  -4.501  1.00  0.00     0.029 A 
ATOM     67  C   UNL     1      -5.408  -7.635  -3.929  1.00  0.00     0.049 A 
ATOM     68  H   UNL     1      -7.046  -8.878  -4.356  1.00  0.00     0.167 HD
ATOM     69  C   UNL     1      -4.594  -8.100  -1.709  1.00  0.00     0.074 A 
ATOM     70  C   UNL     1      -3.617  -8.337  -0.658  1.00  0.00     0.031 C 
ATOM     71  C   UNL     1      -4.716  -8.528  -2.999  1.00  0.00     0.037 A 
BRANCH  58  72
ATOM     72  C   UNL     1      -8.857  -7.058  -7.359  1.00  0.00     0.057 A 
ATOM     73  C   UNL     1      -7.879  -6.898  -8.363  1.00  0.00     0.134 A 
ATOM     74  C   UNL     1     -10.173  -7.080  -7.865  1.00  0.00     0.134 A 
ATOM     75  F   UNL     1      -6.571  -6.878  -8.073  1.00  0.00    -0.206 F 
ATOM     76  C   UNL     1      -8.186  -6.743  -9.726  1.00  0.00     0.040 A 
ATOM     77  C   UNL     1     -10.495  -6.927  -9.223  1.00  0.00     0.040 A 
ATOM     78  F   UNL     1     -11.246  -7.258  -7.097  1.00  0.00    -0.206 F 
ATOM     79  C   UNL     1      -9.500  -6.751 -10.162  1.00  0.00     0.006 A 
ENDBRANCH  58  72
BRANCH  59  80
ATOM     80  C   UNL     1      -6.436  -5.813   2.126  1.00  0.00     0.057 A 
ATOM     81  C   UNL     1      -6.474  -4.610   2.867  1.00  0.00     0.134 A 
ATOM     82  C   UNL     1      -7.461  -6.728   2.384  1.00  0.00     0.134 A 
ATOM     83  F   UNL     1      -5.560  -3.655   2.635  1.00  0.00    -0.206 F 
ATOM     84  C   UNL     1      -7.541  -4.273   3.709  1.00  0.00     0.040 A 
ATOM     85  C   UNL     1      -8.538  -6.399   3.227  1.00  0.00     0.040 A 
ATOM     86  F   UNL     1      -7.524  -7.887   1.714  1.00  0.00    -0.206 F 
ATOM     87  C   UNL     1      -8.605  -5.153   3.850  1.00  0.00     0.006 A 
ENDBRANCH  59  80
BRANCH  71  88
ATOM     88  C   UNL     1      -4.149  -9.825  -3.513  1.00  0.00     0.057 A 
ATOM     89  C   UNL     1      -3.792 -10.901  -2.686  1.00  0.00     0.134 A 
ATOM     90  C   UNL     1      -4.153 -10.110  -4.897  1.00  0.00     0.134 A 
ATOM     91  F   UNL     1      -3.851 -10.822  -1.350  1.00  0.00    -0.206 F 
ATOM     92  C   UNL     1      -3.421 -12.148  -3.196  1.00  0.00     0.040 A 
ATOM     93  C   UNL     1      -3.858 -11.373  -5.410  1.00  0.00     0.040 A 
ATOM     94  F   UNL     1      -4.485  -9.191  -5.815  1.00  0.00    -0.206 F 
ATOM     95  C   UNL     1      -3.475 -12.395  -4.559  1.00  0.00     0.006 A 
ENDBRANCH  71  88
ENDBRANCH  45  46
ENDBRANCH  38  40
ENDBRANCH  37  38
ENDBRANCH  36  37
ENDBRANCH  35  36
ENDBRANCH  34  35
ENDBRANCH   1  34
TORSDOF 18
