REMARK SMILES O=C(OCCOCCOC(=O)[C@@H]1[C@H](C(=O)Nc2ccccc2OC(F)F)[C@@H]2C=C[C@H]1C2)c1ccc(-c2c3nc(c(-c4c(F)cccc4F)c4ccc([nH]4)c(-c4c(F)cccc4F)c4nc(c(-c5c(F)cccc5F)c5ccc2[nH]5)C=C4)C=C3)cc1
REMARK SMILES IDX 7 1 6 2 5 3 4 4 3 5 2 6 1 7 32 8 33 9 85 10 34 11 84 12
REMARK SMILES IDX 35 13 36 14 37 15 78 16 38 17 83 18 77 19 79 20 39 21 82 22
REMARK SMILES IDX 76 23 75 24 40 26 66 27 49 28 65 29 50 30 53 31 64 32 80 33
REMARK SMILES IDX 51 34 52 35 63 37 81 38 54 39 41 40 42 41 47 42 43 43 44 44
REMARK SMILES IDX 46 45 48 46 45 47 67 48 68 49 73 50 69 51 70 52 72 53 74 54
REMARK SMILES IDX 71 55 55 56 56 57 61 58 57 59 58 60 60 61 62 62 59 63 8 64
REMARK SMILES IDX 9 65 10 66 11 67 12 68 13 69 30 70 27 71 29 72 31 73 28 74
REMARK SMILES IDX 14 75 15 76 16 77 17 79 18 80 22 81 19 82 21 83 20 84 23 85
REMARK SMILES IDX 24 86 25 87 26 88
REMARK H PARENT 79 25 53 36 16 78
REMARK Flexibility Score: inf
ROOT
ATOM      1  C   UNL     1       3.212  -0.557  -0.183  1.00  0.00     0.202 C 
ENDROOT
BRANCH   1   2
ATOM      2  O   UNL     1       4.534  -0.152   0.151  1.00  0.00    -0.374 OA
BRANCH   2   3
ATOM      3  C   UNL     1       4.749   0.014   1.544  1.00  0.00     0.202 C 
BRANCH   3   4
ATOM      4  C   UNL     1       4.390   1.426   2.015  1.00  0.00     0.261 C 
BRANCH   4   5
ATOM      5  O   UNL     1       3.008   1.762   1.769  1.00  0.00    -0.460 OA
BRANCH   5   6
ATOM      6  C   UNL     1       2.430   2.461   0.761  1.00  0.00     0.338 C 
ATOM      7  O   UNL     1       1.272   2.847   0.925  1.00  0.00    -0.246 OA
BRANCH   6   8
ATOM      8  C   UNL     1       3.039   2.682  -0.596  1.00  0.00     0.060 A 
ATOM      9  C   UNL     1       4.333   2.325  -0.979  1.00  0.00     0.016 A 
ATOM     10  C   UNL     1       2.198   3.218  -1.594  1.00  0.00     0.016 A 
ATOM     11  C   UNL     1       4.754   2.379  -2.302  1.00  0.00     0.010 A 
ATOM     12  C   UNL     1       2.650   3.401  -2.905  1.00  0.00     0.010 A 
ATOM     13  C   UNL     1       3.942   2.993  -3.248  1.00  0.00    -0.014 A 
BRANCH  13  14
ATOM     14  C   UNL     1       4.621   3.545  -4.430  1.00  0.00     0.031 A 
ATOM     15  C   UNL     1       5.364   4.833  -4.214  1.00  0.00     0.074 A 
ATOM     16  C   UNL     1       4.653   2.884  -5.594  1.00  0.00     0.049 A 
ATOM     17  N   UNL     1       6.015   5.574  -5.065  1.00  0.00    -0.248 NA
ATOM     18  C   UNL     1       5.404   5.343  -2.829  1.00  0.00     0.031 C 
ATOM     19  C   UNL     1       4.081   1.559  -5.833  1.00  0.00     0.029 A 
ATOM     20  N   UNL     1       5.192   3.244  -6.799  1.00  0.00    -0.354 N 
ATOM     21  C   UNL     1       6.528   6.629  -4.318  1.00  0.00     0.074 A 
ATOM     22  C   UNL     1       6.141   6.419  -2.945  1.00  0.00     0.031 C 
ATOM     23  C   UNL     1       4.265   1.236  -7.126  1.00  0.00     0.029 A 
ATOM     24  C   UNL     1       4.918   2.352  -7.805  1.00  0.00     0.049 A 
ATOM     25  H   UNL     1       5.724   4.062  -6.931  1.00  0.00     0.167 HD
ATOM     26  C   UNL     1       7.219   7.702  -4.753  1.00  0.00     0.037 A 
ATOM     27  C   UNL     1       5.127   2.474  -9.130  1.00  0.00     0.037 A 
ATOM     28  C   UNL     1       7.495   7.923  -6.141  1.00  0.00     0.049 A 
ATOM     29  C   UNL     1       5.781   3.740  -9.624  1.00  0.00     0.074 A 
ATOM     30  C   UNL     1       8.082   9.012  -6.749  1.00  0.00     0.029 A 
ATOM     31  N   UNL     1       7.155   7.023  -7.145  1.00  0.00    -0.354 N 
ATOM     32  N   UNL     1       6.218   4.766  -8.928  1.00  0.00    -0.248 NA
ATOM     33  C   UNL     1       5.958   3.880 -11.074  1.00  0.00     0.031 C 
ATOM     34  C   UNL     1       8.049   8.794  -8.131  1.00  0.00     0.029 A 
ATOM     35  C   UNL     1       7.497   7.542  -8.376  1.00  0.00     0.049 A 
ATOM     36  H   UNL     1       6.733   6.146  -6.999  1.00  0.00     0.167 HD
ATOM     37  C   UNL     1       6.737   5.666  -9.850  1.00  0.00     0.074 A 
ATOM     38  C   UNL     1       6.562   5.059 -11.156  1.00  0.00     0.031 C 
ATOM     39  C   UNL     1       7.307   6.880  -9.645  1.00  0.00     0.037 A 
BRANCH  26  40
ATOM     40  C   UNL     1       7.561   8.736  -3.720  1.00  0.00     0.057 A 
ATOM     41  C   UNL     1       8.511   8.502  -2.715  1.00  0.00     0.134 A 
ATOM     42  C   UNL     1       6.829   9.928  -3.651  1.00  0.00     0.134 A 
ATOM     43  F   UNL     1       9.210   7.357  -2.694  1.00  0.00    -0.206 F 
ATOM     44  C   UNL     1       8.688   9.396  -1.657  1.00  0.00     0.040 A 
ATOM     45  C   UNL     1       7.017  10.841  -2.612  1.00  0.00     0.040 A 
ATOM     46  F   UNL     1       5.889  10.204  -4.566  1.00  0.00    -0.206 F 
ATOM     47  C   UNL     1       7.938  10.569  -1.603  1.00  0.00     0.006 A 
ENDBRANCH  26  40
BRANCH  27  48
ATOM     48  C   UNL     1       4.647   1.416 -10.057  1.00  0.00     0.057 A 
ATOM     49  C   UNL     1       5.533   0.608 -10.777  1.00  0.00     0.134 A 
ATOM     50  C   UNL     1       3.277   1.164 -10.220  1.00  0.00     0.134 A 
ATOM     51  F   UNL     1       6.856   0.808 -10.686  1.00  0.00    -0.206 F 
ATOM     52  C   UNL     1       5.077  -0.411 -11.619  1.00  0.00     0.040 A 
ATOM     53  C   UNL     1       2.808   0.135 -11.039  1.00  0.00     0.040 A 
ATOM     54  F   UNL     1       2.370   1.902  -9.561  1.00  0.00    -0.206 F 
ATOM     55  C   UNL     1       3.710  -0.656 -11.744  1.00  0.00     0.006 A 
ENDBRANCH  27  48
BRANCH  39  56
ATOM     56  C   UNL     1       7.818   7.611 -10.847  1.00  0.00     0.057 A 
ATOM     57  C   UNL     1       6.958   8.289 -11.716  1.00  0.00     0.134 A 
ATOM     58  C   UNL     1       9.197   7.740 -11.053  1.00  0.00     0.134 A 
ATOM     59  F   UNL     1       5.628   8.197 -11.568  1.00  0.00    -0.206 F 
ATOM     60  C   UNL     1       7.455   9.075 -12.755  1.00  0.00     0.040 A 
ATOM     61  C   UNL     1       9.705   8.542 -12.072  1.00  0.00     0.040 A 
ATOM     62  F   UNL     1      10.068   7.124 -10.238  1.00  0.00    -0.206 F 
ATOM     63  C   UNL     1       8.832   9.214 -12.925  1.00  0.00     0.006 A 
ENDBRANCH  39  56
ENDBRANCH  13  14
ENDBRANCH   6   8
ENDBRANCH   5   6
ENDBRANCH   4   5
ENDBRANCH   3   4
ENDBRANCH   2   3
ENDBRANCH   1   2
BRANCH   1  64
ATOM     64  C   UNL     1       3.297  -1.965  -0.672  1.00  0.00     0.261 C 
BRANCH  64  65
ATOM     65  O   UNL     1       3.559  -2.863   0.428  1.00  0.00    -0.463 OA
BRANCH  65  66
ATOM     66  C   UNL     1       4.769  -3.486   0.391  1.00  0.00     0.310 C 
ATOM     67  O   UNL     1       5.678  -3.191  -0.380  1.00  0.00    -0.252 OA
BRANCH  66  68
ATOM     68  C   UNL     1       4.926  -4.577   1.412  1.00  0.00     0.119 C 
ATOM     69  C   UNL     1       5.065  -6.106   1.091  1.00  0.00     0.100 C 
ATOM     70  C   UNL     1       4.002  -4.554   2.657  1.00  0.00     0.027 C 
ATOM     71  C   UNL     1       4.298  -6.748   2.287  1.00  0.00     0.025 C 
ATOM     72  C   UNL     1       2.651  -5.150   2.353  1.00  0.00    -0.027 C 
ATOM     73  C   UNL     1       4.595  -5.752   3.421  1.00  0.00     0.017 C 
ATOM     74  C   UNL     1       2.825  -6.463   2.149  1.00  0.00    -0.027 C 
BRANCH  69  75
ATOM     75  C   UNL     1       4.974  -7.010  -0.167  1.00  0.00     0.229 C 
ATOM     76  O   UNL     1       5.953  -7.751  -0.386  1.00  0.00    -0.274 OA
ATOM     77  N   UNL     1       3.894  -7.305  -0.944  1.00  0.00    -0.323 N 
ATOM     78  H   UNL     1       4.005  -8.132  -1.467  1.00  0.00     0.170 HD
BRANCH  77  79
ATOM     79  C   UNL     1       2.666  -6.682  -1.152  1.00  0.00     0.084 A 
ATOM     80  C   UNL     1       1.519  -7.472  -1.292  1.00  0.00     0.030 A 
ATOM     81  C   UNL     1       2.522  -5.317  -1.238  1.00  0.00     0.149 A 
ATOM     82  C   UNL     1       0.247  -6.897  -1.183  1.00  0.00     0.002 A 
ATOM     83  C   UNL     1       1.270  -4.755  -0.966  1.00  0.00     0.049 A 
ATOM     84  C   UNL     1       0.130  -5.543  -0.912  1.00  0.00     0.004 A 
BRANCH  81  85
ATOM     85  O   UNL     1       3.495  -4.462  -1.633  1.00  0.00    -0.433 OA
BRANCH  85  86
ATOM     86  C   UNL     1       4.457  -4.813  -2.630  1.00  0.00     0.542 C 
ATOM     87  F   UNL     1       5.529  -5.400  -2.057  1.00  0.00    -0.167 F 
ATOM     88  F   UNL     1       3.928  -5.661  -3.539  1.00  0.00    -0.167 F 
ENDBRANCH  85  86
ENDBRANCH  81  85
ENDBRANCH  77  79
ENDBRANCH  69  75
ENDBRANCH  66  68
ENDBRANCH  65  66
ENDBRANCH  64  65
ENDBRANCH   1  64
TORSDOF 18
