REMARK SMILES O=C(N[C@]1(C(=O)OCCOCCOC(=O)c2ccc(-c3c4nc(c(-c5c(F)cccc5F)c5ccc([nH]5)c(-c5c(F)cccc5F)c5nc(c(-c6c(F)cccc6F)c6ccc3[nH]6)C=C5)C=C4)cc2)CC[C@H](c2ccccc2)CC1)OCC1c2ccccc2-c2ccccc21
REMARK SMILES IDX 9 1 8 2 7 3 5 4 6 5 4 6 70 7 80 8 71 9 79 10 72 11 3 12 1 13
REMARK SMILES IDX 2 14 81 16 82 17 83 18 84 19 95 20 85 21 89 22 90 23 94 24
REMARK SMILES IDX 86 25 88 26 91 27 93 28 87 29 92 30 73 31 74 32 78 33 75 34
REMARK SMILES IDX 77 35 76 36 10 37 11 38 12 39 13 40 14 41 15 42 16 43 17 44
REMARK SMILES IDX 69 45 18 46 68 47 19 48 20 49 21 50 62 51 22 52 67 53 61 54
REMARK SMILES IDX 63 55 23 56 66 57 60 58 59 59 24 61 50 62 33 63 49 64 34 65
REMARK SMILES IDX 37 66 48 67 64 68 35 69 36 70 47 72 65 73 38 74 25 75 26 76
REMARK SMILES IDX 31 77 27 78 28 79 30 80 32 81 29 82 51 83 52 84 57 85 53 86
REMARK SMILES IDX 54 87 56 88 58 89 55 90 39 91 40 92 45 93 41 94 42 95 44 96
REMARK SMILES IDX 46 97 43 98
REMARK H PARENT 3 15 63 60 37 71
REMARK Flexibility Score: inf
ROOT
ATOM      1  C   UNL     1       5.798   1.762  -4.545  1.00  0.00     0.202 C 
ENDROOT
BRANCH   1   2
ATOM      2  C   UNL     1       5.745   1.853  -3.019  1.00  0.00     0.261 C 
BRANCH   2   3
ATOM      3  O   UNL     1       5.644   0.568  -2.377  1.00  0.00    -0.461 OA
BRANCH   3   4
ATOM      4  C   UNL     1       4.465   0.322  -1.731  1.00  0.00     0.332 C 
ATOM      5  O   UNL     1       3.456   1.010  -1.857  1.00  0.00    -0.249 OA
BRANCH   4   6
ATOM      6  C   UNL     1       4.543  -0.945  -0.825  1.00  0.00     0.141 C 
ATOM      7  C   UNL     1       5.808  -0.777   0.029  1.00  0.00     0.041 C 
ATOM      8  C   UNL     1       4.462  -2.260  -1.638  1.00  0.00     0.041 C 
ATOM      9  C   UNL     1       7.037  -1.569  -0.387  1.00  0.00     0.011 C 
ATOM     10  C   UNL     1       5.759  -3.006  -1.925  1.00  0.00     0.011 C 
ATOM     11  C   UNL     1       6.747  -3.021  -0.761  1.00  0.00     0.019 C 
BRANCH   6  12
ATOM     12  N   UNL     1       3.241  -0.900  -0.077  1.00  0.00    -0.305 N 
ATOM     13  O   UNL     1       1.672  -0.563   1.497  1.00  0.00    -0.225 OA
ATOM     14  C   UNL     1       2.864  -0.652   1.198  1.00  0.00     0.408 C 
ATOM     15  H   UNL     1       2.473  -1.101  -0.659  1.00  0.00     0.168 HD
BRANCH  14  16
ATOM     16  O   UNL     1       3.860  -0.464   2.097  1.00  0.00    -0.449 OA
BRANCH  16  17
ATOM     17  C   UNL     1       3.973   0.928   2.344  1.00  0.00     0.248 C 
BRANCH  17  18
ATOM     18  C   UNL     1       5.246   1.399   3.089  1.00  0.00     0.088 C 
ATOM     19  C   UNL     1       6.565   0.650   2.908  1.00  0.00    -0.029 A 
ATOM     20  C   UNL     1       5.587   2.747   2.432  1.00  0.00    -0.029 A 
ATOM     21  C   UNL     1       6.946  -0.587   3.412  1.00  0.00     0.005 A 
ATOM     22  C   UNL     1       7.476   1.429   2.155  1.00  0.00    -0.014 A 
ATOM     23  C   UNL     1       6.834   2.668   1.782  1.00  0.00    -0.014 A 
ATOM     24  C   UNL     1       4.737   3.830   2.256  1.00  0.00     0.005 A 
ATOM     25  C   UNL     1       8.245  -1.042   3.151  1.00  0.00     0.000 A 
ATOM     26  C   UNL     1       8.761   0.976   1.892  1.00  0.00     0.009 A 
ATOM     27  C   UNL     1       7.205   3.642   0.872  1.00  0.00     0.009 A 
ATOM     28  C   UNL     1       5.112   4.808   1.339  1.00  0.00     0.000 A 
ATOM     29  C   UNL     1       9.147  -0.266   2.403  1.00  0.00     0.001 A 
ATOM     30  C   UNL     1       6.325   4.705   0.639  1.00  0.00     0.001 A 
ENDBRANCH  17  18
ENDBRANCH  16  17
ENDBRANCH  14  16
ENDBRANCH   6  12
BRANCH  11  31
ATOM     31  C   UNL     1       6.413  -3.980   0.384  1.00  0.00    -0.045 A 
ATOM     32  C   UNL     1       5.559  -3.691   1.459  1.00  0.00     0.004 A 
ATOM     33  C   UNL     1       7.027  -5.245   0.395  1.00  0.00     0.004 A 
ATOM     34  C   UNL     1       5.394  -4.570   2.536  1.00  0.00     0.000 A 
ATOM     35  C   UNL     1       6.843  -6.142   1.455  1.00  0.00     0.000 A 
ATOM     36  C   UNL     1       6.042  -5.796   2.538  1.00  0.00     0.000 A 
ENDBRANCH  11  31
ENDBRANCH   4   6
ENDBRANCH   3   4
ENDBRANCH   2   3
ENDBRANCH   1   2
BRANCH   1  37
ATOM     37  O   UNL     1       4.622   1.323  -5.216  1.00  0.00    -0.374 OA
BRANCH  37  38
ATOM     38  C   UNL     1       4.217  -0.032  -5.054  1.00  0.00     0.202 C 
BRANCH  38  39
ATOM     39  C   UNL     1       5.056  -1.105  -5.755  1.00  0.00     0.261 C 
BRANCH  39  40
ATOM     40  O   UNL     1       6.413  -1.162  -5.277  1.00  0.00    -0.460 OA
BRANCH  40  41
ATOM     41  C   UNL     1       7.340  -0.803  -6.198  1.00  0.00     0.338 C 
ATOM     42  O   UNL     1       7.144  -0.488  -7.362  1.00  0.00    -0.246 OA
BRANCH  41  43
ATOM     43  C   UNL     1       8.674  -0.681  -5.586  1.00  0.00     0.060 A 
ATOM     44  C   UNL     1       9.340   0.541  -5.744  1.00  0.00     0.016 A 
ATOM     45  C   UNL     1       9.325  -1.779  -5.020  1.00  0.00     0.016 A 
ATOM     46  C   UNL     1      10.686   0.650  -5.406  1.00  0.00     0.010 A 
ATOM     47  C   UNL     1      10.681  -1.669  -4.687  1.00  0.00     0.010 A 
ATOM     48  C   UNL     1      11.377  -0.470  -4.926  1.00  0.00    -0.014 A 
BRANCH  48  49
ATOM     49  C   UNL     1      12.858  -0.421  -4.856  1.00  0.00     0.031 A 
ATOM     50  C   UNL     1      13.663  -1.024  -5.977  1.00  0.00     0.074 A 
ATOM     51  C   UNL     1      13.480   0.209  -3.844  1.00  0.00     0.049 A 
ATOM     52  N   UNL     1      14.961  -1.096  -6.122  1.00  0.00    -0.248 NA
ATOM     53  C   UNL     1      12.899  -1.622  -7.085  1.00  0.00     0.031 C 
ATOM     54  C   UNL     1      12.812   0.875  -2.728  1.00  0.00     0.029 A 
ATOM     55  N   UNL     1      14.817   0.391  -3.597  1.00  0.00    -0.354 N 
ATOM     56  C   UNL     1      15.171  -1.747  -7.332  1.00  0.00     0.074 A 
ATOM     57  C   UNL     1      13.867  -2.078  -7.866  1.00  0.00     0.031 C 
ATOM     58  C   UNL     1      13.745   1.387  -1.907  1.00  0.00     0.029 A 
ATOM     59  C   UNL     1      15.072   1.059  -2.426  1.00  0.00     0.049 A 
ATOM     60  H   UNL     1      15.525   0.073  -4.202  1.00  0.00     0.167 HD
ATOM     61  C   UNL     1      16.342  -2.033  -7.950  1.00  0.00     0.037 A 
ATOM     62  C   UNL     1      16.244   1.353  -1.831  1.00  0.00     0.037 A 
ATOM     63  C   UNL     1      17.639  -1.702  -7.421  1.00  0.00     0.049 A 
ATOM     64  C   UNL     1      17.535   0.960  -2.500  1.00  0.00     0.074 A 
ATOM     65  C   UNL     1      18.884  -1.944  -7.975  1.00  0.00     0.029 A 
ATOM     66  N   UNL     1      17.856  -1.059  -6.212  1.00  0.00    -0.354 N 
ATOM     67  N   UNL     1      17.720   0.355  -3.649  1.00  0.00    -0.248 NA
ATOM     68  C   UNL     1      18.779   1.294  -1.791  1.00  0.00     0.031 C 
ATOM     69  C   UNL     1      19.857  -1.487  -7.079  1.00  0.00     0.029 A 
ATOM     70  C   UNL     1      19.216  -0.917  -5.990  1.00  0.00     0.049 A 
ATOM     71  H   UNL     1      17.149  -0.750  -5.601  1.00  0.00     0.167 HD
ATOM     72  C   UNL     1      19.097   0.260  -3.812  1.00  0.00     0.074 A 
ATOM     73  C   UNL     1      19.699   0.880  -2.650  1.00  0.00     0.031 C 
ATOM     74  C   UNL     1      19.800  -0.292  -4.832  1.00  0.00     0.037 A 
BRANCH  61  75
ATOM     75  C   UNL     1      16.273  -2.762  -9.260  1.00  0.00     0.057 A 
ATOM     76  C   UNL     1      15.837  -2.134 -10.434  1.00  0.00     0.134 A 
ATOM     77  C   UNL     1      16.679  -4.099  -9.354  1.00  0.00     0.134 A 
ATOM     78  F   UNL     1      15.421  -0.859 -10.409  1.00  0.00    -0.206 F 
ATOM     79  C   UNL     1      15.788  -2.817 -11.651  1.00  0.00     0.040 A 
ATOM     80  C   UNL     1      16.657  -4.785 -10.570  1.00  0.00     0.040 A 
ATOM     81  F   UNL     1      17.111  -4.758  -8.268  1.00  0.00    -0.206 F 
ATOM     82  C   UNL     1      16.206  -4.145 -11.722  1.00  0.00     0.006 A 
ENDBRANCH  61  75
BRANCH  62  83
ATOM     83  C   UNL     1      16.254   2.042  -0.515  1.00  0.00     0.057 A 
ATOM     84  C   UNL     1      16.716   3.356  -0.383  1.00  0.00     0.134 A 
ATOM     85  C   UNL     1      15.818   1.391   0.645  1.00  0.00     0.134 A 
ATOM     86  F   UNL     1      17.169   4.023  -1.455  1.00  0.00    -0.206 F 
ATOM     87  C   UNL     1      16.759   3.993   0.858  1.00  0.00     0.040 A 
ATOM     88  C   UNL     1      15.831   2.025   1.888  1.00  0.00     0.040 A 
ATOM     89  F   UNL     1      15.361   0.131   0.585  1.00  0.00    -0.206 F 
ATOM     90  C   UNL     1      16.310   3.329   1.998  1.00  0.00     0.006 A 
ENDBRANCH  62  83
BRANCH  74  91
ATOM     91  C   UNL     1      21.297  -0.221  -4.754  1.00  0.00     0.057 A 
ATOM     92  C   UNL     1      22.030  -1.015  -3.864  1.00  0.00     0.134 A 
ATOM     93  C   UNL     1      22.016   0.623  -5.611  1.00  0.00     0.134 A 
ATOM     94  F   UNL     1      21.401  -1.835  -3.008  1.00  0.00    -0.206 F 
ATOM     95  C   UNL     1      23.424  -0.957  -3.813  1.00  0.00     0.040 A 
ATOM     96  C   UNL     1      23.410   0.671  -5.587  1.00  0.00     0.040 A 
ATOM     97  F   UNL     1      21.375   1.403  -6.495  1.00  0.00    -0.206 F 
ATOM     98  C   UNL     1      24.118  -0.116  -4.682  1.00  0.00     0.006 A 
ENDBRANCH  74  91
ENDBRANCH  48  49
ENDBRANCH  41  43
ENDBRANCH  40  41
ENDBRANCH  39  40
ENDBRANCH  38  39
ENDBRANCH  37  38
ENDBRANCH   1  37
TORSDOF 19
