REMARK SMILES C=CCN(CC(=O)OCCOCCOC(=O)c1ccc(-c2c3nc(c(-c4c(F)cccc4F)c4ccc([nH]4)c(-c4c(F)cccc4F)c4nc(c(-c5c(F)cccc5F)c5ccc2[nH]5)C=C4)C=C3)cc1)C(=O)NC1CCCC1
REMARK SMILES IDX 10 1 9 2 8 3 6 4 7 5 5 6 4 7 3 8 2 9 1 10 71 11 72 12 73 13
REMARK SMILES IDX 74 15 75 16 78 17 76 18 77 19 11 20 12 21 13 22 14 23 15 24
REMARK SMILES IDX 16 25 17 26 18 27 70 28 19 29 69 30 20 31 21 32 22 33 63 34
REMARK SMILES IDX 23 35 68 36 62 37 64 38 24 39 67 40 61 41 60 42 25 44 51 45
REMARK SMILES IDX 34 46 50 47 35 48 38 49 49 50 65 51 36 52 37 53 48 55 66 56
REMARK SMILES IDX 39 57 26 58 27 59 32 60 28 61 29 62 31 63 33 64 30 65 52 66
REMARK SMILES IDX 53 67 58 68 54 69 55 70 57 71 59 72 56 73 40 74 41 75 46 76
REMARK SMILES IDX 42 77 43 78 45 79 47 80 44 81
REMARK H PARENT 73 14 64 43 38 54
REMARK Flexibility Score: inf
ROOT
ATOM      1  C   UNL     1      -6.481   2.964   0.815  1.00  0.00     0.202 C 
ENDROOT
BRANCH   1   2
ATOM      2  C   UNL     1      -5.953   2.533  -0.559  1.00  0.00     0.261 C 
BRANCH   2   3
ATOM      3  O   UNL     1      -4.527   2.257  -0.550  1.00  0.00    -0.462 OA
BRANCH   3   4
ATOM      4  C   UNL     1      -3.920   2.446  -1.754  1.00  0.00     0.325 C 
ATOM      5  O   UNL     1      -4.532   2.725  -2.784  1.00  0.00    -0.250 OA
BRANCH   4   6
ATOM      6  C   UNL     1      -2.401   2.223  -1.775  1.00  0.00     0.244 C 
BRANCH   6   7
ATOM      7  N   UNL     1      -1.621   2.033  -0.551  1.00  0.00    -0.310 N 
BRANCH   7   8
ATOM      8  C   UNL     1      -1.191   0.649  -0.315  1.00  0.00     0.149 C 
BRANCH   8   9
ATOM      9  C   UNL     1       0.243   0.503  -0.775  1.00  0.00    -0.013 C 
ATOM     10  C   UNL     1       1.198  -0.116  -0.064  1.00  0.00     0.006 C 
ENDBRANCH   8   9
ENDBRANCH   7   8
BRANCH   7  11
ATOM     11  C   UNL     1      -1.026   2.960   0.254  1.00  0.00     0.318 C 
ATOM     12  O   UNL     1      -0.396   2.622   1.265  1.00  0.00    -0.249 OA
ATOM     13  N   UNL     1      -0.955   4.279   0.015  1.00  0.00    -0.335 N 
ATOM     14  H   UNL     1      -0.071   4.628   0.272  1.00  0.00     0.165 HD
BRANCH  13  15
ATOM     15  C   UNL     1      -1.790   5.346  -0.508  1.00  0.00     0.083 C 
ATOM     16  C   UNL     1      -1.171   6.726  -0.254  1.00  0.00     0.025 C 
ATOM     17  C   UNL     1      -2.097   5.391  -1.994  1.00  0.00     0.025 C 
ATOM     18  C   UNL     1      -2.067   7.643  -1.069  1.00  0.00     0.002 C 
ATOM     19  C   UNL     1      -2.337   6.858  -2.343  1.00  0.00     0.002 C 
ENDBRANCH  13  15
ENDBRANCH   7  11
ENDBRANCH   6   7
ENDBRANCH   4   6
ENDBRANCH   3   4
ENDBRANCH   2   3
ENDBRANCH   1   2
BRANCH   1  20
ATOM     20  O   UNL     1      -6.106   4.255   1.302  1.00  0.00    -0.374 OA
BRANCH  20  21
ATOM     21  C   UNL     1      -4.716   4.546   1.321  1.00  0.00     0.202 C 
BRANCH  21  22
ATOM     22  C   UNL     1      -3.874   3.964   2.465  1.00  0.00     0.261 C 
BRANCH  22  23
ATOM     23  O   UNL     1      -4.167   2.592   2.728  1.00  0.00    -0.460 OA
BRANCH  23  24
ATOM     24  C   UNL     1      -4.931   2.404   3.826  1.00  0.00     0.338 C 
ATOM     25  O   UNL     1      -5.275   3.234   4.657  1.00  0.00    -0.246 OA
BRANCH  24  26
ATOM     26  C   UNL     1      -5.497   1.052   3.784  1.00  0.00     0.060 A 
ATOM     27  C   UNL     1      -6.893   0.953   3.797  1.00  0.00     0.016 A 
ATOM     28  C   UNL     1      -4.688  -0.086   3.753  1.00  0.00     0.016 A 
ATOM     29  C   UNL     1      -7.493  -0.295   3.836  1.00  0.00     0.010 A 
ATOM     30  C   UNL     1      -5.292  -1.342   3.811  1.00  0.00     0.010 A 
ATOM     31  C   UNL     1      -6.693  -1.442   3.899  1.00  0.00    -0.014 A 
BRANCH  31  32
ATOM     32  C   UNL     1      -7.337  -2.714   4.280  1.00  0.00     0.031 A 
ATOM     33  C   UNL     1      -7.289  -3.125   5.723  1.00  0.00     0.074 A 
ATOM     34  C   UNL     1      -8.024  -3.429   3.375  1.00  0.00     0.049 A 
ATOM     35  N   UNL     1      -7.817  -4.168   6.308  1.00  0.00    -0.248 NA
ATOM     36  C   UNL     1      -6.545  -2.236   6.632  1.00  0.00     0.031 C 
ATOM     37  C   UNL     1      -8.172  -3.082   1.962  1.00  0.00     0.029 A 
ATOM     38  N   UNL     1      -8.735  -4.590   3.516  1.00  0.00    -0.354 N 
ATOM     39  C   UNL     1      -7.466  -4.061   7.649  1.00  0.00     0.074 A 
ATOM     40  C   UNL     1      -6.649  -2.877   7.785  1.00  0.00     0.031 C 
ATOM     41  C   UNL     1      -8.931  -4.016   1.364  1.00  0.00     0.029 A 
ATOM     42  C   UNL     1      -9.295  -5.035   2.345  1.00  0.00     0.049 A 
ATOM     43  H   UNL     1      -8.835  -5.061   4.375  1.00  0.00     0.167 HD
ATOM     44  C   UNL     1      -7.808  -4.875   8.674  1.00  0.00     0.037 A 
ATOM     45  C   UNL     1     -10.010  -6.149   2.101  1.00  0.00     0.037 A 
ATOM     46  C   UNL     1      -8.618  -6.053   8.519  1.00  0.00     0.049 A 
ATOM     47  C   UNL     1     -10.322  -7.075   3.246  1.00  0.00     0.074 A 
ATOM     48  C   UNL     1      -9.028  -6.954   9.484  1.00  0.00     0.029 A 
ATOM     49  N   UNL     1      -9.134  -6.497   7.309  1.00  0.00    -0.354 N 
ATOM     50  N   UNL     1     -10.000  -6.963   4.513  1.00  0.00    -0.248 NA
ATOM     51  C   UNL     1     -11.105  -8.276   2.930  1.00  0.00     0.031 C 
ATOM     52  C   UNL     1      -9.745  -7.973   8.849  1.00  0.00     0.029 A 
ATOM     53  C   UNL     1      -9.839  -7.672   7.498  1.00  0.00     0.049 A 
ATOM     54  H   UNL     1      -9.016  -6.042   6.443  1.00  0.00     0.167 HD
ATOM     55  C   UNL     1     -10.569  -8.057   5.152  1.00  0.00     0.074 A 
ATOM     56  C   UNL     1     -11.264  -8.816   4.130  1.00  0.00     0.031 C 
ATOM     57  C   UNL     1     -10.528  -8.403   6.463  1.00  0.00     0.037 A 
BRANCH  44  58
ATOM     58  C   UNL     1      -7.267  -4.534  10.033  1.00  0.00     0.057 A 
ATOM     59  C   UNL     1      -7.693  -3.404  10.746  1.00  0.00     0.134 A 
ATOM     60  C   UNL     1      -6.297  -5.346  10.635  1.00  0.00     0.134 A 
ATOM     61  F   UNL     1      -8.604  -2.572  10.220  1.00  0.00    -0.206 F 
ATOM     62  C   UNL     1      -7.152  -3.078  11.991  1.00  0.00     0.040 A 
ATOM     63  C   UNL     1      -5.771  -5.047  11.893  1.00  0.00     0.040 A 
ATOM     64  F   UNL     1      -5.842  -6.442  10.010  1.00  0.00    -0.206 F 
ATOM     65  C   UNL     1      -6.191  -3.904  12.571  1.00  0.00     0.006 A 
ENDBRANCH  44  58
BRANCH  45  66
ATOM     66  C   UNL     1     -10.475  -6.444   0.722  1.00  0.00     0.057 A 
ATOM     67  C   UNL     1     -11.833  -6.412   0.386  1.00  0.00     0.134 A 
ATOM     68  C   UNL     1      -9.568  -6.766  -0.296  1.00  0.00     0.134 A 
ATOM     69  F   UNL     1     -12.753  -6.127   1.319  1.00  0.00    -0.206 F 
ATOM     70  C   UNL     1     -12.274  -6.704  -0.906  1.00  0.00     0.040 A 
ATOM     71  C   UNL     1      -9.992  -7.034  -1.598  1.00  0.00     0.040 A 
ATOM     72  F   UNL     1      -8.252  -6.808  -0.041  1.00  0.00    -0.206 F 
ATOM     73  C   UNL     1     -11.351  -7.011  -1.904  1.00  0.00     0.006 A 
ENDBRANCH  45  66
BRANCH  57  74
ATOM     74  C   UNL     1     -11.298  -9.626   6.873  1.00  0.00     0.057 A 
ATOM     75  C   UNL     1     -10.891 -10.918   6.518  1.00  0.00     0.134 A 
ATOM     76  C   UNL     1     -12.445  -9.505   7.668  1.00  0.00     0.134 A 
ATOM     77  F   UNL     1      -9.806 -11.103   5.750  1.00  0.00    -0.206 F 
ATOM     78  C   UNL     1     -11.615 -12.044   6.913  1.00  0.00     0.040 A 
ATOM     79  C   UNL     1     -13.159 -10.624   8.097  1.00  0.00     0.040 A 
ATOM     80  F   UNL     1     -12.883  -8.297   8.055  1.00  0.00    -0.206 F 
ATOM     81  C   UNL     1     -12.749 -11.898   7.711  1.00  0.00     0.006 A 
ENDBRANCH  57  74
ENDBRANCH  31  32
ENDBRANCH  24  26
ENDBRANCH  23  24
ENDBRANCH  22  23
ENDBRANCH  21  22
ENDBRANCH  20  21
ENDBRANCH   1  20
TORSDOF 19
