REMARK SMILES CC[C@@H]1CCC[C@@H]([NH+]2CC(n3cc(C(=O)OCCOCCOC(=O)c4ccc(-c5c6nc(c(-c7c(F)cccc7F)c7ccc([nH]7)c(-c7c(F)cccc7F)c7nc(c(-c8c(F)cccc8F)c8ccc5[nH]8)C=C7)C=C6)cc4)nn3)C2)C1
REMARK SMILES IDX 18 1 17 2 16 3 14 4 15 5 13 6 11 7 12 8 80 9 79 10 10 11
REMARK SMILES IDX 8 12 9 13 81 14 7 16 3 17 4 18 82 19 5 20 6 21 2 22 1 23
REMARK SMILES IDX 19 24 20 25 21 26 22 27 23 28 24 29 25 30 26 31 78 32 27 33
REMARK SMILES IDX 77 34 28 35 29 36 30 37 71 38 31 39 76 40 70 41 72 42 32 43
REMARK SMILES IDX 75 44 69 45 68 46 33 48 59 49 42 50 58 51 43 52 46 53 57 54
REMARK SMILES IDX 73 55 44 56 45 57 56 59 74 60 47 61 34 62 35 63 40 64 36 65
REMARK SMILES IDX 37 66 39 67 41 68 38 69 60 70 61 71 66 72 62 73 63 74 65 75
REMARK SMILES IDX 67 76 64 77 48 78 49 79 54 80 50 81 51 82 53 83 55 84 52 85
REMARK H PARENT 8 15 72 47 46 58
REMARK Flexibility Score: inf
ROOT
ATOM      1  C   UNL     1       6.654 -11.674   1.813  1.00  0.00     0.202 C 
ENDROOT
BRANCH   1   2
ATOM      2  C   UNL     1       6.577 -10.964   3.164  1.00  0.00     0.261 C 
BRANCH   2   3
ATOM      3  O   UNL     1       5.845  -9.734   3.098  1.00  0.00    -0.458 OA
BRANCH   3   4
ATOM      4  C   UNL     1       6.630  -8.611   3.056  1.00  0.00     0.360 C 
ATOM      5  O   UNL     1       7.847  -8.615   3.124  1.00  0.00    -0.244 OA
BRANCH   4   6
ATOM      6  C   UNL     1       5.848  -7.410   2.826  1.00  0.00     0.190 A 
ATOM      7  N   UNL     1       4.316  -5.897   2.644  1.00  0.00    -0.237 N 
ATOM      8  C   UNL     1       4.490  -7.211   2.970  1.00  0.00     0.147 A 
ATOM      9  N   UNL     1       5.464  -5.344   2.224  1.00  0.00    -0.066 NA
ATOM     10  N   UNL     1       6.417  -6.253   2.353  1.00  0.00    -0.123 NA
BRANCH   7  11
ATOM     11  C   UNL     1       3.041  -5.296   2.462  1.00  0.00     0.218 C 
ATOM     12  N   UNL     1       1.962  -3.551   2.976  1.00  0.00    -0.329 N 
ATOM     13  C   UNL     1       3.066  -3.823   2.032  1.00  0.00     0.296 C 
ATOM     14  C   UNL     1       2.367  -4.766   3.741  1.00  0.00     0.296 C 
ATOM     15  H   UNL     1       1.886  -2.631   3.407  1.00  0.00     0.348 HD
BRANCH  12  16
ATOM     16  C   UNL     1       0.580  -3.595   2.448  1.00  0.00     0.184 C 
ATOM     17  C   UNL     1       0.719  -2.258   0.226  1.00  0.00    -0.006 C 
ATOM     18  C   UNL     1       0.271  -3.514  -0.545  1.00  0.00     0.004 C 
ATOM     19  C   UNL     1       0.233  -2.291   1.687  1.00  0.00     0.068 C 
ATOM     20  C   UNL     1       0.532  -4.828   0.183  1.00  0.00     0.006 C 
ATOM     21  C   UNL     1       0.054  -4.792   1.631  1.00  0.00     0.065 C 
BRANCH  17  22
ATOM     22  C   UNL     1       0.239  -1.005  -0.530  1.00  0.00     0.000 C 
ATOM     23  C   UNL     1       0.830   0.289   0.011  1.00  0.00     0.004 C 
ENDBRANCH  17  22
ENDBRANCH  12  16
ENDBRANCH   7  11
ENDBRANCH   4   6
ENDBRANCH   3   4
ENDBRANCH   2   3
ENDBRANCH   1   2
BRANCH   1  24
ATOM     24  O   UNL     1       7.345 -11.019   0.751  1.00  0.00    -0.374 OA
BRANCH  24  25
ATOM     25  C   UNL     1       6.733  -9.937   0.054  1.00  0.00     0.202 C 
BRANCH  25  26
ATOM     26  C   UNL     1       5.595 -10.259  -0.901  1.00  0.00     0.261 C 
BRANCH  26  27
ATOM     27  O   UNL     1       4.498 -10.836  -0.212  1.00  0.00    -0.460 OA
BRANCH  27  28
ATOM     28  C   UNL     1       4.410 -12.180  -0.340  1.00  0.00     0.338 C 
ATOM     29  O   UNL     1       5.250 -12.945  -0.772  1.00  0.00    -0.246 OA
BRANCH  28  30
ATOM     30  C   UNL     1       3.037 -12.570  -0.013  1.00  0.00     0.060 A 
ATOM     31  C   UNL     1       2.722 -13.915  -0.221  1.00  0.00     0.016 A 
ATOM     32  C   UNL     1       2.060 -11.569   0.076  1.00  0.00     0.016 A 
ATOM     33  C   UNL     1       1.448 -14.215  -0.635  1.00  0.00     0.010 A 
ATOM     34  C   UNL     1       0.806 -11.862  -0.378  1.00  0.00     0.010 A 
ATOM     35  C   UNL     1       0.552 -13.159  -0.816  1.00  0.00    -0.014 A 
BRANCH  35  36
ATOM     36  C   UNL     1      -0.750 -13.442  -1.366  1.00  0.00     0.031 A 
ATOM     37  C   UNL     1      -1.640 -14.035  -0.346  1.00  0.00     0.074 A 
ATOM     38  C   UNL     1      -1.084 -13.040  -2.607  1.00  0.00     0.049 A 
ATOM     39  N   UNL     1      -2.108 -15.237  -0.320  1.00  0.00    -0.248 NA
ATOM     40  C   UNL     1      -1.834 -13.289   0.913  1.00  0.00     0.031 C 
ATOM     41  C   UNL     1      -0.292 -12.234  -3.542  1.00  0.00     0.029 A 
ATOM     42  N   UNL     1      -2.275 -13.169  -3.251  1.00  0.00    -0.354 N 
ATOM     43  C   UNL     1      -2.870 -15.296   0.841  1.00  0.00     0.074 A 
ATOM     44  C   UNL     1      -2.448 -14.200   1.665  1.00  0.00     0.031 C 
ATOM     45  C   UNL     1      -1.100 -11.751  -4.513  1.00  0.00     0.029 A 
ATOM     46  C   UNL     1      -2.430 -12.301  -4.333  1.00  0.00     0.049 A 
ATOM     47  H   UNL     1      -2.966 -13.815  -2.978  1.00  0.00     0.167 HD
ATOM     48  C   UNL     1      -4.022 -16.016   0.867  1.00  0.00     0.037 A 
ATOM     49  C   UNL     1      -3.618 -12.004  -4.923  1.00  0.00     0.037 A 
ATOM     50  C   UNL     1      -4.040 -16.995  -0.191  1.00  0.00     0.049 A 
ATOM     51  C   UNL     1      -4.568 -13.090  -4.548  1.00  0.00     0.074 A 
ATOM     52  C   UNL     1      -3.215 -18.046  -0.547  1.00  0.00     0.029 A 
ATOM     53  N   UNL     1      -4.790 -16.710  -1.306  1.00  0.00    -0.354 N 
ATOM     54  N   UNL     1      -4.447 -14.323  -4.958  1.00  0.00    -0.248 NA
ATOM     55  C   UNL     1      -5.332 -12.911  -3.321  1.00  0.00     0.031 C 
ATOM     56  C   UNL     1      -3.173 -18.018  -1.971  1.00  0.00     0.029 A 
ATOM     57  C   UNL     1      -4.036 -17.014  -2.410  1.00  0.00     0.049 A 
ATOM     58  H   UNL     1      -5.707 -16.352  -1.312  1.00  0.00     0.167 HD
ATOM     59  C   UNL     1      -4.721 -15.094  -3.836  1.00  0.00     0.074 A 
ATOM     60  C   UNL     1      -5.314 -14.169  -2.871  1.00  0.00     0.031 C 
ATOM     61  C   UNL     1      -4.164 -16.331  -3.676  1.00  0.00     0.037 A 
BRANCH  48  62
ATOM     62  C   UNL     1      -5.279 -15.530   1.548  1.00  0.00     0.057 A 
ATOM     63  C   UNL     1      -6.380 -16.397   1.617  1.00  0.00     0.134 A 
ATOM     64  C   UNL     1      -5.559 -14.183   1.871  1.00  0.00     0.134 A 
ATOM     65  F   UNL     1      -6.249 -17.699   1.322  1.00  0.00    -0.206 F 
ATOM     66  C   UNL     1      -7.673 -15.944   1.901  1.00  0.00     0.040 A 
ATOM     67  C   UNL     1      -6.835 -13.731   2.210  1.00  0.00     0.040 A 
ATOM     68  F   UNL     1      -4.651 -13.205   1.782  1.00  0.00    -0.206 F 
ATOM     69  C   UNL     1      -7.905 -14.606   2.191  1.00  0.00     0.006 A 
ENDBRANCH  48  62
BRANCH  49  70
ATOM     70  C   UNL     1      -4.091 -10.689  -5.430  1.00  0.00     0.057 A 
ATOM     71  C   UNL     1      -5.287 -10.585  -6.158  1.00  0.00     0.134 A 
ATOM     72  C   UNL     1      -3.547  -9.474  -4.975  1.00  0.00     0.134 A 
ATOM     73  F   UNL     1      -5.909 -11.686  -6.606  1.00  0.00    -0.206 F 
ATOM     74  C   UNL     1      -5.921  -9.355  -6.388  1.00  0.00     0.040 A 
ATOM     75  C   UNL     1      -4.165  -8.239  -5.204  1.00  0.00     0.040 A 
ATOM     76  F   UNL     1      -2.446  -9.444  -4.212  1.00  0.00    -0.206 F 
ATOM     77  C   UNL     1      -5.366  -8.177  -5.897  1.00  0.00     0.006 A 
ENDBRANCH  49  70
BRANCH  61  78
ATOM     78  C   UNL     1      -3.436 -16.936  -4.846  1.00  0.00     0.057 A 
ATOM     79  C   UNL     1      -2.272 -16.399  -5.419  1.00  0.00     0.134 A 
ATOM     80  C   UNL     1      -3.838 -18.196  -5.300  1.00  0.00     0.134 A 
ATOM     81  F   UNL     1      -1.751 -15.246  -4.980  1.00  0.00    -0.206 F 
ATOM     82  C   UNL     1      -1.568 -17.069  -6.426  1.00  0.00     0.040 A 
ATOM     83  C   UNL     1      -3.125 -18.891  -6.279  1.00  0.00     0.040 A 
ATOM     84  F   UNL     1      -4.909 -18.798  -4.758  1.00  0.00    -0.206 F 
ATOM     85  C   UNL     1      -1.991 -18.324  -6.853  1.00  0.00     0.006 A 
ENDBRANCH  61  78
ENDBRANCH  35  36
ENDBRANCH  28  30
ENDBRANCH  27  28
ENDBRANCH  26  27
ENDBRANCH  25  26
ENDBRANCH  24  25
ENDBRANCH   1  24
TORSDOF 17
