REMARK SMILES C[C@@H](C(=O)OCCOCCOC(=O)c1ccc(-c2c3nc(c(-c4c(F)cccc4F)c4ccc([nH]4)c(-c4c(F)cccc4F)c4nc(c(-c5c(F)cccc5F)c5ccc2[nH]5)C=C4)C=C3)cc1)c1ccc(C[SiH](C)C)cc1
REMARK SMILES IDX 7 1 6 2 5 3 3 4 4 5 2 6 1 7 68 8 69 9 77 10 70 11 76 12
REMARK SMILES IDX 71 13 72 14 73 15 74 16 75 17 8 19 9 20 10 21 11 22 12 23
REMARK SMILES IDX 13 24 14 25 15 26 67 27 16 28 66 29 17 30 18 31 19 32 60 33
REMARK SMILES IDX 20 34 65 35 59 36 61 37 21 38 64 39 58 40 57 41 22 43 48 44
REMARK SMILES IDX 31 45 47 46 32 47 35 48 46 49 62 50 33 51 34 52 45 54 63 55
REMARK SMILES IDX 36 56 23 57 24 58 29 59 25 60 26 61 28 62 30 63 27 64 49 65
REMARK SMILES IDX 50 66 55 67 51 68 52 69 54 70 56 71 53 72 37 73 38 74 43 75
REMARK SMILES IDX 39 76 40 77 42 78 44 79 41 80
REMARK H PARENT 73 18 61 42 35 53
REMARK Flexibility Score: inf
ROOT
ATOM      1  C   UNL     1       2.063   1.303  -4.444  1.00  0.00     0.202 C 
ENDROOT
BRANCH   1   2
ATOM      2  C   UNL     1       2.180   2.391  -3.375  1.00  0.00     0.261 C 
BRANCH   2   3
ATOM      3  O   UNL     1       1.913   1.847  -2.074  1.00  0.00    -0.463 OA
BRANCH   3   4
ATOM      4  C   UNL     1       1.180   2.644  -1.250  1.00  0.00     0.313 C 
ATOM      5  O   UNL     1       0.970   3.834  -1.461  1.00  0.00    -0.252 OA
BRANCH   4   6
ATOM      6  C   UNL     1       0.591   1.878  -0.056  1.00  0.00     0.126 C 
ATOM      7  C   UNL     1       1.382   0.605   0.275  1.00  0.00     0.025 C 
BRANCH   6   8
ATOM      8  C   UNL     1      -0.925   1.694  -0.177  1.00  0.00    -0.034 A 
ATOM      9  C   UNL     1      -1.732   2.831  -0.350  1.00  0.00     0.005 A 
ATOM     10  C   UNL     1      -1.574   0.454  -0.068  1.00  0.00     0.005 A 
ATOM     11  C   UNL     1      -3.124   2.738  -0.409  1.00  0.00     0.004 A 
ATOM     12  C   UNL     1      -2.975   0.363  -0.091  1.00  0.00     0.004 A 
ATOM     13  C   UNL     1      -3.766   1.508  -0.240  1.00  0.00    -0.051 A 
BRANCH  13  14
ATOM     14  C   UNL     1      -5.277   1.434  -0.194  1.00  0.00     0.021 C 
BRANCH  14  15
ATOM     15  Si  UNL     1      -6.088   2.121   1.381  1.00  0.00     0.035 Si
ATOM     16  C   UNL     1      -5.608   3.902   1.669  1.00  0.00    -0.013 C 
ATOM     17  C   UNL     1      -7.947   2.000   1.260  1.00  0.00    -0.013 C 
ATOM     18  H   UNL     1      -5.628   1.340   2.474  1.00  0.00     0.014 H 
ENDBRANCH  14  15
ENDBRANCH  13  14
ENDBRANCH   6   8
ENDBRANCH   4   6
ENDBRANCH   3   4
ENDBRANCH   2   3
ENDBRANCH   1   2
BRANCH   1  19
ATOM     19  O   UNL     1       0.780   0.691  -4.578  1.00  0.00    -0.374 OA
BRANCH  19  20
ATOM     20  C   UNL     1       0.359  -0.200  -3.544  1.00  0.00     0.202 C 
BRANCH  20  21
ATOM     21  C   UNL     1       1.043  -1.573  -3.505  1.00  0.00     0.261 C 
BRANCH  21  22
ATOM     22  O   UNL     1       2.450  -1.485  -3.206  1.00  0.00    -0.460 OA
BRANCH  22  23
ATOM     23  C   UNL     1       3.268  -1.938  -4.188  1.00  0.00     0.338 C 
ATOM     24  O   UNL     1       2.942  -2.480  -5.234  1.00  0.00    -0.246 OA
BRANCH  23  25
ATOM     25  C   UNL     1       4.662  -1.539  -3.923  1.00  0.00     0.060 A 
ATOM     26  C   UNL     1       5.319  -0.793  -4.911  1.00  0.00     0.016 A 
ATOM     27  C   UNL     1       5.349  -1.970  -2.787  1.00  0.00     0.016 A 
ATOM     28  C   UNL     1       6.679  -0.514  -4.788  1.00  0.00     0.010 A 
ATOM     29  C   UNL     1       6.719  -1.699  -2.671  1.00  0.00     0.010 A 
ATOM     30  C   UNL     1       7.396  -1.001  -3.688  1.00  0.00    -0.014 A 
BRANCH  30  31
ATOM     31  C   UNL     1       8.877  -0.909  -3.688  1.00  0.00     0.031 A 
ATOM     32  C   UNL     1       9.684  -2.098  -4.132  1.00  0.00     0.074 A 
ATOM     33  C   UNL     1       9.498   0.232  -3.340  1.00  0.00     0.049 A 
ATOM     34  N   UNL     1      10.983  -2.241  -4.202  1.00  0.00    -0.248 NA
ATOM     35  C   UNL     1       8.924  -3.284  -4.556  1.00  0.00     0.031 C 
ATOM     36  C   UNL     1       8.830   1.466  -2.929  1.00  0.00     0.029 A 
ATOM     37  N   UNL     1      10.835   0.534  -3.275  1.00  0.00    -0.354 N 
ATOM     38  C   UNL     1      11.196  -3.529  -4.678  1.00  0.00     0.074 A 
ATOM     39  C   UNL     1       9.894  -4.137  -4.849  1.00  0.00     0.031 C 
ATOM     40  C   UNL     1       9.763   2.391  -2.644  1.00  0.00     0.029 A 
ATOM     41  C   UNL     1      11.091   1.806  -2.828  1.00  0.00     0.049 A 
ATOM     42  H   UNL     1      11.544  -0.102  -3.526  1.00  0.00     0.167 HD
ATOM     43  C   UNL     1      12.368  -4.146  -4.957  1.00  0.00     0.037 A 
ATOM     44  C   UNL     1      12.263   2.422  -2.579  1.00  0.00     0.037 A 
ATOM     45  C   UNL     1      13.665  -3.546  -4.786  1.00  0.00     0.049 A 
ATOM     46  C   UNL     1      13.555   1.691  -2.831  1.00  0.00     0.074 A 
ATOM     47  C   UNL     1      14.910  -4.089  -5.051  1.00  0.00     0.029 A 
ATOM     48  N   UNL     1      13.882  -2.266  -4.299  1.00  0.00    -0.354 N 
ATOM     49  N   UNL     1      13.743   0.481  -3.299  1.00  0.00    -0.248 NA
ATOM     50  C   UNL     1      14.797   2.414  -2.523  1.00  0.00     0.031 C 
ATOM     51  C   UNL     1      15.883  -3.152  -4.686  1.00  0.00     0.029 A 
ATOM     52  C   UNL     1      15.242  -2.010  -4.235  1.00  0.00     0.049 A 
ATOM     53  H   UNL     1      13.175  -1.633  -4.038  1.00  0.00     0.167 HD
ATOM     54  C   UNL     1      15.120   0.307  -3.364  1.00  0.00     0.074 A 
ATOM     55  C   UNL     1      15.720   1.540  -2.899  1.00  0.00     0.031 C 
ATOM     56  C   UNL     1      15.824  -0.776  -3.774  1.00  0.00     0.037 A 
BRANCH  43  57
ATOM     57  C   UNL     1      12.300  -5.557  -5.460  1.00  0.00     0.057 A 
ATOM     58  C   UNL     1      11.876  -5.857  -6.761  1.00  0.00     0.134 A 
ATOM     59  C   UNL     1      12.689  -6.626  -4.643  1.00  0.00     0.134 A 
ATOM     60  F   UNL     1      11.476  -4.879  -7.587  1.00  0.00    -0.206 F 
ATOM     61  C   UNL     1      11.822  -7.172  -7.225  1.00  0.00     0.040 A 
ATOM     62  C   UNL     1      12.661  -7.944  -5.104  1.00  0.00     0.040 A 
ATOM     63  F   UNL     1      13.109  -6.407  -3.388  1.00  0.00    -0.206 F 
ATOM     64  C   UNL     1      12.221  -8.220  -6.397  1.00  0.00     0.006 A 
ENDBRANCH  43  57
BRANCH  44  65
ATOM     65  C   UNL     1      12.273   3.806  -2.045  1.00  0.00     0.057 A 
ATOM     66  C   UNL     1      12.707   4.884  -2.824  1.00  0.00     0.134 A 
ATOM     67  C   UNL     1      11.867   4.080  -0.733  1.00  0.00     0.134 A 
ATOM     68  F   UNL     1      13.132   4.680  -4.080  1.00  0.00    -0.206 F 
ATOM     69  C   UNL     1      12.752   6.183  -2.314  1.00  0.00     0.040 A 
ATOM     70  C   UNL     1      11.885   5.377  -0.217  1.00  0.00     0.040 A 
ATOM     71  F   UNL     1      11.442   3.089   0.065  1.00  0.00    -0.206 F 
ATOM     72  C   UNL     1      12.335   6.432  -1.008  1.00  0.00     0.006 A 
ENDBRANCH  44  65
BRANCH  56  73
ATOM     73  C   UNL     1      17.321  -0.668  -3.767  1.00  0.00     0.057 A 
ATOM     74  C   UNL     1      18.058  -0.702  -2.577  1.00  0.00     0.134 A 
ATOM     75  C   UNL     1      18.035  -0.571  -4.968  1.00  0.00     0.134 A 
ATOM     76  F   UNL     1      17.433  -0.782  -1.392  1.00  0.00    -0.206 F 
ATOM     77  C   UNL     1      19.451  -0.625  -2.580  1.00  0.00     0.040 A 
ATOM     78  C   UNL     1      19.429  -0.516  -4.986  1.00  0.00     0.040 A 
ATOM     79  F   UNL     1      17.389  -0.542  -6.144  1.00  0.00    -0.206 F 
ATOM     80  C   UNL     1      20.141  -0.538  -3.789  1.00  0.00     0.006 A 
ENDBRANCH  56  73
ENDBRANCH  30  31
ENDBRANCH  23  25
ENDBRANCH  22  23
ENDBRANCH  21  22
ENDBRANCH  20  21
ENDBRANCH  19  20
ENDBRANCH   1  19
TORSDOF 17
