REMARK SMILES C[C@@H]1C[C@@H](C)CN(C(=O)CCn2cc(C(=O)OCCOCCOC(=O)c3ccc(-c4c5nc(c(-c6c(F)cccc6F)c6ccc([nH]6)c(-c6c(F)cccc6F)c6nc(c(-c7c(F)cccc7F)c7ccc4[nH]7)C=C6)C=C5)cc3)cn2)C1
REMARK SMILES IDX 19 1 18 2 17 3 15 4 16 5 14 6 12 7 13 8 81 9 80 10 11 11
REMARK SMILES IDX 10 12 8 13 1 14 2 15 3 16 82 17 4 18 7 19 6 20 5 21 9 22
REMARK SMILES IDX 20 23 21 24 22 25 23 26 24 27 25 28 26 29 27 30 79 31 28 32
REMARK SMILES IDX 78 33 29 34 30 35 31 36 72 37 32 38 77 39 71 40 73 41 33 42
REMARK SMILES IDX 76 43 70 44 69 45 34 47 60 48 43 49 59 50 44 51 47 52 58 53
REMARK SMILES IDX 74 54 45 55 46 56 57 58 75 59 48 60 35 61 36 62 41 63 37 64
REMARK SMILES IDX 38 65 40 66 42 67 39 68 61 69 62 70 67 71 63 72 64 73 66 74
REMARK SMILES IDX 68 75 65 76 49 77 50 78 55 79 51 80 52 81 54 82 56 83 53 84
REMARK H PARENT 73 46 47 57
REMARK Flexibility Score: inf
ROOT
ATOM      1  C   UNL     1       2.492   9.149   0.181  1.00  0.00     0.202 C 
ENDROOT
BRANCH   1   2
ATOM      2  C   UNL     1       1.447   8.377   0.982  1.00  0.00     0.261 C 
BRANCH   2   3
ATOM      3  O   UNL     1       2.065   7.470   1.916  1.00  0.00    -0.460 OA
BRANCH   3   4
ATOM      4  C   UNL     1       1.439   6.270   2.001  1.00  0.00     0.341 C 
ATOM      5  O   UNL     1       0.400   5.988   1.417  1.00  0.00    -0.246 OA
BRANCH   4   6
ATOM      6  C   UNL     1       2.109   5.282   2.817  1.00  0.00     0.098 A 
ATOM      7  N   UNL     1       2.044   3.371   3.846  1.00  0.00    -0.271 N 
ATOM      8  C   UNL     1       1.512   4.634   3.881  1.00  0.00     0.124 A 
ATOM      9  N   UNL     1       3.225   3.332   3.200  1.00  0.00    -0.181 NA
ATOM     10  C   UNL     1       3.251   4.497   2.540  1.00  0.00     0.150 A 
BRANCH   7  11
ATOM     11  C   UNL     1       1.313   2.143   4.143  1.00  0.00     0.154 C 
BRANCH  11  12
ATOM     12  C   UNL     1      -0.133   2.168   3.633  1.00  0.00     0.124 C 
BRANCH  12  13
ATOM     13  C   UNL     1      -0.407   1.220   2.482  1.00  0.00     0.224 C 
ATOM     14  C   UNL     1       1.154  -0.541  -0.271  1.00  0.00     0.009 C 
ATOM     15  C   UNL     1       0.170   0.452  -0.895  1.00  0.00     0.006 C 
ATOM     16  C   UNL     1       0.885   1.702  -1.423  1.00  0.00     0.010 C 
ATOM     17  C   UNL     1      -0.918   0.858   0.106  1.00  0.00     0.122 C 
ATOM     18  C   UNL     1       1.412   2.587  -0.287  1.00  0.00     0.006 C 
ATOM     19  N   UNL     1      -0.368   1.688   1.177  1.00  0.00    -0.342 N 
ATOM     20  C   UNL     1       0.281   2.912   0.707  1.00  0.00     0.122 C 
ATOM     21  C   UNL     1       2.050   3.839  -0.882  1.00  0.00     0.009 C 
ATOM     22  O   UNL     1      -0.725   0.057   2.749  1.00  0.00    -0.275 OA
ENDBRANCH  12  13
ENDBRANCH  11  12
ENDBRANCH   7  11
ENDBRANCH   4   6
ENDBRANCH   3   4
ENDBRANCH   2   3
ENDBRANCH   1   2
BRANCH   1  23
ATOM     23  O   UNL     1       3.260   8.427  -0.785  1.00  0.00    -0.374 OA
BRANCH  23  24
ATOM     24  C   UNL     1       3.856   7.179  -0.446  1.00  0.00     0.202 C 
BRANCH  24  25
ATOM     25  C   UNL     1       5.101   7.206   0.435  1.00  0.00     0.261 C 
BRANCH  25  26
ATOM     26  O   UNL     1       4.795   7.642   1.751  1.00  0.00    -0.460 OA
BRANCH  26  27
ATOM     27  C   UNL     1       5.063   8.945   1.974  1.00  0.00     0.338 C 
ATOM     28  O   UNL     1       5.459   9.766   1.165  1.00  0.00    -0.246 OA
BRANCH  27  29
ATOM     29  C   UNL     1       4.942   9.220   3.409  1.00  0.00     0.060 A 
ATOM     30  C   UNL     1       5.431  10.462   3.810  1.00  0.00     0.016 A 
ATOM     31  C   UNL     1       4.674   8.190   4.324  1.00  0.00     0.016 A 
ATOM     32  C   UNL     1       5.927  10.571   5.083  1.00  0.00     0.010 A 
ATOM     33  C   UNL     1       5.162   8.305   5.605  1.00  0.00     0.010 A 
ATOM     34  C   UNL     1       5.876   9.453   5.925  1.00  0.00    -0.014 A 
BRANCH  34  35
ATOM     35  C   UNL     1       6.581   9.573   7.180  1.00  0.00     0.031 A 
ATOM     36  C   UNL     1       5.939  10.530   8.095  1.00  0.00     0.074 A 
ATOM     37  C   UNL     1       7.703   8.886   7.453  1.00  0.00     0.049 A 
ATOM     38  N   UNL     1       6.365  11.697   8.439  1.00  0.00    -0.248 NA
ATOM     39  C   UNL     1       4.565  10.229   8.523  1.00  0.00     0.031 C 
ATOM     40  C   UNL     1       8.247   7.734   6.728  1.00  0.00     0.029 A 
ATOM     41  N   UNL     1       8.550   9.022   8.510  1.00  0.00    -0.354 N 
ATOM     42  C   UNL     1       5.403  12.190   9.310  1.00  0.00     0.074 A 
ATOM     43  C   UNL     1       4.246  11.348   9.171  1.00  0.00     0.031 C 
ATOM     44  C   UNL     1       9.192   7.141   7.491  1.00  0.00     0.029 A 
ATOM     45  C   UNL     1       9.411   7.950   8.679  1.00  0.00     0.049 A 
ATOM     46  H   UNL     1       8.551   9.810   9.100  1.00  0.00     0.167 HD
ATOM     47  C   UNL     1       5.752  13.057  10.294  1.00  0.00     0.037 A 
ATOM     48  C   UNL     1      10.191   7.716   9.760  1.00  0.00     0.037 A 
ATOM     49  C   UNL     1       7.030  13.664  10.028  1.00  0.00     0.049 A 
ATOM     50  C   UNL     1      10.368   8.995  10.487  1.00  0.00     0.074 A 
ATOM     51  C   UNL     1       7.524  14.604   9.151  1.00  0.00     0.029 A 
ATOM     52  N   UNL     1       8.101  12.984  10.546  1.00  0.00    -0.354 N 
ATOM     53  N   UNL     1      11.050  10.005  10.024  1.00  0.00    -0.248 NA
ATOM     54  C   UNL     1       9.495   9.303  11.615  1.00  0.00     0.031 C 
ATOM     55  C   UNL     1       8.911  14.308   8.997  1.00  0.00     0.029 A 
ATOM     56  C   UNL     1       9.223  13.206   9.794  1.00  0.00     0.049 A 
ATOM     57  H   UNL     1       8.068  12.415  11.348  1.00  0.00     0.167 HD
ATOM     58  C   UNL     1      10.387  11.121  10.503  1.00  0.00     0.074 A 
ATOM     59  C   UNL     1       9.571  10.636  11.606  1.00  0.00     0.031 C 
ATOM     60  C   UNL     1      10.323  12.265   9.762  1.00  0.00     0.037 A 
BRANCH  47  61
ATOM     61  C   UNL     1       5.209  12.967  11.701  1.00  0.00     0.057 A 
ATOM     62  C   UNL     1       5.561  13.967  12.625  1.00  0.00     0.134 A 
ATOM     63  C   UNL     1       4.646  11.802  12.265  1.00  0.00     0.134 A 
ATOM     64  F   UNL     1       6.122  15.114  12.216  1.00  0.00    -0.206 F 
ATOM     65  C   UNL     1       5.431  13.787  14.008  1.00  0.00     0.040 A 
ATOM     66  C   UNL     1       4.464  11.635  13.639  1.00  0.00     0.040 A 
ATOM     67  F   UNL     1       4.341  10.720  11.539  1.00  0.00    -0.206 F 
ATOM     68  C   UNL     1       4.888  12.615  14.519  1.00  0.00     0.006 A 
ENDBRANCH  47  61
BRANCH  48  69
ATOM     69  C   UNL     1      10.564   6.410  10.339  1.00  0.00     0.057 A 
ATOM     70  C   UNL     1      11.658   6.279  11.203  1.00  0.00     0.134 A 
ATOM     71  C   UNL     1       9.697   5.304  10.263  1.00  0.00     0.134 A 
ATOM     72  F   UNL     1      12.515   7.296  11.373  1.00  0.00    -0.206 F 
ATOM     73  C   UNL     1      11.869   5.122  11.963  1.00  0.00     0.040 A 
ATOM     74  C   UNL     1       9.900   4.141  11.010  1.00  0.00     0.040 A 
ATOM     75  F   UNL     1       8.576   5.352   9.529  1.00  0.00    -0.206 F 
ATOM     76  C   UNL     1      10.983   4.051  11.875  1.00  0.00     0.006 A 
ENDBRANCH  48  69
BRANCH  60  77
ATOM     77  C   UNL     1      11.365  12.451   8.702  1.00  0.00     0.057 A 
ATOM     78  C   UNL     1      11.467  11.666   7.546  1.00  0.00     0.134 A 
ATOM     79  C   UNL     1      12.245  13.534   8.819  1.00  0.00     0.134 A 
ATOM     80  F   UNL     1      10.613  10.660   7.314  1.00  0.00    -0.206 F 
ATOM     81  C   UNL     1      12.434  11.924   6.571  1.00  0.00     0.040 A 
ATOM     82  C   UNL     1      13.191  13.823   7.836  1.00  0.00     0.040 A 
ATOM     83  F   UNL     1      12.170  14.354   9.879  1.00  0.00    -0.206 F 
ATOM     84  C   UNL     1      13.296  13.009   6.711  1.00  0.00     0.006 A 
ENDBRANCH  60  77
ENDBRANCH  34  35
ENDBRANCH  27  29
ENDBRANCH  26  27
ENDBRANCH  25  26
ENDBRANCH  24  25
ENDBRANCH  23  24
ENDBRANCH   1  23
TORSDOF 17
