REMARK SMILES CCC[NH2+][C@]1(C(=O)OCCOCCOC(=O)c2ccc(-c3c4nc(c(-c5c(F)cccc5F)c5ccc([nH]5)c(-c5c(F)cccc5F)c5nc(c(-c6c(F)cccc6F)c6ccc3[nH]6)C=C5)C=C4)cc2)CC[C@H](n2nc(C)c(CC)c2C)C1
REMARK SMILES IDX 10 1 9 2 8 3 6 4 7 5 5 6 71 7 83 8 72 9 73 10 4 11 3 14 2 15
REMARK SMILES IDX 1 16 74 17 75 18 81 19 76 20 78 21 82 22 77 23 79 24 80 25
REMARK SMILES IDX 11 26 12 27 13 28 14 29 15 30 16 31 17 32 18 33 70 34 19 35
REMARK SMILES IDX 69 36 20 37 21 38 22 39 63 40 23 41 68 42 62 43 64 44 24 45
REMARK SMILES IDX 67 46 61 47 60 48 25 50 51 51 34 52 50 53 35 54 38 55 49 56
REMARK SMILES IDX 65 57 36 58 37 59 48 61 66 62 39 63 26 64 27 65 32 66 28 67
REMARK SMILES IDX 29 68 31 69 33 70 30 71 52 72 53 73 58 74 54 75 55 76 57 77
REMARK SMILES IDX 59 78 56 79 40 80 41 81 46 82 42 83 43 84 45 85 47 86 44 87
REMARK H PARENT 4 12 4 13 64 49 38 60
REMARK Flexibility Score: inf
ROOT
ATOM      1  C   UNL     1      -1.863  -0.975   0.176  1.00  0.00     0.202 C 
ENDROOT
BRANCH   1   2
ATOM      2  C   UNL     1      -0.476  -1.463  -0.247  1.00  0.00     0.261 C 
BRANCH   2   3
ATOM      3  O   UNL     1      -0.124  -2.700   0.410  1.00  0.00    -0.459 OA
BRANCH   3   4
ATOM      4  C   UNL     1       0.991  -2.634   1.178  1.00  0.00     0.368 C 
ATOM      5  O   UNL     1       1.683  -1.626   1.313  1.00  0.00    -0.245 OA
BRANCH   4   6
ATOM      6  C   UNL     1       1.294  -3.917   1.970  1.00  0.00     0.196 C 
ATOM      7  C   UNL     1       0.562  -5.223   1.645  1.00  0.00     0.083 C 
ATOM      8  C   UNL     1       2.702  -4.349   1.490  1.00  0.00     0.108 C 
ATOM      9  C   UNL     1       1.524  -6.318   2.168  1.00  0.00     0.034 C 
ATOM     10  C   UNL     1       2.947  -5.679   2.183  1.00  0.00     0.115 C 
BRANCH   6  11
ATOM     11  N   UNL     1       1.304  -3.579   3.420  1.00  0.00    -0.332 N 
ATOM     12  H   UNL     1       2.142  -3.998   3.823  1.00  0.00     0.347 HD
ATOM     13  H   UNL     1       1.259  -2.560   3.442  1.00  0.00     0.347 HD
BRANCH  11  14
ATOM     14  C   UNL     1       0.174  -4.006   4.235  1.00  0.00     0.261 C 
BRANCH  14  15
ATOM     15  C   UNL     1       0.286  -3.565   5.699  1.00  0.00     0.058 C 
ATOM     16  C   UNL     1       0.238  -2.061   5.910  1.00  0.00     0.010 C 
ENDBRANCH  14  15
ENDBRANCH  11  14
ENDBRANCH   6  11
BRANCH  10  17
ATOM     17  N   UNL     1       3.586  -5.678   3.500  1.00  0.00    -0.266 N 
ATOM     18  N   UNL     1       3.777  -6.915   4.029  1.00  0.00    -0.178 NA
ATOM     19  C   UNL     1       4.153  -4.695   4.296  1.00  0.00     0.039 A 
ATOM     20  C   UNL     1       4.385  -6.713   5.197  1.00  0.00     0.063 A 
ATOM     21  C   UNL     1       4.614  -5.342   5.436  1.00  0.00    -0.004 A 
ATOM     22  C   UNL     1       4.267  -3.226   4.068  1.00  0.00     0.066 C 
ATOM     23  C   UNL     1       4.741  -7.871   6.052  1.00  0.00     0.069 C 
BRANCH  21  24
ATOM     24  C   UNL     1       5.243  -4.705   6.635  1.00  0.00     0.036 C 
ATOM     25  C   UNL     1       4.296  -4.649   7.825  1.00  0.00     0.009 C 
ENDBRANCH  21  24
ENDBRANCH  10  17
ENDBRANCH   4   6
ENDBRANCH   3   4
ENDBRANCH   2   3
ENDBRANCH   1   2
BRANCH   1  26
ATOM     26  O   UNL     1      -1.970  -0.392   1.476  1.00  0.00    -0.374 OA
BRANCH  26  27
ATOM     27  C   UNL     1      -1.814  -1.252   2.602  1.00  0.00     0.202 C 
BRANCH  27  28
ATOM     28  C   UNL     1      -3.037  -2.086   3.000  1.00  0.00     0.261 C 
BRANCH  28  29
ATOM     29  O   UNL     1      -3.520  -2.885   1.912  1.00  0.00    -0.460 OA
BRANCH  29  30
ATOM     30  C   UNL     1      -4.716  -2.475   1.434  1.00  0.00     0.338 C 
ATOM     31  O   UNL     1      -5.459  -1.631   1.919  1.00  0.00    -0.246 OA
BRANCH  30  32
ATOM     32  C   UNL     1      -4.969  -3.057   0.109  1.00  0.00     0.060 A 
ATOM     33  C   UNL     1      -5.372  -2.166  -0.891  1.00  0.00     0.016 A 
ATOM     34  C   UNL     1      -4.894  -4.431  -0.138  1.00  0.00     0.016 A 
ATOM     35  C   UNL     1      -5.789  -2.655  -2.119  1.00  0.00     0.010 A 
ATOM     36  C   UNL     1      -5.314  -4.922  -1.378  1.00  0.00     0.010 A 
ATOM     37  C   UNL     1      -5.812  -4.037  -2.349  1.00  0.00    -0.014 A 
BRANCH  37  38
ATOM     38  C   UNL     1      -6.519  -4.514  -3.557  1.00  0.00     0.031 A 
ATOM     39  C   UNL     1      -7.954  -4.942  -3.435  1.00  0.00     0.074 A 
ATOM     40  C   UNL     1      -5.921  -4.420  -4.756  1.00  0.00     0.049 A 
ATOM     41  N   UNL     1      -8.824  -5.201  -4.375  1.00  0.00    -0.248 NA
ATOM     42  C   UNL     1      -8.483  -5.089  -2.069  1.00  0.00     0.031 C 
ATOM     43  C   UNL     1      -4.539  -3.994  -4.975  1.00  0.00     0.029 A 
ATOM     44  N   UNL     1      -6.412  -4.639  -6.016  1.00  0.00    -0.354 N 
ATOM     45  C   UNL     1     -10.004  -5.525  -3.717  1.00  0.00     0.074 A 
ATOM     46  C   UNL     1      -9.729  -5.476  -2.299  1.00  0.00     0.031 C 
ATOM     47  C   UNL     1      -4.299  -3.957  -6.296  1.00  0.00     0.029 A 
ATOM     48  C   UNL     1      -5.507  -4.362  -7.010  1.00  0.00     0.049 A 
ATOM     49  H   UNL     1      -7.324  -4.965  -6.191  1.00  0.00     0.167 HD
ATOM     50  C   UNL     1     -11.213  -5.820  -4.252  1.00  0.00     0.037 A 
ATOM     51  C   UNL     1      -5.651  -4.413  -8.347  1.00  0.00     0.037 A 
ATOM     52  C   UNL     1     -11.468  -5.873  -5.667  1.00  0.00     0.049 A 
ATOM     53  C   UNL     1      -6.998  -4.765  -8.916  1.00  0.00     0.074 A 
ATOM     54  C   UNL     1     -12.649  -6.166  -6.324  1.00  0.00     0.029 A 
ATOM     55  N   UNL     1     -10.514  -5.630  -6.646  1.00  0.00    -0.354 N 
ATOM     56  N   UNL     1      -8.116  -5.037  -8.286  1.00  0.00    -0.248 NA
ATOM     57  C   UNL     1      -7.107  -4.798 -10.379  1.00  0.00     0.031 C 
ATOM     58  C   UNL     1     -12.399  -6.139  -7.702  1.00  0.00     0.029 A 
ATOM     59  C   UNL     1     -11.074  -5.783  -7.902  1.00  0.00     0.049 A 
ATOM     60  H   UNL     1      -9.576  -5.385  -6.471  1.00  0.00     0.167 HD
ATOM     61  C   UNL     1      -9.067  -5.254  -9.273  1.00  0.00     0.074 A 
ATOM     62  C   UNL     1      -8.397  -5.057 -10.544  1.00  0.00     0.031 C 
ATOM     63  C   UNL     1     -10.376  -5.588  -9.148  1.00  0.00     0.037 A 
BRANCH  50  64
ATOM     64  C   UNL     1     -12.332  -6.127  -3.299  1.00  0.00     0.057 A 
ATOM     65  C   UNL     1     -12.930  -5.133  -2.514  1.00  0.00     0.134 A 
ATOM     66  C   UNL     1     -12.823  -7.432  -3.171  1.00  0.00     0.134 A 
ATOM     67  F   UNL     1     -12.495  -3.865  -2.574  1.00  0.00    -0.206 F 
ATOM     68  C   UNL     1     -13.961  -5.429  -1.619  1.00  0.00     0.040 A 
ATOM     69  C   UNL     1     -13.869  -7.737  -2.297  1.00  0.00     0.040 A 
ATOM     70  F   UNL     1     -12.295  -8.433  -3.891  1.00  0.00    -0.206 F 
ATOM     71  C   UNL     1     -14.437  -6.734  -1.513  1.00  0.00     0.006 A 
ENDBRANCH  50  64
BRANCH  51  72
ATOM     72  C   UNL     1      -4.500  -4.094  -9.229  1.00  0.00     0.057 A 
ATOM     73  C   UNL     1      -4.478  -2.934 -10.012  1.00  0.00     0.134 A 
ATOM     74  C   UNL     1      -3.388  -4.942  -9.303  1.00  0.00     0.134 A 
ATOM     75  F   UNL     1      -5.519  -2.089  -9.997  1.00  0.00    -0.206 F 
ATOM     76  C   UNL     1      -3.400  -2.637 -10.848  1.00  0.00     0.040 A 
ATOM     77  C   UNL     1      -2.293  -4.646 -10.115  1.00  0.00     0.040 A 
ATOM     78  F   UNL     1      -3.344  -6.065  -8.571  1.00  0.00    -0.206 F 
ATOM     79  C   UNL     1      -2.301  -3.492 -10.897  1.00  0.00     0.006 A 
ENDBRANCH  51  72
BRANCH  63  80
ATOM     80  C   UNL     1     -11.156  -5.742 -10.420  1.00  0.00     0.057 A 
ATOM     81  C   UNL     1     -10.957  -6.830 -11.279  1.00  0.00     0.134 A 
ATOM     82  C   UNL     1     -12.120  -4.794 -10.784  1.00  0.00     0.134 A 
ATOM     83  F   UNL     1     -10.040  -7.766 -10.991  1.00  0.00    -0.206 F 
ATOM     84  C   UNL     1     -11.664  -6.950 -12.476  1.00  0.00     0.040 A 
ATOM     85  C   UNL     1     -12.852  -4.918 -11.965  1.00  0.00     0.040 A 
ATOM     86  F   UNL     1     -12.366  -3.735  -9.999  1.00  0.00    -0.206 F 
ATOM     87  C   UNL     1     -12.617  -5.994 -12.820  1.00  0.00     0.006 A 
ENDBRANCH  63  80
ENDBRANCH  37  38
ENDBRANCH  30  32
ENDBRANCH  29  30
ENDBRANCH  28  29
ENDBRANCH  27  28
ENDBRANCH  26  27
ENDBRANCH   1  26
TORSDOF 19
