REMARK SMILES C[C@@H](C(=O)OCCOCCOC(=O)c1ccc(-c2c3nc(c(-c4c(F)cccc4F)c4ccc([nH]4)c(-c4c(F)cccc4F)c4nc(c(-c5c(F)cccc5F)c5ccc2[nH]5)C=C4)C=C3)cc1)c1ccc(O[C@H]2CCCC2=O)cc1F
REMARK SMILES IDX 7 1 6 2 5 3 3 4 4 5 2 6 1 7 68 8 69 9 80 10 70 11 79 12
REMARK SMILES IDX 81 13 71 14 72 15 73 16 74 17 77 18 75 19 76 20 78 21 8 22
REMARK SMILES IDX 9 23 10 24 11 25 12 26 13 27 14 28 15 29 67 30 16 31 66 32
REMARK SMILES IDX 17 33 18 34 19 35 60 36 20 37 65 38 59 39 61 40 21 41 64 42
REMARK SMILES IDX 58 43 57 44 22 46 48 47 31 48 47 49 32 50 35 51 46 52 62 53
REMARK SMILES IDX 33 54 34 55 45 57 63 58 36 59 23 60 24 61 29 62 25 63 26 64
REMARK SMILES IDX 28 65 30 66 27 67 49 68 50 69 55 70 51 71 52 72 54 73 56 74
REMARK SMILES IDX 53 75 37 76 38 77 43 78 39 79 40 80 42 81 44 82 41 83
REMARK H PARENT 61 45 35 56
REMARK Flexibility Score: inf
ROOT
ATOM      1  C   UNL     1       1.939  -4.147   2.279  1.00  0.00     0.202 C 
ENDROOT
BRANCH   1   2
ATOM      2  C   UNL     1       2.131  -4.051   0.762  1.00  0.00     0.261 C 
BRANCH   2   3
ATOM      3  O   UNL     1       1.755  -2.752   0.294  1.00  0.00    -0.463 OA
BRANCH   3   4
ATOM      4  C   UNL     1       1.279  -2.700  -0.979  1.00  0.00     0.313 C 
ATOM      5  O   UNL     1       1.438  -3.582  -1.813  1.00  0.00    -0.252 OA
BRANCH   4   6
ATOM      6  C   UNL     1       0.488  -1.414  -1.227  1.00  0.00     0.129 C 
ATOM      7  C   UNL     1       1.262  -0.225  -0.630  1.00  0.00     0.025 C 
BRANCH   6   8
ATOM      8  C   UNL     1      -0.989  -1.467  -0.825  1.00  0.00     0.002 A 
ATOM      9  C   UNL     1      -1.706  -0.298  -0.518  1.00  0.00     0.011 A 
ATOM     10  C   UNL     1      -1.727  -2.659  -0.841  1.00  0.00     0.130 A 
ATOM     11  C   UNL     1      -3.083  -0.338  -0.256  1.00  0.00     0.047 A 
ATOM     12  C   UNL     1      -3.101  -2.702  -0.572  1.00  0.00     0.086 A 
ATOM     13  F   UNL     1      -1.134  -3.822  -1.137  1.00  0.00    -0.207 F 
ATOM     14  C   UNL     1      -3.798  -1.536  -0.303  1.00  0.00     0.123 A 
BRANCH  14  15
ATOM     15  O   UNL     1      -5.133  -1.399  -0.081  1.00  0.00    -0.483 OA
BRANCH  15  16
ATOM     16  C   UNL     1      -6.047  -2.455  -0.261  1.00  0.00     0.239 C 
ATOM     17  C   UNL     1      -6.266  -2.889  -1.718  1.00  0.00     0.054 C 
ATOM     18  C   UNL     1      -5.943  -3.770   0.502  1.00  0.00     0.173 C 
ATOM     19  C   UNL     1      -6.050  -4.401  -1.770  1.00  0.00     0.012 C 
ATOM     20  C   UNL     1      -6.306  -4.940  -0.370  1.00  0.00     0.080 C 
ATOM     21  O   UNL     1      -5.661  -3.871   1.689  1.00  0.00    -0.296 OA
ENDBRANCH  15  16
ENDBRANCH  14  15
ENDBRANCH   6   8
ENDBRANCH   4   6
ENDBRANCH   3   4
ENDBRANCH   2   3
ENDBRANCH   1   2
BRANCH   1  22
ATOM     22  O   UNL     1       0.646  -3.806   2.778  1.00  0.00    -0.374 OA
BRANCH  22  23
ATOM     23  C   UNL     1       0.259  -2.429   2.754  1.00  0.00     0.202 C 
BRANCH  23  24
ATOM     24  C   UNL     1       0.989  -1.486   3.719  1.00  0.00     0.261 C 
BRANCH  24  25
ATOM     25  O   UNL     1       2.393  -1.354   3.419  1.00  0.00    -0.460 OA
BRANCH  25  26
ATOM     26  C   UNL     1       3.222  -1.695   4.435  1.00  0.00     0.338 C 
ATOM     27  O   UNL     1       2.910  -2.015   5.574  1.00  0.00    -0.246 OA
BRANCH  26  28
ATOM     28  C   UNL     1       4.612  -1.796   3.959  1.00  0.00     0.060 A 
ATOM     29  C   UNL     1       5.259  -3.030   4.101  1.00  0.00     0.016 A 
ATOM     30  C   UNL     1       5.311  -0.677   3.502  1.00  0.00     0.016 A 
ATOM     31  C   UNL     1       6.621  -3.140   3.829  1.00  0.00     0.010 A 
ATOM     32  C   UNL     1       6.682  -0.788   3.239  1.00  0.00     0.010 A 
ATOM     33  C   UNL     1       7.350  -2.010   3.436  1.00  0.00    -0.014 A 
BRANCH  33  34
ATOM     34  C   UNL     1       8.831  -2.083   3.376  1.00  0.00     0.031 A 
ATOM     35  C   UNL     1       9.637  -1.586   4.545  1.00  0.00     0.074 A 
ATOM     36  C   UNL     1       9.452  -2.619   2.311  1.00  0.00     0.049 A 
ATOM     37  N   UNL     1      10.936  -1.538   4.699  1.00  0.00    -0.248 NA
ATOM     38  C   UNL     1       8.875  -1.076   5.696  1.00  0.00     0.031 C 
ATOM     39  C   UNL     1       8.785  -3.170   1.134  1.00  0.00     0.029 A 
ATOM     40  N   UNL     1      10.790  -2.782   2.050  1.00  0.00    -0.354 N 
ATOM     41  C   UNL     1      11.148  -0.995   5.960  1.00  0.00     0.074 A 
ATOM     42  C   UNL     1       9.845  -0.700   6.517  1.00  0.00     0.031 C 
ATOM     43  C   UNL     1       9.718  -3.602   0.268  1.00  0.00     0.029 A 
ATOM     44  C   UNL     1      11.046  -3.333   0.819  1.00  0.00     0.049 A 
ATOM     45  H   UNL     1      11.498  -2.528   2.685  1.00  0.00     0.167 HD
ATOM     46  C   UNL     1      12.320  -0.771   6.600  1.00  0.00     0.037 A 
ATOM     47  C   UNL     1      12.217  -3.575   0.201  1.00  0.00     0.037 A 
ATOM     48  C   UNL     1      13.617  -1.061   6.047  1.00  0.00     0.049 A 
ATOM     49  C   UNL     1      13.509  -3.253   0.904  1.00  0.00     0.074 A 
ATOM     50  C   UNL     1      14.861  -0.879   6.624  1.00  0.00     0.029 A 
ATOM     51  N   UNL     1      13.835  -1.589   4.784  1.00  0.00    -0.354 N 
ATOM     52  N   UNL     1      13.697  -2.758   2.103  1.00  0.00    -0.248 NA
ATOM     53  C   UNL     1      14.752  -3.529   0.168  1.00  0.00     0.031 C 
ATOM     54  C   UNL     1      15.835  -1.258   5.693  1.00  0.00     0.029 A 
ATOM     55  C   UNL     1      15.194  -1.718   4.554  1.00  0.00     0.049 A 
ATOM     56  H   UNL     1      13.127  -1.836   4.145  1.00  0.00     0.167 HD
ATOM     57  C   UNL     1      15.074  -2.685   2.275  1.00  0.00     0.074 A 
ATOM     58  C   UNL     1      15.675  -3.198   1.061  1.00  0.00     0.031 C 
ATOM     59  C   UNL     1      15.778  -2.235   3.342  1.00  0.00     0.037 A 
BRANCH  46  60
ATOM     60  C   UNL     1      12.250  -0.162   7.969  1.00  0.00     0.057 A 
ATOM     61  C   UNL     1      11.815  -0.894   9.082  1.00  0.00     0.134 A 
ATOM     62  C   UNL     1      12.645   1.164   8.182  1.00  0.00     0.134 A 
ATOM     63  F   UNL     1      11.409  -2.166   8.942  1.00  0.00    -0.206 F 
ATOM     64  C   UNL     1      11.755  -0.322  10.353  1.00  0.00     0.040 A 
ATOM     65  C   UNL     1      12.612   1.741   9.453  1.00  0.00     0.040 A 
ATOM     66  F   UNL     1      13.076   1.919   7.160  1.00  0.00    -0.206 F 
ATOM     67  C   UNL     1      12.159   0.999  10.542  1.00  0.00     0.006 A 
ENDBRANCH  46  60
BRANCH  47  68
ATOM     68  C   UNL     1      12.226  -4.140  -1.172  1.00  0.00     0.057 A 
ATOM     69  C   UNL     1      12.660  -5.447  -1.417  1.00  0.00     0.134 A 
ATOM     70  C   UNL     1      11.816  -3.377  -2.272  1.00  0.00     0.134 A 
ATOM     71  F   UNL     1      13.089  -6.217  -0.407  1.00  0.00    -0.206 F 
ATOM     72  C   UNL     1      12.697  -5.973  -2.710  1.00  0.00     0.040 A 
ATOM     73  C   UNL     1      11.826  -3.898  -3.567  1.00  0.00     0.040 A 
ATOM     74  F   UNL     1      11.391  -2.117  -2.102  1.00  0.00    -0.206 F 
ATOM     75  C   UNL     1      12.274  -5.199  -3.789  1.00  0.00     0.006 A 
ENDBRANCH  47  68
BRANCH  59  76
ATOM     76  C   UNL     1      17.274  -2.304   3.259  1.00  0.00     0.057 A 
ATOM     77  C   UNL     1      18.011  -1.421   2.460  1.00  0.00     0.134 A 
ATOM     78  C   UNL     1      17.988  -3.237   4.021  1.00  0.00     0.134 A 
ATOM     79  F   UNL     1      17.386  -0.511   1.697  1.00  0.00    -0.206 F 
ATOM     80  C   UNL     1      19.405  -1.477   2.406  1.00  0.00     0.040 A 
ATOM     81  C   UNL     1      19.383  -3.288   3.994  1.00  0.00     0.040 A 
ATOM     82  F   UNL     1      17.343  -4.106   4.814  1.00  0.00    -0.206 F 
ATOM     83  C   UNL     1      20.095  -2.409   3.181  1.00  0.00     0.006 A 
ENDBRANCH  59  76
ENDBRANCH  33  34
ENDBRANCH  26  28
ENDBRANCH  25  26
ENDBRANCH  24  25
ENDBRANCH  23  24
ENDBRANCH  22  23
ENDBRANCH   1  22
TORSDOF 17
