REMARK SMILES CC(C)c1ccc(OCC[C@H]2CCC[C@@]2([NH3+])C(=O)OCCOCCOC(=O)c2ccc(-c3c4nc(c(-c5c(F)cccc5F)c5ccc([nH]5)c(-c5c(F)cccc5F)c5nc(c(-c6c(F)cccc6F)c6ccc3[nH]6)C=C5)C=C4)cc2)cc1
REMARK SMILES IDX 20 1 19 2 17 3 18 4 15 5 11 6 12 7 13 8 14 9 10 10 9 11 8 12
REMARK SMILES IDX 7 13 4 14 5 15 83 16 6 17 82 18 2 19 1 20 3 21 16 22 21 26
REMARK SMILES IDX 22 27 23 28 24 29 25 30 26 31 27 32 28 33 29 34 81 35 30 36
REMARK SMILES IDX 80 37 31 38 32 39 33 40 74 41 34 42 79 43 73 44 75 45 35 46
REMARK SMILES IDX 78 47 72 48 71 49 36 51 62 52 45 53 61 54 46 55 49 56 60 57
REMARK SMILES IDX 76 58 47 59 48 60 59 62 77 63 50 64 37 65 38 66 43 67 39 68
REMARK SMILES IDX 40 69 42 70 44 71 41 72 63 73 64 74 69 75 65 76 66 77 68 78
REMARK SMILES IDX 70 79 67 80 51 81 52 82 57 83 53 84 54 85 56 86 58 87 55 88
REMARK H PARENT 16 23 16 24 16 25 75 50 49 61
REMARK Flexibility Score: inf
ROOT
ATOM      1  C   UNL     1      -3.343   1.449   0.173  1.00  0.00     0.261 C 
ENDROOT
BRANCH   1   2
ATOM      2  O   UNL     1      -3.529   0.328   1.048  1.00  0.00    -0.459 OA
BRANCH   2   3
ATOM      3  C   UNL     1      -3.487  -0.874   0.400  1.00  0.00     0.368 C 
ATOM      4  O   UNL     1      -3.208  -0.961  -0.789  1.00  0.00    -0.245 OA
BRANCH   3   5
ATOM      5  C   UNL     1      -3.766  -2.116   1.349  1.00  0.00     0.195 C 
ATOM      6  C   UNL     1      -4.580  -3.490   0.217  1.00  0.00     0.066 C 
ATOM      7  C   UNL     1      -3.777  -5.240   0.662  1.00  0.00     0.011 C 
ATOM      8  C   UNL     1      -1.961  -4.810   1.874  1.00  0.00     0.008 C 
ATOM      9  C   UNL     1      -2.148  -2.818   2.275  1.00  0.00     0.081 C 
BRANCH   6  10
ATOM     10  C   UNL     1      -4.292  -3.422  -1.401  1.00  0.00     0.052 C 
BRANCH  10  11
ATOM     11  C   UNL     1      -2.819  -3.614  -2.046  1.00  0.00     0.230 C 
BRANCH  11  12
ATOM     12  O   UNL     1      -2.034  -4.809  -1.732  1.00  0.00    -0.494 OA
BRANCH  12  13
ATOM     13  C   UNL     1      -1.910  -4.999  -0.365  1.00  0.00     0.119 A 
ATOM     14  C   UNL     1      -3.623  -5.890   2.727  1.00  0.00    -0.045 A 
ATOM     15  C   UNL     1      -2.758  -6.972   1.727  1.00  0.00     0.008 A 
ATOM     16  C   UNL     1      -3.676  -4.218   2.186  1.00  0.00     0.008 A 
ATOM     17  C   UNL     1      -1.953  -6.553   0.269  1.00  0.00     0.047 A 
ATOM     18  C   UNL     1      -2.623  -3.780   0.546  1.00  0.00     0.047 A 
BRANCH  14  19
ATOM     19  C   UNL     1      -4.053  -6.284   4.120  1.00  0.00     0.013 C 
ATOM     20  C   UNL     1      -5.234  -7.245   4.100  1.00  0.00     0.012 C 
ATOM     21  C   UNL     1      -2.877  -6.909   4.883  1.00  0.00     0.012 C 
ENDBRANCH  14  19
ENDBRANCH  12  13
ENDBRANCH  11  12
ENDBRANCH  10  11
ENDBRANCH   6  10
BRANCH   5  22
ATOM     22  N   UNL     1      -4.770  -1.606   2.339  1.00  0.00    -0.343 N 
ATOM     23  H   UNL     1      -5.009  -2.350   2.995  1.00  0.00     0.345 HD
ATOM     24  H   UNL     1      -5.611  -1.306   1.846  1.00  0.00     0.345 HD
ATOM     25  H   UNL     1      -4.374  -0.816   2.849  1.00  0.00     0.345 HD
ENDBRANCH   5  22
ENDBRANCH   3   5
ENDBRANCH   2   3
ENDBRANCH   1   2
BRANCH   1  26
ATOM     26  C   UNL     1      -1.922   2.015   0.213  1.00  0.00     0.202 C 
BRANCH  26  27
ATOM     27  O   UNL     1      -0.798   1.185  -0.056  1.00  0.00    -0.374 OA
BRANCH  27  28
ATOM     28  C   UNL     1      -0.489   0.110   0.821  1.00  0.00     0.202 C 
BRANCH  28  29
ATOM     29  C   UNL     1      -0.052   0.371   2.268  1.00  0.00     0.261 C 
BRANCH  29  30
ATOM     30  O   UNL     1      -0.948   1.202   3.014  1.00  0.00    -0.460 OA
BRANCH  30  31
ATOM     31  C   UNL     1      -0.507   2.477   3.146  1.00  0.00     0.338 C 
ATOM     32  O   UNL     1       0.537   2.949   2.729  1.00  0.00    -0.246 OA
BRANCH  31  33
ATOM     33  C   UNL     1      -1.569   3.316   3.717  1.00  0.00     0.060 A 
ATOM     34  C   UNL     1      -1.980   4.431   2.975  1.00  0.00     0.016 A 
ATOM     35  C   UNL     1      -2.068   3.076   4.996  1.00  0.00     0.016 A 
ATOM     36  C   UNL     1      -2.852   5.351   3.537  1.00  0.00     0.010 A 
ATOM     37  C   UNL     1      -2.938   4.008   5.563  1.00  0.00     0.010 A 
ATOM     38  C   UNL     1      -3.296   5.168   4.851  1.00  0.00    -0.014 A 
BRANCH  38  39
ATOM     39  C   UNL     1      -4.025   6.262   5.524  1.00  0.00     0.031 A 
ATOM     40  C   UNL     1      -3.313   7.092   6.553  1.00  0.00     0.074 A 
ATOM     41  C   UNL     1      -5.298   6.526   5.187  1.00  0.00     0.049 A 
ATOM     42  N   UNL     1      -3.774   8.066   7.295  1.00  0.00    -0.248 NA
ATOM     43  C   UNL     1      -1.893   6.779   6.783  1.00  0.00     0.031 C 
ATOM     44  C   UNL     1      -6.066   5.810   4.169  1.00  0.00     0.029 A 
ATOM     45  N   UNL     1      -6.169   7.466   5.671  1.00  0.00    -0.354 N 
ATOM     46  C   UNL     1      -2.708   8.472   8.086  1.00  0.00     0.074 A 
ATOM     47  C   UNL     1      -1.588   7.615   7.764  1.00  0.00     0.031 C 
ATOM     48  C   UNL     1      -7.300   6.336   4.107  1.00  0.00     0.029 A 
ATOM     49  C   UNL     1      -7.420   7.389   5.112  1.00  0.00     0.049 A 
ATOM     50  H   UNL     1      -5.922   8.131   6.354  1.00  0.00     0.167 HD
ATOM     51  C   UNL     1      -2.669   9.477   8.993  1.00  0.00     0.037 A 
ATOM     52  C   UNL     1      -8.541   8.073   5.403  1.00  0.00     0.037 A 
ATOM     53  C   UNL     1      -3.796  10.318   9.306  1.00  0.00     0.049 A 
ATOM     54  C   UNL     1      -8.494   9.125   6.479  1.00  0.00     0.074 A 
ATOM     55  C   UNL     1      -3.861  11.375  10.195  1.00  0.00     0.029 A 
ATOM     56  N   UNL     1      -5.060  10.185   8.748  1.00  0.00    -0.354 N 
ATOM     57  N   UNL     1      -7.477   9.523   7.206  1.00  0.00    -0.248 NA
ATOM     58  C   UNL     1      -9.751   9.826   6.771  1.00  0.00     0.031 C 
ATOM     59  C   UNL     1      -5.181  11.832  10.233  1.00  0.00     0.029 A 
ATOM     60  C   UNL     1      -5.921  11.117   9.304  1.00  0.00     0.049 A 
ATOM     61  H   UNL     1      -5.308   9.527   8.060  1.00  0.00     0.167 HD
ATOM     62  C   UNL     1      -7.962  10.543   8.015  1.00  0.00     0.074 A 
ATOM     63  C   UNL     1      -9.360  10.712   7.675  1.00  0.00     0.031 C 
ATOM     64  C   UNL     1      -7.311  11.275   8.952  1.00  0.00     0.037 A 
BRANCH  51  65
ATOM     65  C   UNL     1      -1.381   9.698   9.737  1.00  0.00     0.057 A 
ATOM     66  C   UNL     1      -0.224  10.170   9.104  1.00  0.00     0.134 A 
ATOM     67  C   UNL     1      -1.310   9.466  11.117  1.00  0.00     0.134 A 
ATOM     68  F   UNL     1      -0.217  10.403   7.783  1.00  0.00    -0.206 F 
ATOM     69  C   UNL     1       0.964  10.375   9.810  1.00  0.00     0.040 A 
ATOM     70  C   UNL     1      -0.139   9.701  11.839  1.00  0.00     0.040 A 
ATOM     71  F   UNL     1      -2.381   9.020  11.790  1.00  0.00    -0.206 F 
ATOM     72  C   UNL     1       1.006  10.148  11.184  1.00  0.00     0.006 A 
ENDBRANCH  51  65
BRANCH  52  73
ATOM     73  C   UNL     1      -9.803   7.774   4.681  1.00  0.00     0.057 A 
ATOM     74  C   UNL     1     -10.401   8.721   3.842  1.00  0.00     0.134 A 
ATOM     75  C   UNL     1     -10.454   6.542   4.827  1.00  0.00     0.134 A 
ATOM     76  F   UNL     1      -9.835   9.926   3.673  1.00  0.00    -0.206 F 
ATOM     77  C   UNL     1     -11.611   8.466   3.196  1.00  0.00     0.040 A 
ATOM     78  C   UNL     1     -11.646   6.260   4.160  1.00  0.00     0.040 A 
ATOM     79  F   UNL     1      -9.931   5.587   5.611  1.00  0.00    -0.206 F 
ATOM     80  C   UNL     1     -12.235   7.229   3.351  1.00  0.00     0.006 A 
ENDBRANCH  52  73
BRANCH  64  81
ATOM     81  C   UNL     1      -8.089  12.360   9.645  1.00  0.00     0.057 A 
ATOM     82  C   UNL     1      -9.130  12.078  10.539  1.00  0.00     0.134 A 
ATOM     83  C   UNL     1      -7.765  13.708   9.438  1.00  0.00     0.134 A 
ATOM     84  F   UNL     1      -9.500  10.810  10.776  1.00  0.00    -0.206 F 
ATOM     85  C   UNL     1      -9.842  13.097  11.175  1.00  0.00     0.040 A 
ATOM     86  C   UNL     1      -8.443  14.733  10.098  1.00  0.00     0.040 A 
ATOM     87  F   UNL     1      -6.770  14.051   8.605  1.00  0.00    -0.206 F 
ATOM     88  C   UNL     1      -9.492  14.429  10.961  1.00  0.00     0.006 A 
ENDBRANCH  64  81
ENDBRANCH  38  39
ENDBRANCH  31  33
ENDBRANCH  30  31
ENDBRANCH  29  30
ENDBRANCH  28  29
ENDBRANCH  27  28
ENDBRANCH  26  27
ENDBRANCH   1  26
TORSDOF 20
