REMARK SMILES CC(C)[C@H](NC(=O)OCc1ccccc1)C(=O)NCC(=O)OCCOCCOC(=O)c1ccc(-c2c3nc(c(-c4c(F)cccc4F)c4ccc([nH]4)c(-c4c(F)cccc4F)c4nc(c(-c5c(F)cccc5F)c5ccc2[nH]5)C=C4)C=C3)cc1
REMARK SMILES IDX 23 1 22 2 20 3 21 4 19 5 18 6 16 7 17 8 4 10 2 11 1 12 3 13
REMARK SMILES IDX 5 14 6 15 7 17 8 18 9 19 10 20 11 21 15 22 12 23 14 24 13 25
REMARK SMILES IDX 24 26 25 27 26 28 27 29 28 30 29 31 30 32 31 33 32 34 84 35
REMARK SMILES IDX 33 36 83 37 34 38 35 39 36 40 77 41 37 42 82 43 76 44 78 45
REMARK SMILES IDX 38 46 81 47 75 48 74 49 39 51 65 52 48 53 64 54 49 55 52 56
REMARK SMILES IDX 63 57 79 58 50 59 51 60 62 62 80 63 53 64 40 65 41 66 46 67
REMARK SMILES IDX 42 68 43 69 45 70 47 71 44 72 66 73 67 74 72 75 68 76 69 77
REMARK SMILES IDX 71 78 73 79 70 80 54 81 55 82 60 83 56 84 57 85 59 86 61 87
REMARK SMILES IDX 58 88
REMARK H PARENT 18 9 5 16 78 50 52 61
REMARK Flexibility Score: inf
ROOT
ATOM      1  C   UNL     1       2.528   2.002   4.754  1.00  0.00     0.261 C 
ENDROOT
BRANCH   1   2
ATOM      2  O   UNL     1       1.196   1.964   4.214  1.00  0.00    -0.462 OA
BRANCH   2   3
ATOM      3  C   UNL     1       0.416   0.949   4.673  1.00  0.00     0.325 C 
ATOM      4  O   UNL     1       0.754   0.134   5.525  1.00  0.00    -0.250 OA
BRANCH   3   5
ATOM      5  C   UNL     1      -0.985   0.944   4.074  1.00  0.00     0.238 C 
BRANCH   5   6
ATOM      6  N   UNL     1      -1.312   1.958   3.090  1.00  0.00    -0.343 N 
ATOM      7  C   UNL     1      -1.365   1.926   1.736  1.00  0.00     0.243 C 
ATOM      8  O   UNL     1      -1.724   2.973   1.182  1.00  0.00    -0.273 OA
ATOM      9  H   UNL     1      -1.536   2.835   3.479  1.00  0.00     0.164 HD
BRANCH   7  10
ATOM     10  C   UNL     1      -0.923   0.717   0.874  1.00  0.00     0.177 C 
BRANCH  10  11
ATOM     11  C   UNL     1      -1.690  -0.611   1.049  1.00  0.00     0.015 C 
ATOM     12  C   UNL     1      -3.208  -0.395   0.985  1.00  0.00     0.010 C 
ATOM     13  C   UNL     1      -1.290  -1.625  -0.032  1.00  0.00     0.010 C 
ENDBRANCH  10  11
BRANCH  10  14
ATOM     14  N   UNL     1       0.543   0.687   0.869  1.00  0.00    -0.309 N 
ATOM     15  C   UNL     1       1.425   0.005   1.641  1.00  0.00     0.408 C 
ATOM     16  H   UNL     1       0.959   1.262   0.187  1.00  0.00     0.167 HD
ATOM     17  O   UNL     1       2.606   0.348   1.690  1.00  0.00    -0.225 OA
BRANCH  15  18
ATOM     18  O   UNL     1       0.879  -1.009   2.341  1.00  0.00    -0.445 OA
BRANCH  18  19
ATOM     19  C   UNL     1       1.720  -1.622   3.327  1.00  0.00     0.270 C 
BRANCH  19  20
ATOM     20  C   UNL     1       2.536  -2.767   2.804  1.00  0.00    -0.011 A 
ATOM     21  C   UNL     1       1.996  -4.056   2.726  1.00  0.00     0.007 A 
ATOM     22  C   UNL     1       3.876  -2.561   2.448  1.00  0.00     0.007 A 
ATOM     23  C   UNL     1       2.797  -5.128   2.333  1.00  0.00     0.000 A 
ATOM     24  C   UNL     1       4.674  -3.632   2.053  1.00  0.00     0.000 A 
ATOM     25  C   UNL     1       4.136  -4.916   2.003  1.00  0.00     0.000 A 
ENDBRANCH  19  20
ENDBRANCH  18  19
ENDBRANCH  15  18
ENDBRANCH  10  14
ENDBRANCH   7  10
ENDBRANCH   5   6
ENDBRANCH   3   5
ENDBRANCH   2   3
ENDBRANCH   1   2
BRANCH   1  26
ATOM     26  C   UNL     1       2.739   3.121   5.777  1.00  0.00     0.202 C 
BRANCH  26  27
ATOM     27  O   UNL     1       1.915   3.151   6.938  1.00  0.00    -0.374 OA
BRANCH  27  28
ATOM     28  C   UNL     1       0.523   3.411   6.804  1.00  0.00     0.202 C 
BRANCH  28  29
ATOM     29  C   UNL     1       0.055   4.787   6.317  1.00  0.00     0.261 C 
BRANCH  29  30
ATOM     30  O   UNL     1       0.613   5.184   5.056  1.00  0.00    -0.460 OA
BRANCH  30  31
ATOM     31  C   UNL     1       1.534   6.175   5.153  1.00  0.00     0.338 C 
ATOM     32  O   UNL     1       1.906   6.743   6.167  1.00  0.00    -0.246 OA
BRANCH  31  33
ATOM     33  C   UNL     1       2.180   6.409   3.851  1.00  0.00     0.060 A 
ATOM     34  C   UNL     1       3.581   6.369   3.803  1.00  0.00     0.016 A 
ATOM     35  C   UNL     1       1.436   6.794   2.737  1.00  0.00     0.016 A 
ATOM     36  C   UNL     1       4.250   6.779   2.653  1.00  0.00     0.010 A 
ATOM     37  C   UNL     1       2.108   7.218   1.589  1.00  0.00     0.010 A 
ATOM     38  C   UNL     1       3.515   7.256   1.562  1.00  0.00    -0.014 A 
BRANCH  38  39
ATOM     39  C   UNL     1       4.199   7.984   0.470  1.00  0.00     0.031 A 
ATOM     40  C   UNL     1       4.193   9.486   0.500  1.00  0.00     0.074 A 
ATOM     41  C   UNL     1       4.808   7.324  -0.528  1.00  0.00     0.049 A 
ATOM     42  N   UNL     1       4.609  10.339  -0.400  1.00  0.00    -0.248 NA
ATOM     43  C   UNL     1       3.633  10.111   1.710  1.00  0.00     0.031 C 
ATOM     44  C   UNL     1       4.942   5.872  -0.624  1.00  0.00     0.029 A 
ATOM     45  N   UNL     1       5.415   7.798  -1.662  1.00  0.00    -0.354 N 
ATOM     46  C   UNL     1       4.341  11.597   0.124  1.00  0.00     0.074 A 
ATOM     47  C   UNL     1       3.710  11.398   1.410  1.00  0.00     0.031 C 
ATOM     48  C   UNL     1       5.582   5.572  -1.767  1.00  0.00     0.029 A 
ATOM     49  C   UNL     1       5.857   6.806  -2.500  1.00  0.00     0.049 A 
ATOM     50  H   UNL     1       5.523   8.757  -1.856  1.00  0.00     0.167 HD
ATOM     51  C   UNL     1       4.597  12.810  -0.421  1.00  0.00     0.037 A 
ATOM     52  C   UNL     1       6.392   6.891  -3.733  1.00  0.00     0.037 A 
ATOM     53  C   UNL     1       5.226  12.996  -1.701  1.00  0.00     0.049 A 
ATOM     54  C   UNL     1       6.573   8.245  -4.366  1.00  0.00     0.074 A 
ATOM     55  C   UNL     1       5.549  14.180  -2.341  1.00  0.00     0.029 A 
ATOM     56  N   UNL     1       5.619  11.965  -2.542  1.00  0.00    -0.354 N 
ATOM     57  N   UNL     1       6.323   9.432  -3.867  1.00  0.00    -0.248 NA
ATOM     58  C   UNL     1       7.101   8.271  -5.738  1.00  0.00     0.031 C 
ATOM     59  C   UNL     1       6.088  13.864  -3.592  1.00  0.00     0.029 A 
ATOM     60  C   UNL     1       6.153  12.484  -3.708  1.00  0.00     0.049 A 
ATOM     61  H   UNL     1       5.530  11.005  -2.338  1.00  0.00     0.167 HD
ATOM     62  C   UNL     1       6.701  10.345  -4.844  1.00  0.00     0.074 A 
ATOM     63  C   UNL     1       7.189   9.574  -5.969  1.00  0.00     0.031 C 
ATOM     64  C   UNL     1       6.656  11.699  -4.808  1.00  0.00     0.037 A 
BRANCH  51  65
ATOM     65  C   UNL     1       4.152  14.019   0.348  1.00  0.00     0.057 A 
ATOM     66  C   UNL     1       4.771  14.414   1.542  1.00  0.00     0.134 A 
ATOM     67  C   UNL     1       3.082  14.798  -0.112  1.00  0.00     0.134 A 
ATOM     68  F   UNL     1       5.791  13.703   2.046  1.00  0.00    -0.206 F 
ATOM     69  C   UNL     1       4.320  15.519   2.267  1.00  0.00     0.040 A 
ATOM     70  C   UNL     1       2.641  15.921   0.589  1.00  0.00     0.040 A 
ATOM     71  F   UNL     1       2.447  14.480  -1.250  1.00  0.00    -0.206 F 
ATOM     72  C   UNL     1       3.254  16.278   1.788  1.00  0.00     0.006 A 
ENDBRANCH  51  65
BRANCH  52  73
ATOM     73  C   UNL     1       6.791   5.656  -4.452  1.00  0.00     0.057 A 
ATOM     74  C   UNL     1       8.140   5.358  -4.671  1.00  0.00     0.134 A 
ATOM     75  C   UNL     1       5.842   4.745  -4.932  1.00  0.00     0.134 A 
ATOM     76  F   UNL     1       9.094   6.203  -4.255  1.00  0.00    -0.206 F 
ATOM     77  C   UNL     1       8.533   4.202  -5.348  1.00  0.00     0.040 A 
ATOM     78  C   UNL     1       6.221   3.574  -5.590  1.00  0.00     0.040 A 
ATOM     79  F   UNL     1       4.533   4.974  -4.754  1.00  0.00    -0.206 F 
ATOM     80  C   UNL     1       7.571   3.302  -5.803  1.00  0.00     0.006 A 
ENDBRANCH  52  73
BRANCH  64  81
ATOM     81  C   UNL     1       7.203  12.445  -5.989  1.00  0.00     0.057 A 
ATOM     82  C   UNL     1       6.506  12.537  -7.199  1.00  0.00     0.134 A 
ATOM     83  C   UNL     1       8.410  13.151  -5.880  1.00  0.00     0.134 A 
ATOM     84  F   UNL     1       5.351  11.876  -7.370  1.00  0.00    -0.206 F 
ATOM     85  C   UNL     1       6.992  13.299  -8.262  1.00  0.00     0.040 A 
ATOM     86  C   UNL     1       8.893  13.935  -6.927  1.00  0.00     0.040 A 
ATOM     87  F   UNL     1       9.121  13.111  -4.744  1.00  0.00    -0.206 F 
ATOM     88  C   UNL     1       8.184  14.010  -8.124  1.00  0.00     0.006 A 
ENDBRANCH  64  81
ENDBRANCH  38  39
ENDBRANCH  31  33
ENDBRANCH  30  31
ENDBRANCH  29  30
ENDBRANCH  28  29
ENDBRANCH  27  28
ENDBRANCH  26  27
ENDBRANCH   1  26
TORSDOF 21
