REMARK SMILES Cc1ccc(C(=O)N2CCCC[C@@H]2C(=O)OCCOCCOC(=O)c2ccc(-c3c4nc(c(-c5c(F)cccc5F)c5ccc([nH]5)c(-c5c(F)cccc5F)c5nc(c(-c6c(F)cccc6F)c6ccc3[nH]6)C=C5)C=C4)cc2)cc1S(=O)(=O)N1CCCCC1
REMARK SMILES IDX 18 1 17 2 16 3 14 4 15 5 13 6 8 7 9 8 10 9 12 10 11 11 6 12
REMARK SMILES IDX 7 13 5 14 1 15 2 16 3 17 80 18 4 19 79 20 81 21 82 22 83 23
REMARK SMILES IDX 84 24 85 25 89 26 86 27 88 28 87 29 19 30 20 31 21 32 22 33
REMARK SMILES IDX 23 34 24 35 25 36 26 37 78 38 27 39 77 40 28 41 29 42 30 43
REMARK SMILES IDX 71 44 31 45 76 46 70 47 72 48 32 49 75 50 69 51 68 52 33 54
REMARK SMILES IDX 59 55 42 56 58 57 43 58 46 59 57 60 73 61 44 62 45 63 56 65
REMARK SMILES IDX 74 66 47 67 34 68 35 69 40 70 36 71 37 72 39 73 41 74 38 75
REMARK SMILES IDX 60 76 61 77 66 78 62 79 63 80 65 81 67 82 64 83 48 84 49 85
REMARK SMILES IDX 54 86 50 87 51 88 53 89 55 90 52 91
REMARK H PARENT 72 53 46 64
REMARK Flexibility Score: inf
ROOT
ATOM      1  C   UNL     1      -4.414   1.647  -4.194  1.00  0.00     0.202 C 
ENDROOT
BRANCH   1   2
ATOM      2  C   UNL     1      -4.217   0.652  -3.041  1.00  0.00     0.261 C 
BRANCH   2   3
ATOM      3  O   UNL     1      -4.512   1.239  -1.750  1.00  0.00    -0.462 OA
BRANCH   3   4
ATOM      4  C   UNL     1      -3.624   2.148  -1.239  1.00  0.00     0.328 C 
ATOM      5  O   UNL     1      -2.449   2.244  -1.569  1.00  0.00    -0.250 OA
BRANCH   4   6
ATOM      6  C   UNL     1      -4.334   3.197  -0.345  1.00  0.00     0.195 C 
ATOM      7  N   UNL     1      -4.658   2.932   1.096  1.00  0.00    -0.325 N 
ATOM      8  C   UNL     1      -6.034   3.012   1.582  1.00  0.00     0.121 C 
ATOM      9  C   UNL     1      -7.114   3.146   0.535  1.00  0.00     0.022 C 
ATOM     10  C   UNL     1      -5.517   3.701  -1.218  1.00  0.00     0.037 C 
ATOM     11  C   UNL     1      -6.699   4.225  -0.444  1.00  0.00     0.005 C 
BRANCH   7  12
ATOM     12  C   UNL     1      -3.726   3.029   2.157  1.00  0.00     0.254 C 
ATOM     13  O   UNL     1      -4.055   3.217   3.329  1.00  0.00    -0.269 OA
BRANCH  12  14
ATOM     14  C   UNL     1      -2.346   2.597   1.950  1.00  0.00     0.041 A 
ATOM     15  C   UNL     1       0.389   0.617  -0.064  1.00  0.00     0.046 C 
ATOM     16  C   UNL     1      -0.211   1.322   1.058  1.00  0.00    -0.031 A 
ATOM     17  C   UNL     1      -1.116   0.603   1.844  1.00  0.00     0.005 A 
ATOM     18  C   UNL     1      -0.127   2.696   0.996  1.00  0.00     0.086 A 
ATOM     19  C   UNL     1      -2.199   1.261   2.325  1.00  0.00     0.014 A 
ATOM     20  C   UNL     1      -1.285   3.364   1.393  1.00  0.00     0.035 A 
BRANCH  18  21
ATOM     21  S   UNL     1       1.338   3.458   0.187  1.00  0.00     0.243 S 
ATOM     22  O   UNL     1       0.999   3.630  -1.212  1.00  0.00    -0.207 OA
ATOM     23  O   UNL     1       1.671   4.594   1.023  1.00  0.00    -0.207 OA
BRANCH  21  24
ATOM     24  N   UNL     1       2.743   2.369   0.254  1.00  0.00    -0.198 NA
ATOM     25  C   UNL     1       3.156   1.637   1.897  1.00  0.00     0.102 C 
ATOM     26  C   UNL     1       3.628   1.880  -1.325  1.00  0.00     0.102 C 
ATOM     27  C   UNL     1       4.580   0.213   2.029  1.00  0.00     0.017 C 
ATOM     28  C   UNL     1       5.143   0.539  -1.210  1.00  0.00     0.017 C 
ATOM     29  C   UNL     1       5.599  -0.268   0.473  1.00  0.00     0.003 C 
ENDBRANCH  21  24
ENDBRANCH  18  21
ENDBRANCH  12  14
ENDBRANCH   7  12
ENDBRANCH   4   6
ENDBRANCH   3   4
ENDBRANCH   2   3
ENDBRANCH   1   2
BRANCH   1  30
ATOM     30  O   UNL     1      -3.236   2.437  -4.301  1.00  0.00    -0.374 OA
BRANCH  30  31
ATOM     31  C   UNL     1      -3.293   3.575  -5.154  1.00  0.00     0.202 C 
BRANCH  31  32
ATOM     32  C   UNL     1      -3.496   3.257  -6.644  1.00  0.00     0.261 C 
BRANCH  32  33
ATOM     33  O   UNL     1      -2.406   2.446  -7.120  1.00  0.00    -0.460 OA
BRANCH  33  34
ATOM     34  C   UNL     1      -2.687   1.125  -7.253  1.00  0.00     0.338 C 
ATOM     35  O   UNL     1      -3.662   0.658  -7.821  1.00  0.00    -0.246 OA
BRANCH  34  36
ATOM     36  C   UNL     1      -1.782   0.331  -6.376  1.00  0.00     0.060 A 
ATOM     37  C   UNL     1      -1.989  -1.051  -6.224  1.00  0.00     0.016 A 
ATOM     38  C   UNL     1      -0.929   1.000  -5.502  1.00  0.00     0.016 A 
ATOM     39  C   UNL     1      -1.412  -1.738  -5.145  1.00  0.00     0.010 A 
ATOM     40  C   UNL     1      -0.463   0.347  -4.378  1.00  0.00     0.010 A 
ATOM     41  C   UNL     1      -0.689  -1.027  -4.180  1.00  0.00    -0.014 A 
BRANCH  41  42
ATOM     42  C   UNL     1      -0.288  -1.566  -2.841  1.00  0.00     0.031 A 
ATOM     43  C   UNL     1       1.149  -1.241  -2.356  1.00  0.00     0.074 A 
ATOM     44  C   UNL     1      -1.392  -1.659  -2.057  1.00  0.00     0.049 A 
ATOM     45  N   UNL     1       1.728  -1.310  -1.184  1.00  0.00    -0.248 NA
ATOM     46  C   UNL     1       2.101  -0.828  -3.373  1.00  0.00     0.031 C 
ATOM     47  C   UNL     1      -1.825  -0.755  -1.012  1.00  0.00     0.029 A 
ATOM     48  N   UNL     1      -2.564  -2.365  -2.249  1.00  0.00    -0.354 N 
ATOM     49  C   UNL     1       2.911  -0.497  -1.144  1.00  0.00     0.074 A 
ATOM     50  C   UNL     1       3.115  -0.389  -2.635  1.00  0.00     0.031 C 
ATOM     51  C   UNL     1      -2.912  -1.177  -0.370  1.00  0.00     0.029 A 
ATOM     52  C   UNL     1      -3.348  -2.328  -1.082  1.00  0.00     0.049 A 
ATOM     53  H   UNL     1      -2.814  -2.828  -3.081  1.00  0.00     0.167 HD
ATOM     54  C   UNL     1       3.478   0.212   0.150  1.00  0.00     0.037 A 
ATOM     55  C   UNL     1      -3.720  -3.461  -0.455  1.00  0.00     0.037 A 
ATOM     56  C   UNL     1       2.522  -0.764   1.296  1.00  0.00     0.049 A 
ATOM     57  C   UNL     1      -2.682  -3.870   0.569  1.00  0.00     0.074 A 
ATOM     58  C   UNL     1       2.019  -0.641   2.627  1.00  0.00     0.029 A 
ATOM     59  N   UNL     1       2.064  -2.126   1.040  1.00  0.00    -0.354 N 
ATOM     60  N   UNL     1      -1.460  -3.388   0.685  1.00  0.00    -0.248 NA
ATOM     61  C   UNL     1      -3.030  -4.804   1.633  1.00  0.00     0.031 C 
ATOM     62  C   UNL     1       1.011  -1.568   2.906  1.00  0.00     0.029 A 
ATOM     63  C   UNL     1       1.083  -2.548   1.953  1.00  0.00     0.049 A 
ATOM     64  H   UNL     1       2.406  -2.688   0.307  1.00  0.00     0.167 HD
ATOM     65  C   UNL     1      -0.833  -4.023   1.736  1.00  0.00     0.074 A 
ATOM     66  C   UNL     1      -1.885  -4.843   2.328  1.00  0.00     0.031 C 
ATOM     67  C   UNL     1       0.480  -3.872   2.116  1.00  0.00     0.037 A 
BRANCH  54  68
ATOM     68  C   UNL     1       4.840   1.761   0.528  1.00  0.00     0.057 A 
ATOM     69  C   UNL     1       5.452   2.408   1.870  1.00  0.00     0.134 A 
ATOM     70  C   UNL     1       5.723   2.709  -0.401  1.00  0.00     0.134 A 
ATOM     71  F   UNL     1       5.021   2.118   3.131  1.00  0.00    -0.206 F 
ATOM     72  C   UNL     1       6.462   3.402   2.127  1.00  0.00     0.040 A 
ATOM     73  C   UNL     1       6.728   3.713  -0.118  1.00  0.00     0.040 A 
ATOM     74  F   UNL     1       5.703   2.694  -1.761  1.00  0.00    -0.206 F 
ATOM     75  C   UNL     1       7.118   4.056   1.138  1.00  0.00     0.006 A 
ENDBRANCH  54  68
BRANCH  55  76
ATOM     76  C   UNL     1      -4.583  -4.218  -1.414  1.00  0.00     0.057 A 
ATOM     77  C   UNL     1      -5.817  -3.564  -1.662  1.00  0.00     0.134 A 
ATOM     78  C   UNL     1      -3.979  -4.852  -2.509  1.00  0.00     0.134 A 
ATOM     79  F   UNL     1      -6.462  -2.950  -0.655  1.00  0.00    -0.206 F 
ATOM     80  C   UNL     1      -6.251  -3.286  -2.963  1.00  0.00     0.040 A 
ATOM     81  C   UNL     1      -4.410  -4.576  -3.818  1.00  0.00     0.040 A 
ATOM     82  F   UNL     1      -2.812  -5.493  -2.356  1.00  0.00    -0.206 F 
ATOM     83  C   UNL     1      -5.508  -3.742  -4.047  1.00  0.00     0.006 A 
ENDBRANCH  55  76
BRANCH  67  84
ATOM     84  C   UNL     1       1.142  -4.838   3.104  1.00  0.00     0.057 A 
ATOM     85  C   UNL     1       0.813  -6.203   3.168  1.00  0.00     0.134 A 
ATOM     86  C   UNL     1       2.200  -4.455   3.962  1.00  0.00     0.134 A 
ATOM     87  F   UNL     1      -0.088  -6.745   2.336  1.00  0.00    -0.206 F 
ATOM     88  C   UNL     1       1.414  -7.089   4.074  1.00  0.00     0.040 A 
ATOM     89  C   UNL     1       2.834  -5.337   4.842  1.00  0.00     0.040 A 
ATOM     90  F   UNL     1       2.699  -3.213   3.985  1.00  0.00    -0.206 F 
ATOM     91  C   UNL     1       2.432  -6.659   4.912  1.00  0.00     0.006 A 
ENDBRANCH  67  84
ENDBRANCH  41  42
ENDBRANCH  34  36
ENDBRANCH  33  34
ENDBRANCH  32  33
ENDBRANCH  31  32
ENDBRANCH  30  31
ENDBRANCH   1  30
TORSDOF 18
