REMARK SMILES CN1C(=O)C[C@@H](C(=O)OCCOCCOC(=O)c2ccc(-c3c4nc(c(-c5c(F)cccc5F)c5ccc([nH]5)c(-c5c(F)cccc5F)c5nc(c(-c6c(F)cccc6F)c6ccc3[nH]6)C=C5)C=C4)cc2)C12CCN(C(=O)c1ccccc1-n1cccn1)CC2
REMARK SMILES IDX 12 1 11 2 10 3 9 4 7 5 8 6 6 7 1 8 2 9 3 10 72 11 4 12 5 13
REMARK SMILES IDX 73 14 90 15 74 16 89 17 75 18 76 19 77 20 78 21 79 22 83 23
REMARK SMILES IDX 80 24 82 25 81 26 84 27 85 28 88 29 86 30 87 31 13 32 14 33
REMARK SMILES IDX 15 34 16 35 17 36 18 37 19 38 71 39 20 40 70 41 21 42 22 43
REMARK SMILES IDX 23 44 64 45 24 46 69 47 63 48 65 49 25 50 68 51 62 52 61 53
REMARK SMILES IDX 26 55 52 56 35 57 51 58 36 59 39 60 50 61 66 62 37 63 38 64
REMARK SMILES IDX 49 66 67 67 40 68 27 69 28 70 33 71 29 72 30 73 32 74 34 75
REMARK SMILES IDX 31 76 53 77 54 78 59 79 55 80 56 81 58 82 60 83 57 84 41 85
REMARK SMILES IDX 42 86 47 87 43 88 44 89 46 90 48 91 45 92
REMARK H PARENT 65 54 39 65
REMARK Flexibility Score: inf
ROOT
ATOM      1  O   UNL     1      -3.145   2.636   5.562  1.00  0.00    -0.374 OA
ENDROOT
BRANCH   1   2
ATOM      2  C   UNL     1      -3.523   1.591   4.668  1.00  0.00     0.202 C 
BRANCH   2   3
ATOM      3  C   UNL     1      -3.468   1.917   3.170  1.00  0.00     0.261 C 
BRANCH   3   4
ATOM      4  O   UNL     1      -2.138   2.028   2.614  1.00  0.00    -0.463 OA
BRANCH   4   5
ATOM      5  C   UNL     1      -1.737   3.281   2.296  1.00  0.00     0.311 C 
ATOM      6  O   UNL     1      -2.347   4.300   2.609  1.00  0.00    -0.252 OA
BRANCH   5   7
ATOM      7  C   UNL     1      -0.509   3.362   1.407  1.00  0.00     0.134 C 
ATOM      8  C   UNL     1       0.846   0.101   0.125  1.00  0.00     0.147 C 
ATOM      9  N   UNL     1       0.228   1.393   0.366  1.00  0.00    -0.339 N 
ATOM     10  C   UNL     1      -0.695   1.944  -0.508  1.00  0.00     0.223 C 
ATOM     11  C   UNL     1       0.629   2.311   1.442  1.00  0.00     0.060 C 
ATOM     12  O   UNL     1      -1.146   1.428  -1.517  1.00  0.00    -0.275 OA
ATOM     13  C   UNL     1      -1.016   3.337  -0.042  1.00  0.00     0.118 C 
ATOM     14  C   UNL     1       0.846   1.586   2.782  1.00  0.00     0.051 C 
ATOM     15  C   UNL     1       1.982   2.991   1.043  1.00  0.00     0.051 C 
ATOM     16  C   UNL     1       1.413   2.507   3.853  1.00  0.00     0.122 C 
ATOM     17  C   UNL     1       2.609   3.829   2.162  1.00  0.00     0.122 C 
ATOM     18  N   UNL     1       2.678   3.084   3.413  1.00  0.00    -0.338 N 
ATOM     19  C   UNL     1       3.864   3.101   4.151  1.00  0.00     0.256 C 
ATOM     20  O   UNL     1       4.869   3.720   3.811  1.00  0.00    -0.269 OA
BRANCH  19  21
ATOM     21  C   UNL     1       3.931   2.358   5.430  1.00  0.00     0.065 A 
ATOM     22  C   UNL     1       4.018   3.148   6.588  1.00  0.00     0.016 A 
ATOM     23  C   UNL     1       3.802   0.964   5.540  1.00  0.00     0.077 A 
ATOM     24  C   UNL     1       3.921   2.562   7.850  1.00  0.00     0.001 A 
ATOM     25  C   UNL     1       3.649   0.392   6.816  1.00  0.00     0.029 A 
ATOM     26  C   UNL     1       3.716   1.189   7.962  1.00  0.00     0.002 A 
BRANCH  23  27
ATOM     27  N   UNL     1       3.815   0.101   4.415  1.00  0.00    -0.240 N 
ATOM     28  C   UNL     1       4.435   0.281   3.197  1.00  0.00     0.115 A 
ATOM     29  N   UNL     1       3.159  -1.093   4.455  1.00  0.00    -0.177 NA
ATOM     30  C   UNL     1       4.122  -0.803   2.414  1.00  0.00     0.042 A 
ATOM     31  C   UNL     1       3.333  -1.614   3.239  1.00  0.00     0.135 A 
ENDBRANCH  23  27
ENDBRANCH  19  21
ENDBRANCH   5   7
ENDBRANCH   4   5
ENDBRANCH   3   4
ENDBRANCH   2   3
ENDBRANCH   1   2
BRANCH   1  32
ATOM     32  C   UNL     1      -1.750   2.891   5.720  1.00  0.00     0.202 C 
BRANCH  32  33
ATOM     33  C   UNL     1      -0.983   1.823   6.504  1.00  0.00     0.261 C 
BRANCH  33  34
ATOM     34  O   UNL     1      -0.929   0.601   5.749  1.00  0.00    -0.460 OA
BRANCH  34  35
ATOM     35  C   UNL     1      -0.768  -0.499   6.516  1.00  0.00     0.338 C 
ATOM     36  O   UNL     1      -0.391  -0.539   7.677  1.00  0.00    -0.246 OA
BRANCH  35  37
ATOM     37  C   UNL     1      -1.343  -1.659   5.817  1.00  0.00     0.060 A 
ATOM     38  C   UNL     1      -2.648  -2.041   6.152  1.00  0.00     0.016 A 
ATOM     39  C   UNL     1      -0.575  -2.434   4.948  1.00  0.00     0.016 A 
ATOM     40  C   UNL     1      -3.166  -3.243   5.670  1.00  0.00     0.010 A 
ATOM     41  C   UNL     1      -1.101  -3.637   4.458  1.00  0.00     0.010 A 
ATOM     42  C   UNL     1      -2.379  -4.071   4.856  1.00  0.00    -0.014 A 
BRANCH  42  43
ATOM     43  C   UNL     1      -2.839  -5.457   4.574  1.00  0.00     0.031 A 
ATOM     44  C   UNL     1      -2.288  -6.593   5.396  1.00  0.00     0.074 A 
ATOM     45  C   UNL     1      -3.779  -5.704   3.644  1.00  0.00     0.049 A 
ATOM     46  N   UNL     1      -2.586  -7.868   5.359  1.00  0.00    -0.248 NA
ATOM     47  C   UNL     1      -1.264  -6.245   6.394  1.00  0.00     0.031 C 
ATOM     48  C   UNL     1      -4.415  -4.697   2.798  1.00  0.00     0.029 A 
ATOM     49  N   UNL     1      -4.368  -6.885   3.264  1.00  0.00    -0.354 N 
ATOM     50  C   UNL     1      -1.793  -8.470   6.328  1.00  0.00     0.074 A 
ATOM     51  C   UNL     1      -0.972  -7.430   6.909  1.00  0.00     0.031 C 
ATOM     52  C   UNL     1      -5.312  -5.303   2.001  1.00  0.00     0.029 A 
ATOM     53  C   UNL     1      -5.301  -6.740   2.268  1.00  0.00     0.049 A 
ATOM     54  H   UNL     1      -4.142  -7.754   3.668  1.00  0.00     0.167 HD
ATOM     55  C   UNL     1      -1.760  -9.769   6.713  1.00  0.00     0.037 A 
ATOM     56  C   UNL     1      -6.060  -7.662   1.642  1.00  0.00     0.037 A 
ATOM     57  C   UNL     1      -2.571 -10.811   6.143  1.00  0.00     0.049 A 
ATOM     58  C   UNL     1      -5.963  -9.108   2.046  1.00  0.00     0.074 A 
ATOM     59  C   UNL     1      -2.619 -12.152   6.482  1.00  0.00     0.029 A 
ATOM     60  N   UNL     1      -3.474 -10.627   5.107  1.00  0.00    -0.354 N 
ATOM     61  N   UNL     1      -5.235  -9.658   2.988  1.00  0.00    -0.248 NA
ATOM     62  C   UNL     1      -6.800 -10.063   1.302  1.00  0.00     0.031 C 
ATOM     63  C   UNL     1      -3.524 -12.788   5.624  1.00  0.00     0.029 A 
ATOM     64  C   UNL     1      -4.067 -11.835   4.778  1.00  0.00     0.049 A 
ATOM     65  H   UNL     1      -3.665  -9.766   4.670  1.00  0.00     0.167 HD
ATOM     66  C   UNL     1      -5.542 -11.013   2.966  1.00  0.00     0.074 A 
ATOM     67  C   UNL     1      -6.530 -11.202   1.924  1.00  0.00     0.031 C 
ATOM     68  C   UNL     1      -5.051 -12.010   3.741  1.00  0.00     0.037 A 
BRANCH  55  69
ATOM     69  C   UNL     1      -0.794 -10.134   7.802  1.00  0.00     0.057 A 
ATOM     70  C   UNL     1      -1.021  -9.776   9.138  1.00  0.00     0.134 A 
ATOM     71  C   UNL     1       0.366 -10.862   7.515  1.00  0.00     0.134 A 
ATOM     72  F   UNL     1      -2.108  -9.066   9.476  1.00  0.00    -0.206 F 
ATOM     73  C   UNL     1      -0.114 -10.108  10.145  1.00  0.00     0.040 A 
ATOM     74  C   UNL     1       1.270 -11.219   8.517  1.00  0.00     0.040 A 
ATOM     75  F   UNL     1       0.640 -11.240   6.257  1.00  0.00    -0.206 F 
ATOM     76  C   UNL     1       1.034 -10.836   9.836  1.00  0.00     0.006 A 
ENDBRANCH  55  69
BRANCH  56  77
ATOM     77  C   UNL     1      -6.993  -7.243   0.567  1.00  0.00     0.057 A 
ATOM     78  C   UNL     1      -8.378  -7.256   0.764  1.00  0.00     0.134 A 
ATOM     79  C   UNL     1      -6.521  -6.832  -0.686  1.00  0.00     0.134 A 
ATOM     80  F   UNL     1      -8.889  -7.665   1.934  1.00  0.00    -0.206 F 
ATOM     81  C   UNL     1      -9.263  -6.883  -0.249  1.00  0.00     0.040 A 
ATOM     82  C   UNL     1      -7.394  -6.437  -1.701  1.00  0.00     0.040 A 
ATOM     83  F   UNL     1      -5.204  -6.802  -0.936  1.00  0.00    -0.206 F 
ATOM     84  C   UNL     1      -8.770  -6.467  -1.485  1.00  0.00     0.006 A 
ENDBRANCH  56  77
BRANCH  68  85
ATOM     85  C   UNL     1      -5.588 -13.391   3.511  1.00  0.00     0.057 A 
ATOM     86  C   UNL     1      -5.209 -14.154   2.399  1.00  0.00     0.134 A 
ATOM     87  C   UNL     1      -6.462 -13.981   4.433  1.00  0.00     0.134 A 
ATOM     88  F   UNL     1      -4.384 -13.642   1.473  1.00  0.00    -0.206 F 
ATOM     89  C   UNL     1      -5.693 -15.449   2.204  1.00  0.00     0.040 A 
ATOM     90  C   UNL     1      -6.936 -15.282   4.260  1.00  0.00     0.040 A 
ATOM     91  F   UNL     1      -6.858 -13.307   5.523  1.00  0.00    -0.206 F 
ATOM     92  C   UNL     1      -6.554 -16.019   3.140  1.00  0.00     0.006 A 
ENDBRANCH  68  85
ENDBRANCH  42  43
ENDBRANCH  35  37
ENDBRANCH  34  35
ENDBRANCH  33  34
ENDBRANCH  32  33
ENDBRANCH   1  32
TORSDOF 16
