REMARK SMILES CC[C@](C)(Nc1cccc(Cl)c1C(N)=O)C(=O)OCCOCCOC(=O)c1ccc(-c2c3nc(c(-c4c(F)cccc4F)c4ccc([nH]4)c(-c4c(F)cccc4F)c4nc(c(-c5c(F)cccc5F)c5ccc2[nH]5)C=C4)C=C3)cc1
REMARK SMILES IDX 20 1 19 2 18 3 16 4 17 5 3 6 4 7 2 8 1 9 5 10 6 12 7 13
REMARK SMILES IDX 12 14 8 15 10 16 9 17 11 18 13 19 14 20 15 21 21 24 22 25
REMARK SMILES IDX 23 26 24 27 25 28 26 29 27 30 28 31 80 32 29 33 79 34 30 35
REMARK SMILES IDX 31 36 32 37 73 38 33 39 78 40 72 41 74 42 34 43 77 44 71 45
REMARK SMILES IDX 70 46 35 48 61 49 44 50 60 51 45 52 48 53 59 54 75 55 46 56
REMARK SMILES IDX 47 57 58 59 76 60 49 61 36 62 37 63 42 64 38 65 39 66 41 67
REMARK SMILES IDX 43 68 40 69 62 70 63 71 68 72 64 73 65 74 67 75 69 76 66 77
REMARK SMILES IDX 50 78 51 79 56 80 52 81 53 82 55 83 57 84 54 85
REMARK H PARENT 5 11 14 22 14 23 74 47 48 58
REMARK Flexibility Score: inf
ROOT
ATOM      1  C   UNL     1       5.210  -1.302   2.822  1.00  0.00     0.202 C 
ENDROOT
BRANCH   1   2
ATOM      2  C   UNL     1       4.382  -0.033   3.009  1.00  0.00     0.261 C 
BRANCH   2   3
ATOM      3  O   UNL     1       2.986  -0.354   3.172  1.00  0.00    -0.462 OA
BRANCH   3   4
ATOM      4  C   UNL     1       2.224  -0.206   2.061  1.00  0.00     0.331 C 
ATOM      5  O   UNL     1       2.661   0.286   1.022  1.00  0.00    -0.249 OA
BRANCH   4   6
ATOM      6  C   UNL     1       0.727  -0.585   2.241  1.00  0.00     0.133 C 
ATOM      7  C   UNL     1       0.218  -0.788   0.785  1.00  0.00     0.047 C 
BRANCH   6   8
ATOM      8  C   UNL     1       0.038   0.630   2.900  1.00  0.00     0.037 C 
ATOM      9  C   UNL     1      -1.455   0.483   3.165  1.00  0.00     0.007 C 
ENDBRANCH   6   8
BRANCH   6  10
ATOM     10  N   UNL     1       0.327  -1.853   2.928  1.00  0.00    -0.369 N 
ATOM     11  H   UNL     1      -0.569  -2.158   2.656  1.00  0.00     0.161 HD
BRANCH  10  12
ATOM     12  C   UNL     1       0.912  -2.701   3.853  1.00  0.00     0.049 A 
ATOM     13  C   UNL     1       1.631  -2.175   4.935  1.00  0.00     0.026 A 
ATOM     14  C   UNL     1       0.685  -4.120   3.826  1.00  0.00     0.081 A 
ATOM     15  C   UNL     1       2.163  -2.992   5.932  1.00  0.00     0.004 A 
ATOM     16  C   UNL     1       1.313  -4.940   4.789  1.00  0.00     0.055 A 
ATOM     17  C   UNL     1       2.009  -4.367   5.852  1.00  0.00     0.021 A 
ATOM     18  Cl  UNL     1       1.369  -6.673   4.736  1.00  0.00    -0.083 Cl
BRANCH  14  19
ATOM     19  C   UNL     1      -0.298  -4.771   2.883  1.00  0.00     0.252 C 
ATOM     20  N   UNL     1      -0.748  -4.059   1.810  1.00  0.00    -0.365 N 
ATOM     21  O   UNL     1      -0.769  -5.889   3.050  1.00  0.00    -0.269 OA
ATOM     22  H   UNL     1      -0.398  -3.155   1.637  1.00  0.00     0.159 HD
ATOM     23  H   UNL     1      -1.424  -4.448   1.210  1.00  0.00     0.159 HD
ENDBRANCH  14  19
ENDBRANCH  10  12
ENDBRANCH   6  10
ENDBRANCH   4   6
ENDBRANCH   3   4
ENDBRANCH   2   3
ENDBRANCH   1   2
BRANCH   1  24
ATOM     24  O   UNL     1       4.987  -2.002   1.599  1.00  0.00    -0.374 OA
BRANCH  24  25
ATOM     25  C   UNL     1       3.943  -2.977   1.617  1.00  0.00     0.202 C 
BRANCH  25  26
ATOM     26  C   UNL     1       4.327  -4.346   2.194  1.00  0.00     0.261 C 
BRANCH  26  27
ATOM     27  O   UNL     1       4.619  -4.269   3.602  1.00  0.00    -0.460 OA
BRANCH  27  28
ATOM     28  C   UNL     1       5.937  -4.291   3.928  1.00  0.00     0.338 C 
ATOM     29  O   UNL     1       6.879  -4.478   3.186  1.00  0.00    -0.246 OA
BRANCH  28  30
ATOM     30  C   UNL     1       6.091  -3.837   5.330  1.00  0.00     0.060 A 
ATOM     31  C   UNL     1       7.031  -2.840   5.609  1.00  0.00     0.016 A 
ATOM     32  C   UNL     1       5.330  -4.380   6.362  1.00  0.00     0.016 A 
ATOM     33  C   UNL     1       7.243  -2.424   6.926  1.00  0.00     0.010 A 
ATOM     34  C   UNL     1       5.490  -3.911   7.670  1.00  0.00     0.010 A 
ATOM     35  C   UNL     1       6.496  -2.977   7.978  1.00  0.00    -0.014 A 
BRANCH  35  36
ATOM     36  C   UNL     1       6.891  -2.728   9.397  1.00  0.00     0.031 A 
ATOM     37  C   UNL     1       7.395  -3.886  10.231  1.00  0.00     0.074 A 
ATOM     38  C   UNL     1       6.839  -1.497   9.945  1.00  0.00     0.049 A 
ATOM     39  N   UNL     1       7.778  -3.908  11.484  1.00  0.00    -0.248 NA
ATOM     40  C   UNL     1       7.449  -5.202   9.573  1.00  0.00     0.031 C 
ATOM     41  C   UNL     1       6.362  -0.287   9.277  1.00  0.00     0.029 A 
ATOM     42  N   UNL     1       7.198  -1.063  11.200  1.00  0.00    -0.354 N 
ATOM     43  C   UNL     1       8.085  -5.235  11.763  1.00  0.00     0.074 A 
ATOM     44  C   UNL     1       7.776  -5.999  10.576  1.00  0.00     0.031 C 
ATOM     45  C   UNL     1       6.476   0.754  10.120  1.00  0.00     0.029 A 
ATOM     46  C   UNL     1       7.008   0.284  11.399  1.00  0.00     0.049 A 
ATOM     47  H   UNL     1       7.558  -1.662  11.894  1.00  0.00     0.167 HD
ATOM     48  C   UNL     1       8.612  -5.776  12.887  1.00  0.00     0.037 A 
ATOM     49  C   UNL     1       7.234   1.052  12.484  1.00  0.00     0.037 A 
ATOM     50  C   UNL     1       8.974  -5.019  14.055  1.00  0.00     0.049 A 
ATOM     51  C   UNL     1       7.816   0.432  13.729  1.00  0.00     0.074 A 
ATOM     52  C   UNL     1       9.575  -5.467  15.218  1.00  0.00     0.029 A 
ATOM     53  N   UNL     1       8.770  -3.657  14.207  1.00  0.00    -0.354 N 
ATOM     54  N   UNL     1       8.158  -0.815  13.952  1.00  0.00    -0.248 NA
ATOM     55  C   UNL     1       8.057   1.329  14.870  1.00  0.00     0.031 C 
ATOM     56  C   UNL     1       9.686  -4.385  16.096  1.00  0.00     0.029 A 
ATOM     57  C   UNL     1       9.212  -3.252  15.455  1.00  0.00     0.049 A 
ATOM     58  H   UNL     1       8.371  -3.066  13.528  1.00  0.00     0.167 HD
ATOM     59  C   UNL     1       8.681  -0.843  15.241  1.00  0.00     0.074 A 
ATOM     60  C   UNL     1       8.627   0.512  15.744  1.00  0.00     0.031 C 
ATOM     61  C   UNL     1       9.165  -1.898  15.943  1.00  0.00     0.037 A 
BRANCH  48  62
ATOM     62  C   UNL     1       8.836  -7.262  12.905  1.00  0.00     0.057 A 
ATOM     63  C   UNL     1       9.805  -7.879  12.102  1.00  0.00     0.134 A 
ATOM     64  C   UNL     1       8.089  -8.085  13.759  1.00  0.00     0.134 A 
ATOM     65  F   UNL     1      10.547  -7.153  11.251  1.00  0.00    -0.206 F 
ATOM     66  C   UNL     1       9.999  -9.262  12.121  1.00  0.00     0.040 A 
ATOM     67  C   UNL     1       8.299  -9.464  13.813  1.00  0.00     0.040 A 
ATOM     68  F   UNL     1       7.151  -7.561  14.562  1.00  0.00    -0.206 F 
ATOM     69  C   UNL     1       9.249 -10.057  12.985  1.00  0.00     0.006 A 
ENDBRANCH  48  62
BRANCH  49  70
ATOM     70  C   UNL     1       6.925   2.508  12.448  1.00  0.00     0.057 A 
ATOM     71  C   UNL     1       7.943   3.469  12.494  1.00  0.00     0.134 A 
ATOM     72  C   UNL     1       5.606   2.973  12.399  1.00  0.00     0.134 A 
ATOM     73  F   UNL     1       9.227   3.090  12.568  1.00  0.00    -0.206 F 
ATOM     74  C   UNL     1       7.660   4.837  12.513  1.00  0.00     0.040 A 
ATOM     75  C   UNL     1       5.309   4.338  12.389  1.00  0.00     0.040 A 
ATOM     76  F   UNL     1       4.583   2.106  12.351  1.00  0.00    -0.206 F 
ATOM     77  C   UNL     1       6.338   5.274  12.455  1.00  0.00     0.006 A 
ENDBRANCH  49  70
BRANCH  61  78
ATOM     78  C   UNL     1       9.717  -1.629  17.314  1.00  0.00     0.057 A 
ATOM     79  C   UNL     1       8.893  -1.293  18.396  1.00  0.00     0.134 A 
ATOM     80  C   UNL     1      11.090  -1.761  17.566  1.00  0.00     0.134 A 
ATOM     81  F   UNL     1       7.571  -1.143  18.224  1.00  0.00    -0.206 F 
ATOM     82  C   UNL     1       9.418  -1.071  19.671  1.00  0.00     0.040 A 
ATOM     83  C   UNL     1      11.621  -1.572  18.843  1.00  0.00     0.040 A 
ATOM     84  F   UNL     1      11.935  -2.095  16.579  1.00  0.00    -0.206 F 
ATOM     85  C   UNL     1      10.785  -1.218  19.898  1.00  0.00     0.006 A 
ENDBRANCH  61  78
ENDBRANCH  35  36
ENDBRANCH  28  30
ENDBRANCH  27  28
ENDBRANCH  26  27
ENDBRANCH  25  26
ENDBRANCH  24  25
ENDBRANCH   1  24
TORSDOF 18
