REMARK SMILES CC[C@H](C)[C@H](NC(=O)N1CCc2cc(OC)c(OC)cc2[C@@H]1c1ccc(F)cc1)C(=O)OCCOCCOC(=O)c1ccc(-c2c3nc(c(-c4c(F)cccc4F)c4ccc([nH]4)c(-c4c(F)cccc4F)c4nc(c(-c5c(F)cccc5F)c5ccc2[nH]5)C=C4)C=C3)cc1
REMARK SMILES IDX 34 1 33 2 32 3 30 4 31 5 5 6 3 7 4 8 2 9 1 10 6 11 7 12 8 14
REMARK SMILES IDX 9 15 10 16 22 17 11 18 21 19 12 20 20 21 13 22 17 23 14 24
REMARK SMILES IDX 23 25 24 26 29 27 25 28 28 29 26 30 27 31 18 32 19 33 15 34
REMARK SMILES IDX 16 35 35 36 36 37 37 38 38 39 39 40 40 41 41 42 42 43 94 44
REMARK SMILES IDX 43 45 93 46 44 47 45 48 46 49 87 50 47 51 92 52 86 53 88 54
REMARK SMILES IDX 48 55 91 56 85 57 84 58 49 60 75 61 58 62 74 63 59 64 62 65
REMARK SMILES IDX 73 66 89 67 60 68 61 69 72 71 90 72 63 73 50 74 51 75 56 76
REMARK SMILES IDX 52 77 53 78 55 79 57 80 54 81 76 82 77 83 82 84 78 85 79 86
REMARK SMILES IDX 81 87 83 88 80 89 64 90 65 91 70 92 66 93 67 94 69 95 71 96
REMARK SMILES IDX 68 97
REMARK H PARENT 6 13 88 59 62 70
REMARK Flexibility Score: inf
ROOT
ATOM      1  C   UNL     1      -0.211  -5.002  -4.185  1.00  0.00     0.202 C 
ENDROOT
BRANCH   1   2
ATOM      2  C   UNL     1      -0.061  -4.270  -5.519  1.00  0.00     0.261 C 
BRANCH   2   3
ATOM      3  O   UNL     1       0.789  -3.168  -5.343  1.00  0.00    -0.462 OA
BRANCH   3   4
ATOM      4  C   UNL     1       0.125  -2.103  -4.839  1.00  0.00     0.329 C 
ATOM      5  O   UNL     1      -1.016  -1.790  -5.109  1.00  0.00    -0.250 OA
BRANCH   4   6
ATOM      6  C   UNL     1       1.085  -1.288  -3.997  1.00  0.00     0.196 C 
BRANCH   6   7
ATOM      7  C   UNL     1       1.670  -0.073  -4.784  1.00  0.00     0.019 C 
ATOM      8  C   UNL     1       2.822   0.647  -4.065  1.00  0.00     0.010 C 
BRANCH   7   9
ATOM      9  C   UNL     1       1.839  -0.352  -6.297  1.00  0.00     0.002 C 
ATOM     10  C   UNL     1       2.933   0.395  -7.031  1.00  0.00     0.004 C 
ENDBRANCH   7   9
ENDBRANCH   6   7
BRANCH   6  11
ATOM     11  N   UNL     1       2.034  -2.046  -3.117  1.00  0.00    -0.324 N 
ATOM     12  C   UNL     1       2.810  -3.143  -3.012  1.00  0.00     0.318 C 
ATOM     13  H   UNL     1       2.128  -1.538  -2.279  1.00  0.00     0.166 HD
ATOM     14  O   UNL     1       3.909  -2.836  -2.532  1.00  0.00    -0.249 OA
BRANCH  12  15
ATOM     15  N   UNL     1       2.492  -4.449  -3.477  1.00  0.00    -0.313 N 
ATOM     16  C   UNL     1       3.418  -4.532  -4.612  1.00  0.00     0.127 C 
ATOM     17  C   UNL     1       2.383  -5.930  -2.566  1.00  0.00     0.148 C 
ATOM     18  C   UNL     1       3.530  -5.861  -5.301  1.00  0.00     0.057 C 
ATOM     19  C   UNL     1       3.546  -6.856  -2.990  1.00  0.00    -0.014 A 
ATOM     20  C   UNL     1       4.025  -6.860  -4.302  1.00  0.00    -0.037 A 
ATOM     21  C   UNL     1       4.123  -7.727  -2.038  1.00  0.00     0.057 A 
ATOM     22  C   UNL     1       5.030  -7.757  -4.657  1.00  0.00     0.054 A 
ATOM     23  C   UNL     1       5.181  -8.576  -2.380  1.00  0.00     0.161 A 
ATOM     24  C   UNL     1       5.616  -8.606  -3.712  1.00  0.00     0.161 A 
BRANCH  17  25
ATOM     25  C   UNL     1       1.054  -6.917  -2.331  1.00  0.00    -0.021 A 
ATOM     26  C   UNL     1       1.069  -8.285  -2.703  1.00  0.00     0.009 A 
ATOM     27  C   UNL     1      -0.138  -6.596  -1.638  1.00  0.00     0.009 A 
ATOM     28  C   UNL     1      -0.041  -9.155  -2.544  1.00  0.00     0.039 A 
ATOM     29  C   UNL     1      -1.298  -7.399  -1.585  1.00  0.00     0.039 A 
ATOM     30  C   UNL     1      -1.242  -8.681  -2.058  1.00  0.00     0.123 A 
ATOM     31  F   UNL     1      -2.328  -9.463  -2.013  1.00  0.00    -0.207 F 
ENDBRANCH  17  25
BRANCH  23  32
ATOM     32  O   UNL     1       5.763  -9.409  -1.464  1.00  0.00    -0.493 OA
ATOM     33  C   UNL     1       5.767  -8.948  -0.114  1.00  0.00     0.278 C 
ENDBRANCH  23  32
BRANCH  24  34
ATOM     34  O   UNL     1       6.580  -9.405  -4.263  1.00  0.00    -0.493 OA
ATOM     35  C   UNL     1       7.651  -9.791  -3.416  1.00  0.00     0.278 C 
ENDBRANCH  24  34
ENDBRANCH  12  15
ENDBRANCH   6  11
ENDBRANCH   4   6
ENDBRANCH   3   4
ENDBRANCH   2   3
ENDBRANCH   1   2
BRANCH   1  36
ATOM     36  O   UNL     1      -0.631  -4.378  -2.953  1.00  0.00    -0.374 OA
BRANCH  36  37
ATOM     37  C   UNL     1      -0.025  -3.554  -1.906  1.00  0.00     0.202 C 
BRANCH  37  38
ATOM     38  C   UNL     1       1.018  -3.811  -0.566  1.00  0.00     0.261 C 
BRANCH  38  39
ATOM     39  O   UNL     1       2.504  -3.689  -0.653  1.00  0.00    -0.460 OA
BRANCH  39  40
ATOM     40  C   UNL     1       3.401  -4.184   0.284  1.00  0.00     0.338 C 
ATOM     41  O   UNL     1       3.051  -4.667   1.352  1.00  0.00    -0.246 OA
BRANCH  40  42
ATOM     42  C   UNL     1       4.897  -4.231  -0.141  1.00  0.00     0.060 A 
ATOM     43  C   UNL     1       5.280  -4.775  -1.365  1.00  0.00     0.016 A 
ATOM     44  C   UNL     1       5.977  -3.921   0.686  1.00  0.00     0.016 A 
ATOM     45  C   UNL     1       6.593  -5.032  -1.801  1.00  0.00     0.010 A 
ATOM     46  C   UNL     1       7.335  -4.111   0.245  1.00  0.00     0.010 A 
ATOM     47  C   UNL     1       7.666  -4.682  -1.009  1.00  0.00    -0.014 A 
BRANCH  47  48
ATOM     48  C   UNL     1       9.071  -5.020  -1.438  1.00  0.00     0.031 A 
ATOM     49  C   UNL     1       9.887  -5.942  -0.570  1.00  0.00     0.074 A 
ATOM     50  C   UNL     1       9.633  -4.630  -2.609  1.00  0.00     0.049 A 
ATOM     51  N   UNL     1      11.181  -6.129  -0.518  1.00  0.00    -0.248 NA
ATOM     52  C   UNL     1       9.122  -6.787   0.359  1.00  0.00     0.031 C 
ATOM     53  C   UNL     1       8.955  -3.939  -3.706  1.00  0.00     0.029 A 
ATOM     54  N   UNL     1      10.934  -4.756  -3.066  1.00  0.00    -0.354 N 
ATOM     55  C   UNL     1      11.389  -7.047   0.505  1.00  0.00     0.074 A 
ATOM     56  C   UNL     1      10.086  -7.409   1.019  1.00  0.00     0.031 C 
ATOM     57  C   UNL     1       9.840  -3.682  -4.686  1.00  0.00     0.029 A 
ATOM     58  C   UNL     1      11.173  -4.090  -4.251  1.00  0.00     0.049 A 
ATOM     59  H   UNL     1      11.624  -5.272  -2.590  1.00  0.00     0.167 HD
ATOM     60  C   UNL     1      12.564  -7.517   0.990  1.00  0.00     0.037 A 
ATOM     61  C   UNL     1      12.330  -3.768  -4.875  1.00  0.00     0.037 A 
ATOM     62  C   UNL     1      13.853  -7.178   0.446  1.00  0.00     0.049 A 
ATOM     63  C   UNL     1      13.646  -4.156  -4.245  1.00  0.00     0.074 A 
ATOM     64  C   UNL     1      15.108  -7.535   0.908  1.00  0.00     0.029 A 
ATOM     65  N   UNL     1      14.050  -6.415  -0.695  1.00  0.00    -0.354 N 
ATOM     66  N   UNL     1      13.864  -4.872  -3.167  1.00  0.00    -0.248 NA
ATOM     67  C   UNL     1      14.875  -3.666  -4.891  1.00  0.00     0.031 C 
ATOM     68  C   UNL     1      16.064  -6.942   0.078  1.00  0.00     0.029 A 
ATOM     69  C   UNL     1      15.405  -6.272  -0.940  1.00  0.00     0.049 A 
ATOM     70  H   UNL     1      13.332  -6.032  -1.249  1.00  0.00     0.167 HD
ATOM     71  C   UNL     1      15.246  -4.933  -3.018  1.00  0.00     0.074 A 
ATOM     72  C   UNL     1      15.819  -4.191  -4.121  1.00  0.00     0.031 C 
ATOM     73  C   UNL     1      15.969  -5.547  -2.050  1.00  0.00     0.037 A 
BRANCH  60  74
ATOM     74  C   UNL     1      12.515  -8.370   2.225  1.00  0.00     0.057 A 
ATOM     75  C   UNL     1      12.966  -7.854   3.449  1.00  0.00     0.134 A 
ATOM     76  C   UNL     1      12.050  -9.690   2.217  1.00  0.00     0.134 A 
ATOM     77  F   UNL     1      13.428  -6.596   3.529  1.00  0.00    -0.206 F 
ATOM     78  C   UNL     1      12.964  -8.620   4.615  1.00  0.00     0.040 A 
ATOM     79  C   UNL     1      12.016 -10.458   3.384  1.00  0.00     0.040 A 
ATOM     80  F   UNL     1      11.584 -10.240   1.086  1.00  0.00    -0.206 F 
ATOM     81  C   UNL     1      12.481  -9.925   4.586  1.00  0.00     0.006 A 
ENDBRANCH  60  74
BRANCH  61  82
ATOM     82  C   UNL     1      12.309  -2.947  -6.123  1.00  0.00     0.057 A 
ATOM     83  C   UNL     1      11.851  -1.621  -6.119  1.00  0.00     0.134 A 
ATOM     84  C   UNL     1      12.759  -3.457  -7.348  1.00  0.00     0.134 A 
ATOM     85  F   UNL     1      11.431  -1.053  -4.979  1.00  0.00    -0.206 F 
ATOM     86  C   UNL     1      11.797  -0.853  -7.286  1.00  0.00     0.040 A 
ATOM     87  C   UNL     1      12.739  -2.690  -8.518  1.00  0.00     0.040 A 
ATOM     88  F   UNL     1      13.258  -4.699  -7.419  1.00  0.00    -0.206 F 
ATOM     89  C   UNL     1      12.243  -1.388  -8.491  1.00  0.00     0.006 A 
ENDBRANCH  61  82
BRANCH  73  90
ATOM     90  C   UNL     1      17.467  -5.493  -2.143  1.00  0.00     0.057 A 
ATOM     91  C   UNL     1      18.202  -6.652  -2.430  1.00  0.00     0.134 A 
ATOM     92  C   UNL     1      18.187  -4.330  -1.845  1.00  0.00     0.134 A 
ATOM     93  F   UNL     1      17.574  -7.804  -2.712  1.00  0.00    -0.206 F 
ATOM     94  C   UNL     1      19.597  -6.662  -2.394  1.00  0.00     0.040 A 
ATOM     95  C   UNL     1      19.584  -4.321  -1.832  1.00  0.00     0.040 A 
ATOM     96  F   UNL     1      17.546  -3.184  -1.570  1.00  0.00    -0.206 F 
ATOM     97  C   UNL     1      20.292  -5.492  -2.094  1.00  0.00     0.006 A 
ENDBRANCH  73  90
ENDBRANCH  47  48
ENDBRANCH  40  42
ENDBRANCH  39  40
ENDBRANCH  38  39
ENDBRANCH  37  38
ENDBRANCH  36  37
ENDBRANCH   1  36
TORSDOF 21
