REMARK SMILES C[C@@H](C(=O)OCCOCCOC(=O)c1ccc(-c2c3nc(c(-c4c(F)cccc4F)c4ccc([nH]4)c(-c4c(F)cccc4F)c4nc(c(-c5c(F)cccc5F)c5ccc2[nH]5)C=C4)C=C3)cc1)[C@@H](C)C(=O)c1ccc(Br)cc1
REMARK SMILES IDX 7 1 6 2 5 3 3 4 4 5 2 6 1 7 68 8 69 9 70 10 71 11 72 12
REMARK SMILES IDX 73 13 78 14 74 15 77 16 75 17 76 18 8 19 9 20 10 21 11 22
REMARK SMILES IDX 12 23 13 24 14 25 15 26 67 27 16 28 66 29 17 30 18 31 19 32
REMARK SMILES IDX 60 33 20 34 65 35 59 36 61 37 21 38 64 39 58 40 57 41 22 43
REMARK SMILES IDX 48 44 31 45 47 46 32 47 35 48 46 49 62 50 33 51 34 52 45 54
REMARK SMILES IDX 63 55 36 56 23 57 24 58 29 59 25 60 26 61 28 62 30 63 27 64
REMARK SMILES IDX 49 65 50 66 55 67 51 68 52 69 54 70 56 71 53 72 37 73 38 74
REMARK SMILES IDX 43 75 39 76 40 77 42 78 44 79 41 80
REMARK H PARENT 61 42 35 53
REMARK Flexibility Score: inf
ROOT
ATOM      1  C   UNL     1       2.090   1.928  -4.449  1.00  0.00     0.202 C 
ENDROOT
BRANCH   1   2
ATOM      2  C   UNL     1       2.527   2.589  -3.137  1.00  0.00     0.261 C 
BRANCH   2   3
ATOM      3  O   UNL     1       2.152   1.848  -1.966  1.00  0.00    -0.463 OA
BRANCH   3   4
ATOM      4  C   UNL     1       1.129   2.394  -1.256  1.00  0.00     0.309 C 
ATOM      5  O   UNL     1       0.627   3.479  -1.520  1.00  0.00    -0.252 OA
BRANCH   4   6
ATOM      6  C   UNL     1       0.698   1.548  -0.054  1.00  0.00     0.106 C 
ATOM      7  C   UNL     1       1.193   0.091  -0.111  1.00  0.00     0.021 C 
BRANCH   6   8
ATOM      8  C   UNL     1      -0.841   1.608   0.133  1.00  0.00     0.072 C 
ATOM      9  C   UNL     1      -1.333   0.956   1.427  1.00  0.00     0.017 C 
BRANCH   8  10
ATOM     10  C   UNL     1      -1.609   2.934  -0.038  1.00  0.00     0.166 C 
ATOM     11  O   UNL     1      -2.651   2.915  -0.705  1.00  0.00    -0.294 OA
BRANCH  10  12
ATOM     12  C   UNL     1      -1.258   4.223   0.661  1.00  0.00     0.018 A 
ATOM     13  C   UNL     1      -2.229   5.240   0.651  1.00  0.00     0.013 A 
ATOM     14  C   UNL     1      -0.027   4.501   1.261  1.00  0.00     0.013 A 
ATOM     15  C   UNL     1      -1.969   6.500   1.204  1.00  0.00     0.016 A 
ATOM     16  C   UNL     1       0.248   5.768   1.793  1.00  0.00     0.016 A 
ATOM     17  C   UNL     1      -0.724   6.761   1.762  1.00  0.00     0.018 A 
ATOM     18  Br  UNL     1      -0.340   8.470   2.468  1.00  0.00    -0.051 Br
ENDBRANCH  10  12
ENDBRANCH   8  10
ENDBRANCH   6   8
ENDBRANCH   4   6
ENDBRANCH   3   4
ENDBRANCH   2   3
ENDBRANCH   1   2
BRANCH   1  19
ATOM     19  O   UNL     1       0.749   1.468  -4.559  1.00  0.00    -0.374 OA
BRANCH  19  20
ATOM     20  C   UNL     1       0.354   0.322  -3.805  1.00  0.00     0.202 C 
BRANCH  20  21
ATOM     21  C   UNL     1       1.091  -1.000  -4.058  1.00  0.00     0.261 C 
BRANCH  21  22
ATOM     22  O   UNL     1       2.481  -0.942  -3.681  1.00  0.00    -0.460 OA
BRANCH  22  23
ATOM     23  C   UNL     1       3.344  -1.295  -4.663  1.00  0.00     0.338 C 
ATOM     24  O   UNL     1       3.069  -1.734  -5.772  1.00  0.00    -0.246 OA
BRANCH  23  25
ATOM     25  C   UNL     1       4.719  -0.908  -4.306  1.00  0.00     0.060 A 
ATOM     26  C   UNL     1       5.369   0.015  -5.136  1.00  0.00     0.016 A 
ATOM     27  C   UNL     1       5.403  -1.532  -3.262  1.00  0.00     0.016 A 
ATOM     28  C   UNL     1       6.723   0.283  -4.955  1.00  0.00     0.010 A 
ATOM     29  C   UNL     1       6.767  -1.271  -3.090  1.00  0.00     0.010 A 
ATOM     30  C   UNL     1       7.440  -0.393  -3.959  1.00  0.00    -0.014 A 
BRANCH  30  31
ATOM     31  C   UNL     1       8.920  -0.300  -3.945  1.00  0.00     0.031 A 
ATOM     32  C   UNL     1       9.724  -1.384  -4.610  1.00  0.00     0.074 A 
ATOM     33  C   UNL     1       9.539   0.757  -3.392  1.00  0.00     0.049 A 
ATOM     34  N   UNL     1      11.023  -1.512  -4.708  1.00  0.00    -0.248 NA
ATOM     35  C   UNL     1       8.961  -2.466  -5.252  1.00  0.00     0.031 C 
ATOM     36  C   UNL     1       8.869   1.891  -2.757  1.00  0.00     0.029 A 
ATOM     37  N   UNL     1      10.875   1.043  -3.274  1.00  0.00    -0.354 N 
ATOM     38  C   UNL     1      11.232  -2.686  -5.421  1.00  0.00     0.074 A 
ATOM     39  C   UNL     1       9.930  -3.248  -5.705  1.00  0.00     0.031 C 
ATOM     40  C   UNL     1       9.801   2.747  -2.305  1.00  0.00     0.029 A 
ATOM     41  C   UNL     1      11.129   2.209  -2.596  1.00  0.00     0.049 A 
ATOM     42  H   UNL     1      11.585   0.468  -3.641  1.00  0.00     0.167 HD
ATOM     43  C   UNL     1      12.404  -3.240  -5.814  1.00  0.00     0.037 A 
ATOM     44  C   UNL     1      12.301   2.767  -2.235  1.00  0.00     0.037 A 
ATOM     45  C   UNL     1      13.700  -2.683  -5.532  1.00  0.00     0.049 A 
ATOM     46  C   UNL     1      13.591   2.096  -2.622  1.00  0.00     0.074 A 
ATOM     47  C   UNL     1      14.945  -3.167  -5.893  1.00  0.00     0.029 A 
ATOM     48  N   UNL     1      13.916  -1.517  -4.812  1.00  0.00    -0.354 N 
ATOM     49  N   UNL     1      13.778   0.995  -3.309  1.00  0.00    -0.248 NA
ATOM     50  C   UNL     1      14.835   2.748  -2.185  1.00  0.00     0.031 C 
ATOM     51  C   UNL     1      15.918  -2.315  -5.356  1.00  0.00     0.029 A 
ATOM     52  C   UNL     1      15.276  -1.278  -4.699  1.00  0.00     0.049 A 
ATOM     53  H   UNL     1      13.209  -0.945  -4.437  1.00  0.00     0.167 HD
ATOM     54  C   UNL     1      15.155   0.835  -3.408  1.00  0.00     0.074 A 
ATOM     55  C   UNL     1      15.756   1.959  -2.720  1.00  0.00     0.031 C 
ATOM     56  C   UNL     1      15.858  -0.152  -4.015  1.00  0.00     0.037 A 
BRANCH  43  57
ATOM     57  C   UNL     1      12.334  -4.529  -6.577  1.00  0.00     0.057 A 
ATOM     58  C   UNL     1      11.906  -4.575  -7.910  1.00  0.00     0.134 A 
ATOM     59  C   UNL     1      12.724  -5.734  -5.980  1.00  0.00     0.134 A 
ATOM     60  F   UNL     1      11.505  -3.458  -8.535  1.00  0.00    -0.206 F 
ATOM     61  C   UNL     1      11.849  -5.779  -8.616  1.00  0.00     0.040 A 
ATOM     62  C   UNL     1      12.693  -6.940  -6.682  1.00  0.00     0.040 A 
ATOM     63  F   UNL     1      13.146  -5.758  -4.707  1.00  0.00    -0.206 F 
ATOM     64  C   UNL     1      12.250  -6.965  -8.003  1.00  0.00     0.006 A 
ENDBRANCH  43  57
BRANCH  44  65
ATOM     65  C   UNL     1      12.310   4.025  -1.448  1.00  0.00     0.057 A 
ATOM     66  C   UNL     1      12.746   5.231  -2.008  1.00  0.00     0.134 A 
ATOM     67  C   UNL     1      11.900   4.045  -0.109  1.00  0.00     0.134 A 
ATOM     68  F   UNL     1      13.173   5.269  -3.278  1.00  0.00    -0.206 F 
ATOM     69  C   UNL     1      12.787   6.409  -1.261  1.00  0.00     0.040 A 
ATOM     70  C   UNL     1      11.915   5.220   0.643  1.00  0.00     0.040 A 
ATOM     71  F   UNL     1      11.472   2.921   0.485  1.00  0.00    -0.206 F 
ATOM     72  C   UNL     1      12.366   6.406   0.068  1.00  0.00     0.006 A 
ENDBRANCH  44  65
BRANCH  56  73
ATOM     73  C   UNL     1      17.354  -0.047  -3.988  1.00  0.00     0.057 A 
ATOM     74  C   UNL     1      18.091  -0.304  -2.826  1.00  0.00     0.134 A 
ATOM     75  C   UNL     1      18.067   0.273  -5.151  1.00  0.00     0.134 A 
ATOM     76  F   UNL     1      17.466  -0.604  -1.677  1.00  0.00    -0.206 F 
ATOM     77  C   UNL     1      19.485  -0.227  -2.815  1.00  0.00     0.040 A 
ATOM     78  C   UNL     1      19.461   0.330  -5.158  1.00  0.00     0.040 A 
ATOM     79  F   UNL     1      17.421   0.521  -6.300  1.00  0.00    -0.206 F 
ATOM     80  C   UNL     1      20.174   0.085  -3.986  1.00  0.00     0.006 A 
ENDBRANCH  56  73
ENDBRANCH  30  31
ENDBRANCH  23  25
ENDBRANCH  22  23
ENDBRANCH  21  22
ENDBRANCH  20  21
ENDBRANCH  19  20
ENDBRANCH   1  19
TORSDOF 17
