REMARK SMILES O=C(OCCOCCOC(=O)[C@@H]1CN(C(=O)C[NH+]2CCOCC2)C[C@H]1c1ccc2c(c1)OCO2)c1ccc(-c2c3nc(c(-c4c(F)cccc4F)c4ccc([nH]4)c(-c4c(F)cccc4F)c4nc(c(-c5c(F)cccc5F)c5ccc2[nH]5)C=C4)C=C3)cc1
REMARK SMILES IDX 7 1 6 2 5 3 4 4 3 5 2 6 1 7 35 8 36 9 88 10 37 11 87 12
REMARK SMILES IDX 38 13 39 14 40 15 81 16 41 17 86 18 80 19 82 20 42 21 85 22
REMARK SMILES IDX 79 23 78 24 43 26 69 27 52 28 68 29 53 30 56 31 67 32 83 33
REMARK SMILES IDX 54 34 55 35 66 37 84 38 57 39 44 40 45 41 50 42 46 43 47 44
REMARK SMILES IDX 49 45 51 46 48 47 70 48 71 49 76 50 72 51 73 52 75 53 77 54
REMARK SMILES IDX 74 55 58 56 59 57 64 58 60 59 61 60 63 61 65 62 62 63 8 64
REMARK SMILES IDX 9 65 10 66 11 67 12 68 13 69 25 70 14 71 24 72 26 73 27 74
REMARK SMILES IDX 31 75 28 76 30 77 29 78 32 79 34 80 33 81 15 82 16 83 17 84
REMARK SMILES IDX 18 85 19 86 23 87 20 89 22 90 21 91
REMARK H PARENT 82 25 56 36 18 88
REMARK Flexibility Score: inf
ROOT
ATOM      1  C   UNL     1       2.671  -0.078   2.079  1.00  0.00     0.202 C 
ENDROOT
BRANCH   1   2
ATOM      2  O   UNL     1       4.070  -0.054   1.762  1.00  0.00    -0.374 OA
BRANCH   2   3
ATOM      3  C   UNL     1       4.532   1.025   0.947  1.00  0.00     0.202 C 
BRANCH   3   4
ATOM      4  C   UNL     1       4.158   1.053  -0.538  1.00  0.00     0.261 C 
BRANCH   4   5
ATOM      5  O   UNL     1       2.737   0.922  -0.712  1.00  0.00    -0.460 OA
BRANCH   5   6
ATOM      6  C   UNL     1       2.093  -0.168  -1.201  1.00  0.00     0.338 C 
ATOM      7  O   UNL     1       0.882  -0.140  -1.391  1.00  0.00    -0.246 OA
BRANCH   6   8
ATOM      8  C   UNL     1       2.844  -1.410  -1.511  1.00  0.00     0.060 A 
ATOM      9  C   UNL     1       3.896  -1.853  -0.715  1.00  0.00     0.016 A 
ATOM     10  C   UNL     1       2.453  -2.194  -2.599  1.00  0.00     0.016 A 
ATOM     11  C   UNL     1       4.660  -2.937  -1.056  1.00  0.00     0.010 A 
ATOM     12  C   UNL     1       3.139  -3.380  -2.881  1.00  0.00     0.010 A 
ATOM     13  C   UNL     1       4.252  -3.740  -2.108  1.00  0.00    -0.014 A 
BRANCH  13  14
ATOM     14  C   UNL     1       5.066  -4.936  -2.349  1.00  0.00     0.031 A 
ATOM     15  C   UNL     1       5.934  -4.973  -3.559  1.00  0.00     0.074 A 
ATOM     16  C   UNL     1       5.133  -5.867  -1.377  1.00  0.00     0.049 A 
ATOM     17  N   UNL     1       6.683  -5.944  -3.998  1.00  0.00    -0.248 NA
ATOM     18  C   UNL     1       5.979  -3.750  -4.381  1.00  0.00     0.031 C 
ATOM     19  C   UNL     1       4.426  -5.801  -0.089  1.00  0.00     0.029 A 
ATOM     20  N   UNL     1       5.858  -7.021  -1.290  1.00  0.00    -0.354 N 
ATOM     21  C   UNL     1       7.245  -5.472  -5.175  1.00  0.00     0.074 A 
ATOM     22  C   UNL     1       6.771  -4.122  -5.375  1.00  0.00     0.031 C 
ATOM     23  C   UNL     1       4.782  -6.849   0.667  1.00  0.00     0.029 A 
ATOM     24  C   UNL     1       5.644  -7.713  -0.123  1.00  0.00     0.049 A 
ATOM     25  H   UNL     1       6.474  -7.327  -1.995  1.00  0.00     0.167 HD
ATOM     26  C   UNL     1       8.068  -6.139  -6.012  1.00  0.00     0.037 A 
ATOM     27  C   UNL     1       6.051  -8.945   0.229  1.00  0.00     0.037 A 
ATOM     28  C   UNL     1       8.522  -7.478  -5.752  1.00  0.00     0.049 A 
ATOM     29  C   UNL     1       6.878  -9.699  -0.773  1.00  0.00     0.074 A 
ATOM     30  C   UNL     1       9.312  -8.291  -6.539  1.00  0.00     0.029 A 
ATOM     31  N   UNL     1       8.217  -8.196  -4.601  1.00  0.00    -0.354 N 
ATOM     32  N   UNL     1       7.343  -9.291  -1.932  1.00  0.00    -0.248 NA
ATOM     33  C   UNL     1       7.212 -11.087  -0.443  1.00  0.00     0.031 C 
ATOM     34  C   UNL     1       9.441  -9.522  -5.888  1.00  0.00     0.029 A 
ATOM     35  C   UNL     1       8.781  -9.455  -4.668  1.00  0.00     0.049 A 
ATOM     36  H   UNL     1       7.679  -7.857  -3.850  1.00  0.00     0.167 HD
ATOM     37  C   UNL     1       8.038 -10.365  -2.463  1.00  0.00     0.074 A 
ATOM     38  C   UNL     1       7.956 -11.432  -1.483  1.00  0.00     0.031 C 
ATOM     39  C   UNL     1       8.678 -10.474  -3.653  1.00  0.00     0.037 A 
BRANCH  26  40
ATOM     40  C   UNL     1       8.435  -5.469  -7.299  1.00  0.00     0.057 A 
ATOM     41  C   UNL     1       9.327  -4.392  -7.363  1.00  0.00     0.134 A 
ATOM     42  C   UNL     1       7.869  -5.911  -8.502  1.00  0.00     0.134 A 
ATOM     43  F   UNL     1       9.877  -3.896  -6.244  1.00  0.00    -0.206 F 
ATOM     44  C   UNL     1       9.636  -3.773  -8.577  1.00  0.00     0.040 A 
ATOM     45  C   UNL     1       8.186  -5.317  -9.723  1.00  0.00     0.040 A 
ATOM     46  F   UNL     1       6.993  -6.928  -8.508  1.00  0.00    -0.206 F 
ATOM     47  C   UNL     1       9.070  -4.241  -9.762  1.00  0.00     0.006 A 
ENDBRANCH  26  40
BRANCH  27  48
ATOM     48  C   UNL     1       5.604  -9.567   1.503  1.00  0.00     0.057 A 
ATOM     49  C   UNL     1       6.517  -9.970   2.483  1.00  0.00     0.134 A 
ATOM     50  C   UNL     1       4.246  -9.821   1.754  1.00  0.00     0.134 A 
ATOM     51  F   UNL     1       7.831  -9.772   2.303  1.00  0.00    -0.206 F 
ATOM     52  C   UNL     1       6.104 -10.629   3.644  1.00  0.00     0.040 A 
ATOM     53  C   UNL     1       3.816 -10.446   2.925  1.00  0.00     0.040 A 
ATOM     54  F   UNL     1       3.311  -9.460   0.862  1.00  0.00    -0.206 F 
ATOM     55  C   UNL     1       4.749 -10.867   3.868  1.00  0.00     0.006 A 
ENDBRANCH  27  48
BRANCH  39  56
ATOM     56  C   UNL     1       9.361 -11.778  -3.925  1.00  0.00     0.057 A 
ATOM     57  C   UNL     1       8.641 -12.941  -4.218  1.00  0.00     0.134 A 
ATOM     58  C   UNL     1      10.759 -11.852  -3.934  1.00  0.00     0.134 A 
ATOM     59  F   UNL     1       7.299 -12.933  -4.206  1.00  0.00    -0.206 F 
ATOM     60  C   UNL     1       9.290 -14.144  -4.490  1.00  0.00     0.040 A 
ATOM     61  C   UNL     1      11.419 -13.041  -4.237  1.00  0.00     0.040 A 
ATOM     62  F   UNL     1      11.502 -10.767  -3.669  1.00  0.00    -0.206 F 
ATOM     63  C   UNL     1      10.683 -14.193  -4.510  1.00  0.00     0.006 A 
ENDBRANCH  39  56
ENDBRANCH  13  14
ENDBRANCH   6   8
ENDBRANCH   5   6
ENDBRANCH   4   5
ENDBRANCH   3   4
ENDBRANCH   2   3
ENDBRANCH   1   2
BRANCH   1  64
ATOM     64  C   UNL     1       2.493  -0.435   3.558  1.00  0.00     0.261 C 
BRANCH  64  65
ATOM     65  O   UNL     1       3.074   0.628   4.331  1.00  0.00    -0.463 OA
BRANCH  65  66
ATOM     66  C   UNL     1       4.412   0.498   4.575  1.00  0.00     0.311 C 
ATOM     67  O   UNL     1       4.980  -0.575   4.660  1.00  0.00    -0.252 OA
BRANCH  66  68
ATOM     68  C   UNL     1       5.079   1.859   4.723  1.00  0.00     0.128 C 
ATOM     69  C   UNL     1       4.121   2.977   4.302  1.00  0.00     0.135 C 
ATOM     70  C   UNL     1       6.301   2.119   3.804  1.00  0.00     0.055 C 
ATOM     71  N   UNL     1       4.954   4.082   3.894  1.00  0.00    -0.336 N 
ATOM     72  C   UNL     1       6.331   3.659   3.714  1.00  0.00     0.129 C 
BRANCH  70  73
ATOM     73  C   UNL     1       7.582   1.425   4.216  1.00  0.00    -0.038 A 
ATOM     74  C   UNL     1       7.731   0.041   3.936  1.00  0.00     0.008 A 
ATOM     75  C   UNL     1       8.612   2.078   4.907  1.00  0.00     0.054 A 
ATOM     76  C   UNL     1       8.805  -0.703   4.434  1.00  0.00     0.051 A 
ATOM     77  C   UNL     1       9.664   1.322   5.381  1.00  0.00     0.166 A 
ATOM     78  C   UNL     1       9.745  -0.033   5.176  1.00  0.00     0.165 A 
ATOM     79  O   UNL     1      10.696   1.798   6.126  1.00  0.00    -0.454 OA
ATOM     80  O   UNL     1      10.822  -0.586   5.792  1.00  0.00    -0.454 OA
ATOM     81  C   UNL     1      11.352   0.565   6.483  1.00  0.00     0.468 C 
ENDBRANCH  70  73
BRANCH  71  82
ATOM     82  C   UNL     1       4.577   5.401   3.753  1.00  0.00     0.277 C 
ATOM     83  O   UNL     1       5.421   6.285   3.586  1.00  0.00    -0.268 OA
BRANCH  82  84
ATOM     84  C   UNL     1       3.080   5.736   3.782  1.00  0.00     0.363 C 
BRANCH  84  85
ATOM     85  N   UNL     1       2.453   5.937   2.464  1.00  0.00    -0.323 N 
ATOM     86  C   UNL     1       2.299   4.747   1.623  1.00  0.00     0.291 C 
ATOM     87  C   UNL     1       2.988   7.065   1.681  1.00  0.00     0.291 C 
ATOM     88  H   UNL     1       1.509   6.191   2.756  1.00  0.00     0.348 HD
ATOM     89  C   UNL     1       3.476   4.473   0.678  1.00  0.00     0.221 C 
ATOM     90  C   UNL     1       4.141   6.718   0.722  1.00  0.00     0.221 C 
ATOM     91  O   UNL     1       3.800   5.611  -0.120  1.00  0.00    -0.370 OA
ENDBRANCH  84  85
ENDBRANCH  82  84
ENDBRANCH  71  82
ENDBRANCH  66  68
ENDBRANCH  65  66
ENDBRANCH  64  65
ENDBRANCH   1  64
TORSDOF 18
