REMARK SMILES COc1cc(/C=C/C(=O)OCCOCCOC(=O)c2ccc(-c3c4nc(c(-c5c(F)cccc5F)c5ccc([nH]5)c(-c5c(F)cccc5F)c5nc(c(-c6c(F)cccc6F)c6ccc3[nH]6)C=C5)C=C4)cc2)cc(OC)c1O
REMARK SMILES IDX 13 1 12 2 11 3 10 4 8 5 9 6 7 7 6 8 5 9 3 10 4 11 77 12
REMARK SMILES IDX 74 13 73 14 2 15 1 16 78 17 75 19 76 20 14 21 15 22 16 23
REMARK SMILES IDX 17 24 18 25 19 26 20 27 72 28 21 29 71 30 22 31 23 32 24 33
REMARK SMILES IDX 65 34 25 35 70 36 64 37 66 38 26 39 69 40 63 41 62 42 27 44
REMARK SMILES IDX 53 45 36 46 52 47 37 48 40 49 51 50 67 51 38 52 39 53 50 55
REMARK SMILES IDX 68 56 41 57 28 58 29 59 34 60 30 61 31 62 33 63 35 64 32 65
REMARK SMILES IDX 54 66 55 67 60 68 56 69 57 70 59 71 61 72 58 73 42 74 43 75
REMARK SMILES IDX 48 76 44 77 45 78 47 79 49 80 46 81
REMARK H PARENT 78 18 66 43 40 54
REMARK Flexibility Score: inf
ROOT
ATOM      1  O   UNL     1      -1.839   9.328   1.960  1.00  0.00    -0.374 OA
ENDROOT
BRANCH   1   2
ATOM      2  C   UNL     1      -3.238   9.451   1.709  1.00  0.00     0.202 C 
BRANCH   2   3
ATOM      3  C   UNL     1      -3.744   8.792   0.424  1.00  0.00     0.261 C 
BRANCH   3   4
ATOM      4  O   UNL     1      -3.540   7.370   0.450  1.00  0.00    -0.460 OA
BRANCH   4   5
ATOM      5  C   UNL     1      -2.668   6.903  -0.474  1.00  0.00     0.330 C 
ATOM      6  O   UNL     1      -2.141   7.549  -1.368  1.00  0.00    -0.247 OA
BRANCH   5   7
ATOM      7  C   UNL     1      -2.326   5.483  -0.269  1.00  0.00     0.094 C 
ATOM      8  C   UNL     1      -2.861   4.632   0.622  1.00  0.00     0.016 C 
BRANCH   8   9
ATOM      9  C   UNL     1      -2.414   3.229   0.714  1.00  0.00    -0.018 A 
ATOM     10  C   UNL     1      -0.674   1.523   0.458  1.00  0.00     0.165 A 
ATOM     11  C   UNL     1      -1.085   2.863   0.471  1.00  0.00     0.058 A 
ATOM     12  C   UNL     1      -1.616   0.522   0.731  1.00  0.00     0.200 A 
ATOM     13  C   UNL     1      -2.940   0.866   1.054  1.00  0.00     0.165 A 
ATOM     14  C   UNL     1      -3.321   2.220   1.046  1.00  0.00     0.058 A 
BRANCH  10  15
ATOM     15  O   UNL     1       0.650   1.402   0.136  1.00  0.00    -0.493 OA
ATOM     16  C   UNL     1       1.267   0.127   0.129  1.00  0.00     0.278 C 
ENDBRANCH  10  15
BRANCH  12  17
ATOM     17  O   UNL     1      -1.262  -0.794   0.637  1.00  0.00    -0.502 OA
ATOM     18  H   UNL     1      -0.380  -1.028   0.422  1.00  0.00     0.293 HD
ENDBRANCH  12  17
BRANCH  13  19
ATOM     19  O   UNL     1      -3.987   0.034   1.357  1.00  0.00    -0.493 OA
ATOM     20  C   UNL     1      -3.773  -1.370   1.366  1.00  0.00     0.278 C 
ENDBRANCH  13  19
ENDBRANCH   8   9
ENDBRANCH   5   7
ENDBRANCH   4   5
ENDBRANCH   3   4
ENDBRANCH   2   3
ENDBRANCH   1   2
BRANCH   1  21
ATOM     21  C   UNL     1      -1.395   8.108   2.559  1.00  0.00     0.202 C 
BRANCH  21  22
ATOM     22  C   UNL     1      -1.610   7.994   4.073  1.00  0.00     0.261 C 
BRANCH  22  23
ATOM     23  O   UNL     1      -3.006   7.877   4.408  1.00  0.00    -0.460 OA
BRANCH  23  24
ATOM     24  C   UNL     1      -3.531   8.939   5.061  1.00  0.00     0.338 C 
ATOM     25  O   UNL     1      -2.936   9.926   5.474  1.00  0.00    -0.246 OA
BRANCH  24  26
ATOM     26  C   UNL     1      -5.003   8.847   5.069  1.00  0.00     0.060 A 
ATOM     27  C   UNL     1      -5.724   9.962   4.623  1.00  0.00     0.016 A 
ATOM     28  C   UNL     1      -5.668   7.721   5.559  1.00  0.00     0.016 A 
ATOM     29  C   UNL     1      -7.114   9.975   4.710  1.00  0.00     0.010 A 
ATOM     30  C   UNL     1      -7.064   7.739   5.652  1.00  0.00     0.010 A 
ATOM     31  C   UNL     1      -7.791   8.878   5.260  1.00  0.00    -0.014 A 
BRANCH  31  32
ATOM     32  C   UNL     1      -9.241   8.982   5.550  1.00  0.00     0.031 A 
ATOM     33  C   UNL     1      -9.685   9.293   6.952  1.00  0.00     0.074 A 
ATOM     34  C   UNL     1     -10.151   8.822   4.575  1.00  0.00     0.049 A 
ATOM     35  N   UNL     1     -10.897   9.403   7.434  1.00  0.00    -0.248 NA
ATOM     36  C   UNL     1      -8.619   9.506   7.944  1.00  0.00     0.031 C 
ATOM     37  C   UNL     1      -9.847   8.548   3.172  1.00  0.00     0.029 A 
ATOM     38  N   UNL     1     -11.522   8.861   4.623  1.00  0.00    -0.354 N 
ATOM     39  C   UNL     1     -10.740   9.692   8.784  1.00  0.00     0.074 A 
ATOM     40  C   UNL     1      -9.318   9.710   9.051  1.00  0.00     0.031 C 
ATOM     41  C   UNL     1     -11.000   8.432   2.492  1.00  0.00     0.029 A 
ATOM     42  C   UNL     1     -12.121   8.595   3.417  1.00  0.00     0.049 A 
ATOM     43  H   UNL     1     -12.028   9.060   5.444  1.00  0.00     0.167 HD
ATOM     44  C   UNL     1     -11.694   9.930   9.716  1.00  0.00     0.037 A 
ATOM     45  C   UNL     1     -13.425   8.478   3.100  1.00  0.00     0.037 A 
ATOM     46  C   UNL     1     -13.109   9.911   9.451  1.00  0.00     0.049 A 
ATOM     47  C   UNL     1     -14.469   8.684   4.165  1.00  0.00     0.074 A 
ATOM     48  C   UNL     1     -14.154  10.167  10.322  1.00  0.00     0.029 A 
ATOM     49  N   UNL     1     -13.677   9.610   8.222  1.00  0.00    -0.354 N 
ATOM     50  N   UNL     1     -14.311   8.988   5.430  1.00  0.00    -0.248 NA
ATOM     51  C   UNL     1     -15.872   8.531   3.755  1.00  0.00     0.031 C 
ATOM     52  C   UNL     1     -15.355   9.973   9.632  1.00  0.00     0.029 A 
ATOM     53  C   UNL     1     -15.059   9.645   8.319  1.00  0.00     0.049 A 
ATOM     54  H   UNL     1     -13.173   9.401   7.402  1.00  0.00     0.167 HD
ATOM     55  C   UNL     1     -15.591   9.088   5.962  1.00  0.00     0.074 A 
ATOM     56  C   UNL     1     -16.515   8.822   4.878  1.00  0.00     0.031 C 
ATOM     57  C   UNL     1     -15.967   9.378   7.232  1.00  0.00     0.037 A 
BRANCH  44  58
ATOM     58  C   UNL     1     -11.232  10.202  11.117  1.00  0.00     0.057 A 
ATOM     59  C   UNL     1     -10.601  11.403  11.469  1.00  0.00     0.134 A 
ATOM     60  C   UNL     1     -11.434   9.257  12.130  1.00  0.00     0.134 A 
ATOM     61  F   UNL     1     -10.365  12.344  10.543  1.00  0.00    -0.206 F 
ATOM     62  C   UNL     1     -10.162  11.641  12.773  1.00  0.00     0.040 A 
ATOM     63  C   UNL     1     -11.022   9.494  13.442  1.00  0.00     0.040 A 
ATOM     64  F   UNL     1     -12.036   8.088  11.862  1.00  0.00    -0.206 F 
ATOM     65  C   UNL     1     -10.377  10.686  13.765  1.00  0.00     0.006 A 
ENDBRANCH  44  58
BRANCH  45  66
ATOM     66  C   UNL     1     -13.818   8.141   1.709  1.00  0.00     0.057 A 
ATOM     67  C   UNL     1     -14.434   9.085   0.881  1.00  0.00     0.134 A 
ATOM     68  C   UNL     1     -13.587   6.867   1.178  1.00  0.00     0.134 A 
ATOM     69  F   UNL     1     -14.702  10.315   1.342  1.00  0.00    -0.206 F 
ATOM     70  C   UNL     1     -14.816   8.771  -0.425  1.00  0.00     0.040 A 
ATOM     71  C   UNL     1     -13.943   6.546  -0.133  1.00  0.00     0.040 A 
ATOM     72  F   UNL     1     -12.999   5.918   1.923  1.00  0.00    -0.206 F 
ATOM     73  C   UNL     1     -14.565   7.499  -0.936  1.00  0.00     0.006 A 
ENDBRANCH  45  66
BRANCH  57  74
ATOM     74  C   UNL     1     -17.439   9.450   7.515  1.00  0.00     0.057 A 
ATOM     75  C   UNL     1     -18.237   8.302   7.580  1.00  0.00     0.134 A 
ATOM     76  C   UNL     1     -18.057  10.682   7.767  1.00  0.00     0.134 A 
ATOM     77  F   UNL     1     -17.710   7.092   7.337  1.00  0.00    -0.206 F 
ATOM     78  C   UNL     1     -19.602   8.378   7.866  1.00  0.00     0.040 A 
ATOM     79  C   UNL     1     -19.414  10.769   8.078  1.00  0.00     0.040 A 
ATOM     80  F   UNL     1     -17.347  11.820   7.729  1.00  0.00    -0.206 F 
ATOM     81  C   UNL     1     -20.192   9.614   8.123  1.00  0.00     0.006 A 
ENDBRANCH  57  74
ENDBRANCH  31  32
ENDBRANCH  24  26
ENDBRANCH  23  24
ENDBRANCH  22  23
ENDBRANCH  21  22
ENDBRANCH   1  21
TORSDOF 18
