REMARK SMILES CC(C)[C@@H]1CCCN1C(=O)N1CCO[C@H](CC(=O)OCCOCCOC(=O)c2ccc(-c3c4nc(c(-c5c(F)cccc5F)c5ccc([nH]5)c(-c5c(F)cccc5F)c5nc(c(-c6c(F)cccc6F)c6ccc3[nH]6)C=C5)C=C4)cc2)C1
REMARK SMILES IDX 21 1 20 2 19 3 17 4 18 5 16 6 15 7 11 8 12 9 82 10 13 11
REMARK SMILES IDX 14 12 9 13 10 14 8 15 4 16 5 17 6 18 7 19 2 20 1 21 3 22
REMARK SMILES IDX 22 23 23 24 24 25 25 26 26 27 27 28 28 29 29 30 81 31 30 32
REMARK SMILES IDX 80 33 31 34 32 35 33 36 74 37 34 38 79 39 73 40 75 41 35 42
REMARK SMILES IDX 78 43 72 44 71 45 36 47 62 48 45 49 61 50 46 51 49 52 60 53
REMARK SMILES IDX 76 54 47 55 48 56 59 58 77 59 50 60 37 61 38 62 43 63 39 64
REMARK SMILES IDX 40 65 42 66 44 67 41 68 63 69 64 70 69 71 65 72 66 73 68 74
REMARK SMILES IDX 70 75 67 76 51 77 52 78 57 79 53 80 54 81 56 82 58 83 55 84
REMARK H PARENT 75 46 49 57
REMARK Flexibility Score: inf
ROOT
ATOM      1  C   UNL     1       2.916   1.332  -2.716  1.00  0.00     0.202 C 
ENDROOT
BRANCH   1   2
ATOM      2  C   UNL     1       1.389   1.290  -2.667  1.00  0.00     0.261 C 
BRANCH   2   3
ATOM      3  O   UNL     1       0.968   0.209  -1.818  1.00  0.00    -0.463 OA
BRANCH   3   4
ATOM      4  C   UNL     1       0.172  -0.748  -2.342  1.00  0.00     0.308 C 
ATOM      5  O   UNL     1      -0.289  -0.731  -3.477  1.00  0.00    -0.252 OA
BRANCH   4   6
ATOM      6  C   UNL     1      -0.229  -1.778  -1.321  1.00  0.00     0.156 C 
BRANCH   6   7
ATOM      7  C   UNL     1       0.828  -2.486  -0.448  1.00  0.00     0.149 C 
ATOM      8  N   UNL     1       0.090  -2.026   1.821  1.00  0.00    -0.320 N 
ATOM      9  C   UNL     1       1.430  -1.899   2.361  1.00  0.00     0.150 C 
ATOM     10  C   UNL     1       0.073  -3.042   0.777  1.00  0.00     0.154 C 
ATOM     11  C   UNL     1       2.478  -1.833   1.233  1.00  0.00     0.182 C 
ATOM     12  O   UNL     1       1.926  -1.629  -0.081  1.00  0.00    -0.374 OA
BRANCH   8  13
ATOM     13  C   UNL     1      -1.007  -1.908   2.628  1.00  0.00     0.320 C 
ATOM     14  O   UNL     1      -1.549  -2.925   3.067  1.00  0.00    -0.248 OA
BRANCH  13  15
ATOM     15  N   UNL     1      -1.551  -0.648   2.817  1.00  0.00    -0.321 N 
ATOM     16  C   UNL     1      -1.245   0.697   2.241  1.00  0.00     0.089 C 
ATOM     17  C   UNL     1      -2.309   1.593   2.903  1.00  0.00     0.027 C 
ATOM     18  C   UNL     1      -3.515   0.686   2.988  1.00  0.00     0.024 C 
ATOM     19  C   UNL     1      -2.890  -0.633   3.408  1.00  0.00     0.122 C 
BRANCH  16  20
ATOM     20  C   UNL     1       0.189   1.272   2.402  1.00  0.00     0.005 C 
ATOM     21  C   UNL     1       0.894   1.228   1.050  1.00  0.00     0.009 C 
ATOM     22  C   UNL     1       0.313   2.720   2.896  1.00  0.00     0.009 C 
ENDBRANCH  16  20
ENDBRANCH  13  15
ENDBRANCH   8  13
ENDBRANCH   6   7
ENDBRANCH   4   6
ENDBRANCH   3   4
ENDBRANCH   2   3
ENDBRANCH   1   2
BRANCH   1  23
ATOM     23  O   UNL     1       3.483   0.405  -3.645  1.00  0.00    -0.374 OA
BRANCH  23  24
ATOM     24  C   UNL     1       3.532  -0.956  -3.221  1.00  0.00     0.202 C 
BRANCH  24  25
ATOM     25  C   UNL     1       4.828  -1.355  -2.512  1.00  0.00     0.261 C 
BRANCH  25  26
ATOM     26  O   UNL     1       4.999  -0.688  -1.249  1.00  0.00    -0.460 OA
BRANCH  26  27
ATOM     27  C   UNL     1       5.774   0.413  -1.299  1.00  0.00     0.338 C 
ATOM     28  O   UNL     1       6.341   0.876  -2.292  1.00  0.00    -0.246 OA
BRANCH  27  29
ATOM     29  C   UNL     1       5.837   1.088   0.008  1.00  0.00     0.060 A 
ATOM     30  C   UNL     1       5.841   2.488   0.009  1.00  0.00     0.016 A 
ATOM     31  C   UNL     1       6.046   0.380   1.196  1.00  0.00     0.016 A 
ATOM     32  C   UNL     1       6.155   3.183   1.173  1.00  0.00     0.010 A 
ATOM     33  C   UNL     1       6.354   1.081   2.368  1.00  0.00     0.010 A 
ATOM     34  C   UNL     1       6.473   2.482   2.344  1.00  0.00    -0.014 A 
BRANCH  34  35
ATOM     35  C   UNL     1       7.117   3.214   3.463  1.00  0.00     0.031 A 
ATOM     36  C   UNL     1       8.613   3.129   3.626  1.00  0.00     0.074 A 
ATOM     37  C   UNL     1       6.396   4.005   4.276  1.00  0.00     0.049 A 
ATOM     38  N   UNL     1       9.389   3.718   4.500  1.00  0.00    -0.248 NA
ATOM     39  C   UNL     1       9.330   2.264   2.675  1.00  0.00     0.031 C 
ATOM     40  C   UNL     1       4.950   4.200   4.203  1.00  0.00     0.029 A 
ATOM     41  N   UNL     1       6.793   4.801   5.321  1.00  0.00    -0.354 N 
ATOM     42  C   UNL     1      10.679   3.293   4.208  1.00  0.00     0.074 A 
ATOM     43  C   UNL     1      10.580   2.368   3.100  1.00  0.00     0.031 C 
ATOM     44  C   UNL     1       4.579   5.066   5.162  1.00  0.00     0.029 A 
ATOM     45  C   UNL     1       5.759   5.469   5.927  1.00  0.00     0.049 A 
ATOM     46  H   UNL     1       7.731   4.886   5.608  1.00  0.00     0.167 HD
ATOM     47  C   UNL     1      11.845   3.652   4.796  1.00  0.00     0.037 A 
ATOM     48  C   UNL     1       5.764   6.306   6.982  1.00  0.00     0.037 A 
ATOM     49  C   UNL     1      11.952   4.583   5.887  1.00  0.00     0.049 A 
ATOM     50  C   UNL     1       7.068   6.658   7.646  1.00  0.00     0.074 A 
ATOM     51  C   UNL     1      13.091   5.024   6.538  1.00  0.00     0.029 A 
ATOM     52  N   UNL     1      10.877   5.217   6.489  1.00  0.00    -0.354 N 
ATOM     53  N   UNL     1       8.283   6.269   7.343  1.00  0.00    -0.248 NA
ATOM     54  C   UNL     1       7.001   7.576   8.793  1.00  0.00     0.031 C 
ATOM     55  C   UNL     1      12.702   5.895   7.561  1.00  0.00     0.029 A 
ATOM     56  C   UNL     1      11.324   6.032   7.516  1.00  0.00     0.049 A 
ATOM     57  H   UNL     1       9.935   5.105   6.226  1.00  0.00     0.167 HD
ATOM     58  C   UNL     1       9.125   6.917   8.240  1.00  0.00     0.074 A 
ATOM     59  C   UNL     1       8.283   7.731   9.091  1.00  0.00     0.031 C 
ATOM     60  C   UNL     1      10.475   6.845   8.348  1.00  0.00     0.037 A 
BRANCH  47  61
ATOM     61  C   UNL     1      13.103   3.019   4.276  1.00  0.00     0.057 A 
ATOM     62  C   UNL     1      13.652   3.373   3.037  1.00  0.00     0.134 A 
ATOM     63  C   UNL     1      13.790   2.067   5.039  1.00  0.00     0.134 A 
ATOM     64  F   UNL     1      13.036   4.269   2.251  1.00  0.00    -0.206 F 
ATOM     65  C   UNL     1      14.827   2.785   2.565  1.00  0.00     0.040 A 
ATOM     66  C   UNL     1      14.978   1.490   4.589  1.00  0.00     0.040 A 
ATOM     67  F   UNL     1      13.320   1.686   6.237  1.00  0.00    -0.206 F 
ATOM     68  C   UNL     1      15.497   1.845   3.346  1.00  0.00     0.006 A 
ENDBRANCH  47  61
BRANCH  48  69
ATOM     69  C   UNL     1       4.488   6.878   7.478  1.00  0.00     0.057 A 
ATOM     70  C   UNL     1       4.192   8.238   7.325  1.00  0.00     0.134 A 
ATOM     71  C   UNL     1       3.543   6.081   8.136  1.00  0.00     0.134 A 
ATOM     72  F   UNL     1       5.069   9.055   6.724  1.00  0.00    -0.206 F 
ATOM     73  C   UNL     1       3.011   8.788   7.824  1.00  0.00     0.040 A 
ATOM     74  C   UNL     1       2.348   6.614   8.618  1.00  0.00     0.040 A 
ATOM     75  F   UNL     1       3.768   4.771   8.312  1.00  0.00    -0.206 F 
ATOM     76  C   UNL     1       2.082   7.973   8.469  1.00  0.00     0.006 A 
ENDBRANCH  48  69
BRANCH  60  77
ATOM     77  C   UNL     1      11.128   7.699   9.396  1.00  0.00     0.057 A 
ATOM     78  C   UNL     1      11.034   7.399  10.760  1.00  0.00     0.134 A 
ATOM     79  C   UNL     1      11.886   8.818   9.030  1.00  0.00     0.134 A 
ATOM     80  F   UNL     1      10.314   6.346  11.177  1.00  0.00    -0.206 F 
ATOM     81  C   UNL     1      11.651   8.196  11.726  1.00  0.00     0.040 A 
ATOM     82  C   UNL     1      12.528   9.609   9.984  1.00  0.00     0.040 A 
ATOM     83  F   UNL     1      12.024   9.156   7.739  1.00  0.00    -0.206 F 
ATOM     84  C   UNL     1      12.405   9.302  11.338  1.00  0.00     0.006 A 
ENDBRANCH  60  77
ENDBRANCH  34  35
ENDBRANCH  27  29
ENDBRANCH  26  27
ENDBRANCH  25  26
ENDBRANCH  24  25
ENDBRANCH  23  24
ENDBRANCH   1  23
TORSDOF 18
