REMARK SMILES COC(=O)c1c(SCC(=O)Nc2cc(C)ccc2C)[nH]c2cc(C(=O)OCCOCCOC(=O)c3ccc(-c4c5nc(c(-c6c(F)cccc6F)c6ccc([nH]6)c(-c6c(F)cccc6F)c6nc(c(-c7c(F)cccc7F)c7ccc4[nH]7)C=C6)C=C5)cc3)ccc2c1=O
REMARK SMILES IDX 28 1 27 2 26 3 24 4 25 5 23 6 5 7 6 8 92 9 20 10 91 11 93 12
REMARK SMILES IDX 21 13 90 15 22 16 89 17 3 18 4 19 2 20 1 21 7 22 8 23 9 24
REMARK SMILES IDX 10 25 11 26 12 28 13 29 18 30 14 31 17 32 19 33 15 34 16 35
REMARK SMILES IDX 29 36 30 37 31 38 32 39 33 40 34 41 35 42 36 43 88 44 37 45
REMARK SMILES IDX 87 46 38 47 39 48 40 49 81 50 41 51 86 52 80 53 82 54 42 55
REMARK SMILES IDX 85 56 79 57 78 58 43 60 69 61 52 62 68 63 53 64 56 65 67 66
REMARK SMILES IDX 83 67 54 68 55 69 66 71 84 72 57 73 44 74 45 75 50 76 46 77
REMARK SMILES IDX 47 78 49 79 51 80 48 81 70 82 71 83 76 84 72 85 73 86 75 87
REMARK SMILES IDX 77 88 74 89 58 90 59 91 64 92 60 93 61 94 63 95 65 96 62 97
REMARK H PARENT 20 14 11 27 82 59 56 70
REMARK Flexibility Score: inf
ROOT
ATOM      1  C   UNL     1      -4.952   5.206  -8.204  1.00  0.00     0.202 C 
ENDROOT
BRANCH   1   2
ATOM      2  C   UNL     1      -4.736   3.729  -8.543  1.00  0.00     0.261 C 
BRANCH   2   3
ATOM      3  O   UNL     1      -3.913   3.116  -7.538  1.00  0.00    -0.460 OA
BRANCH   3   4
ATOM      4  C   UNL     1      -2.762   3.731  -7.196  1.00  0.00     0.338 C 
ATOM      5  O   UNL     1      -1.975   4.368  -7.869  1.00  0.00    -0.246 OA
BRANCH   4   6
ATOM      6  C   UNL     1      -2.453   3.503  -5.800  1.00  0.00     0.062 A 
ATOM      7  C   UNL     1       0.130   2.187  -1.698  1.00  0.00     0.138 A 
ATOM      8  C   UNL     1       1.013   2.775  -2.534  1.00  0.00     0.092 A 
ATOM      9  C   UNL     1      -1.314   2.186  -2.029  1.00  0.00     0.205 A 
ATOM     10  N   UNL     1       0.570   3.385  -3.701  1.00  0.00    -0.349 N 
ATOM     11  C   UNL     1      -1.732   2.758  -3.303  1.00  0.00     0.046 A 
ATOM     12  O   UNL     1      -2.152   1.638  -1.320  1.00  0.00    -0.288 OA
ATOM     13  C   UNL     1      -0.755   3.329  -4.121  1.00  0.00     0.051 A 
ATOM     14  H   UNL     1       1.221   3.876  -4.253  1.00  0.00     0.167 HD
ATOM     15  C   UNL     1      -3.064   2.601  -3.697  1.00  0.00     0.015 A 
ATOM     16  C   UNL     1      -1.139   3.761  -5.371  1.00  0.00     0.042 A 
ATOM     17  C   UNL     1      -3.427   2.966  -4.968  1.00  0.00     0.016 A 
BRANCH   7  18
ATOM     18  C   UNL     1       0.459   1.448  -0.486  1.00  0.00     0.344 C 
ATOM     19  O   UNL     1       0.155   1.827   0.631  1.00  0.00    -0.246 OA
BRANCH  18  20
ATOM     20  O   UNL     1       1.030   0.270  -0.827  1.00  0.00    -0.465 OA
ATOM     21  C   UNL     1       1.212  -0.624   0.267  1.00  0.00     0.282 C 
ENDBRANCH  18  20
ENDBRANCH   7  18
BRANCH   8  22
ATOM     22  S   UNL     1       2.746   2.675  -2.361  1.00  0.00    -0.098 SA
BRANCH  22  23
ATOM     23  C   UNL     1       3.250   2.948  -0.666  1.00  0.00     0.176 C 
BRANCH  23  24
ATOM     24  C   UNL     1       2.506   3.986   0.140  1.00  0.00     0.234 C 
ATOM     25  O   UNL     1       2.060   3.700   1.255  1.00  0.00    -0.274 OA
ATOM     26  N   UNL     1       2.425   5.302  -0.231  1.00  0.00    -0.325 N 
ATOM     27  H   UNL     1       1.596   5.797  -0.040  1.00  0.00     0.169 HD
BRANCH  26  28
ATOM     28  C   UNL     1       3.477   5.973  -0.871  1.00  0.00     0.044 A 
ATOM     29  C   UNL     1       3.614   5.871  -2.256  1.00  0.00     0.029 A 
ATOM     30  C   UNL     1       4.394   6.721  -0.119  1.00  0.00    -0.027 A 
ATOM     31  C   UNL     1       4.739   6.382  -2.904  1.00  0.00    -0.049 A 
ATOM     32  C   UNL     1       5.488   7.292  -0.786  1.00  0.00     0.006 A 
ATOM     33  C   UNL     1       4.282   6.930   1.367  1.00  0.00     0.046 C 
ATOM     34  C   UNL     1       4.944   6.147  -4.371  1.00  0.00     0.044 C 
ATOM     35  C   UNL     1       5.673   7.103  -2.158  1.00  0.00     0.004 A 
ENDBRANCH  26  28
ENDBRANCH  23  24
ENDBRANCH  22  23
ENDBRANCH   8  22
ENDBRANCH   4   6
ENDBRANCH   3   4
ENDBRANCH   2   3
ENDBRANCH   1   2
BRANCH   1  36
ATOM     36  O   UNL     1      -3.756   5.856  -8.558  1.00  0.00    -0.374 OA
BRANCH  36  37
ATOM     37  C   UNL     1      -3.291   6.960  -7.810  1.00  0.00     0.202 C 
BRANCH  37  38
ATOM     38  C   UNL     1      -3.770   8.230  -8.497  1.00  0.00     0.261 C 
BRANCH  38  39
ATOM     39  O   UNL     1      -3.275   8.329  -9.862  1.00  0.00    -0.460 OA
BRANCH  39  40
ATOM     40  C   UNL     1      -3.764   7.408 -10.751  1.00  0.00     0.338 C 
ATOM     41  O   UNL     1      -4.922   7.370 -11.135  1.00  0.00    -0.246 OA
BRANCH  40  42
ATOM     42  C   UNL     1      -2.736   6.340 -11.013  1.00  0.00     0.060 A 
ATOM     43  C   UNL     1      -3.138   5.068 -11.457  1.00  0.00     0.016 A 
ATOM     44  C   UNL     1      -1.469   6.496 -10.458  1.00  0.00     0.016 A 
ATOM     45  C   UNL     1      -2.341   3.935 -11.180  1.00  0.00     0.010 A 
ATOM     46  C   UNL     1      -0.754   5.366 -10.079  1.00  0.00     0.010 A 
ATOM     47  C   UNL     1      -1.190   4.059 -10.387  1.00  0.00    -0.014 A 
BRANCH  47  48
ATOM     48  C   UNL     1      -0.170   2.980 -10.225  1.00  0.00     0.031 A 
ATOM     49  C   UNL     1       0.648   3.053 -11.447  1.00  0.00     0.074 A 
ATOM     50  C   UNL     1       0.209   2.137  -9.220  1.00  0.00     0.049 A 
ATOM     51  N   UNL     1       0.468   2.298 -12.481  1.00  0.00    -0.248 NA
ATOM     52  C   UNL     1       1.471   4.248 -11.709  1.00  0.00     0.031 C 
ATOM     53  C   UNL     1      -0.427   1.876  -7.939  1.00  0.00     0.029 A 
ATOM     54  N   UNL     1       1.347   1.349  -9.090  1.00  0.00    -0.354 N 
ATOM     55  C   UNL     1       1.421   2.752 -13.370  1.00  0.00     0.074 A 
ATOM     56  C   UNL     1       1.681   4.117 -13.020  1.00  0.00     0.031 C 
ATOM     57  C   UNL     1       0.431   1.324  -7.047  1.00  0.00     0.029 A 
ATOM     58  C   UNL     1       1.632   0.950  -7.766  1.00  0.00     0.049 A 
ATOM     59  H   UNL     1       1.908   1.092  -9.857  1.00  0.00     0.167 HD
ATOM     60  C   UNL     1       2.283   1.848 -13.900  1.00  0.00     0.037 A 
ATOM     61  C   UNL     1       2.650   0.183  -7.283  1.00  0.00     0.037 A 
ATOM     62  C   UNL     1       1.774   0.504 -13.738  1.00  0.00     0.049 A 
ATOM     63  C   UNL     1       3.105  -0.677  -8.379  1.00  0.00     0.074 A 
ATOM     64  C   UNL     1       0.690  -0.211 -14.203  1.00  0.00     0.029 A 
ATOM     65  N   UNL     1       2.207  -0.122 -12.599  1.00  0.00    -0.354 N 
ATOM     66  N   UNL     1       2.414  -1.691  -8.808  1.00  0.00    -0.248 NA
ATOM     67  C   UNL     1       4.179  -0.218  -9.245  1.00  0.00     0.031 C 
ATOM     68  C   UNL     1       0.454  -1.259 -13.267  1.00  0.00     0.029 A 
ATOM     69  C   UNL     1       1.429  -1.203 -12.278  1.00  0.00     0.049 A 
ATOM     70  H   UNL     1       2.985   0.171 -12.073  1.00  0.00     0.167 HD
ATOM     71  C   UNL     1       2.618  -1.646 -10.166  1.00  0.00     0.074 A 
ATOM     72  C   UNL     1       3.845  -0.881 -10.354  1.00  0.00     0.031 C 
ATOM     73  C   UNL     1       1.574  -1.872 -11.008  1.00  0.00     0.037 A 
BRANCH  60  74
ATOM     74  C   UNL     1       3.760   2.120 -14.070  1.00  0.00     0.057 A 
ATOM     75  C   UNL     1       4.509   1.224 -14.843  1.00  0.00     0.134 A 
ATOM     76  C   UNL     1       4.528   3.053 -13.332  1.00  0.00     0.134 A 
ATOM     77  F   UNL     1       3.902   0.262 -15.554  1.00  0.00    -0.206 F 
ATOM     78  C   UNL     1       5.908   1.240 -14.862  1.00  0.00     0.040 A 
ATOM     79  C   UNL     1       5.920   3.115 -13.389  1.00  0.00     0.040 A 
ATOM     80  F   UNL     1       4.005   3.894 -12.436  1.00  0.00    -0.206 F 
ATOM     81  C   UNL     1       6.618   2.191 -14.138  1.00  0.00     0.006 A 
ENDBRANCH  60  74
BRANCH  61  82
ATOM     82  C   UNL     1       3.392   0.145  -5.998  1.00  0.00     0.057 A 
ATOM     83  C   UNL     1       4.021  -1.024  -5.528  1.00  0.00     0.134 A 
ATOM     84  C   UNL     1       3.838   1.346  -5.433  1.00  0.00     0.134 A 
ATOM     85  F   UNL     1       3.708  -2.221  -6.043  1.00  0.00    -0.206 F 
ATOM     86  C   UNL     1       5.052  -0.996  -4.574  1.00  0.00     0.040 A 
ATOM     87  C   UNL     1       4.892   1.388  -4.506  1.00  0.00     0.040 A 
ATOM     88  F   UNL     1       3.321   2.518  -5.833  1.00  0.00    -0.206 F 
ATOM     89  C   UNL     1       5.502   0.217  -4.070  1.00  0.00     0.006 A 
ENDBRANCH  61  82
BRANCH  73  90
ATOM     90  C   UNL     1       0.474  -2.767 -10.524  1.00  0.00     0.057 A 
ATOM     91  C   UNL     1      -0.417  -2.477  -9.481  1.00  0.00     0.134 A 
ATOM     92  C   UNL     1       0.283  -3.975 -11.205  1.00  0.00     0.134 A 
ATOM     93  F   UNL     1      -0.347  -1.322  -8.804  1.00  0.00    -0.206 F 
ATOM     94  C   UNL     1      -1.439  -3.365  -9.124  1.00  0.00     0.040 A 
ATOM     95  C   UNL     1      -0.752  -4.852 -10.882  1.00  0.00     0.040 A 
ATOM     96  F   UNL     1       1.090  -4.308 -12.225  1.00  0.00    -0.206 F 
ATOM     97  C   UNL     1      -1.613  -4.552  -9.832  1.00  0.00     0.006 A 
ENDBRANCH  73  90
ENDBRANCH  47  48
ENDBRANCH  40  42
ENDBRANCH  39  40
ENDBRANCH  38  39
ENDBRANCH  37  38
ENDBRANCH  36  37
ENDBRANCH   1  36
TORSDOF 20
