REMARK SMILES CCc1ccc(C[NH+]2CCC(Oc3ccccc3OC)(C(=O)OCCOCCOC(=O)c3ccc(-c4c5nc(c(-c6c(F)cccc6F)c6ccc([nH]6)c(-c6c(F)cccc6F)c6nc(c(-c7c(F)cccc7F)c7ccc4[nH]7)C=C6)C=C5)cc3)CC2)nc1
REMARK SMILES IDX 25 1 24 2 23 3 21 4 22 5 11 6 8 7 9 8 87 9 10 11 86 12 7 13
REMARK SMILES IDX 6 14 3 15 4 16 89 17 5 18 88 19 2 20 1 21 12 22 13 23 14 24
REMARK SMILES IDX 18 25 15 26 17 27 16 28 19 29 20 30 26 31 27 32 28 33 29 34
REMARK SMILES IDX 30 35 31 36 32 37 33 38 85 39 34 40 84 41 35 42 36 43 37 44
REMARK SMILES IDX 78 45 38 46 83 47 77 48 79 49 39 50 82 51 76 52 75 53 40 55
REMARK SMILES IDX 66 56 49 57 65 58 50 59 53 60 64 61 80 62 51 63 52 64 63 66
REMARK SMILES IDX 81 67 54 68 41 69 42 70 47 71 43 72 44 73 46 74 48 75 45 76
REMARK SMILES IDX 67 77 68 78 73 79 69 80 70 81 72 82 74 83 71 84 55 85 56 86
REMARK SMILES IDX 61 87 57 88 58 89 60 90 62 91 59 92
REMARK H PARENT 8 10 79 54 53 65
REMARK Flexibility Score: inf
ROOT
ATOM      1  C   UNL     1       1.135  -2.602   3.720  1.00  0.00     0.202 C 
ENDROOT
BRANCH   1   2
ATOM      2  C   UNL     1       1.273  -4.100   4.021  1.00  0.00     0.261 C 
BRANCH   2   3
ATOM      3  O   UNL     1       1.968  -4.863   3.006  1.00  0.00    -0.460 OA
BRANCH   3   4
ATOM      4  C   UNL     1       1.243  -5.879   2.445  1.00  0.00     0.351 C 
ATOM      5  O   UNL     1       0.035  -6.020   2.635  1.00  0.00    -0.247 OA
BRANCH   4   6
ATOM      6  C   UNL     1       2.087  -6.912   1.673  1.00  0.00     0.216 C 
ATOM      7  N   UNL     1       1.974  -6.520  -1.266  1.00  0.00    -0.330 N 
ATOM      8  C   UNL     1       3.094  -5.933  -0.545  1.00  0.00     0.267 C 
ATOM      9  C   UNL     1       0.780  -6.760  -0.467  1.00  0.00     0.267 C 
ATOM     10  H   UNL     1       2.305  -7.456  -1.500  1.00  0.00     0.348 HD
ATOM     11  C   UNL     1       3.308  -6.391   0.902  1.00  0.00     0.122 C 
ATOM     12  C   UNL     1       1.141  -7.661   0.721  1.00  0.00     0.122 C 
BRANCH   7  13
ATOM     13  C   UNL     1       1.689  -5.857  -2.563  1.00  0.00     0.319 C 
BRANCH  13  14
ATOM     14  C   UNL     1       1.300  -4.379  -2.545  1.00  0.00     0.095 A 
ATOM     15  C   UNL     1       0.581  -1.694  -2.437  1.00  0.00    -0.030 A 
ATOM     16  C   UNL     1       1.882  -2.051  -2.792  1.00  0.00     0.007 A 
ATOM     17  C   UNL     1      -0.303  -2.737  -2.175  1.00  0.00     0.115 A 
ATOM     18  C   UNL     1       2.244  -3.400  -2.858  1.00  0.00     0.030 A 
ATOM     19  N   UNL     1       0.028  -4.053  -2.203  1.00  0.00    -0.255 NA
BRANCH  15  20
ATOM     20  C   UNL     1       0.163  -0.252  -2.304  1.00  0.00     0.034 C 
ATOM     21  C   UNL     1       0.581   0.389  -0.986  1.00  0.00     0.009 C 
ENDBRANCH  15  20
ENDBRANCH  13  14
ENDBRANCH   7  13
BRANCH   6  22
ATOM     22  O   UNL     1       2.522  -7.623   2.873  1.00  0.00    -0.471 OA
BRANCH  22  23
ATOM     23  C   UNL     1       2.870  -8.933   2.771  1.00  0.00     0.162 A 
ATOM     24  C   UNL     1       1.875  -9.881   3.023  1.00  0.00     0.050 A 
ATOM     25  C   UNL     1       4.196  -9.343   2.596  1.00  0.00     0.160 A 
ATOM     26  C   UNL     1       2.184 -11.241   3.018  1.00  0.00     0.004 A 
ATOM     27  C   UNL     1       4.494 -10.707   2.555  1.00  0.00     0.050 A 
ATOM     28  C   UNL     1       3.492 -11.654   2.772  1.00  0.00     0.004 A 
BRANCH  25  29
ATOM     29  O   UNL     1       5.253  -8.500   2.377  1.00  0.00    -0.493 OA
ATOM     30  C   UNL     1       5.476  -7.569   3.434  1.00  0.00     0.278 C 
ENDBRANCH  25  29
ENDBRANCH  22  23
ENDBRANCH   6  22
ENDBRANCH   4   6
ENDBRANCH   3   4
ENDBRANCH   2   3
ENDBRANCH   1   2
BRANCH   1  31
ATOM     31  O   UNL     1       0.283  -2.205   2.645  1.00  0.00    -0.374 OA
BRANCH  31  32
ATOM     32  C   UNL     1       0.498  -2.820   1.383  1.00  0.00     0.202 C 
BRANCH  32  33
ATOM     33  C   UNL     1       1.830  -2.526   0.697  1.00  0.00     0.261 C 
BRANCH  33  34
ATOM     34  O   UNL     1       2.944  -2.444   1.579  1.00  0.00    -0.460 OA
BRANCH  34  35
ATOM     35  C   UNL     1       4.005  -1.799   1.061  1.00  0.00     0.338 C 
ATOM     36  O   UNL     1       4.236  -1.558  -0.123  1.00  0.00    -0.246 OA
BRANCH  35  37
ATOM     37  C   UNL     1       4.848  -1.336   2.164  1.00  0.00     0.060 A 
ATOM     38  C   UNL     1       4.345  -0.386   3.064  1.00  0.00     0.016 A 
ATOM     39  C   UNL     1       6.170  -1.773   2.245  1.00  0.00     0.016 A 
ATOM     40  C   UNL     1       5.185   0.158   4.034  1.00  0.00     0.010 A 
ATOM     41  C   UNL     1       7.002  -1.243   3.231  1.00  0.00     0.010 A 
ATOM     42  C   UNL     1       6.525  -0.250   4.104  1.00  0.00    -0.014 A 
BRANCH  42  43
ATOM     43  C   UNL     1       7.470   0.459   4.996  1.00  0.00     0.031 A 
ATOM     44  C   UNL     1       8.395   1.486   4.404  1.00  0.00     0.074 A 
ATOM     45  C   UNL     1       7.504   0.182   6.311  1.00  0.00     0.049 A 
ATOM     46  N   UNL     1       9.333   2.188   4.985  1.00  0.00    -0.248 NA
ATOM     47  C   UNL     1       8.247   1.754   2.963  1.00  0.00     0.031 C 
ATOM     48  C   UNL     1       6.648  -0.788   6.994  1.00  0.00     0.029 A 
ATOM     49  N   UNL     1       8.304   0.684   7.305  1.00  0.00    -0.354 N 
ATOM     50  C   UNL     1       9.894   2.969   3.982  1.00  0.00     0.074 A 
ATOM     51  C   UNL     1       9.208   2.641   2.752  1.00  0.00     0.031 C 
ATOM     52  C   UNL     1       6.979  -0.820   8.296  1.00  0.00     0.029 A 
ATOM     53  C   UNL     1       8.083   0.108   8.531  1.00  0.00     0.049 A 
ATOM     54  H   UNL     1       8.973   1.391   7.153  1.00  0.00     0.167 HD
ATOM     55  C   UNL     1      10.889   3.881   4.082  1.00  0.00     0.037 A 
ATOM     56  C   UNL     1       8.716   0.299   9.705  1.00  0.00     0.037 A 
ATOM     57  C   UNL     1      11.558   4.215   5.310  1.00  0.00     0.049 A 
ATOM     58  C   UNL     1       9.828   1.310   9.783  1.00  0.00     0.074 A 
ATOM     59  C   UNL     1      12.559   5.147   5.522  1.00  0.00     0.029 A 
ATOM     60  N   UNL     1      11.293   3.623   6.536  1.00  0.00    -0.354 N 
ATOM     61  N   UNL     1      10.322   2.071   8.837  1.00  0.00    -0.248 NA
ATOM     62  C   UNL     1      10.466   1.495  11.095  1.00  0.00     0.031 C 
ATOM     63  C   UNL     1      12.922   5.096   6.872  1.00  0.00     0.029 A 
ATOM     64  C   UNL     1      12.120   4.161   7.506  1.00  0.00     0.049 A 
ATOM     65  H   UNL     1      10.616   2.925   6.692  1.00  0.00     0.167 HD
ATOM     66  C   UNL     1      11.303   2.845   9.443  1.00  0.00     0.074 A 
ATOM     67  C   UNL     1      11.328   2.469  10.841  1.00  0.00     0.031 C 
ATOM     68  C   UNL     1      12.112   3.784   8.895  1.00  0.00     0.037 A 
BRANCH  55  69
ATOM     69  C   UNL     1      11.324   4.577   2.828  1.00  0.00     0.057 A 
ATOM     70  C   UNL     1      10.553   5.586   2.239  1.00  0.00     0.134 A 
ATOM     71  C   UNL     1      12.556   4.271   2.236  1.00  0.00     0.134 A 
ATOM     72  F   UNL     1       9.357   5.914   2.750  1.00  0.00    -0.206 F 
ATOM     73  C   UNL     1      10.989   6.262   1.098  1.00  0.00     0.040 A 
ATOM     74  C   UNL     1      13.011   4.954   1.107  1.00  0.00     0.040 A 
ATOM     75  F   UNL     1      13.341   3.314   2.752  1.00  0.00    -0.206 F 
ATOM     76  C   UNL     1      12.226   5.952   0.534  1.00  0.00     0.006 A 
ENDBRANCH  55  69
BRANCH  56  77
ATOM     77  C   UNL     1       8.321  -0.483  10.903  1.00  0.00     0.057 A 
ATOM     78  C   UNL     1       7.685   0.124  11.991  1.00  0.00     0.134 A 
ATOM     79  C   UNL     1       8.599  -1.852  11.000  1.00  0.00     0.134 A 
ATOM     80  F   UNL     1       7.412   1.437  11.966  1.00  0.00    -0.206 F 
ATOM     81  C   UNL     1       7.361  -0.594  13.143  1.00  0.00     0.040 A 
ATOM     82  C   UNL     1       8.258  -2.588  12.136  1.00  0.00     0.040 A 
ATOM     83  F   UNL     1       9.203  -2.494   9.989  1.00  0.00    -0.206 F 
ATOM     84  C   UNL     1       7.646  -1.956  13.216  1.00  0.00     0.006 A 
ENDBRANCH  56  77
BRANCH  68  85
ATOM     85  C   UNL     1      13.054   4.499   9.816  1.00  0.00     0.057 A 
ATOM     86  C   UNL     1      14.205   3.881  10.320  1.00  0.00     0.134 A 
ATOM     87  C   UNL     1      12.822   5.833  10.173  1.00  0.00     0.134 A 
ATOM     88  F   UNL     1      14.475   2.601  10.024  1.00  0.00    -0.206 F 
ATOM     89  C   UNL     1      15.082   4.561  11.167  1.00  0.00     0.040 A 
ATOM     90  C   UNL     1      13.704   6.529  10.999  1.00  0.00     0.040 A 
ATOM     91  F   UNL     1      11.741   6.483   9.714  1.00  0.00    -0.206 F 
ATOM     92  C   UNL     1      14.835   5.891  11.504  1.00  0.00     0.006 A 
ENDBRANCH  68  85
ENDBRANCH  42  43
ENDBRANCH  35  37
ENDBRANCH  34  35
ENDBRANCH  33  34
ENDBRANCH  32  33
ENDBRANCH  31  32
ENDBRANCH   1  31
TORSDOF 20
