REMARK SMILES CC(C)(C)OC(=O)N[C@@H](C(=O)OCCOCCOC(=O)c1ccc(-c2c3nc(c(-c4c(F)cccc4F)c4ccc([nH]4)c(-c4c(F)cccc4F)c4nc(c(-c5c(F)cccc5F)c5ccc2[nH]5)C=C4)C=C3)cc1)[C@H](O)c1ccccc1F
REMARK SMILES IDX 14 1 13 2 12 3 10 4 11 5 9 6 8 7 6 8 7 9 5 11 2 12 1 13 3 14
REMARK SMILES IDX 4 15 75 16 77 17 78 18 82 19 79 20 81 21 83 22 80 23 76 24
REMARK SMILES IDX 15 26 16 27 17 28 18 29 19 30 20 31 21 32 22 33 74 34 23 35
REMARK SMILES IDX 73 36 24 37 25 38 26 39 67 40 27 41 72 42 66 43 68 44 28 45
REMARK SMILES IDX 71 46 65 47 64 48 29 50 55 51 38 52 54 53 39 54 42 55 53 56
REMARK SMILES IDX 69 57 40 58 41 59 52 61 70 62 43 63 30 64 31 65 36 66 32 67
REMARK SMILES IDX 33 68 35 69 37 70 34 71 56 72 57 73 62 74 58 75 59 76 61 77
REMARK SMILES IDX 63 78 60 79 44 80 45 81 50 82 46 83 47 84 49 85 51 86 48 87
REMARK H PARENT 8 10 76 25 68 49 42 60
REMARK Flexibility Score: inf
ROOT
ATOM      1  C   UNL     1      -2.356  -0.244  -9.045  1.00  0.00     0.202 C 
ENDROOT
BRANCH   1   2
ATOM      2  C   UNL     1      -2.486  -1.325  -7.969  1.00  0.00     0.261 C 
BRANCH   2   3
ATOM      3  O   UNL     1      -1.828  -0.913  -6.759  1.00  0.00    -0.462 OA
BRANCH   3   4
ATOM      4  C   UNL     1      -0.808  -1.706  -6.319  1.00  0.00     0.331 C 
ATOM      5  O   UNL     1      -0.524  -2.798  -6.795  1.00  0.00    -0.250 OA
BRANCH   4   6
ATOM      6  C   UNL     1      -0.065  -1.075  -5.133  1.00  0.00     0.228 C 
BRANCH   6   7
ATOM      7  N   UNL     1      -0.495   0.289  -4.822  1.00  0.00    -0.305 N 
ATOM      8  C   UNL     1      -1.013   0.781  -3.669  1.00  0.00     0.408 C 
ATOM      9  O   UNL     1      -1.193   1.982  -3.538  1.00  0.00    -0.225 OA
ATOM     10  H   UNL     1      -0.395   0.942  -5.553  1.00  0.00     0.168 HD
BRANCH   8  11
ATOM     11  O   UNL     1      -1.270  -0.173  -2.750  1.00  0.00    -0.444 OA
BRANCH  11  12
ATOM     12  C   UNL     1      -1.764   0.197  -1.436  1.00  0.00     0.106 C 
ATOM     13  C   UNL     1      -2.175  -1.131  -0.785  1.00  0.00     0.056 C 
ATOM     14  C   UNL     1      -3.000   1.106  -1.493  1.00  0.00     0.056 C 
ATOM     15  C   UNL     1      -0.632   0.829  -0.619  1.00  0.00     0.056 C 
ENDBRANCH  11  12
ENDBRANCH   8  11
ENDBRANCH   6   7
BRANCH   6  16
ATOM     16  C   UNL     1       1.483  -1.220  -5.312  1.00  0.00     0.181 C 
BRANCH  16  17
ATOM     17  C   UNL     1       2.293  -0.243  -6.155  1.00  0.00     0.019 A 
ATOM     18  C   UNL     1       3.197  -0.742  -7.113  1.00  0.00     0.009 A 
ATOM     19  C   UNL     1       2.304   1.142  -5.948  1.00  0.00     0.129 A 
ATOM     20  C   UNL     1       4.040   0.114  -7.838  1.00  0.00     0.001 A 
ATOM     21  C   UNL     1       3.118   2.004  -6.685  1.00  0.00     0.039 A 
ATOM     22  F   UNL     1       1.543   1.697  -4.999  1.00  0.00    -0.207 F 
ATOM     23  C   UNL     1       3.993   1.489  -7.632  1.00  0.00     0.003 A 
ENDBRANCH  16  17
BRANCH  16  24
ATOM     24  O   UNL     1       2.106  -1.257  -4.017  1.00  0.00    -0.386 OA
ATOM     25  H   UNL     1       2.012  -0.392  -3.588  1.00  0.00     0.211 HD
ENDBRANCH  16  24
ENDBRANCH   6  16
ENDBRANCH   4   6
ENDBRANCH   3   4
ENDBRANCH   2   3
ENDBRANCH   1   2
BRANCH   1  26
ATOM     26  O   UNL     1      -1.033   0.002  -9.524  1.00  0.00    -0.374 OA
BRANCH  26  27
ATOM     27  C   UNL     1      -0.156   0.752  -8.685  1.00  0.00     0.202 C 
BRANCH  27  28
ATOM     28  C   UNL     1      -0.356   2.270  -8.658  1.00  0.00     0.261 C 
BRANCH  28  29
ATOM     29  O   UNL     1      -1.644   2.634  -8.133  1.00  0.00    -0.460 OA
BRANCH  29  30
ATOM     30  C   UNL     1      -2.467   3.210  -9.040  1.00  0.00     0.338 C 
ATOM     31  O   UNL     1      -2.197   3.526 -10.188  1.00  0.00    -0.246 OA
BRANCH  30  32
ATOM     32  C   UNL     1      -3.847   3.266  -8.525  1.00  0.00     0.060 A 
ATOM     33  C   UNL     1      -4.847   2.733  -9.348  1.00  0.00     0.016 A 
ATOM     34  C   UNL     1      -4.175   3.906  -7.328  1.00  0.00     0.016 A 
ATOM     35  C   UNL     1      -6.185   2.903  -9.014  1.00  0.00     0.010 A 
ATOM     36  C   UNL     1      -5.525   4.079  -6.995  1.00  0.00     0.010 A 
ATOM     37  C   UNL     1      -6.534   3.619  -7.860  1.00  0.00    -0.014 A 
BRANCH  37  38
ATOM     38  C   UNL     1      -7.955   3.992  -7.665  1.00  0.00     0.031 A 
ATOM     39  C   UNL     1      -8.411   5.373  -8.048  1.00  0.00     0.074 A 
ATOM     40  C   UNL     1      -8.844   3.079  -7.236  1.00  0.00     0.049 A 
ATOM     41  N   UNL     1      -9.619   5.879  -8.045  1.00  0.00    -0.248 NA
ATOM     42  C   UNL     1      -7.369   6.310  -8.497  1.00  0.00     0.031 C 
ATOM     43  C   UNL     1      -8.524   1.703  -6.859  1.00  0.00     0.029 A 
ATOM     44  N   UNL     1     -10.201   3.171  -7.059  1.00  0.00    -0.354 N 
ATOM     45  C   UNL     1      -9.482   7.188  -8.490  1.00  0.00     0.074 A 
ATOM     46  C   UNL     1      -8.071   7.411  -8.722  1.00  0.00     0.031 C 
ATOM     47  C   UNL     1      -9.656   1.076  -6.498  1.00  0.00     0.029 A 
ATOM     48  C   UNL     1     -10.775   2.011  -6.601  1.00  0.00     0.049 A 
ATOM     49  H   UNL     1     -10.714   3.991  -7.242  1.00  0.00     0.167 HD
ATOM     50  C   UNL     1     -10.446   8.116  -8.700  1.00  0.00     0.037 A 
ATOM     51  C   UNL     1     -12.058   1.738  -6.296  1.00  0.00     0.037 A 
ATOM     52  C   UNL     1     -11.850   7.889  -8.474  1.00  0.00     0.049 A 
ATOM     53  C   UNL     1     -13.105   2.799  -6.500  1.00  0.00     0.074 A 
ATOM     54  C   UNL     1     -12.909   8.755  -8.685  1.00  0.00     0.029 A 
ATOM     55  N   UNL     1     -12.388   6.712  -7.976  1.00  0.00    -0.354 N 
ATOM     56  N   UNL     1     -12.969   4.018  -6.966  1.00  0.00    -0.248 NA
ATOM     57  C   UNL     1     -14.486   2.443  -6.146  1.00  0.00     0.031 C 
ATOM     58  C   UNL     1     -14.083   8.118  -8.268  1.00  0.00     0.029 A 
ATOM     59  C   UNL     1     -13.762   6.838  -7.847  1.00  0.00     0.049 A 
ATOM     60  H   UNL     1     -11.871   5.906  -7.749  1.00  0.00     0.167 HD
ATOM     61  C   UNL     1     -14.246   4.564  -6.982  1.00  0.00     0.074 A 
ATOM     62  C   UNL     1     -15.146   3.537  -6.499  1.00  0.00     0.031 C 
ATOM     63  C   UNL     1     -14.641   5.805  -7.361  1.00  0.00     0.037 A 
BRANCH  50  64
ATOM     64  C   UNL     1     -10.012   9.471  -9.177  1.00  0.00     0.057 A 
ATOM     65  C   UNL     1      -9.552   9.686 -10.483  1.00  0.00     0.134 A 
ATOM     66  C   UNL     1     -10.089  10.583  -8.329  1.00  0.00     0.134 A 
ATOM     67  F   UNL     1      -9.440   8.661 -11.342  1.00  0.00    -0.206 F 
ATOM     68  C   UNL     1      -9.164  10.954 -10.921  1.00  0.00     0.040 A 
ATOM     69  C   UNL     1      -9.728  11.860  -8.763  1.00  0.00     0.040 A 
ATOM     70  F   UNL     1     -10.525  10.448  -7.068  1.00  0.00    -0.206 F 
ATOM     71  C   UNL     1      -9.259  12.047 -10.062  1.00  0.00     0.006 A 
ENDBRANCH  50  64
BRANCH  51  72
ATOM     72  C   UNL     1     -12.426   0.402  -5.763  1.00  0.00     0.057 A 
ATOM     73  C   UNL     1     -13.198  -0.495  -6.509  1.00  0.00     0.134 A 
ATOM     74  C   UNL     1     -12.027  -0.001  -4.482  1.00  0.00     0.134 A 
ATOM     75  F   UNL     1     -13.630  -0.158  -7.733  1.00  0.00    -0.206 F 
ATOM     76  C   UNL     1     -13.578  -1.736  -5.995  1.00  0.00     0.040 A 
ATOM     77  C   UNL     1     -12.377  -1.249  -3.966  1.00  0.00     0.040 A 
ATOM     78  F   UNL     1     -11.283   0.812  -3.717  1.00  0.00    -0.206 F 
ATOM     79  C   UNL     1     -13.162  -2.118  -4.720  1.00  0.00     0.006 A 
ENDBRANCH  51  72
BRANCH  63  80
ATOM     80  C   UNL     1     -16.110   6.106  -7.289  1.00  0.00     0.057 A 
ATOM     81  C   UNL     1     -16.772   6.271  -6.065  1.00  0.00     0.134 A 
ATOM     82  C   UNL     1     -16.867   6.252  -8.458  1.00  0.00     0.134 A 
ATOM     83  F   UNL     1     -16.107   6.132  -4.908  1.00  0.00    -0.206 F 
ATOM     84  C   UNL     1     -18.141   6.538  -6.006  1.00  0.00     0.040 A 
ATOM     85  C   UNL     1     -18.231   6.547  -8.412  1.00  0.00     0.040 A 
ATOM     86  F   UNL     1     -16.294   6.118  -9.663  1.00  0.00    -0.206 F 
ATOM     87  C   UNL     1     -18.873   6.682  -7.183  1.00  0.00     0.006 A 
ENDBRANCH  63  80
ENDBRANCH  37  38
ENDBRANCH  30  32
ENDBRANCH  29  30
ENDBRANCH  28  29
ENDBRANCH  27  28
ENDBRANCH  26  27
ENDBRANCH   1  26
TORSDOF 20
