REMARK SMILES CC(C)(C)OC(=O)N1CC[N@H+](Cc2ccc(Cl)nc2)[C@H](C(=O)OCCOCCOC(=O)c2ccc(-c3c4nc(c(-c5c(F)cccc5F)c5ccc([nH]5)c(-c5c(F)cccc5F)c5nc(c(-c6c(F)cccc6F)c6ccc3[nH]6)C=C5)C=C4)cc2)C1
REMARK SMILES IDX 25 1 24 2 23 3 21 4 22 5 20 6 8 7 9 8 86 9 10 10 11 11 6 13
REMARK SMILES IDX 7 14 5 15 2 16 1 17 3 18 4 19 12 20 13 21 14 22 19 23 15 24
REMARK SMILES IDX 18 25 16 26 17 27 26 28 27 29 28 30 29 31 30 32 31 33 32 34
REMARK SMILES IDX 33 35 85 36 34 37 84 38 35 39 36 40 37 41 78 42 38 43 83 44
REMARK SMILES IDX 77 45 79 46 39 47 82 48 76 49 75 50 40 52 66 53 49 54 65 55
REMARK SMILES IDX 50 56 53 57 64 58 80 59 51 60 52 61 63 63 81 64 54 65 41 66
REMARK SMILES IDX 42 67 47 68 43 69 44 70 46 71 48 72 45 73 67 74 68 75 73 76
REMARK SMILES IDX 69 77 70 78 72 79 74 80 71 81 55 82 56 83 61 84 57 85 58 86
REMARK SMILES IDX 60 87 62 88 59 89
REMARK H PARENT 11 12 79 51 53 62
REMARK Flexibility Score: inf
ROOT
ATOM      1  C   UNL     1       6.717  -1.400  -5.911  1.00  0.00     0.202 C 
ENDROOT
BRANCH   1   2
ATOM      2  C   UNL     1       5.507  -0.788  -6.621  1.00  0.00     0.261 C 
BRANCH   2   3
ATOM      3  O   UNL     1       4.249  -1.080  -5.982  1.00  0.00    -0.459 OA
BRANCH   3   4
ATOM      4  C   UNL     1       3.441  -1.923  -6.691  1.00  0.00     0.366 C 
ATOM      5  O   UNL     1       3.760  -2.397  -7.776  1.00  0.00    -0.245 OA
BRANCH   4   6
ATOM      6  C   UNL     1       2.057  -2.104  -6.031  1.00  0.00     0.315 C 
ATOM      7  N   UNL     1       0.714  -2.554  -3.923  1.00  0.00    -0.296 N 
ATOM      8  C   UNL     1      -0.269  -3.262  -4.731  1.00  0.00     0.184 C 
ATOM      9  C   UNL     1       2.052  -2.292  -4.491  1.00  0.00     0.200 C 
ATOM     10  C   UNL     1      -0.151  -3.067  -6.243  1.00  0.00     0.285 C 
ATOM     11  N   UNL     1       1.211  -3.088  -6.773  1.00  0.00    -0.316 N 
ATOM     12  H   UNL     1       1.225  -2.732  -7.729  1.00  0.00     0.349 HD
BRANCH   7  13
ATOM     13  C   UNL     1       0.466  -2.593  -2.558  1.00  0.00     0.410 C 
ATOM     14  O   UNL     1      -0.363  -3.357  -2.071  1.00  0.00    -0.224 OA
BRANCH  13  15
ATOM     15  O   UNL     1       1.136  -1.646  -1.851  1.00  0.00    -0.444 OA
BRANCH  15  16
ATOM     16  C   UNL     1       0.717  -1.388  -0.476  1.00  0.00     0.106 C 
ATOM     17  C   UNL     1       1.387  -0.062  -0.084  1.00  0.00     0.056 C 
ATOM     18  C   UNL     1       1.218  -2.494   0.459  1.00  0.00     0.056 C 
ATOM     19  C   UNL     1      -0.806  -1.186  -0.340  1.00  0.00     0.056 C 
ENDBRANCH  15  16
ENDBRANCH  13  15
ENDBRANCH   7  13
BRANCH  11  20
ATOM     20  C   UNL     1       1.736  -4.421  -7.111  1.00  0.00     0.301 C 
BRANCH  20  21
ATOM     21  C   UNL     1       2.036  -5.385  -5.995  1.00  0.00     0.025 A 
ATOM     22  C   UNL     1       1.054  -6.205  -5.432  1.00  0.00     0.014 A 
ATOM     23  C   UNL     1       3.326  -5.524  -5.498  1.00  0.00     0.122 A 
ATOM     24  C   UNL     1       1.360  -7.012  -4.340  1.00  0.00     0.041 A 
ATOM     25  N   UNL     1       3.662  -6.292  -4.437  1.00  0.00    -0.244 NA
ATOM     26  C   UNL     1       2.663  -7.003  -3.877  1.00  0.00     0.129 A 
ATOM     27  Cl  UNL     1       3.115  -7.925  -2.505  1.00  0.00    -0.062 Cl
ENDBRANCH  20  21
ENDBRANCH  11  20
ENDBRANCH   4   6
ENDBRANCH   3   4
ENDBRANCH   2   3
ENDBRANCH   1   2
BRANCH   1  28
ATOM     28  O   UNL     1       6.685  -2.794  -5.628  1.00  0.00    -0.374 OA
BRANCH  28  29
ATOM     29  C   UNL     1       5.876  -3.233  -4.539  1.00  0.00     0.202 C 
BRANCH  29  30
ATOM     30  C   UNL     1       6.346  -2.932  -3.113  1.00  0.00     0.261 C 
BRANCH  30  31
ATOM     31  O   UNL     1       6.429  -1.522  -2.854  1.00  0.00    -0.460 OA
BRANCH  31  32
ATOM     32  C   UNL     1       7.688  -1.066  -2.657  1.00  0.00     0.338 C 
ATOM     33  O   UNL     1       8.715  -1.726  -2.574  1.00  0.00    -0.246 OA
BRANCH  32  34
ATOM     34  C   UNL     1       7.710   0.403  -2.748  1.00  0.00     0.060 A 
ATOM     35  C   UNL     1       8.653   0.976  -3.611  1.00  0.00     0.016 A 
ATOM     36  C   UNL     1       6.878   1.206  -1.964  1.00  0.00     0.016 A 
ATOM     37  C   UNL     1       8.816   2.356  -3.646  1.00  0.00     0.010 A 
ATOM     38  C   UNL     1       7.051   2.592  -1.990  1.00  0.00     0.010 A 
ATOM     39  C   UNL     1       8.050   3.166  -2.798  1.00  0.00    -0.014 A 
BRANCH  39  40
ATOM     40  C   UNL     1       8.433   4.585  -2.627  1.00  0.00     0.031 A 
ATOM     41  C   UNL     1       9.323   4.955  -1.473  1.00  0.00     0.074 A 
ATOM     42  C   UNL     1       8.040   5.516  -3.512  1.00  0.00     0.049 A 
ATOM     43  N   UNL     1       9.790   6.127  -1.128  1.00  0.00    -0.248 NA
ATOM     44  C   UNL     1       9.743   3.854  -0.591  1.00  0.00     0.031 C 
ATOM     45  C   UNL     1       7.213   5.265  -4.691  1.00  0.00     0.029 A 
ATOM     46  N   UNL     1       8.288   6.863  -3.552  1.00  0.00    -0.354 N 
ATOM     47  C   UNL     1      10.556   5.905   0.009  1.00  0.00     0.074 A 
ATOM     48  C   UNL     1      10.468   4.494   0.314  1.00  0.00     0.031 C 
ATOM     49  C   UNL     1       7.014   6.427  -5.337  1.00  0.00     0.029 A 
ATOM     50  C   UNL     1       7.680   7.502  -4.603  1.00  0.00     0.049 A 
ATOM     51  H   UNL     1       8.848   7.328  -2.889  1.00  0.00     0.167 HD
ATOM     52  C   UNL     1      11.277   6.797   0.728  1.00  0.00     0.037 A 
ATOM     53  C   UNL     1       7.654   8.810  -4.923  1.00  0.00     0.037 A 
ATOM     54  C   UNL     1      11.362   8.199   0.423  1.00  0.00     0.049 A 
ATOM     55  C   UNL     1       8.409   9.793  -4.070  1.00  0.00     0.074 A 
ATOM     56  C   UNL     1      12.076   9.185   1.081  1.00  0.00     0.029 A 
ATOM     57  N   UNL     1      10.702   8.816  -0.629  1.00  0.00    -0.354 N 
ATOM     58  N   UNL     1       9.149   9.570  -3.010  1.00  0.00    -0.248 NA
ATOM     59  C   UNL     1       8.328  11.208  -4.459  1.00  0.00     0.031 C 
ATOM     60  C   UNL     1      11.814  10.406   0.451  1.00  0.00     0.029 A 
ATOM     61  C   UNL     1      10.972  10.173  -0.625  1.00  0.00     0.049 A 
ATOM     62  H   UNL     1      10.127   8.356  -1.283  1.00  0.00     0.167 HD
ATOM     63  C   UNL     1       9.640  10.810  -2.621  1.00  0.00     0.074 A 
ATOM     64  C   UNL     1       9.123  11.779  -3.565  1.00  0.00     0.031 C 
ATOM     65  C   UNL     1      10.449  11.120  -1.577  1.00  0.00     0.037 A 
BRANCH  52  66
ATOM     66  C   UNL     1      12.009   6.278   1.930  1.00  0.00     0.057 A 
ATOM     67  C   UNL     1      13.160   5.488   1.811  1.00  0.00     0.134 A 
ATOM     68  C   UNL     1      11.564   6.583   3.222  1.00  0.00     0.134 A 
ATOM     69  F   UNL     1      13.627   5.145   0.601  1.00  0.00    -0.206 F 
ATOM     70  C   UNL     1      13.830   5.002   2.935  1.00  0.00     0.040 A 
ATOM     71  C   UNL     1      12.238   6.122   4.353  1.00  0.00     0.040 A 
ATOM     72  F   UNL     1      10.468   7.335   3.405  1.00  0.00    -0.206 F 
ATOM     73  C   UNL     1      13.372   5.324   4.211  1.00  0.00     0.006 A 
ENDBRANCH  52  66
BRANCH  53  74
ATOM     74  C   UNL     1       6.880   9.268  -6.103  1.00  0.00     0.057 A 
ATOM     75  C   UNL     1       7.519   9.739  -7.254  1.00  0.00     0.134 A 
ATOM     76  C   UNL     1       5.479   9.254  -6.102  1.00  0.00     0.134 A 
ATOM     77  F   UNL     1       8.858   9.798  -7.306  1.00  0.00    -0.206 F 
ATOM     78  C   UNL     1       6.795  10.193  -8.358  1.00  0.00     0.040 A 
ATOM     79  C   UNL     1       4.743   9.683  -7.206  1.00  0.00     0.040 A 
ATOM     80  F   UNL     1       4.808   8.812  -5.028  1.00  0.00    -0.206 F 
ATOM     81  C   UNL     1       5.402  10.161  -8.337  1.00  0.00     0.006 A 
ENDBRANCH  53  74
BRANCH  65  82
ATOM     82  C   UNL     1      10.845  12.557  -1.419  1.00  0.00     0.057 A 
ATOM     83  C   UNL     1       9.947  13.521  -0.943  1.00  0.00     0.134 A 
ATOM     84  C   UNL     1      12.151  12.972  -1.706  1.00  0.00     0.134 A 
ATOM     85  F   UNL     1       8.678  13.189  -0.662  1.00  0.00    -0.206 F 
ATOM     86  C   UNL     1      10.331  14.852  -0.775  1.00  0.00     0.040 A 
ATOM     87  C   UNL     1      12.553  14.295  -1.520  1.00  0.00     0.040 A 
ATOM     88  F   UNL     1      13.061  12.096  -2.157  1.00  0.00    -0.206 F 
ATOM     89  C   UNL     1      11.640  15.241  -1.058  1.00  0.00     0.006 A 
ENDBRANCH  65  82
ENDBRANCH  39  40
ENDBRANCH  32  34
ENDBRANCH  31  32
ENDBRANCH  30  31
ENDBRANCH  29  30
ENDBRANCH  28  29
ENDBRANCH   1  28
TORSDOF 19
