REMARK SMILES COc1ccccc1-c1ccc(C(=O)OCCOCCOC(=O)c2ccc(-c3c4nc(c(-c5c(F)cccc5F)c5ccc([nH]5)c(-c5c(F)cccc5F)c5nc(c(-c6c(F)cccc6F)c6ccc3[nH]6)C=C5)C=C4)cc2)c(O)c1
REMARK SMILES IDX 18 1 17 2 16 3 15 4 13 5 14 6 12 7 9 8 10 9 80 10 11 11
REMARK SMILES IDX 78 12 8 13 3 14 4 15 5 16 7 17 6 18 2 19 1 20 79 21 19 23
REMARK SMILES IDX 20 24 21 25 22 26 23 27 24 28 25 29 77 30 26 31 76 32 27 33
REMARK SMILES IDX 28 34 29 35 70 36 30 37 75 38 69 39 71 40 31 41 74 42 68 43
REMARK SMILES IDX 67 44 32 46 58 47 41 48 57 49 42 50 45 51 56 52 72 53 43 54
REMARK SMILES IDX 44 55 55 57 73 58 46 59 33 60 34 61 39 62 35 63 36 64 38 65
REMARK SMILES IDX 40 66 37 67 59 68 60 69 65 70 61 71 62 72 64 73 66 74 63 75
REMARK SMILES IDX 47 76 48 77 53 78 49 79 50 80 52 81 54 82 51 83
REMARK H PARENT 79 22 71 45 45 56
REMARK Flexibility Score: inf
ROOT
ATOM      1  O   UNL     1       8.598  -1.402  -2.544  1.00  0.00    -0.374 OA
ENDROOT
BRANCH   1   2
ATOM      2  C   UNL     1       8.177  -0.438  -3.511  1.00  0.00     0.202 C 
BRANCH   2   3
ATOM      3  C   UNL     1       6.693  -0.459  -3.877  1.00  0.00     0.261 C 
BRANCH   3   4
ATOM      4  O   UNL     1       5.905  -0.075  -2.742  1.00  0.00    -0.460 OA
BRANCH   4   5
ATOM      5  C   UNL     1       4.958  -0.964  -2.373  1.00  0.00     0.341 C 
ATOM      6  O   UNL     1       4.610  -1.956  -2.998  1.00  0.00    -0.246 OA
BRANCH   5   7
ATOM      7  C   UNL     1       4.493  -0.715  -0.991  1.00  0.00     0.101 A 
ATOM      8  C   UNL     1       3.245  -0.500   1.516  1.00  0.00    -0.011 A 
ATOM      9  C   UNL     1       3.662  -1.750   1.038  1.00  0.00     0.010 A 
ATOM     10  C   UNL     1       3.588   0.653   0.787  1.00  0.00     0.056 A 
ATOM     11  C   UNL     1       4.273  -1.857  -0.208  1.00  0.00     0.020 A 
ATOM     12  C   UNL     1       4.199   0.547  -0.468  1.00  0.00     0.130 A 
BRANCH   8  13
ATOM     13  C   UNL     1       2.298  -0.441   2.640  1.00  0.00     0.024 A 
ATOM     14  C   UNL     1       0.982   0.042   2.469  1.00  0.00     0.126 A 
ATOM     15  C   UNL     1       0.065   0.025   3.523  1.00  0.00     0.047 A 
ATOM     16  C   UNL     1       0.431  -0.503   4.758  1.00  0.00     0.004 A 
ATOM     17  C   UNL     1       2.649  -0.955   3.901  1.00  0.00     0.012 A 
ATOM     18  C   UNL     1       1.723  -0.987   4.949  1.00  0.00     0.001 A 
BRANCH  14  19
ATOM     19  O   UNL     1       0.540   0.614   1.299  1.00  0.00    -0.496 OA
ATOM     20  C   UNL     1       0.324  -0.352   0.267  1.00  0.00     0.278 C 
ENDBRANCH  14  19
ENDBRANCH   8  13
BRANCH  12  21
ATOM     21  O   UNL     1       4.421   1.680  -1.197  1.00  0.00    -0.507 OA
ATOM     22  H   UNL     1       4.829   1.623  -2.039  1.00  0.00     0.293 HD
ENDBRANCH  12  21
ENDBRANCH   5   7
ENDBRANCH   4   5
ENDBRANCH   3   4
ENDBRANCH   2   3
ENDBRANCH   1   2
BRANCH   1  23
ATOM     23  C   UNL     1       8.277  -1.147  -1.176  1.00  0.00     0.202 C 
BRANCH  23  24
ATOM     24  C   UNL     1       9.155  -0.124  -0.446  1.00  0.00     0.261 C 
BRANCH  24  25
ATOM     25  O   UNL     1       8.991   1.209  -0.962  1.00  0.00    -0.460 OA
BRANCH  25  26
ATOM     26  C   UNL     1      10.050   1.686  -1.654  1.00  0.00     0.338 C 
ATOM     27  O   UNL     1      11.136   1.145  -1.819  1.00  0.00    -0.246 OA
BRANCH  26  28
ATOM     28  C   UNL     1       9.677   2.925  -2.358  1.00  0.00     0.060 A 
ATOM     29  C   UNL     1       9.917   2.986  -3.738  1.00  0.00     0.016 A 
ATOM     30  C   UNL     1       9.177   4.035  -1.674  1.00  0.00     0.016 A 
ATOM     31  C   UNL     1       9.703   4.175  -4.431  1.00  0.00     0.010 A 
ATOM     32  C   UNL     1       8.974   5.231  -2.370  1.00  0.00     0.010 A 
ATOM     33  C   UNL     1       9.269   5.314  -3.743  1.00  0.00    -0.014 A 
BRANCH  33  34
ATOM     34  C   UNL     1       9.268   6.629  -4.428  1.00  0.00     0.031 A 
ATOM     35  C   UNL     1      10.427   7.562  -4.211  1.00  0.00     0.074 A 
ATOM     36  C   UNL     1       8.260   6.980  -5.244  1.00  0.00     0.049 A 
ATOM     37  N   UNL     1      10.610   8.777  -4.660  1.00  0.00    -0.248 NA
ATOM     38  C   UNL     1      11.526   7.057  -3.372  1.00  0.00     0.031 C 
ATOM     39  C   UNL     1       7.104   6.146  -5.566  1.00  0.00     0.029 A 
ATOM     40  N   UNL     1       8.047   8.140  -5.944  1.00  0.00    -0.354 N 
ATOM     41  C   UNL     1      11.837   9.185  -4.154  1.00  0.00     0.074 A 
ATOM     42  C   UNL     1      12.343   8.099  -3.342  1.00  0.00     0.031 C 
ATOM     43  C   UNL     1       6.292   6.829  -6.392  1.00  0.00     0.029 A 
ATOM     44  C   UNL     1       6.857   8.156  -6.630  1.00  0.00     0.049 A 
ATOM     45  H   UNL     1       8.685   8.889  -5.954  1.00  0.00     0.167 HD
ATOM     46  C   UNL     1      12.487  10.356  -4.353  1.00  0.00     0.037 A 
ATOM     47  C   UNL     1       6.282   9.140  -7.347  1.00  0.00     0.037 A 
ATOM     48  C   UNL     1      11.984  11.434  -5.163  1.00  0.00     0.049 A 
ATOM     49  C   UNL     1       6.993  10.459  -7.499  1.00  0.00     0.074 A 
ATOM     50  C   UNL     1      12.576  12.654  -5.440  1.00  0.00     0.029 A 
ATOM     51  N   UNL     1      10.764  11.421  -5.822  1.00  0.00    -0.354 N 
ATOM     52  N   UNL     1       8.160  10.829  -7.032  1.00  0.00    -0.248 NA
ATOM     53  C   UNL     1       6.305  11.497  -8.281  1.00  0.00     0.031 C 
ATOM     54  C   UNL     1      11.694  13.397  -6.231  1.00  0.00     0.029 A 
ATOM     55  C   UNL     1      10.575  12.622  -6.486  1.00  0.00     0.049 A 
ATOM     56  H   UNL     1      10.127  10.671  -5.818  1.00  0.00     0.167 HD
ATOM     57  C   UNL     1       8.360  12.126  -7.486  1.00  0.00     0.074 A 
ATOM     58  C   UNL     1       7.197  12.478  -8.273  1.00  0.00     0.031 C 
ATOM     59  C   UNL     1       9.415  12.952  -7.274  1.00  0.00     0.037 A 
BRANCH  46  60
ATOM     60  C   UNL     1      13.805  10.540  -3.660  1.00  0.00     0.057 A 
ATOM     61  C   UNL     1      14.959   9.860  -4.071  1.00  0.00     0.134 A 
ATOM     62  C   UNL     1      13.926  11.430  -2.585  1.00  0.00     0.134 A 
ATOM     63  F   UNL     1      14.906   8.982  -5.084  1.00  0.00    -0.206 F 
ATOM     64  C   UNL     1      16.182  10.042  -3.423  1.00  0.00     0.040 A 
ATOM     65  C   UNL     1      15.149  11.638  -1.946  1.00  0.00     0.040 A 
ATOM     66  F   UNL     1      12.861  12.115  -2.144  1.00  0.00    -0.206 F 
ATOM     67  C   UNL     1      16.280  10.939  -2.361  1.00  0.00     0.006 A 
ENDBRANCH  46  60
BRANCH  47  68
ATOM     68  C   UNL     1       4.951   8.924  -7.967  1.00  0.00     0.057 A 
ATOM     69  C   UNL     1       4.805   8.825  -9.355  1.00  0.00     0.134 A 
ATOM     70  C   UNL     1       3.792   8.829  -7.187  1.00  0.00     0.134 A 
ATOM     71  F   UNL     1       5.875   8.934 -10.155  1.00  0.00    -0.206 F 
ATOM     72  C   UNL     1       3.552   8.653  -9.947  1.00  0.00     0.040 A 
ATOM     73  C   UNL     1       2.537   8.633  -7.764  1.00  0.00     0.040 A 
ATOM     74  F   UNL     1       3.866   8.917  -5.851  1.00  0.00    -0.206 F 
ATOM     75  C   UNL     1       2.414   8.552  -9.149  1.00  0.00     0.006 A 
ENDBRANCH  47  68
BRANCH  59  76
ATOM     76  C   UNL     1       9.379  14.299  -7.933  1.00  0.00     0.057 A 
ATOM     77  C   UNL     1       8.543  15.325  -7.476  1.00  0.00     0.134 A 
ATOM     78  C   UNL     1      10.227  14.586  -9.011  1.00  0.00     0.134 A 
ATOM     79  F   UNL     1       7.699  15.112  -6.455  1.00  0.00    -0.206 F 
ATOM     80  C   UNL     1       8.538  16.584  -8.080  1.00  0.00     0.040 A 
ATOM     81  C   UNL     1      10.248  15.847  -9.607  1.00  0.00     0.040 A 
ATOM     82  F   UNL     1      11.059  13.649  -9.491  1.00  0.00    -0.206 F 
ATOM     83  C   UNL     1       9.398  16.849  -9.145  1.00  0.00     0.006 A 
ENDBRANCH  59  76
ENDBRANCH  33  34
ENDBRANCH  26  28
ENDBRANCH  25  26
ENDBRANCH  24  25
ENDBRANCH  23  24
ENDBRANCH   1  23
TORSDOF 17
