REMARK SMILES CC(C)[NH2+][C@]1(C(=O)OCCOCCOC(=O)c2ccc(-c3c4nc(c(-c5c(F)cccc5F)c5ccc([nH]5)c(-c5c(F)cccc5F)c5nc(c(-c6c(F)cccc6F)c6ccc3[nH]6)C=C5)C=C4)cc2)CC[C@H]([N@H+](C)C2CCCC2)C1
REMARK SMILES IDX 11 1 10 2 9 3 8 4 6 5 7 6 5 7 71 8 81 9 72 10 73 11 4 12
REMARK SMILES IDX 2 15 1 16 3 17 74 18 75 19 76 21 77 22 80 23 78 24 79 25
REMARK SMILES IDX 12 26 13 27 14 28 15 29 16 30 17 31 18 32 70 33 19 34 69 35
REMARK SMILES IDX 20 36 21 37 22 38 63 39 23 40 68 41 62 42 64 43 24 44 67 45
REMARK SMILES IDX 61 46 60 47 25 49 51 50 34 51 50 52 35 53 38 54 49 55 65 56
REMARK SMILES IDX 36 57 37 58 48 60 66 61 39 62 26 63 27 64 32 65 28 66 29 67
REMARK SMILES IDX 31 68 33 69 30 70 52 71 53 72 58 73 54 74 55 75 57 76 59 77
REMARK SMILES IDX 56 78 40 79 41 80 46 81 42 82 43 83 45 84 47 85 44 86
REMARK H PARENT 4 13 4 14 74 20 64 48 38 59
REMARK Flexibility Score: inf
ROOT
ATOM      1  O   UNL     1       1.035  -1.474   0.678  1.00  0.00    -0.374 OA
ENDROOT
BRANCH   1   2
ATOM      2  C   UNL     1       1.135  -0.686  -0.506  1.00  0.00     0.202 C 
BRANCH   2   3
ATOM      3  C   UNL     1      -0.047   0.208  -0.891  1.00  0.00     0.261 C 
BRANCH   3   4
ATOM      4  O   UNL     1      -0.288   1.281   0.046  1.00  0.00    -0.459 OA
BRANCH   4   5
ATOM      5  C   UNL     1      -1.522   1.229   0.634  1.00  0.00     0.368 C 
ATOM      6  O   UNL     1      -2.351   0.362   0.367  1.00  0.00    -0.245 OA
BRANCH   5   7
ATOM      7  C   UNL     1      -1.742   2.316   1.744  1.00  0.00     0.200 C 
ATOM      8  C   UNL     1      -1.657   3.748   1.200  1.00  0.00     0.087 C 
ATOM      9  C   UNL     1      -3.249   2.199   2.072  1.00  0.00     0.146 C 
ATOM     10  C   UNL     1      -2.733   4.563   1.940  1.00  0.00     0.072 C 
ATOM     11  C   UNL     1      -3.830   3.578   2.406  1.00  0.00     0.191 C 
BRANCH   7  12
ATOM     12  N   UNL     1      -0.731   2.071   2.804  1.00  0.00    -0.330 N 
ATOM     13  H   UNL     1      -0.458   1.092   2.717  1.00  0.00     0.347 HD
ATOM     14  H   UNL     1      -0.040   2.796   2.614  1.00  0.00     0.347 HD
BRANCH  12  15
ATOM     15  C   UNL     1      -1.023   2.288   4.211  1.00  0.00     0.176 C 
ATOM     16  C   UNL     1      -0.316   1.210   5.041  1.00  0.00     0.075 C 
ATOM     17  C   UNL     1      -0.579   3.654   4.727  1.00  0.00     0.075 C 
ENDBRANCH  12  15
ENDBRANCH   7  12
BRANCH  11  18
ATOM     18  N   UNL     1      -4.361   3.900   3.753  1.00  0.00    -0.332 N 
ATOM     19  C   UNL     1      -4.416   2.810   4.734  1.00  0.00     0.333 C 
ATOM     20  H   UNL     1      -3.645   4.542   4.094  1.00  0.00     0.348 HD
BRANCH  18  21
ATOM     21  C   UNL     1      -5.684   4.558   3.703  1.00  0.00     0.184 C 
ATOM     22  C   UNL     1      -6.207   5.048   5.067  1.00  0.00     0.065 C 
ATOM     23  C   UNL     1      -5.785   5.858   2.894  1.00  0.00     0.065 C 
ATOM     24  C   UNL     1      -7.444   5.850   4.692  1.00  0.00     0.006 C 
ATOM     25  C   UNL     1      -7.129   6.455   3.325  1.00  0.00     0.006 C 
ENDBRANCH  18  21
ENDBRANCH  11  18
ENDBRANCH   5   7
ENDBRANCH   4   5
ENDBRANCH   3   4
ENDBRANCH   2   3
ENDBRANCH   1   2
BRANCH   1  26
ATOM     26  C   UNL     1       0.966  -0.791   1.926  1.00  0.00     0.202 C 
BRANCH  26  27
ATOM     27  C   UNL     1       2.251  -0.118   2.429  1.00  0.00     0.261 C 
BRANCH  27  28
ATOM     28  O   UNL     1       2.825   0.797   1.480  1.00  0.00    -0.460 OA
BRANCH  28  29
ATOM     29  C   UNL     1       4.044   0.418   1.020  1.00  0.00     0.338 C 
ATOM     30  O   UNL     1       4.735  -0.503   1.419  1.00  0.00    -0.246 OA
BRANCH  29  31
ATOM     31  C   UNL     1       4.392   1.170  -0.200  1.00  0.00     0.060 A 
ATOM     32  C   UNL     1       4.655   0.415  -1.349  1.00  0.00     0.016 A 
ATOM     33  C   UNL     1       4.563   2.555  -0.202  1.00  0.00     0.016 A 
ATOM     34  C   UNL     1       5.159   1.036  -2.486  1.00  0.00     0.010 A 
ATOM     35  C   UNL     1       5.079   3.178  -1.346  1.00  0.00     0.010 A 
ATOM     36  C   UNL     1       5.424   2.412  -2.474  1.00  0.00    -0.014 A 
BRANCH  36  37
ATOM     37  C   UNL     1       6.221   2.974  -3.591  1.00  0.00     0.031 A 
ATOM     38  C   UNL     1       7.709   3.121  -3.423  1.00  0.00     0.074 A 
ATOM     39  C   UNL     1       5.647   3.233  -4.779  1.00  0.00     0.049 A 
ATOM     40  N   UNL     1       8.617   3.442  -4.310  1.00  0.00    -0.248 NA
ATOM     41  C   UNL     1       8.248   2.865  -2.078  1.00  0.00     0.031 C 
ATOM     42  C   UNL     1       4.221   3.104  -5.072  1.00  0.00     0.029 A 
ATOM     43  N   UNL     1       6.202   3.635  -5.967  1.00  0.00    -0.354 N 
ATOM     44  C   UNL     1       9.831   3.414  -3.635  1.00  0.00     0.074 A 
ATOM     45  C   UNL     1       9.541   3.087  -2.256  1.00  0.00     0.031 C 
ATOM     46  C   UNL     1       4.014   3.406  -6.366  1.00  0.00     0.029 A 
ATOM     47  C   UNL     1       5.291   3.756  -6.986  1.00  0.00     0.049 A 
ATOM     48  H   UNL     1       7.163   3.819  -6.078  1.00  0.00     0.167 HD
ATOM     49  C   UNL     1      11.077   3.623  -4.123  1.00  0.00     0.037 A 
ATOM     50  C   UNL     1       5.470   4.098  -8.276  1.00  0.00     0.037 A 
ATOM     51  C   UNL     1      11.368   3.950  -5.494  1.00  0.00     0.049 A 
ATOM     52  C   UNL     1       6.861   4.360  -8.786  1.00  0.00     0.074 A 
ATOM     53  C   UNL     1      12.598   4.175  -6.087  1.00  0.00     0.029 A 
ATOM     54  N   UNL     1      10.412   4.104  -6.486  1.00  0.00    -0.354 N 
ATOM     55  N   UNL     1       8.004   4.294  -8.147  1.00  0.00    -0.248 NA
ATOM     56  C   UNL     1       6.987   4.729 -10.204  1.00  0.00     0.031 C 
ATOM     57  C   UNL     1      12.383   4.502  -7.430  1.00  0.00     0.029 A 
ATOM     58  C   UNL     1      11.023   4.438  -7.684  1.00  0.00     0.049 A 
ATOM     59  H   UNL     1       9.442   3.991  -6.359  1.00  0.00     0.167 HD
ATOM     60  C   UNL     1       8.984   4.588  -9.087  1.00  0.00     0.074 A 
ATOM     61  C   UNL     1       8.302   4.815 -10.344  1.00  0.00     0.031 C 
ATOM     62  C   UNL     1      10.329   4.662  -8.925  1.00  0.00     0.037 A 
BRANCH  49  63
ATOM     63  C   UNL     1      12.220   3.518  -3.156  1.00  0.00     0.057 A 
ATOM     64  C   UNL     1      12.654   2.282  -2.659  1.00  0.00     0.134 A 
ATOM     65  C   UNL     1      12.908   4.663  -2.737  1.00  0.00     0.134 A 
ATOM     66  F   UNL     1      12.027   1.150  -3.010  1.00  0.00    -0.206 F 
ATOM     67  C   UNL     1      13.720   2.192  -1.762  1.00  0.00     0.040 A 
ATOM     68  C   UNL     1      13.990   4.582  -1.858  1.00  0.00     0.040 A 
ATOM     69  F   UNL     1      12.543   5.876  -3.177  1.00  0.00    -0.206 F 
ATOM     70  C   UNL     1      14.395   3.344  -1.364  1.00  0.00     0.006 A 
ENDBRANCH  49  63
BRANCH  50  71
ATOM     71  C   UNL     1       4.302   4.192  -9.186  1.00  0.00     0.057 A 
ATOM     72  C   UNL     1       4.100   3.262 -10.212  1.00  0.00     0.134 A 
ATOM     73  C   UNL     1       3.368   5.227  -9.060  1.00  0.00     0.134 A 
ATOM     74  F   UNL     1       4.973   2.261 -10.398  1.00  0.00    -0.206 F 
ATOM     75  C   UNL     1       3.020   3.367 -11.091  1.00  0.00     0.040 A 
ATOM     76  C   UNL     1       2.271   5.331  -9.916  1.00  0.00     0.040 A 
ATOM     77  F   UNL     1       3.505   6.149  -8.095  1.00  0.00    -0.206 F 
ATOM     78  C   UNL     1       2.099   4.402 -10.940  1.00  0.00     0.006 A 
ENDBRANCH  50  71
BRANCH  62  79
ATOM     79  C   UNL     1      11.146   4.977 -10.144  1.00  0.00     0.057 A 
ATOM     80  C   UNL     1      11.160   6.257 -10.713  1.00  0.00     0.134 A 
ATOM     81  C   UNL     1      11.939   3.993 -10.746  1.00  0.00     0.134 A 
ATOM     82  F   UNL     1      10.413   7.242 -10.191  1.00  0.00    -0.206 F 
ATOM     83  C   UNL     1      11.910   6.538 -11.856  1.00  0.00     0.040 A 
ATOM     84  C   UNL     1      12.713   4.268 -11.874  1.00  0.00     0.040 A 
ATOM     85  F   UNL     1      11.979   2.749 -10.245  1.00  0.00    -0.206 F 
ATOM     86  C   UNL     1      12.692   5.542 -12.438  1.00  0.00     0.006 A 
ENDBRANCH  62  79
ENDBRANCH  36  37
ENDBRANCH  29  31
ENDBRANCH  28  29
ENDBRANCH  27  28
ENDBRANCH  26  27
ENDBRANCH   1  26
TORSDOF 18
