REMARK SMILES O=C1CC[C@@H](CC(=O)N2CCC(Oc3ccccc3)(C(=O)OCCOCCOC(=O)c3ccc(-c4c5nc(c(-c6c(F)cccc6F)c6ccc([nH]6)c(-c6c(F)cccc6F)c6nc(c(-c7c(F)cccc7F)c7ccc4[nH]7)C=C6)C=C5)cc3)CC2)N1
REMARK SMILES IDX 25 1 24 2 23 3 22 4 20 5 21 6 12 7 7 8 8 9 9 10 10 11 86 12
REMARK SMILES IDX 11 13 85 14 6 15 5 16 1 17 2 18 3 19 87 20 4 21 13 23 14 24
REMARK SMILES IDX 15 25 19 26 16 27 18 28 17 29 26 30 27 31 28 32 29 33 30 34
REMARK SMILES IDX 31 35 32 36 84 37 33 38 83 39 34 40 35 41 36 42 77 43 37 44
REMARK SMILES IDX 82 45 76 46 78 47 38 48 81 49 75 50 74 51 39 53 65 54 48 55
REMARK SMILES IDX 64 56 49 57 52 58 63 59 79 60 50 61 51 62 62 64 80 65 53 66
REMARK SMILES IDX 40 67 41 68 46 69 42 70 43 71 45 72 47 73 44 74 66 75 67 76
REMARK SMILES IDX 72 77 68 78 69 79 71 80 73 81 70 82 54 83 55 84 60 85 56 86
REMARK SMILES IDX 57 87 59 88 61 89 58 90
REMARK H PARENT 87 22 78 52 52 63
REMARK Flexibility Score: inf
ROOT
ATOM      1  O   UNL     1      -1.092   4.386  -4.169  1.00  0.00    -0.374 OA
ENDROOT
BRANCH   1   2
ATOM      2  C   UNL     1      -0.164   4.516  -5.248  1.00  0.00     0.202 C 
BRANCH   2   3
ATOM      3  C   UNL     1       1.230   3.901  -5.083  1.00  0.00     0.261 C 
BRANCH   3   4
ATOM      4  O   UNL     1       1.216   2.458  -5.156  1.00  0.00    -0.460 OA
BRANCH   4   5
ATOM      5  C   UNL     1       1.803   1.801  -4.114  1.00  0.00     0.350 C 
ATOM      6  O   UNL     1       2.277   2.378  -3.138  1.00  0.00    -0.247 OA
BRANCH   5   7
ATOM      7  C   UNL     1       1.812   0.258  -4.266  1.00  0.00     0.209 C 
ATOM      8  C   UNL     1      -1.521  -1.776  -2.315  1.00  0.00     0.224 C 
ATOM      9  O   UNL     1      -2.004  -2.726  -2.954  1.00  0.00    -0.275 OA
ATOM     10  N   UNL     1      -0.579  -0.970  -2.939  1.00  0.00    -0.342 N 
ATOM     11  C   UNL     1      -0.303  -1.258  -4.353  1.00  0.00     0.124 C 
ATOM     12  C   UNL     1       0.405  -0.177  -2.240  1.00  0.00     0.124 C 
ATOM     13  C   UNL     1       0.626  -0.285  -5.095  1.00  0.00     0.082 C 
ATOM     14  C   UNL     1       1.786  -0.326  -2.841  1.00  0.00     0.082 C 
BRANCH   8  15
ATOM     15  C   UNL     1      -2.161  -1.513  -0.940  1.00  0.00     0.125 C 
BRANCH  15  16
ATOM     16  C   UNL     1      -1.620  -0.806   0.299  1.00  0.00     0.091 C 
ATOM     17  O   UNL     1       1.535  -0.223   1.714  1.00  0.00    -0.275 OA
ATOM     18  C   UNL     1       0.423  -0.130   1.224  1.00  0.00     0.220 C 
ATOM     19  C   UNL     1      -0.340   1.146   0.982  1.00  0.00     0.102 C 
ATOM     20  N   UNL     1      -0.327  -1.192   0.769  1.00  0.00    -0.353 N 
ATOM     21  C   UNL     1      -1.601   0.716   0.234  1.00  0.00     0.035 C 
ATOM     22  H   UNL     1      -0.004  -2.122   0.767  1.00  0.00     0.163 HD
ENDBRANCH  15  16
ENDBRANCH   8  15
BRANCH   7  23
ATOM     23  O   UNL     1       3.058   0.087  -4.999  1.00  0.00    -0.475 OA
BRANCH  23  24
ATOM     24  C   UNL     1       3.775  -1.032  -4.688  1.00  0.00     0.121 A 
ATOM     25  C   UNL     1       4.708  -0.994  -3.650  1.00  0.00     0.046 A 
ATOM     26  C   UNL     1       3.605  -2.188  -5.443  1.00  0.00     0.046 A 
ATOM     27  C   UNL     1       5.413  -2.149  -3.312  1.00  0.00     0.004 A 
ATOM     28  C   UNL     1       4.322  -3.338  -5.112  1.00  0.00     0.004 A 
ATOM     29  C   UNL     1       5.214  -3.322  -4.039  1.00  0.00     0.000 A 
ENDBRANCH  23  24
ENDBRANCH   7  23
ENDBRANCH   5   7
ENDBRANCH   4   5
ENDBRANCH   3   4
ENDBRANCH   2   3
ENDBRANCH   1   2
BRANCH   1  30
ATOM     30  C   UNL     1      -1.417   3.077  -3.722  1.00  0.00     0.202 C 
BRANCH  30  31
ATOM     31  C   UNL     1      -2.345   2.228  -4.604  1.00  0.00     0.261 C 
BRANCH  31  32
ATOM     32  O   UNL     1      -2.026   2.292  -6.001  1.00  0.00    -0.460 OA
BRANCH  32  33
ATOM     33  C   UNL     1      -2.935   2.972  -6.744  1.00  0.00     0.338 C 
ATOM     34  O   UNL     1      -4.016   3.405  -6.383  1.00  0.00    -0.246 OA
BRANCH  33  35
ATOM     35  C   UNL     1      -2.365   3.293  -8.063  1.00  0.00     0.060 A 
ATOM     36  C   UNL     1      -2.225   4.649  -8.383  1.00  0.00     0.016 A 
ATOM     37  C   UNL     1      -2.040   2.303  -8.993  1.00  0.00     0.016 A 
ATOM     38  C   UNL     1      -1.788   5.021  -9.650  1.00  0.00     0.010 A 
ATOM     39  C   UNL     1      -1.612   2.681 -10.272  1.00  0.00     0.010 A 
ATOM     40  C   UNL     1      -1.512   4.041 -10.613  1.00  0.00    -0.014 A 
BRANCH  40  41
ATOM     41  C   UNL     1      -1.230   4.473 -12.003  1.00  0.00     0.031 A 
ATOM     42  C   UNL     1      -2.345   4.489 -13.010  1.00  0.00     0.074 A 
ATOM     43  C   UNL     1      -0.010   4.926 -12.338  1.00  0.00     0.049 A 
ATOM     44  N   UNL     1      -2.341   4.926 -14.244  1.00  0.00    -0.248 NA
ATOM     45  C   UNL     1      -3.637   3.944 -12.566  1.00  0.00     0.031 C 
ATOM     46  C   UNL     1       1.142   4.985 -11.440  1.00  0.00     0.029 A 
ATOM     47  N   UNL     1       0.457   5.438 -13.521  1.00  0.00    -0.354 N 
ATOM     48  C   UNL     1      -3.629   4.720 -14.721  1.00  0.00     0.074 A 
ATOM     49  C   UNL     1      -4.376   4.082 -13.657  1.00  0.00     0.031 C 
ATOM     50  C   UNL     1       2.183   5.516 -12.103  1.00  0.00     0.029 A 
ATOM     51  C   UNL     1       1.775   5.817 -13.474  1.00  0.00     0.049 A 
ATOM     52  H   UNL     1      -0.101   5.526 -14.328  1.00  0.00     0.167 HD
ATOM     53  C   UNL     1      -4.146   5.045 -15.930  1.00  0.00     0.037 A 
ATOM     54  C   UNL     1       2.563   6.347 -14.429  1.00  0.00     0.037 A 
ATOM     55  C   UNL     1      -3.398   5.669 -16.991  1.00  0.00     0.049 A 
ATOM     56  C   UNL     1       1.982   6.639 -15.786  1.00  0.00     0.074 A 
ATOM     57  C   UNL     1      -3.837   6.058 -18.244  1.00  0.00     0.029 A 
ATOM     58  N   UNL     1      -2.048   5.981 -16.926  1.00  0.00    -0.354 N 
ATOM     59  N   UNL     1       0.752   6.482 -16.212  1.00  0.00    -0.248 NA
ATOM     60  C   UNL     1       2.901   7.189 -16.794  1.00  0.00     0.031 C 
ATOM     61  C   UNL     1      -2.741   6.559 -18.956  1.00  0.00     0.029 A 
ATOM     62  C   UNL     1      -1.630   6.528 -18.128  1.00  0.00     0.049 A 
ATOM     63  H   UNL     1      -1.472   5.835 -16.141  1.00  0.00     0.167 HD
ATOM     64  C   UNL     1       0.743   6.929 -17.527  1.00  0.00     0.074 A 
ATOM     65  C   UNL     1       2.087   7.383 -17.822  1.00  0.00     0.031 C 
ATOM     66  C   UNL     1      -0.285   6.963 -18.411  1.00  0.00     0.037 A 
BRANCH  53  67
ATOM     67  C   UNL     1      -5.588   4.705 -16.173  1.00  0.00     0.057 A 
ATOM     68  C   UNL     1      -6.629   5.399 -15.543  1.00  0.00     0.134 A 
ATOM     69  C   UNL     1      -5.939   3.677 -17.056  1.00  0.00     0.134 A 
ATOM     70  F   UNL     1      -6.361   6.385 -14.674  1.00  0.00    -0.206 F 
ATOM     71  C   UNL     1      -7.967   5.065 -15.762  1.00  0.00     0.040 A 
ATOM     72  C   UNL     1      -7.274   3.350 -17.303  1.00  0.00     0.040 A 
ATOM     73  F   UNL     1      -4.992   2.974 -17.696  1.00  0.00    -0.206 F 
ATOM     74  C   UNL     1      -8.292   4.040 -16.648  1.00  0.00     0.006 A 
ENDBRANCH  53  67
BRANCH  54  75
ATOM     75  C   UNL     1       3.986   6.644 -14.132  1.00  0.00     0.057 A 
ATOM     76  C   UNL     1       4.448   7.961 -14.035  1.00  0.00     0.134 A 
ATOM     77  C   UNL     1       4.917   5.617 -13.939  1.00  0.00     0.134 A 
ATOM     78  F   UNL     1       3.608   8.988 -14.232  1.00  0.00    -0.206 F 
ATOM     79  C   UNL     1       5.788   8.247 -13.766  1.00  0.00     0.040 A 
ATOM     80  C   UNL     1       6.254   5.888 -13.646  1.00  0.00     0.040 A 
ATOM     81  F   UNL     1       4.536   4.334 -14.019  1.00  0.00    -0.206 F 
ATOM     82  C   UNL     1       6.694   7.208 -13.564  1.00  0.00     0.006 A 
ENDBRANCH  54  75
BRANCH  66  83
ATOM     83  C   UNL     1       0.006   7.518 -19.776  1.00  0.00     0.057 A 
ATOM     84  C   UNL     1       0.776   6.813 -20.710  1.00  0.00     0.134 A 
ATOM     85  C   UNL     1      -0.508   8.760 -20.168  1.00  0.00     0.134 A 
ATOM     86  F   UNL     1       1.309   5.623 -20.393  1.00  0.00    -0.206 F 
ATOM     87  C   UNL     1       1.048   7.338 -21.975  1.00  0.00     0.040 A 
ATOM     88  C   UNL     1      -0.266   9.283 -21.439  1.00  0.00     0.040 A 
ATOM     89  F   UNL     1      -1.262   9.483 -19.325  1.00  0.00    -0.206 F 
ATOM     90  C   UNL     1       0.521   8.574 -22.344  1.00  0.00     0.006 A 
ENDBRANCH  66  83
ENDBRANCH  40  41
ENDBRANCH  33  35
ENDBRANCH  32  33
ENDBRANCH  31  32
ENDBRANCH  30  31
ENDBRANCH   1  30
TORSDOF 18
