REMARK SMILES CC(C)OCCS(=O)(=O)N1CCC[C@H](C(=O)OCCOCCOC(=O)c2ccc(-c3c4nc(c(-c5c(F)cccc5F)c5ccc([nH]5)c(-c5c(F)cccc5F)c5nc(c(-c6c(F)cccc6F)c6ccc3[nH]6)C=C5)C=C4)cc2)C1
REMARK SMILES IDX 18 1 17 2 15 3 16 4 14 5 10 6 11 7 80 8 12 9 13 10 7 11 8 12
REMARK SMILES IDX 9 13 6 14 5 15 4 16 2 17 1 18 3 19 19 20 20 21 21 22 22 23
REMARK SMILES IDX 23 24 24 25 25 26 26 27 27 28 79 29 28 30 78 31 29 32 30 33
REMARK SMILES IDX 31 34 72 35 32 36 77 37 71 38 73 39 33 40 76 41 70 42 69 43
REMARK SMILES IDX 34 45 60 46 43 47 59 48 44 49 47 50 58 51 74 52 45 53 46 54
REMARK SMILES IDX 57 56 75 57 48 58 35 59 36 60 41 61 37 62 38 63 40 64 42 65
REMARK SMILES IDX 39 66 61 67 62 68 67 69 63 70 64 71 66 72 68 73 65 74 49 75
REMARK SMILES IDX 50 76 55 77 51 78 52 79 54 80 56 81 53 82
REMARK H PARENT 73 44 47 55
REMARK Flexibility Score: inf
ROOT
ATOM      1  C   UNL     1      -0.756   3.634   2.003  1.00  0.00     0.261 C 
ENDROOT
BRANCH   1   2
ATOM      2  O   UNL     1       0.459   3.834   1.250  1.00  0.00    -0.463 OA
BRANCH   2   3
ATOM      3  C   UNL     1       0.286   4.405   0.031  1.00  0.00     0.310 C 
ATOM      4  O   UNL     1      -0.807   4.701  -0.442  1.00  0.00    -0.252 OA
BRANCH   3   5
ATOM      5  C   UNL     1       1.574   4.674  -0.732  1.00  0.00     0.114 C 
ATOM      6  N   UNL     1       1.835   2.562  -1.966  1.00  0.00    -0.201 NA
ATOM      7  C   UNL     1       3.271   2.416  -1.627  1.00  0.00     0.102 C 
ATOM      8  C   UNL     1       1.462   3.994  -2.098  1.00  0.00     0.117 C 
ATOM      9  C   UNL     1       3.483   2.985  -0.224  1.00  0.00     0.018 C 
ATOM     10  C   UNL     1       2.925   4.400  -0.049  1.00  0.00     0.018 C 
BRANCH   6  11
ATOM     11  S   UNL     1       1.204   1.491  -3.125  1.00  0.00     0.216 S 
ATOM     12  O   UNL     1       1.859   0.216  -2.961  1.00  0.00    -0.212 OA
ATOM     13  O   UNL     1       1.263   2.186  -4.399  1.00  0.00    -0.212 OA
BRANCH  11  14
ATOM     14  C   UNL     1      -0.523   1.338  -2.628  1.00  0.00     0.182 C 
BRANCH  14  15
ATOM     15  C   UNL     1      -0.880  -0.013  -2.011  1.00  0.00     0.178 C 
BRANCH  15  16
ATOM     16  O   UNL     1      -1.238   0.040  -0.625  1.00  0.00    -0.378 OA
BRANCH  16  17
ATOM     17  C   UNL     1      -0.241  -0.222   0.366  1.00  0.00     0.112 C 
ATOM     18  C   UNL     1       0.361  -1.621   0.326  1.00  0.00     0.038 C 
ATOM     19  C   UNL     1       0.844   0.823   0.369  1.00  0.00     0.038 C 
ENDBRANCH  16  17
ENDBRANCH  15  16
ENDBRANCH  14  15
ENDBRANCH  11  14
ENDBRANCH   6  11
ENDBRANCH   3   5
ENDBRANCH   2   3
ENDBRANCH   1   2
BRANCH   1  20
ATOM     20  C   UNL     1      -0.551   3.888   3.496  1.00  0.00     0.202 C 
BRANCH  20  21
ATOM     21  O   UNL     1      -0.149   5.205   3.865  1.00  0.00    -0.374 OA
BRANCH  21  22
ATOM     22  C   UNL     1       1.128   5.656   3.427  1.00  0.00     0.202 C 
BRANCH  22  23
ATOM     23  C   UNL     1       2.365   5.043   4.102  1.00  0.00     0.261 C 
BRANCH  23  24
ATOM     24  O   UNL     1       2.443   3.605   4.040  1.00  0.00    -0.460 OA
BRANCH  24  25
ATOM     25  C   UNL     1       2.231   2.991   5.232  1.00  0.00     0.338 C 
ATOM     26  O   UNL     1       1.968   3.524   6.298  1.00  0.00    -0.246 OA
BRANCH  25  27
ATOM     27  C   UNL     1       2.244   1.522   5.101  1.00  0.00     0.060 A 
ATOM     28  C   UNL     1       1.107   0.825   5.530  1.00  0.00     0.016 A 
ATOM     29  C   UNL     1       3.409   0.831   4.760  1.00  0.00     0.016 A 
ATOM     30  C   UNL     1       1.154  -0.560   5.683  1.00  0.00     0.010 A 
ATOM     31  C   UNL     1       3.450  -0.563   4.910  1.00  0.00     0.010 A 
ATOM     32  C   UNL     1       2.338  -1.262   5.416  1.00  0.00    -0.014 A 
BRANCH  32  33
ATOM     33  C   UNL     1       2.429  -2.704   5.773  1.00  0.00     0.031 A 
ATOM     34  C   UNL     1       3.203  -3.132   6.993  1.00  0.00     0.074 A 
ATOM     35  C   UNL     1       1.780  -3.627   5.042  1.00  0.00     0.049 A 
ATOM     36  N   UNL     1       3.380  -4.334   7.485  1.00  0.00    -0.248 NA
ATOM     37  C   UNL     1       3.866  -2.067   7.760  1.00  0.00     0.031 C 
ATOM     38  C   UNL     1       0.974  -3.345   3.856  1.00  0.00     0.029 A 
ATOM     39  N   UNL     1       1.695  -4.989   5.191  1.00  0.00    -0.354 N 
ATOM     40  C   UNL     1       4.176  -4.171   8.612  1.00  0.00     0.074 A 
ATOM     41  C   UNL     1       4.479  -2.759   8.711  1.00  0.00     0.031 C 
ATOM     42  C   UNL     1       0.474  -4.499   3.384  1.00  0.00     0.029 A 
ATOM     43  C   UNL     1       0.948  -5.603   4.216  1.00  0.00     0.049 A 
ATOM     44  H   UNL     1       2.128  -5.479   5.927  1.00  0.00     0.167 HD
ATOM     45  C   UNL     1       4.607  -5.109   9.492  1.00  0.00     0.037 A 
ATOM     46  C   UNL     1       0.685  -6.908   4.007  1.00  0.00     0.037 A 
ATOM     47  C   UNL     1       4.303  -6.515   9.398  1.00  0.00     0.049 A 
ATOM     48  C   UNL     1       1.220  -7.937   4.965  1.00  0.00     0.074 A 
ATOM     49  C   UNL     1       4.668  -7.535  10.260  1.00  0.00     0.029 A 
ATOM     50  N   UNL     1       3.570  -7.101   8.377  1.00  0.00    -0.354 N 
ATOM     51  N   UNL     1       1.940  -7.766   6.048  1.00  0.00    -0.248 NA
ATOM     52  C   UNL     1       0.897  -9.342   4.677  1.00  0.00     0.031 C 
ATOM     53  C   UNL     1       4.207  -8.745   9.730  1.00  0.00     0.029 A 
ATOM     54  C   UNL     1       3.499  -8.472   8.571  1.00  0.00     0.049 A 
ATOM     55  H   UNL     1       3.161  -6.615   7.625  1.00  0.00     0.167 HD
ATOM     56  C   UNL     1       2.128  -9.034   6.586  1.00  0.00     0.074 A 
ATOM     57  C   UNL     1       1.438  -9.963   5.716  1.00  0.00     0.031 C 
ATOM     58  C   UNL     1       2.807  -9.392   7.704  1.00  0.00     0.037 A 
BRANCH  45  59
ATOM     59  C   UNL     1       5.480  -4.648  10.626  1.00  0.00     0.057 A 
ATOM     60  C   UNL     1       4.981  -3.874  11.683  1.00  0.00     0.134 A 
ATOM     61  C   UNL     1       6.830  -5.017  10.681  1.00  0.00     0.134 A 
ATOM     62  F   UNL     1       3.699  -3.479  11.690  1.00  0.00    -0.206 F 
ATOM     63  C   UNL     1       5.800  -3.460  12.736  1.00  0.00     0.040 A 
ATOM     64  C   UNL     1       7.652  -4.634  11.743  1.00  0.00     0.040 A 
ATOM     65  F   UNL     1       7.372  -5.767   9.709  1.00  0.00    -0.206 F 
ATOM     66  C   UNL     1       7.139  -3.846  12.770  1.00  0.00     0.006 A 
ENDBRANCH  45  59
BRANCH  46  67
ATOM     67  C   UNL     1      -0.130  -7.315   2.835  1.00  0.00     0.057 A 
ATOM     68  C   UNL     1      -1.417  -7.841   2.990  1.00  0.00     0.134 A 
ATOM     69  C   UNL     1       0.363  -7.189   1.530  1.00  0.00     0.134 A 
ATOM     70  F   UNL     1      -1.935  -8.007   4.216  1.00  0.00    -0.206 F 
ATOM     71  C   UNL     1      -2.181  -8.241   1.892  1.00  0.00     0.040 A 
ATOM     72  C   UNL     1      -0.400  -7.559   0.421  1.00  0.00     0.040 A 
ATOM     73  F   UNL     1       1.588  -6.689   1.314  1.00  0.00    -0.206 F 
ATOM     74  C   UNL     1      -1.674  -8.093   0.602  1.00  0.00     0.006 A 
ENDBRANCH  46  67
BRANCH  58  75
ATOM     75  C   UNL     1       2.804 -10.848   8.077  1.00  0.00     0.057 A 
ATOM     76  C   UNL     1       3.511 -11.808   7.341  1.00  0.00     0.134 A 
ATOM     77  C   UNL     1       2.108 -11.290   9.211  1.00  0.00     0.134 A 
ATOM     78  F   UNL     1       4.189 -11.457   6.239  1.00  0.00    -0.206 F 
ATOM     79  C   UNL     1       3.503 -13.158   7.703  1.00  0.00     0.040 A 
ATOM     80  C   UNL     1       2.117 -12.631   9.599  1.00  0.00     0.040 A 
ATOM     81  F   UNL     1       1.418 -10.423   9.968  1.00  0.00    -0.206 F 
ATOM     82  C   UNL     1       2.809 -13.570   8.839  1.00  0.00     0.006 A 
ENDBRANCH  58  75
ENDBRANCH  32  33
ENDBRANCH  25  27
ENDBRANCH  24  25
ENDBRANCH  23  24
ENDBRANCH  22  23
ENDBRANCH  21  22
ENDBRANCH  20  21
ENDBRANCH   1  20
TORSDOF 19
