REMARK SMILES NS(=O)(=O)c1ccc(-n2nc(C(F)F)cc2-c2ccc(C(=O)OCCOCCOC(=O)c3ccc(-c4c5nc(c(-c6c(F)cccc6F)c6ccc([nH]6)c(-c6c(F)cccc6F)c6nc(c(-c7c(F)cccc7F)c7ccc4[nH]7)C=C6)C=C5)cc3)cc2)cc1
REMARK SMILES IDX 25 1 24 2 23 3 21 4 22 5 20 6 17 7 18 8 87 9 19 10 86 11
REMARK SMILES IDX 16 12 9 13 10 14 11 15 15 16 8 17 5 18 6 19 89 20 7 21 88 22
REMARK SMILES IDX 2 23 3 24 4 25 1 26 12 29 13 30 14 31 26 32 27 33 28 34
REMARK SMILES IDX 29 35 30 36 31 37 32 38 33 39 85 40 34 41 84 42 35 43 36 44
REMARK SMILES IDX 37 45 78 46 38 47 83 48 77 49 79 50 39 51 82 52 76 53 75 54
REMARK SMILES IDX 40 56 66 57 49 58 65 59 50 60 53 61 64 62 80 63 51 64 52 65
REMARK SMILES IDX 63 67 81 68 54 69 41 70 42 71 47 72 43 73 44 74 46 75 48 76
REMARK SMILES IDX 45 77 67 78 68 79 73 80 69 81 70 82 72 83 74 84 71 85 55 86
REMARK SMILES IDX 56 87 61 88 57 89 58 90 60 91 62 92 59 93
REMARK H PARENT 1 27 1 28 79 55 53 66
REMARK Flexibility Score: inf
ROOT
ATOM      1  C   UNL     1       9.966   2.115   1.658  1.00  0.00     0.202 C 
ENDROOT
BRANCH   1   2
ATOM      2  C   UNL     1       9.996   3.553   2.179  1.00  0.00     0.261 C 
BRANCH   2   3
ATOM      3  O   UNL     1       8.687   4.089   2.424  1.00  0.00    -0.460 OA
BRANCH   3   4
ATOM      4  C   UNL     1       8.310   5.035   1.530  1.00  0.00     0.338 C 
ATOM      5  O   UNL     1       8.969   5.472   0.601  1.00  0.00    -0.246 OA
BRANCH   4   6
ATOM      6  C   UNL     1       6.884   5.375   1.706  1.00  0.00     0.060 A 
ATOM      7  C   UNL     1       4.261   6.320   1.886  1.00  0.00     0.000 A 
ATOM      8  C   UNL     1       4.822   6.037   0.634  1.00  0.00     0.011 A 
ATOM      9  C   UNL     1       5.001   6.059   3.049  1.00  0.00     0.011 A 
ATOM     10  C   UNL     1       6.130   5.573   0.544  1.00  0.00     0.016 A 
ATOM     11  C   UNL     1       6.310   5.573   2.963  1.00  0.00     0.016 A 
BRANCH   7  12
ATOM     12  C   UNL     1       2.979   7.018   1.962  1.00  0.00     0.075 A 
ATOM     13  N   UNL     1       1.804   6.659   1.313  1.00  0.00    -0.233 N 
ATOM     14  N   UNL     1       0.919   7.687   1.271  1.00  0.00    -0.166 NA
ATOM     15  C   UNL     1       1.441   8.629   2.075  1.00  0.00     0.129 A 
ATOM     16  C   UNL     1       2.737   8.265   2.503  1.00  0.00     0.060 A 
BRANCH  13  17
ATOM     17  C   UNL     1       1.463   5.400   0.752  1.00  0.00     0.065 A 
ATOM     18  C   UNL     1       0.847   2.933  -0.387  1.00  0.00     0.082 A 
ATOM     19  C   UNL     1       1.571   2.980   0.806  1.00  0.00     0.024 A 
ATOM     20  C   UNL     1       0.403   4.112  -0.999  1.00  0.00     0.024 A 
ATOM     21  C   UNL     1       1.893   4.216   1.368  1.00  0.00     0.030 A 
ATOM     22  C   UNL     1       0.687   5.348  -0.413  1.00  0.00     0.030 A 
BRANCH  18  23
ATOM     23  S   UNL     1       0.489   1.396  -1.184  1.00  0.00     0.238 S 
ATOM     24  O   UNL     1       1.233   1.343  -2.416  1.00  0.00    -0.207 OA
ATOM     25  O   UNL     1      -0.937   1.166  -1.111  1.00  0.00    -0.207 OA
BRANCH  23  26
ATOM     26  N   UNL     1       1.181   0.224  -0.194  1.00  0.00    -0.225 NA
ATOM     27  H   UNL     1       1.015  -0.700  -0.592  1.00  0.00     0.137 HD
ATOM     28  H   UNL     1       0.763   0.274   0.736  1.00  0.00     0.137 HD
ENDBRANCH  23  26
ENDBRANCH  18  23
ENDBRANCH  13  17
BRANCH  15  29
ATOM     29  C   UNL     1       0.721   9.899   2.419  1.00  0.00     0.393 C 
ATOM     30  F   UNL     1       0.151  10.491   1.336  1.00  0.00    -0.203 F 
ATOM     31  F   UNL     1      -0.279   9.673   3.316  1.00  0.00    -0.203 F 
ENDBRANCH  15  29
ENDBRANCH   7  12
ENDBRANCH   4   6
ENDBRANCH   3   4
ENDBRANCH   2   3
ENDBRANCH   1   2
BRANCH   1  32
ATOM     32  O   UNL     1       9.326   1.827   0.416  1.00  0.00    -0.374 OA
BRANCH  32  33
ATOM     33  C   UNL     1       7.922   1.998   0.251  1.00  0.00     0.202 C 
BRANCH  33  34
ATOM     34  C   UNL     1       6.974   1.032   0.950  1.00  0.00     0.261 C 
BRANCH  34  35
ATOM     35  O   UNL     1       7.197   1.018   2.348  1.00  0.00    -0.460 OA
BRANCH  35  36
ATOM     36  C   UNL     1       7.984   0.000   2.763  1.00  0.00     0.338 C 
ATOM     37  O   UNL     1       8.556  -0.825   2.072  1.00  0.00    -0.246 OA
BRANCH  36  38
ATOM     38  C   UNL     1       7.961  -0.034   4.231  1.00  0.00     0.060 A 
ATOM     39  C   UNL     1       8.576  -1.153   4.794  1.00  0.00     0.016 A 
ATOM     40  C   UNL     1       6.962   0.693   4.889  1.00  0.00     0.016 A 
ATOM     41  C   UNL     1       7.916  -1.779   5.820  1.00  0.00     0.010 A 
ATOM     42  C   UNL     1       6.292   0.058   5.896  1.00  0.00     0.010 A 
ATOM     43  C   UNL     1       6.707  -1.225   6.245  1.00  0.00    -0.014 A 
BRANCH  43  44
ATOM     44  C   UNL     1       5.859  -2.007   7.109  1.00  0.00     0.031 A 
ATOM     45  C   UNL     1       6.288  -1.922   8.517  1.00  0.00     0.074 A 
ATOM     46  C   UNL     1       4.750  -2.609   6.641  1.00  0.00     0.049 A 
ATOM     47  N   UNL     1       6.839  -2.843   9.233  1.00  0.00    -0.248 NA
ATOM     48  C   UNL     1       6.328  -0.579   9.121  1.00  0.00     0.031 C 
ATOM     49  C   UNL     1       4.141  -2.522   5.309  1.00  0.00     0.029 A 
ATOM     50  N   UNL     1       3.869  -3.382   7.328  1.00  0.00    -0.354 N 
ATOM     51  C   UNL     1       7.092  -2.237  10.457  1.00  0.00     0.074 A 
ATOM     52  C   UNL     1       7.010  -0.820  10.238  1.00  0.00     0.031 C 
ATOM     53  C   UNL     1       2.885  -3.027   5.357  1.00  0.00     0.029 A 
ATOM     54  C   UNL     1       2.655  -3.584   6.677  1.00  0.00     0.049 A 
ATOM     55  H   UNL     1       4.072  -3.766   8.211  1.00  0.00     0.167 HD
ATOM     56  C   UNL     1       7.037  -2.942  11.617  1.00  0.00     0.037 A 
ATOM     57  C   UNL     1       1.542  -4.090   7.266  1.00  0.00     0.037 A 
ATOM     58  C   UNL     1       7.138  -4.358  11.367  1.00  0.00     0.049 A 
ATOM     59  C   UNL     1       1.993  -4.804   8.495  1.00  0.00     0.074 A 
ATOM     60  C   UNL     1       8.111  -5.179  10.833  1.00  0.00     0.029 A 
ATOM     61  N   UNL     1       5.968  -5.077  11.314  1.00  0.00    -0.354 N 
ATOM     62  N   UNL     1       2.732  -5.880   8.466  1.00  0.00    -0.248 NA
ATOM     63  C   UNL     1       2.063  -4.032   9.728  1.00  0.00     0.031 C 
ATOM     64  C   UNL     1       7.400  -6.147  10.066  1.00  0.00     0.029 A 
ATOM     65  C   UNL     1       6.034  -5.908  10.224  1.00  0.00     0.049 A 
ATOM     66  H   UNL     1       5.216  -5.008  11.945  1.00  0.00     0.167 HD
ATOM     67  C   UNL     1       3.657  -5.710   9.489  1.00  0.00     0.074 A 
ATOM     68  C   UNL     1       3.163  -4.572  10.263  1.00  0.00     0.031 C 
ATOM     69  C   UNL     1       4.885  -6.307   9.441  1.00  0.00     0.037 A 
BRANCH  56  70
ATOM     70  C   UNL     1       6.504  -2.370  12.905  1.00  0.00     0.057 A 
ATOM     71  C   UNL     1       6.633  -3.121  14.084  1.00  0.00     0.134 A 
ATOM     72  C   UNL     1       5.645  -1.252  13.001  1.00  0.00     0.134 A 
ATOM     73  F   UNL     1       7.409  -4.214  14.121  1.00  0.00    -0.206 F 
ATOM     74  C   UNL     1       5.910  -2.821  15.245  1.00  0.00     0.040 A 
ATOM     75  C   UNL     1       4.964  -0.911  14.170  1.00  0.00     0.040 A 
ATOM     76  F   UNL     1       5.330  -0.482  11.953  1.00  0.00    -0.206 F 
ATOM     77  C   UNL     1       5.069  -1.716  15.289  1.00  0.00     0.006 A 
ENDBRANCH  56  70
BRANCH  57  78
ATOM     78  C   UNL     1       0.136  -3.661   7.066  1.00  0.00     0.057 A 
ATOM     79  C   UNL     1      -0.940  -4.441   7.513  1.00  0.00     0.134 A 
ATOM     80  C   UNL     1      -0.179  -2.346   6.677  1.00  0.00     0.134 A 
ATOM     81  F   UNL     1      -0.736  -5.691   7.953  1.00  0.00    -0.206 F 
ATOM     82  C   UNL     1      -2.249  -3.940   7.579  1.00  0.00     0.040 A 
ATOM     83  C   UNL     1      -1.480  -1.835   6.735  1.00  0.00     0.040 A 
ATOM     84  F   UNL     1       0.780  -1.483   6.312  1.00  0.00    -0.206 F 
ATOM     85  C   UNL     1      -2.521  -2.629   7.198  1.00  0.00     0.006 A 
ENDBRANCH  57  78
BRANCH  69  86
ATOM     86  C   UNL     1       5.137  -7.297   8.333  1.00  0.00     0.057 A 
ATOM     87  C   UNL     1       5.216  -6.945   6.975  1.00  0.00     0.134 A 
ATOM     88  C   UNL     1       5.485  -8.610   8.661  1.00  0.00     0.134 A 
ATOM     89  F   UNL     1       4.998  -5.687   6.575  1.00  0.00    -0.206 F 
ATOM     90  C   UNL     1       5.590  -7.864   5.989  1.00  0.00     0.040 A 
ATOM     91  C   UNL     1       5.891  -9.530   7.691  1.00  0.00     0.040 A 
ATOM     92  F   UNL     1       5.494  -9.003   9.944  1.00  0.00    -0.206 F 
ATOM     93  C   UNL     1       5.937  -9.162   6.349  1.00  0.00     0.006 A 
ENDBRANCH  69  86
ENDBRANCH  43  44
ENDBRANCH  36  38
ENDBRANCH  35  36
ENDBRANCH  34  35
ENDBRANCH  33  34
ENDBRANCH  32  33
ENDBRANCH   1  32
TORSDOF 19
