REMARK SMILES CC(C)CCc1cc2c(cc1Cl)C=C(C(=O)OCCOCCOC(=O)c1ccc(-c3c4nc(c(-c5c(F)cccc5F)c5ccc([nH]5)c(-c5c(F)cccc5F)c5nc(c(-c6c(F)cccc6F)c6ccc3[nH]6)C=C5)C=C4)cc1)[C@@H](C(F)(F)F)O2
REMARK SMILES IDX 19 1 18 2 17 3 15 4 16 5 14 6 6 7 7 8 11 9 8 10 10 11 12 12
REMARK SMILES IDX 9 13 85 14 13 15 80 16 5 17 4 18 2 19 1 20 3 21 81 22 82 23
REMARK SMILES IDX 83 24 84 25 20 26 21 27 22 28 23 29 24 30 25 31 26 32 27 33
REMARK SMILES IDX 79 34 28 35 78 36 29 37 30 38 31 39 72 40 32 41 77 42 71 43
REMARK SMILES IDX 73 44 33 45 76 46 70 47 69 48 34 50 60 51 43 52 59 53 44 54
REMARK SMILES IDX 47 55 58 56 74 57 45 58 46 59 57 61 75 62 48 63 35 64 36 65
REMARK SMILES IDX 41 66 37 67 38 68 40 69 42 70 39 71 61 72 62 73 67 74 63 75
REMARK SMILES IDX 64 76 66 77 68 78 65 79 49 80 50 81 55 82 51 83 52 84 54 85
REMARK SMILES IDX 56 86 53 87
REMARK H PARENT 73 49 47 60
REMARK Flexibility Score: inf
ROOT
ATOM      1  C   UNL     1       1.395   6.075 -10.114  1.00  0.00     0.202 C 
ENDROOT
BRANCH   1   2
ATOM      2  C   UNL     1      -0.090   6.059  -9.743  1.00  0.00     0.261 C 
BRANCH   2   3
ATOM      3  O   UNL     1      -0.303   5.693  -8.372  1.00  0.00    -0.460 OA
BRANCH   3   4
ATOM      4  C   UNL     1      -0.890   4.483  -8.219  1.00  0.00     0.338 C 
ATOM      5  O   UNL     1      -1.356   3.779  -9.101  1.00  0.00    -0.246 OA
BRANCH   4   6
ATOM      6  C   UNL     1      -0.775   4.036  -6.822  1.00  0.00     0.087 C 
ATOM      7  C   UNL     1      -1.072   0.966  -2.870  1.00  0.00    -0.026 A 
ATOM      8  C   UNL     1      -1.107   2.374  -3.035  1.00  0.00     0.052 A 
ATOM      9  C   UNL     1      -0.758   0.189  -3.999  1.00  0.00     0.045 A 
ATOM     10  C   UNL     1      -0.868   2.974  -4.274  1.00  0.00     0.128 A 
ATOM     11  C   UNL     1      -0.443   0.797  -5.216  1.00  0.00     0.032 A 
ATOM     12  Cl  UNL     1      -0.822  -1.535  -4.053  1.00  0.00    -0.084 Cl
ATOM     13  C   UNL     1      -0.532   2.179  -5.362  1.00  0.00     0.019 A 
ATOM     14  O   UNL     1      -0.999   4.333  -4.353  1.00  0.00    -0.475 OA
ATOM     15  C   UNL     1      -0.412   2.756  -6.682  1.00  0.00     0.027 C 
ATOM     16  C   UNL     1      -1.136   4.938  -5.677  1.00  0.00     0.316 C 
BRANCH   7  17
ATOM     17  C   UNL     1      -1.499   0.436  -1.513  1.00  0.00     0.037 C 
BRANCH  17  18
ATOM     18  C   UNL     1      -0.900  -0.865  -0.958  1.00  0.00     0.008 C 
BRANCH  18  19
ATOM     19  C   UNL     1       0.639  -0.922  -0.938  1.00  0.00    -0.017 C 
ATOM     20  C   UNL     1       1.214  -0.068   0.191  1.00  0.00     0.007 C 
ATOM     21  C   UNL     1       1.106  -2.373  -0.794  1.00  0.00     0.007 C 
ENDBRANCH  18  19
ENDBRANCH  17  18
ENDBRANCH   7  17
BRANCH  16  22
ATOM     22  C   UNL     1      -2.549   5.524  -5.822  1.00  0.00     0.430 C 
ATOM     23  F   UNL     1      -2.867   6.309  -4.766  1.00  0.00    -0.167 F 
ATOM     24  F   UNL     1      -2.652   6.301  -6.927  1.00  0.00    -0.167 F 
ATOM     25  F   UNL     1      -3.493   4.561  -5.914  1.00  0.00    -0.167 F 
ENDBRANCH  16  22
ENDBRANCH   4   6
ENDBRANCH   3   4
ENDBRANCH   2   3
ENDBRANCH   1   2
BRANCH   1  26
ATOM     26  O   UNL     1       2.158   4.894  -9.884  1.00  0.00    -0.374 OA
BRANCH  26  27
ATOM     27  C   UNL     1       2.509   4.548  -8.546  1.00  0.00     0.202 C 
BRANCH  27  28
ATOM     28  C   UNL     1       3.517   5.426  -7.793  1.00  0.00     0.261 C 
BRANCH  28  29
ATOM     29  O   UNL     1       3.038   6.761  -7.566  1.00  0.00    -0.460 OA
BRANCH  29  30
ATOM     30  C   UNL     1       3.663   7.721  -8.291  1.00  0.00     0.338 C 
ATOM     31  O   UNL     1       4.582   7.575  -9.082  1.00  0.00    -0.246 OA
BRANCH  30  32
ATOM     32  C   UNL     1       2.929   8.990  -8.146  1.00  0.00     0.060 A 
ATOM     33  C   UNL     1       2.716   9.555  -6.889  1.00  0.00     0.016 A 
ATOM     34  C   UNL     1       2.490   9.642  -9.307  1.00  0.00     0.016 A 
ATOM     35  C   UNL     1       2.085  10.797  -6.800  1.00  0.00     0.010 A 
ATOM     36  C   UNL     1       1.861  10.882  -9.215  1.00  0.00     0.010 A 
ATOM     37  C   UNL     1       1.676  11.480  -7.961  1.00  0.00    -0.014 A 
BRANCH  37  38
ATOM     38  C   UNL     1       1.186  12.875  -7.861  1.00  0.00     0.031 A 
ATOM     39  C   UNL     1      -0.259  13.219  -8.053  1.00  0.00     0.074 A 
ATOM     40  C   UNL     1       2.082  13.845  -7.593  1.00  0.00     0.049 A 
ATOM     41  N   UNL     1      -0.855  14.375  -7.904  1.00  0.00    -0.248 NA
ATOM     42  C   UNL     1      -1.149  12.130  -8.476  1.00  0.00     0.031 C 
ATOM     43  C   UNL     1       3.523  13.635  -7.434  1.00  0.00     0.029 A 
ATOM     44  N   UNL     1       1.916  15.191  -7.397  1.00  0.00    -0.354 N 
ATOM     45  C   UNL     1      -2.195  14.151  -8.188  1.00  0.00     0.074 A 
ATOM     46  C   UNL     1      -2.312  12.760  -8.576  1.00  0.00     0.031 C 
ATOM     47  C   UNL     1       4.103  14.805  -7.124  1.00  0.00     0.029 A 
ATOM     48  C   UNL     1       3.084  15.848  -7.097  1.00  0.00     0.049 A 
ATOM     49  H   UNL     1       1.044  15.643  -7.465  1.00  0.00     0.167 HD
ATOM     50  C   UNL     1      -3.232  15.021  -8.112  1.00  0.00     0.037 A 
ATOM     51  C   UNL     1       3.307  17.147  -6.828  1.00  0.00     0.037 A 
ATOM     52  C   UNL     1      -3.101  16.414  -7.759  1.00  0.00     0.049 A 
ATOM     53  C   UNL     1       2.146  18.102  -6.813  1.00  0.00     0.074 A 
ATOM     54  C   UNL     1      -4.095  17.369  -7.626  1.00  0.00     0.029 A 
ATOM     55  N   UNL     1      -1.898  17.058  -7.506  1.00  0.00    -0.354 N 
ATOM     56  N   UNL     1       0.871  17.859  -6.993  1.00  0.00    -0.248 NA
ATOM     57  C   UNL     1       2.459  19.513  -6.550  1.00  0.00     0.031 C 
ATOM     58  C   UNL     1      -3.489  18.601  -7.352  1.00  0.00     0.029 A 
ATOM     59  C   UNL     1      -2.122  18.403  -7.252  1.00  0.00     0.049 A 
ATOM     60  H   UNL     1      -1.015  16.623  -7.507  1.00  0.00     0.167 HD
ATOM     61  C   UNL     1       0.226  19.080  -6.839  1.00  0.00     0.074 A 
ATOM     62  C   UNL     1       1.250  20.055  -6.526  1.00  0.00     0.031 C 
ATOM     63  C   UNL     1      -1.094  19.368  -6.948  1.00  0.00     0.037 A 
BRANCH  50  64
ATOM     64  C   UNL     1      -4.602  14.490  -8.427  1.00  0.00     0.057 A 
ATOM     65  C   UNL     1      -5.296  14.918  -9.566  1.00  0.00     0.134 A 
ATOM     66  C   UNL     1      -5.250  13.577  -7.583  1.00  0.00     0.134 A 
ATOM     67  F   UNL     1      -4.742  15.800 -10.412  1.00  0.00    -0.206 F 
ATOM     68  C   UNL     1      -6.581  14.454  -9.856  1.00  0.00     0.040 A 
ATOM     69  C   UNL     1      -6.523  13.084  -7.878  1.00  0.00     0.040 A 
ATOM     70  F   UNL     1      -4.641  13.123  -6.478  1.00  0.00    -0.206 F 
ATOM     71  C   UNL     1      -7.194  13.527  -9.016  1.00  0.00     0.006 A 
ENDBRANCH  50  64
BRANCH  51  72
ATOM     72  C   UNL     1       4.682  17.626  -6.537  1.00  0.00     0.057 A 
ATOM     73  C   UNL     1       5.672  17.648  -7.526  1.00  0.00     0.134 A 
ATOM     74  C   UNL     1       5.027  18.107  -5.268  1.00  0.00     0.134 A 
ATOM     75  F   UNL     1       5.407  17.192  -8.760  1.00  0.00    -0.206 F 
ATOM     76  C   UNL     1       6.954  18.133  -7.267  1.00  0.00     0.040 A 
ATOM     77  C   UNL     1       6.296  18.624  -5.003  1.00  0.00     0.040 A 
ATOM     78  F   UNL     1       4.118  18.126  -4.282  1.00  0.00    -0.206 F 
ATOM     79  C   UNL     1       7.264  18.636  -6.005  1.00  0.00     0.006 A 
ENDBRANCH  51  72
BRANCH  63  80
ATOM     80  C   UNL     1      -1.503  20.793  -6.697  1.00  0.00     0.057 A 
ATOM     81  C   UNL     1      -2.244  21.132  -5.557  1.00  0.00     0.134 A 
ATOM     82  C   UNL     1      -1.168  21.829  -7.579  1.00  0.00     0.134 A 
ATOM     83  F   UNL     1      -2.607  20.189  -4.674  1.00  0.00    -0.206 F 
ATOM     84  C   UNL     1      -2.634  22.448  -5.303  1.00  0.00     0.040 A 
ATOM     85  C   UNL     1      -1.523  23.154  -7.318  1.00  0.00     0.040 A 
ATOM     86  F   UNL     1      -0.445  21.578  -8.681  1.00  0.00    -0.206 F 
ATOM     87  C   UNL     1      -2.263  23.465  -6.179  1.00  0.00     0.006 A 
ENDBRANCH  63  80
ENDBRANCH  37  38
ENDBRANCH  30  32
ENDBRANCH  29  30
ENDBRANCH  28  29
ENDBRANCH  27  28
ENDBRANCH  26  27
ENDBRANCH   1  26
TORSDOF 18
