REMARK SMILES Cc1cc(F)cc(N[C@H](C(=O)OCCOCCOC(=O)c2ccc(-c3c4nc(c(-c5c(F)cccc5F)c5ccc([nH]5)c(-c5c(F)cccc5F)c5nc(c(-c6c(F)cccc6F)c6ccc3[nH]6)C=C5)C=C4)cc2)c2cc(C)cc(C)c2)c1
REMARK SMILES IDX 15 1 14 2 13 3 12 4 10 5 11 6 9 7 8 8 7 10 1 11 2 12 3 13
REMARK SMILES IDX 83 14 4 15 5 16 6 17 75 18 76 19 82 20 77 21 80 22 78 23
REMARK SMILES IDX 79 24 81 25 16 26 17 27 18 28 19 29 20 30 21 31 22 32 74 33
REMARK SMILES IDX 23 34 73 35 24 36 25 37 26 38 67 39 27 40 72 41 66 42 68 43
REMARK SMILES IDX 28 44 71 45 65 46 64 47 29 49 55 50 38 51 54 52 39 53 42 54
REMARK SMILES IDX 53 55 69 56 40 57 41 58 52 60 70 61 43 62 30 63 31 64 36 65
REMARK SMILES IDX 32 66 33 67 35 68 37 69 34 70 56 71 57 72 62 73 58 74 59 75
REMARK SMILES IDX 61 76 63 77 60 78 44 79 45 80 50 81 46 82 47 83 49 84 51 85
REMARK SMILES IDX 48 86
REMARK H PARENT 8 9 68 48 42 59
REMARK Flexibility Score: inf
ROOT
ATOM      1  O   UNL     1       1.860  -0.921   0.154  1.00  0.00    -0.374 OA
ENDROOT
BRANCH   1   2
ATOM      2  C   UNL     1       2.786  -1.657  -0.637  1.00  0.00     0.202 C 
BRANCH   2   3
ATOM      3  C   UNL     1       2.816  -3.178  -0.471  1.00  0.00     0.261 C 
BRANCH   3   4
ATOM      4  O   UNL     1       1.525  -3.789  -0.553  1.00  0.00    -0.461 OA
BRANCH   4   5
ATOM      5  C   UNL     1       0.935  -3.982   0.665  1.00  0.00     0.333 C 
ATOM      6  O   UNL     1       1.414  -3.569   1.718  1.00  0.00    -0.249 OA
BRANCH   5   7
ATOM      7  C   UNL     1      -0.437  -4.677   0.559  1.00  0.00     0.221 C 
BRANCH   7   8
ATOM      8  N   UNL     1      -0.634  -5.497  -0.664  1.00  0.00    -0.369 N 
ATOM      9  H   UNL     1      -1.300  -5.143  -1.296  1.00  0.00     0.161 HD
BRANCH   8  10
ATOM     10  C   UNL     1      -0.033  -6.677  -1.056  1.00  0.00     0.038 A 
ATOM     11  C   UNL     1      -0.343  -9.162  -3.975  1.00  0.00     0.044 C 
ATOM     12  C   UNL     1       0.082  -8.534  -2.682  1.00  0.00    -0.046 A 
ATOM     13  C   UNL     1       1.002  -9.198  -1.872  1.00  0.00     0.042 A 
ATOM     14  C   UNL     1      -0.448  -7.299  -2.250  1.00  0.00     0.029 A 
ATOM     15  C   UNL     1       1.432  -8.590  -0.709  1.00  0.00     0.125 A 
ATOM     16  F   UNL     1       2.333  -9.208   0.067  1.00  0.00    -0.207 F 
ATOM     17  C   UNL     1       0.953  -7.339  -0.331  1.00  0.00     0.065 A 
ENDBRANCH   8  10
ENDBRANCH   7   8
BRANCH   7  18
ATOM     18  C   UNL     1      -0.833  -5.406   1.839  1.00  0.00    -0.014 A 
ATOM     19  C   UNL     1       0.124  -6.122   2.576  1.00  0.00     0.010 A 
ATOM     20  C   UNL     1      -2.145  -5.378   2.331  1.00  0.00     0.010 A 
ATOM     21  C   UNL     1      -0.215  -6.918   3.666  1.00  0.00    -0.051 A 
ATOM     22  C   UNL     1      -2.482  -6.069   3.507  1.00  0.00    -0.051 A 
ATOM     23  C   UNL     1       0.815  -7.857   4.216  1.00  0.00     0.044 C 
ATOM     24  C   UNL     1      -1.524  -6.883   4.133  1.00  0.00     0.006 A 
ATOM     25  C   UNL     1      -3.857  -5.973   4.098  1.00  0.00     0.044 C 
ENDBRANCH   7  18
ENDBRANCH   5   7
ENDBRANCH   4   5
ENDBRANCH   3   4
ENDBRANCH   2   3
ENDBRANCH   1   2
BRANCH   1  26
ATOM     26  C   UNL     1       0.503  -0.860  -0.294  1.00  0.00     0.202 C 
BRANCH  26  27
ATOM     27  C   UNL     1       0.227   0.022  -1.517  1.00  0.00     0.261 C 
BRANCH  27  28
ATOM     28  O   UNL     1       0.688  -0.611  -2.727  1.00  0.00    -0.460 OA
BRANCH  28  29
ATOM     29  C   UNL     1       1.681   0.040  -3.375  1.00  0.00     0.338 C 
ATOM     30  O   UNL     1       2.148   1.139  -3.110  1.00  0.00    -0.246 OA
BRANCH  29  31
ATOM     31  C   UNL     1       2.299  -0.866  -4.358  1.00  0.00     0.060 A 
ATOM     32  C   UNL     1       3.679  -1.092  -4.259  1.00  0.00     0.016 A 
ATOM     33  C   UNL     1       1.557  -1.433  -5.394  1.00  0.00     0.016 A 
ATOM     34  C   UNL     1       4.333  -1.852  -5.224  1.00  0.00     0.010 A 
ATOM     35  C   UNL     1       2.217  -2.180  -6.373  1.00  0.00     0.010 A 
ATOM     36  C   UNL     1       3.611  -2.361  -6.310  1.00  0.00    -0.014 A 
BRANCH  36  37
ATOM     37  C   UNL     1       4.337  -2.932  -7.467  1.00  0.00     0.031 A 
ATOM     38  C   UNL     1       4.606  -2.050  -8.654  1.00  0.00     0.074 A 
ATOM     39  C   UNL     1       4.766  -4.205  -7.452  1.00  0.00     0.049 A 
ATOM     40  N   UNL     1       5.160  -2.346  -9.800  1.00  0.00    -0.248 NA
ATOM     41  C   UNL     1       4.189  -0.643  -8.530  1.00  0.00     0.031 C 
ATOM     42  C   UNL     1       4.608  -5.138  -6.339  1.00  0.00     0.029 A 
ATOM     43  N   UNL     1       5.415  -4.933  -8.416  1.00  0.00    -0.354 N 
ATOM     44  C   UNL     1       5.153  -1.168 -10.536  1.00  0.00     0.074 A 
ATOM     45  C   UNL     1       4.517  -0.158  -9.718  1.00  0.00     0.031 C 
ATOM     46  C   UNL     1       5.132  -6.325  -6.690  1.00  0.00     0.029 A 
ATOM     47  C   UNL     1       5.630  -6.241  -8.062  1.00  0.00     0.049 A 
ATOM     48  H   UNL     1       5.700  -4.553  -9.279  1.00  0.00     0.167 HD
ATOM     49  C   UNL     1       5.639  -0.948 -11.780  1.00  0.00     0.037 A 
ATOM     50  C   UNL     1       6.144  -7.259  -8.778  1.00  0.00     0.037 A 
ATOM     51  C   UNL     1       6.269  -1.955 -12.590  1.00  0.00     0.049 A 
ATOM     52  C   UNL     1       6.603  -7.009 -10.191  1.00  0.00     0.074 A 
ATOM     53  C   UNL     1       6.811  -1.830 -13.857  1.00  0.00     0.029 A 
ATOM     54  N   UNL     1       6.435  -3.279 -12.212  1.00  0.00    -0.354 N 
ATOM     55  N   UNL     1       6.607  -5.890 -10.874  1.00  0.00    -0.248 NA
ATOM     56  C   UNL     1       7.126  -8.166 -10.932  1.00  0.00     0.031 C 
ATOM     57  C   UNL     1       7.262  -3.090 -14.265  1.00  0.00     0.029 A 
ATOM     58  C   UNL     1       7.045  -3.989 -13.232  1.00  0.00     0.049 A 
ATOM     59  H   UNL     1       6.160  -3.658 -11.346  1.00  0.00     0.167 HD
ATOM     60  C   UNL     1       7.151  -6.201 -12.114  1.00  0.00     0.074 A 
ATOM     61  C   UNL     1       7.478  -7.612 -12.084  1.00  0.00     0.031 C 
ATOM     62  C   UNL     1       7.362  -5.393 -13.182  1.00  0.00     0.037 A 
BRANCH  49  63
ATOM     63  C   UNL     1       5.479   0.431 -12.349  1.00  0.00     0.057 A 
ATOM     64  C   UNL     1       6.238   1.515 -11.889  1.00  0.00     0.134 A 
ATOM     65  C   UNL     1       4.570   0.672 -13.387  1.00  0.00     0.134 A 
ATOM     66  F   UNL     1       7.113   1.354 -10.886  1.00  0.00    -0.206 F 
ATOM     67  C   UNL     1       6.084   2.793 -12.428  1.00  0.00     0.040 A 
ATOM     68  C   UNL     1       4.424   1.940 -13.950  1.00  0.00     0.040 A 
ATOM     69  F   UNL     1       3.812  -0.323 -13.874  1.00  0.00    -0.206 F 
ATOM     70  C   UNL     1       5.179   3.007 -13.467  1.00  0.00     0.006 A 
ENDBRANCH  49  63
BRANCH  50  71
ATOM     71  C   UNL     1       6.232  -8.616  -8.184  1.00  0.00     0.057 A 
ATOM     72  C   UNL     1       7.468  -9.194  -7.873  1.00  0.00     0.134 A 
ATOM     73  C   UNL     1       5.083  -9.376  -7.931  1.00  0.00     0.134 A 
ATOM     74  F   UNL     1       8.605  -8.526  -8.116  1.00  0.00    -0.206 F 
ATOM     75  C   UNL     1       7.560 -10.484  -7.347  1.00  0.00     0.040 A 
ATOM     76  C   UNL     1       5.158 -10.657  -7.383  1.00  0.00     0.040 A 
ATOM     77  F   UNL     1       3.868  -8.879  -8.208  1.00  0.00    -0.206 F 
ATOM     78  C   UNL     1       6.401 -11.217  -7.096  1.00  0.00     0.006 A 
ENDBRANCH  50  71
BRANCH  62  79
ATOM     79  C   UNL     1       7.997  -6.009 -14.394  1.00  0.00     0.057 A 
ATOM     80  C   UNL     1       7.290  -6.875 -15.237  1.00  0.00     0.134 A 
ATOM     81  C   UNL     1       9.317  -5.697 -14.745  1.00  0.00     0.134 A 
ATOM     82  F   UNL     1       6.027  -7.223 -14.950  1.00  0.00    -0.206 F 
ATOM     83  C   UNL     1       7.880  -7.425 -16.376  1.00  0.00     0.040 A 
ATOM     84  C   UNL     1       9.909  -6.221 -15.895  1.00  0.00     0.040 A 
ATOM     85  F   UNL     1      10.046  -4.866 -13.985  1.00  0.00    -0.206 F 
ATOM     86  C   UNL     1       9.192  -7.092 -16.711  1.00  0.00     0.006 A 
ENDBRANCH  62  79
ENDBRANCH  36  37
ENDBRANCH  29  31
ENDBRANCH  28  29
ENDBRANCH  27  28
ENDBRANCH  26  27
ENDBRANCH   1  26
TORSDOF 17
