REMARK SMILES Cn1ncc(C(=O)OCCOCCOC(=O)c2ccc(-c3c4nc(c(-c5c(F)cccc5F)c5ccc([nH]5)c(-c5c(F)cccc5F)c5nc(c(-c6c(F)cccc6F)c6ccc3[nH]6)C=C5)C=C4)cc2)c1C(=O)N1CCN(S(C)(=O)=O)CC1
REMARK SMILES IDX 11 1 10 2 9 3 8 4 6 5 7 6 5 7 1 8 2 9 3 10 71 11 4 12 72 13
REMARK SMILES IDX 73 14 74 15 75 16 83 17 76 18 82 19 77 20 78 21 79 22 80 23
REMARK SMILES IDX 81 24 12 25 13 26 14 27 15 28 16 29 17 30 18 31 70 32 19 33
REMARK SMILES IDX 69 34 20 35 21 36 22 37 63 38 23 39 68 40 62 41 64 42 24 43
REMARK SMILES IDX 67 44 61 45 60 46 25 48 51 49 34 50 50 51 35 52 38 53 49 54
REMARK SMILES IDX 65 55 36 56 37 57 48 59 66 60 39 61 26 62 27 63 32 64 28 65
REMARK SMILES IDX 29 66 31 67 33 68 30 69 52 70 53 71 58 72 54 73 55 74 57 75
REMARK SMILES IDX 59 76 56 77 40 78 41 79 46 80 42 81 43 82 45 83 47 84 44 85
REMARK H PARENT 64 47 38 58
REMARK Flexibility Score: inf
ROOT
ATOM      1  O   UNL     1       4.914  -1.929  -1.479  1.00  0.00    -0.374 OA
ENDROOT
BRANCH   1   2
ATOM      2  C   UNL     1       4.667  -3.148  -0.774  1.00  0.00     0.202 C 
BRANCH   2   3
ATOM      3  C   UNL     1       4.135  -2.953   0.646  1.00  0.00     0.261 C 
BRANCH   3   4
ATOM      4  O   UNL     1       2.806  -2.414   0.576  1.00  0.00    -0.460 OA
BRANCH   4   5
ATOM      5  C   UNL     1       2.612  -1.232   1.214  1.00  0.00     0.342 C 
ATOM      6  O   UNL     1       3.414  -0.718   1.986  1.00  0.00    -0.246 OA
BRANCH   5   7
ATOM      7  C   UNL     1       1.439  -0.514   0.751  1.00  0.00     0.111 A 
ATOM      8  C   UNL     1      -1.966   0.539   0.380  1.00  0.00     0.174 C 
ATOM      9  N   UNL     1      -0.555   0.242   0.289  1.00  0.00    -0.262 N 
ATOM     10  N   UNL     1       0.251   1.301   0.081  1.00  0.00    -0.180 NA
ATOM     11  C   UNL     1       0.121  -0.939   0.529  1.00  0.00     0.140 A 
ATOM     12  C   UNL     1       1.446   0.863   0.458  1.00  0.00     0.151 A 
BRANCH  11  13
ATOM     13  C   UNL     1      -0.402  -2.279   0.744  1.00  0.00     0.273 C 
ATOM     14  O   UNL     1       0.300  -3.170   1.225  1.00  0.00    -0.267 OA
ATOM     15  N   UNL     1      -1.754  -2.547   0.538  1.00  0.00    -0.335 N 
ATOM     16  C   UNL     1      -2.344  -3.555   1.418  1.00  0.00     0.136 C 
ATOM     17  C   UNL     1      -2.434  -2.416  -0.757  1.00  0.00     0.136 C 
ATOM     18  C   UNL     1      -3.825  -3.279   1.660  1.00  0.00     0.123 C 
ATOM     19  C   UNL     1      -3.957  -2.209  -0.604  1.00  0.00     0.123 C 
ATOM     20  N   UNL     1      -4.560  -3.144   0.381  1.00  0.00    -0.199 NA
BRANCH  20  21
ATOM     21  S   UNL     1      -5.613  -4.350  -0.114  1.00  0.00     0.211 S 
ATOM     22  C   UNL     1      -4.517  -5.542  -0.853  1.00  0.00     0.176 C 
ATOM     23  O   UNL     1      -6.191  -4.954   1.066  1.00  0.00    -0.213 OA
ATOM     24  O   UNL     1      -6.443  -3.806  -1.166  1.00  0.00    -0.213 OA
ENDBRANCH  20  21
ENDBRANCH  11  13
ENDBRANCH   5   7
ENDBRANCH   4   5
ENDBRANCH   3   4
ENDBRANCH   2   3
ENDBRANCH   1   2
BRANCH   1  25
ATOM     25  C   UNL     1       3.788  -1.319  -2.116  1.00  0.00     0.202 C 
BRANCH  25  26
ATOM     26  C   UNL     1       3.466  -1.861  -3.511  1.00  0.00     0.261 C 
BRANCH  26  27
ATOM     27  O   UNL     1       2.938  -3.199  -3.437  1.00  0.00    -0.460 OA
BRANCH  27  28
ATOM     28  C   UNL     1       3.774  -4.167  -3.882  1.00  0.00     0.338 C 
ATOM     29  O   UNL     1       4.849  -4.018  -4.438  1.00  0.00    -0.246 OA
BRANCH  28  30
ATOM     30  C   UNL     1       3.283  -5.491  -3.450  1.00  0.00     0.060 A 
ATOM     31  C   UNL     1       4.214  -6.361  -2.869  1.00  0.00     0.016 A 
ATOM     32  C   UNL     1       1.963  -5.900  -3.655  1.00  0.00     0.016 A 
ATOM     33  C   UNL     1       3.842  -7.662  -2.538  1.00  0.00     0.010 A 
ATOM     34  C   UNL     1       1.593  -7.210  -3.331  1.00  0.00     0.010 A 
ATOM     35  C   UNL     1       2.541  -8.106  -2.803  1.00  0.00    -0.014 A 
BRANCH  35  36
ATOM     36  C   UNL     1       2.222  -9.547  -2.664  1.00  0.00     0.031 A 
ATOM     37  C   UNL     1       2.266 -10.423  -3.886  1.00  0.00     0.074 A 
ATOM     38  C   UNL     1       1.936 -10.077  -1.463  1.00  0.00     0.049 A 
ATOM     39  N   UNL     1       2.017 -11.703  -3.998  1.00  0.00    -0.248 NA
ATOM     40  C   UNL     1       2.641  -9.768  -5.149  1.00  0.00     0.031 C 
ATOM     41  C   UNL     1       1.898  -9.341  -0.201  1.00  0.00     0.029 A 
ATOM     42  N   UNL     1       1.621 -11.366  -1.113  1.00  0.00    -0.354 N 
ATOM     43  C   UNL     1       2.206 -12.007  -5.340  1.00  0.00     0.074 A 
ATOM     44  C   UNL     1       2.559 -10.773  -6.009  1.00  0.00     0.031 C 
ATOM     45  C   UNL     1       1.570 -10.191   0.788  1.00  0.00     0.029 A 
ATOM     46  C   UNL     1       1.353 -11.522   0.224  1.00  0.00     0.049 A 
ATOM     47  H   UNL     1       1.591 -12.108  -1.759  1.00  0.00     0.167 HD
ATOM     48  C   UNL     1       2.105 -13.207  -5.958  1.00  0.00     0.037 A 
ATOM     49  C   UNL     1       0.962 -12.614   0.910  1.00  0.00     0.037 A 
ATOM     50  C   UNL     1       1.757 -14.435  -5.296  1.00  0.00     0.049 A 
ATOM     51  C   UNL     1       0.791 -13.923   0.187  1.00  0.00     0.074 A 
ATOM     52  C   UNL     1       1.649 -15.706  -5.835  1.00  0.00     0.029 A 
ATOM     53  N   UNL     1       1.456 -14.546  -3.948  1.00  0.00    -0.354 N 
ATOM     54  N   UNL     1       0.995 -14.203  -1.077  1.00  0.00    -0.248 NA
ATOM     55  C   UNL     1       0.333 -15.069   0.989  1.00  0.00     0.031 C 
ATOM     56  C   UNL     1       1.243 -16.578  -4.820  1.00  0.00     0.029 A 
ATOM     57  C   UNL     1       1.138 -15.858  -3.641  1.00  0.00     0.049 A 
ATOM     58  H   UNL     1       1.468 -13.801  -3.303  1.00  0.00     0.167 HD
ATOM     59  C   UNL     1       0.715 -15.557  -1.218  1.00  0.00     0.074 A 
ATOM     60  C   UNL     1       0.337 -16.045   0.092  1.00  0.00     0.031 C 
ATOM     61  C   UNL     1       0.767 -16.328  -2.332  1.00  0.00     0.037 A 
BRANCH  48  62
ATOM     62  C   UNL     1       2.358 -13.244  -7.435  1.00  0.00     0.057 A 
ATOM     63  C   UNL     1       3.651 -13.140  -7.963  1.00  0.00     0.134 A 
ATOM     64  C   UNL     1       1.301 -13.416  -8.336  1.00  0.00     0.134 A 
ATOM     65  F   UNL     1       4.704 -12.958  -7.152  1.00  0.00    -0.206 F 
ATOM     66  C   UNL     1       3.882 -13.190  -9.339  1.00  0.00     0.040 A 
ATOM     67  C   UNL     1       1.521 -13.489  -9.712  1.00  0.00     0.040 A 
ATOM     68  F   UNL     1       0.039 -13.523  -7.893  1.00  0.00    -0.206 F 
ATOM     69  C   UNL     1       2.815 -13.372 -10.217  1.00  0.00     0.006 A 
ENDBRANCH  48  62
BRANCH  49  70
ATOM     70  C   UNL     1       0.688 -12.518   2.365  1.00  0.00     0.057 A 
ATOM     71  C   UNL     1       1.530 -13.125   3.303  1.00  0.00     0.134 A 
ATOM     72  C   UNL     1      -0.438 -11.841   2.849  1.00  0.00     0.134 A 
ATOM     73  F   UNL     1       2.610 -13.810   2.898  1.00  0.00    -0.206 F 
ATOM     74  C   UNL     1       1.255 -13.076   4.671  1.00  0.00     0.040 A 
ATOM     75  C   UNL     1      -0.714 -11.765   4.214  1.00  0.00     0.040 A 
ATOM     76  F   UNL     1      -1.283 -11.239   1.999  1.00  0.00    -0.206 F 
ATOM     77  C   UNL     1       0.131 -12.391   5.129  1.00  0.00     0.006 A 
ENDBRANCH  49  70
BRANCH  61  78
ATOM     78  C   UNL     1       0.430 -17.781  -2.179  1.00  0.00     0.057 A 
ATOM     79  C   UNL     1      -0.890 -18.217  -2.012  1.00  0.00     0.134 A 
ATOM     80  C   UNL     1       1.432 -18.757  -2.244  1.00  0.00     0.134 A 
ATOM     81  F   UNL     1      -1.893 -17.330  -1.930  1.00  0.00    -0.206 F 
ATOM     82  C   UNL     1      -1.200 -19.573  -1.897  1.00  0.00     0.040 A 
ATOM     83  C   UNL     1       1.133 -20.117  -2.152  1.00  0.00     0.040 A 
ATOM     84  F   UNL     1       2.716 -18.405  -2.412  1.00  0.00    -0.206 F 
ATOM     85  C   UNL     1      -0.187 -20.527  -1.974  1.00  0.00     0.006 A 
ENDBRANCH  61  78
ENDBRANCH  35  36
ENDBRANCH  28  30
ENDBRANCH  27  28
ENDBRANCH  26  27
ENDBRANCH  25  26
ENDBRANCH   1  25
TORSDOF 16
