REMARK SMILES C[C@@H]1[C@@H](C(=O)OCCOCCOC(=O)c2ccc(-c3c4nc(c(-c5c(F)cccc5F)c5ccc([nH]5)c(-c5c(F)cccc5F)c5nc(c(-c6c(F)cccc6F)c6ccc3[nH]6)C=C5)C=C4)cc2)CCN1C(=O)[C@@H]1CCCN1C(=O)C1CC1
REMARK SMILES IDX 8 1 7 2 6 3 4 4 5 5 3 6 1 7 2 8 71 9 69 10 70 11 72 12 73 13
REMARK SMILES IDX 74 14 75 15 78 16 76 17 77 18 79 19 80 20 81 21 82 22 83 23
REMARK SMILES IDX 9 24 10 25 11 26 12 27 13 28 14 29 15 30 16 31 68 32 17 33
REMARK SMILES IDX 67 34 18 35 19 36 20 37 61 38 21 39 66 40 60 41 62 42 22 43
REMARK SMILES IDX 65 44 59 45 58 46 23 48 49 49 32 50 48 51 33 52 36 53 47 54
REMARK SMILES IDX 63 55 34 56 35 57 46 59 64 60 37 61 24 62 25 63 30 64 26 65
REMARK SMILES IDX 27 66 29 67 31 68 28 69 50 70 51 71 56 72 52 73 53 74 55 75
REMARK SMILES IDX 57 76 54 77 38 78 39 79 44 80 40 81 41 82 43 83 45 84 42 85
REMARK H PARENT 62 47 36 58
REMARK Flexibility Score: inf
ROOT
ATOM      1  C   UNL     1      -1.486   2.448  -4.472  1.00  0.00     0.202 C 
ENDROOT
BRANCH   1   2
ATOM      2  C   UNL     1      -2.101   1.285  -3.688  1.00  0.00     0.261 C 
BRANCH   2   3
ATOM      3  O   UNL     1      -1.786   1.350  -2.288  1.00  0.00    -0.463 OA
BRANCH   3   4
ATOM      4  C   UNL     1      -0.765   0.532  -1.909  1.00  0.00     0.311 C 
ATOM      5  O   UNL     1      -0.153  -0.209  -2.664  1.00  0.00    -0.252 OA
BRANCH   4   6
ATOM      6  C   UNL     1      -0.380   0.795  -0.460  1.00  0.00     0.123 C 
ATOM      7  C   UNL     1       1.596   0.317   1.082  1.00  0.00     0.032 C 
ATOM      8  C   UNL     1       0.712  -0.204  -0.047  1.00  0.00     0.096 C 
ATOM      9  N   UNL     1      -0.044  -1.390   0.355  1.00  0.00    -0.337 N 
ATOM     10  C   UNL     1      -1.515   0.469   0.501  1.00  0.00     0.039 C 
ATOM     11  C   UNL     1      -1.450  -1.047   0.565  1.00  0.00     0.121 C 
BRANCH   9  12
ATOM     12  C   UNL     1       0.241  -2.612  -0.259  1.00  0.00     0.245 C 
ATOM     13  O   UNL     1      -0.518  -3.105  -1.093  1.00  0.00    -0.272 OA
BRANCH  12  14
ATOM     14  C   UNL     1       1.502  -3.337   0.272  1.00  0.00     0.174 C 
ATOM     15  C   UNL     1       2.790  -2.915  -0.438  1.00  0.00     0.037 C 
ATOM     16  N   UNL     1       1.402  -4.770  -0.023  1.00  0.00    -0.330 N 
ATOM     17  C   UNL     1       2.833  -3.824  -1.658  1.00  0.00     0.024 C 
ATOM     18  C   UNL     1       2.287  -5.134  -1.120  1.00  0.00     0.120 C 
BRANCH  16  19
ATOM     19  C   UNL     1       0.617  -5.752   0.548  1.00  0.00     0.226 C 
ATOM     20  O   UNL     1       0.660  -6.909   0.129  1.00  0.00    -0.275 OA
BRANCH  19  21
ATOM     21  C   UNL     1      -0.284  -5.520   1.716  1.00  0.00     0.079 C 
ATOM     22  C   UNL     1      -0.732  -4.276   2.422  1.00  0.00     0.014 C 
ATOM     23  C   UNL     1      -1.662  -4.941   1.453  1.00  0.00     0.014 C 
ENDBRANCH  19  21
ENDBRANCH  16  19
ENDBRANCH  12  14
ENDBRANCH   9  12
ENDBRANCH   4   6
ENDBRANCH   3   4
ENDBRANCH   2   3
ENDBRANCH   1   2
BRANCH   1  24
ATOM     24  O   UNL     1      -0.064   2.497  -4.571  1.00  0.00    -0.374 OA
BRANCH  24  25
ATOM     25  C   UNL     1       0.677   2.984  -3.455  1.00  0.00     0.202 C 
BRANCH  25  26
ATOM     26  C   UNL     1       0.677   4.496  -3.216  1.00  0.00     0.261 C 
BRANCH  26  27
ATOM     27  O   UNL     1      -0.630   4.985  -2.864  1.00  0.00    -0.460 OA
BRANCH  27  28
ATOM     28  C   UNL     1      -1.202   5.775  -3.800  1.00  0.00     0.338 C 
ATOM     29  O   UNL     1      -0.698   6.177  -4.843  1.00  0.00    -0.246 OA
BRANCH  28  30
ATOM     30  C   UNL     1      -2.630   5.971  -3.499  1.00  0.00     0.060 A 
ATOM     31  C   UNL     1      -3.550   5.658  -4.508  1.00  0.00     0.016 A 
ATOM     32  C   UNL     1      -3.057   6.534  -2.295  1.00  0.00     0.016 A 
ATOM     33  C   UNL     1      -4.897   5.961  -4.341  1.00  0.00     0.010 A 
ATOM     34  C   UNL     1      -4.410   6.849  -2.133  1.00  0.00     0.010 A 
ATOM     35  C   UNL     1      -5.326   6.601  -3.171  1.00  0.00    -0.014 A 
BRANCH  35  36
ATOM     36  C   UNL     1      -6.699   7.156  -3.113  1.00  0.00     0.031 A 
ATOM     37  C   UNL     1      -6.906   8.613  -3.421  1.00  0.00     0.074 A 
ATOM     38  C   UNL     1      -7.749   6.366  -2.832  1.00  0.00     0.049 A 
ATOM     39  N   UNL     1      -8.010   9.314  -3.415  1.00  0.00    -0.248 NA
ATOM     40  C   UNL     1      -5.705   9.383  -3.784  1.00  0.00     0.031 C 
ATOM     41  C   UNL     1      -7.679   4.932  -2.560  1.00  0.00     0.029 A 
ATOM     42  N   UNL     1      -9.083   6.666  -2.728  1.00  0.00    -0.354 N 
ATOM     43  C   UNL     1      -7.639  10.605  -3.769  1.00  0.00     0.074 A 
ATOM     44  C   UNL     1      -6.204  10.599  -3.954  1.00  0.00     0.031 C 
ATOM     45  C   UNL     1      -8.919   4.477  -2.309  1.00  0.00     0.029 A 
ATOM     46  C   UNL     1      -9.862   5.591  -2.378  1.00  0.00     0.049 A 
ATOM     47  H   UNL     1      -9.448   7.567  -2.889  1.00  0.00     0.167 HD
ATOM     48  C   UNL     1      -8.425  11.695  -3.935  1.00  0.00     0.037 A 
ATOM     49  C   UNL     1     -11.183   5.523  -2.125  1.00  0.00     0.037 A 
ATOM     50  C   UNL     1      -9.852  11.700  -3.753  1.00  0.00     0.049 A 
ATOM     51  C   UNL     1     -12.025   6.764  -2.250  1.00  0.00     0.074 A 
ATOM     52  C   UNL     1     -10.739  12.750  -3.913  1.00  0.00     0.029 A 
ATOM     53  N   UNL     1     -10.600  10.599  -3.366  1.00  0.00    -0.354 N 
ATOM     54  N   UNL     1     -11.668   7.975  -2.605  1.00  0.00    -0.248 NA
ATOM     55  C   UNL     1     -13.456   6.628  -1.941  1.00  0.00     0.031 C 
ATOM     56  C   UNL     1     -12.019  12.295  -3.580  1.00  0.00     0.029 A 
ATOM     57  C   UNL     1     -11.935  10.950  -3.257  1.00  0.00     0.049 A 
ATOM     58  H   UNL     1     -10.236   9.701  -3.193  1.00  0.00     0.167 HD
ATOM     59  C   UNL     1     -12.830   8.736  -2.589  1.00  0.00     0.074 A 
ATOM     60  C   UNL     1     -13.905   7.848  -2.198  1.00  0.00     0.031 C 
ATOM     61  C   UNL     1     -12.993  10.052  -2.873  1.00  0.00     0.037 A 
BRANCH  48  62
ATOM     62  C   UNL     1      -7.750  12.980  -4.313  1.00  0.00     0.057 A 
ATOM     63  C   UNL     1      -7.236  13.195  -5.598  1.00  0.00     0.134 A 
ATOM     64  C   UNL     1      -7.638  14.025  -3.388  1.00  0.00     0.134 A 
ATOM     65  F   UNL     1      -7.298  12.228  -6.526  1.00  0.00    -0.206 F 
ATOM     66  C   UNL     1      -6.617  14.398  -5.944  1.00  0.00     0.040 A 
ATOM     67  C   UNL     1      -7.042  15.240  -3.728  1.00  0.00     0.040 A 
ATOM     68  F   UNL     1      -8.111  13.884  -2.140  1.00  0.00    -0.206 F 
ATOM     69  C   UNL     1      -6.524  15.427  -5.008  1.00  0.00     0.006 A 
ENDBRANCH  48  62
BRANCH  49  70
ATOM     70  C   UNL     1     -11.794   4.234  -1.716  1.00  0.00     0.057 A 
ATOM     71  C   UNL     1     -12.666   3.543  -2.564  1.00  0.00     0.134 A 
ATOM     72  C   UNL     1     -11.536   3.674  -0.459  1.00  0.00     0.134 A 
ATOM     73  F   UNL     1     -12.970   4.042  -3.772  1.00  0.00    -0.206 F 
ATOM     74  C   UNL     1     -13.273   2.349  -2.172  1.00  0.00     0.040 A 
ATOM     75  C   UNL     1     -12.117   2.470  -0.062  1.00  0.00     0.040 A 
ATOM     76  F   UNL     1     -10.708   4.289   0.399  1.00  0.00    -0.206 F 
ATOM     77  C   UNL     1     -12.995   1.807  -0.918  1.00  0.00     0.006 A 
ENDBRANCH  49  70
BRANCH  61  78
ATOM     78  C   UNL     1     -14.387  10.602  -2.806  1.00  0.00     0.057 A 
ATOM     79  C   UNL     1     -15.033  10.831  -1.584  1.00  0.00     0.134 A 
ATOM     80  C   UNL     1     -15.075  10.944  -3.977  1.00  0.00     0.134 A 
ATOM     81  F   UNL     1     -14.432  10.513  -0.428  1.00  0.00    -0.206 F 
ATOM     82  C   UNL     1     -16.322  11.363  -1.531  1.00  0.00     0.040 A 
ATOM     83  C   UNL     1     -16.355  11.499  -3.935  1.00  0.00     0.040 A 
ATOM     84  F   UNL     1     -14.510  10.758  -5.179  1.00  0.00    -0.206 F 
ATOM     85  C   UNL     1     -16.984  11.705  -2.709  1.00  0.00     0.006 A 
ENDBRANCH  61  78
ENDBRANCH  35  36
ENDBRANCH  28  30
ENDBRANCH  27  28
ENDBRANCH  26  27
ENDBRANCH  25  26
ENDBRANCH  24  25
ENDBRANCH   1  24
TORSDOF 18
