REMARK SMILES COc1ccc(-c2cc(Cl)cc3c2O[C@@H](C(F)(F)F)C(C(=O)OCCOCCOC(=O)c2ccc(-c4c5nc(c(-c6c(F)cccc6F)c6ccc([nH]6)c(-c6c(F)cccc6F)c6nc(c(-c7c(F)cccc7F)c7ccc4[nH]7)C=C6)C=C5)cc2)=C3)cc1C
REMARK SMILES IDX 26 1 25 2 24 3 23 4 21 5 22 6 20 7 7 8 8 9 13 10 9 11 12 12
REMARK SMILES IDX 14 13 10 14 11 15 86 16 15 17 6 18 3 19 4 20 88 21 5 22
REMARK SMILES IDX 87 23 89 24 2 25 1 26 16 27 17 28 18 29 19 30 27 31 28 32
REMARK SMILES IDX 29 33 30 34 31 35 32 36 33 37 85 38 34 39 84 40 35 41 36 42
REMARK SMILES IDX 37 43 78 44 38 45 83 46 77 47 79 48 39 49 82 50 76 51 75 52
REMARK SMILES IDX 40 54 66 55 49 56 65 57 50 58 53 59 64 60 80 61 51 62 52 63
REMARK SMILES IDX 63 65 81 66 54 67 41 68 42 69 47 70 43 71 44 72 46 73 48 74
REMARK SMILES IDX 45 75 67 76 68 77 73 78 69 79 70 80 72 81 74 82 71 83 55 84
REMARK SMILES IDX 56 85 61 86 57 87 58 88 60 89 62 90 59 91
REMARK H PARENT 79 53 53 64
REMARK Flexibility Score: inf
ROOT
ATOM      1  O   UNL     1      -1.897   5.910  -3.779  1.00  0.00    -0.374 OA
ENDROOT
BRANCH   1   2
ATOM      2  C   UNL     1      -1.771   7.039  -2.920  1.00  0.00     0.202 C 
BRANCH   2   3
ATOM      3  C   UNL     1      -0.473   6.958  -2.098  1.00  0.00     0.261 C 
BRANCH   3   4
ATOM      4  O   UNL     1       0.141   8.248  -1.905  1.00  0.00    -0.460 OA
BRANCH   4   5
ATOM      5  C   UNL     1       1.510   8.251  -2.013  1.00  0.00     0.338 C 
ATOM      6  O   UNL     1       2.272   7.449  -1.531  1.00  0.00    -0.246 OA
BRANCH   5   7
ATOM      7  C   UNL     1       1.902   9.238  -3.109  1.00  0.00     0.087 C 
ATOM      8  C   UNL     1       1.729   5.768  -5.077  1.00  0.00     0.026 A 
ATOM      9  C   UNL     1       2.764   5.407  -5.969  1.00  0.00     0.033 A 
ATOM     10  C   UNL     1       1.702   7.132  -4.708  1.00  0.00     0.135 A 
ATOM     11  C   UNL     1       3.841   6.258  -6.218  1.00  0.00     0.042 A 
ATOM     12  C   UNL     1       2.925   7.851  -4.690  1.00  0.00     0.019 A 
ATOM     13  O   UNL     1       0.506   7.871  -4.493  1.00  0.00    -0.475 OA
ATOM     14  Cl  UNL     1       5.093   5.752  -7.281  1.00  0.00    -0.084 Cl
ATOM     15  C   UNL     1       3.973   7.442  -5.505  1.00  0.00     0.032 A 
ATOM     16  C   UNL     1       3.064   9.017  -3.761  1.00  0.00     0.027 C 
ATOM     17  C   UNL     1       0.774   9.299  -4.123  1.00  0.00     0.316 C 
BRANCH   8  18
ATOM     18  C   UNL     1       1.290   4.589  -4.232  1.00  0.00    -0.014 A 
ATOM     19  C   UNL     1       0.964   1.952  -3.130  1.00  0.00     0.121 A 
ATOM     20  C   UNL     1      -0.013   2.533  -3.946  1.00  0.00     0.047 A 
ATOM     21  C   UNL     1       2.120   2.676  -2.838  1.00  0.00    -0.008 A 
ATOM     22  C   UNL     1       0.158   3.820  -4.506  1.00  0.00     0.013 A 
ATOM     23  C   UNL     1       2.235   4.002  -3.338  1.00  0.00     0.016 A 
ATOM     24  C   UNL     1       3.320   2.024  -2.204  1.00  0.00     0.048 C 
BRANCH  19  25
ATOM     25  O   UNL     1       0.832   0.609  -2.874  1.00  0.00    -0.496 OA
ATOM     26  C   UNL     1       0.584   0.281  -1.509  1.00  0.00     0.278 C 
ENDBRANCH  19  25
ENDBRANCH   8  18
BRANCH  17  27
ATOM     27  C   UNL     1      -0.328  10.303  -3.638  1.00  0.00     0.430 C 
ATOM     28  F   UNL     1       0.148  11.114  -2.653  1.00  0.00    -0.167 F 
ATOM     29  F   UNL     1      -0.672  11.136  -4.657  1.00  0.00    -0.167 F 
ATOM     30  F   UNL     1      -1.477   9.788  -3.175  1.00  0.00    -0.167 F 
ENDBRANCH  17  27
ENDBRANCH   5   7
ENDBRANCH   4   5
ENDBRANCH   3   4
ENDBRANCH   2   3
ENDBRANCH   1   2
BRANCH   1  31
ATOM     31  C   UNL     1      -2.895   6.058  -4.795  1.00  0.00     0.202 C 
BRANCH  31  32
ATOM     32  C   UNL     1      -4.312   5.841  -4.258  1.00  0.00     0.261 C 
BRANCH  32  33
ATOM     33  O   UNL     1      -4.343   4.582  -3.562  1.00  0.00    -0.460 OA
BRANCH  33  34
ATOM     34  C   UNL     1      -4.870   4.658  -2.313  1.00  0.00     0.338 C 
ATOM     35  O   UNL     1      -5.942   5.172  -2.038  1.00  0.00    -0.246 OA
BRANCH  34  36
ATOM     36  C   UNL     1      -3.832   4.307  -1.300  1.00  0.00     0.060 A 
ATOM     37  C   UNL     1      -4.025   4.711   0.027  1.00  0.00     0.016 A 
ATOM     38  C   UNL     1      -2.577   3.855  -1.700  1.00  0.00     0.016 A 
ATOM     39  C   UNL     1      -2.928   4.840   0.892  1.00  0.00     0.010 A 
ATOM     40  C   UNL     1      -1.486   4.036  -0.858  1.00  0.00     0.010 A 
ATOM     41  C   UNL     1      -1.636   4.601   0.418  1.00  0.00    -0.014 A 
BRANCH  41  42
ATOM     42  C   UNL     1      -0.424   5.179   1.048  1.00  0.00     0.031 A 
ATOM     43  C   UNL     1       0.800   4.390   1.321  1.00  0.00     0.074 A 
ATOM     44  C   UNL     1      -0.312   6.528   1.136  1.00  0.00     0.049 A 
ATOM     45  N   UNL     1       1.807   4.807   2.013  1.00  0.00    -0.248 NA
ATOM     46  C   UNL     1       0.984   3.027   0.867  1.00  0.00     0.031 C 
ATOM     47  C   UNL     1       0.918   7.319   1.209  1.00  0.00     0.029 A 
ATOM     48  N   UNL     1      -1.298   7.500   1.097  1.00  0.00    -0.354 N 
ATOM     49  C   UNL     1       2.871   3.958   1.801  1.00  0.00     0.074 A 
ATOM     50  C   UNL     1       2.271   2.816   1.158  1.00  0.00     0.031 C 
ATOM     51  C   UNL     1       0.617   8.614   1.390  1.00  0.00     0.029 A 
ATOM     52  C   UNL     1      -0.809   8.705   1.611  1.00  0.00     0.049 A 
ATOM     53  H   UNL     1      -2.212   7.363   0.756  1.00  0.00     0.167 HD
ATOM     54  C   UNL     1       4.135   4.386   2.112  1.00  0.00     0.037 A 
ATOM     55  C   UNL     1      -1.388   9.218   2.737  1.00  0.00     0.037 A 
ATOM     56  C   UNL     1       4.084   5.689   2.801  1.00  0.00     0.049 A 
ATOM     57  C   UNL     1      -0.527   8.994   3.970  1.00  0.00     0.074 A 
ATOM     58  C   UNL     1       4.415   6.988   2.447  1.00  0.00     0.029 A 
ATOM     59  N   UNL     1       3.338   5.799   3.976  1.00  0.00    -0.354 N 
ATOM     60  N   UNL     1       0.649   8.424   3.934  1.00  0.00    -0.248 NA
ATOM     61  C   UNL     1      -0.893   9.370   5.334  1.00  0.00     0.031 C 
ATOM     62  C   UNL     1       3.779   7.875   3.363  1.00  0.00     0.029 A 
ATOM     63  C   UNL     1       3.072   7.122   4.285  1.00  0.00     0.049 A 
ATOM     64  H   UNL     1       3.039   5.032   4.516  1.00  0.00     0.167 HD
ATOM     65  C   UNL     1       1.119   8.213   5.195  1.00  0.00     0.074 A 
ATOM     66  C   UNL     1       0.148   8.885   6.039  1.00  0.00     0.031 C 
ATOM     67  C   UNL     1       2.232   7.456   5.435  1.00  0.00     0.037 A 
BRANCH  54  68
ATOM     68  C   UNL     1       5.434   3.742   1.626  1.00  0.00     0.057 A 
ATOM     69  C   UNL     1       6.649   4.465   1.610  1.00  0.00     0.134 A 
ATOM     70  C   UNL     1       5.569   2.431   1.130  1.00  0.00     0.134 A 
ATOM     71  F   UNL     1       6.745   5.699   2.122  1.00  0.00    -0.206 F 
ATOM     72  C   UNL     1       7.849   3.961   1.075  1.00  0.00     0.040 A 
ATOM     73  C   UNL     1       6.750   1.926   0.557  1.00  0.00     0.040 A 
ATOM     74  F   UNL     1       4.592   1.528   1.228  1.00  0.00    -0.206 F 
ATOM     75  C   UNL     1       7.898   2.695   0.519  1.00  0.00     0.006 A 
ENDBRANCH  54  68
BRANCH  55  76
ATOM     76  C   UNL     1      -2.876   9.193   2.590  1.00  0.00     0.057 A 
ATOM     77  C   UNL     1      -3.399  10.043   1.591  1.00  0.00     0.134 A 
ATOM     78  C   UNL     1      -3.641   8.068   2.920  1.00  0.00     0.134 A 
ATOM     79  F   UNL     1      -2.717  11.139   1.221  1.00  0.00    -0.206 F 
ATOM     80  C   UNL     1      -4.523   9.698   0.834  1.00  0.00     0.040 A 
ATOM     81  C   UNL     1      -4.785   7.726   2.178  1.00  0.00     0.040 A 
ATOM     82  F   UNL     1      -3.205   7.189   3.833  1.00  0.00    -0.206 F 
ATOM     83  C   UNL     1      -5.196   8.512   1.099  1.00  0.00     0.006 A 
ENDBRANCH  55  76
BRANCH  67  84
ATOM     84  C   UNL     1       2.633   6.957   6.796  1.00  0.00     0.057 A 
ATOM     85  C   UNL     1       1.716   6.578   7.786  1.00  0.00     0.134 A 
ATOM     86  C   UNL     1       3.986   6.679   7.082  1.00  0.00     0.134 A 
ATOM     87  F   UNL     1       0.394   6.695   7.597  1.00  0.00    -0.206 F 
ATOM     88  C   UNL     1       2.118   6.005   8.998  1.00  0.00     0.040 A 
ATOM     89  C   UNL     1       4.395   6.061   8.265  1.00  0.00     0.040 A 
ATOM     90  F   UNL     1       4.960   6.972   6.206  1.00  0.00    -0.206 F 
ATOM     91  C   UNL     1       3.460   5.732   9.236  1.00  0.00     0.006 A 
ENDBRANCH  67  84
ENDBRANCH  41  42
ENDBRANCH  34  36
ENDBRANCH  33  34
ENDBRANCH  32  33
ENDBRANCH  31  32
ENDBRANCH   1  31
TORSDOF 17
