REMARK SMILES Cc1ccc(S(=O)(=O)n2cc(C(=O)C(=O)N[C@@H](Cc3c[nH]c4ccccc34)C(=O)OCCOCCOC(=O)c3ccc(-c4c5nc(c(-c6c(F)cccc6F)c6ccc([nH]6)c(-c6c(F)cccc6F)c6nc(c(-c7c(F)cccc7F)c7ccc4[nH]7)C=C6)C=C5)cc3)c3ccccc32)cc1
REMARK SMILES IDX 31 1 30 2 28 3 29 4 17 5 16 6 14 7 15 8 12 10 13 11 11 12
REMARK SMILES IDX 9 13 10 14 98 15 93 16 97 17 94 18 96 19 95 20 6 21 7 22
REMARK SMILES IDX 8 23 5 24 1 25 2 26 3 27 100 28 4 29 99 30 18 31 19 32 20 33
REMARK SMILES IDX 27 34 21 35 22 36 26 37 23 39 25 40 24 41 32 42 33 43 34 44
REMARK SMILES IDX 35 45 36 46 37 47 38 48 39 49 40 50 92 51 41 52 91 53 42 54
REMARK SMILES IDX 43 55 44 56 85 57 45 58 90 59 84 60 86 61 46 62 89 63 83 64
REMARK SMILES IDX 82 65 47 67 73 68 56 69 72 70 57 71 60 72 71 73 87 74 58 75
REMARK SMILES IDX 59 76 70 78 88 79 61 80 48 81 49 82 54 83 50 84 51 85 53 86
REMARK SMILES IDX 55 87 52 88 74 89 75 90 80 91 76 92 77 93 79 94 81 95 78 96
REMARK SMILES IDX 62 97 63 98 68 99 64 100 65 101 67 102 69 103 66 104
REMARK H PARENT 16 9 21 38 86 66 60 77
REMARK Flexibility Score: inf
ROOT
ATOM      1  C   UNL     1     -11.252   3.133  -2.170  1.00  0.00     0.261 C 
ENDROOT
BRANCH   1   2
ATOM      2  O   UNL     1     -10.698   2.974  -0.864  1.00  0.00    -0.462 OA
BRANCH   2   3
ATOM      3  C   UNL     1     -10.733   1.739  -0.289  1.00  0.00     0.329 C 
ATOM      4  O   UNL     1     -11.537   0.855  -0.536  1.00  0.00    -0.250 OA
BRANCH   3   5
ATOM      5  C   UNL     1      -9.650   1.668   0.796  1.00  0.00     0.197 C 
BRANCH   5   6
ATOM      6  N   UNL     1      -8.593   2.661   0.485  1.00  0.00    -0.335 N 
ATOM      7  C   UNL     1      -7.482   2.519  -0.323  1.00  0.00     0.293 C 
ATOM      8  O   UNL     1      -6.775   3.460  -0.623  1.00  0.00    -0.265 OA
ATOM      9  H   UNL     1      -8.698   3.541   0.914  1.00  0.00     0.164 HD
BRANCH   7  10
ATOM     10  C   UNL     1      -7.186   1.140  -0.892  1.00  0.00     0.252 C 
ATOM     11  O   UNL     1      -7.972   0.721  -1.736  1.00  0.00    -0.283 OA
BRANCH  10  12
ATOM     12  C   UNL     1      -6.135   0.306  -0.327  1.00  0.00     0.054 A 
ATOM     13  N   UNL     1      -4.250  -0.521   0.575  1.00  0.00    -0.240 N 
ATOM     14  C   UNL     1      -4.845   0.638   0.088  1.00  0.00     0.117 A 
ATOM     15  C   UNL     1      -5.257  -1.485   0.722  1.00  0.00     0.065 A 
ATOM     16  C   UNL     1      -6.275  -1.099  -0.143  1.00  0.00     0.012 A 
ATOM     17  C   UNL     1      -5.238  -2.760   1.314  1.00  0.00     0.028 A 
ATOM     18  C   UNL     1      -7.196  -2.071  -0.585  1.00  0.00     0.011 A 
ATOM     19  C   UNL     1      -6.131  -3.715   0.830  1.00  0.00     0.002 A 
ATOM     20  C   UNL     1      -7.069  -3.389  -0.142  1.00  0.00     0.001 A 
BRANCH  13  21
ATOM     21  S   UNL     1      -2.776  -1.205  -0.055  1.00  0.00     0.268 S 
ATOM     22  O   UNL     1      -3.080  -1.448  -1.455  1.00  0.00    -0.201 OA
ATOM     23  O   UNL     1      -2.507  -2.301   0.865  1.00  0.00    -0.201 OA
BRANCH  21  24
ATOM     24  C   UNL     1      -1.263  -0.317  -0.039  1.00  0.00     0.088 A 
ATOM     25  C   UNL     1       2.830   1.035  -0.017  1.00  0.00     0.044 C 
ATOM     26  C   UNL     1       1.392   0.607  -0.059  1.00  0.00    -0.051 A 
ATOM     27  C   UNL     1       1.130  -0.729  -0.334  1.00  0.00     0.005 A 
ATOM     28  C   UNL     1       0.315   1.476   0.215  1.00  0.00     0.005 A 
ATOM     29  C   UNL     1      -0.179  -1.175  -0.334  1.00  0.00     0.022 A 
ATOM     30  C   UNL     1      -1.025   1.021   0.230  1.00  0.00     0.022 A 
ENDBRANCH  21  24
ENDBRANCH  13  21
ENDBRANCH  10  12
ENDBRANCH   7  10
ENDBRANCH   5   6
BRANCH   5  31
ATOM     31  C   UNL     1     -10.275   1.903   2.193  1.00  0.00     0.074 C 
BRANCH  31  32
ATOM     32  C   UNL     1     -11.132   3.138   2.307  1.00  0.00    -0.020 A 
ATOM     33  C   UNL     1     -12.512   3.149   2.383  1.00  0.00     0.087 A 
ATOM     34  C   UNL     1     -10.715   4.512   2.301  1.00  0.00     0.003 A 
ATOM     35  N   UNL     1     -12.941   4.446   2.309  1.00  0.00    -0.361 N 
ATOM     36  C   UNL     1     -11.865   5.295   2.208  1.00  0.00     0.046 A 
ATOM     37  C   UNL     1      -9.467   5.169   2.302  1.00  0.00     0.010 A 
ATOM     38  H   UNL     1     -13.884   4.729   2.326  1.00  0.00     0.166 HD
ATOM     39  C   UNL     1     -11.829   6.684   2.034  1.00  0.00     0.026 A 
ATOM     40  C   UNL     1      -9.410   6.551   2.096  1.00  0.00     0.001 A 
ATOM     41  C   UNL     1     -10.576   7.295   1.951  1.00  0.00     0.002 A 
ENDBRANCH  31  32
ENDBRANCH   5  31
ENDBRANCH   3   5
ENDBRANCH   2   3
ENDBRANCH   1   2
BRANCH   1  42
ATOM     42  C   UNL     1     -10.110   3.452  -3.111  1.00  0.00     0.202 C 
BRANCH  42  43
ATOM     43  O   UNL     1      -9.677   2.230  -3.694  1.00  0.00    -0.374 OA
BRANCH  43  44
ATOM     44  C   UNL     1      -8.507   2.342  -4.501  1.00  0.00     0.202 C 
BRANCH  44  45
ATOM     45  C   UNL     1      -8.687   3.259  -5.720  1.00  0.00     0.261 C 
BRANCH  45  46
ATOM     46  O   UNL     1      -9.776   2.763  -6.522  1.00  0.00    -0.460 OA
BRANCH  46  47
ATOM     47  C   UNL     1     -10.888   3.543  -6.534  1.00  0.00     0.338 C 
ATOM     48  O   UNL     1     -10.905   4.754  -6.688  1.00  0.00    -0.246 OA
BRANCH  47  49
ATOM     49  C   UNL     1     -12.056   2.756  -6.046  1.00  0.00     0.060 A 
ATOM     50  C   UNL     1     -13.251   3.426  -5.734  1.00  0.00     0.016 A 
ATOM     51  C   UNL     1     -11.874   1.434  -5.636  1.00  0.00     0.016 A 
ATOM     52  C   UNL     1     -14.198   2.818  -4.902  1.00  0.00     0.010 A 
ATOM     53  C   UNL     1     -12.782   0.864  -4.763  1.00  0.00     0.010 A 
ATOM     54  C   UNL     1     -13.926   1.566  -4.356  1.00  0.00    -0.014 A 
BRANCH  54  55
ATOM     55  C   UNL     1     -14.673   0.953  -3.255  1.00  0.00     0.031 A 
ATOM     56  C   UNL     1     -15.317  -0.372  -3.434  1.00  0.00     0.074 A 
ATOM     57  C   UNL     1     -14.552   1.454  -2.001  1.00  0.00     0.049 A 
ATOM     58  N   UNL     1     -16.061  -0.930  -2.539  1.00  0.00    -0.248 NA
ATOM     59  C   UNL     1     -15.218  -1.182  -4.650  1.00  0.00     0.031 C 
ATOM     60  C   UNL     1     -14.772   0.749  -0.738  1.00  0.00     0.029 A 
ATOM     61  N   UNL     1     -14.322   2.780  -1.591  1.00  0.00    -0.354 N 
ATOM     62  C   UNL     1     -16.152  -2.259  -2.859  1.00  0.00     0.074 A 
ATOM     63  C   UNL     1     -15.775  -2.331  -4.246  1.00  0.00     0.031 C 
ATOM     64  C   UNL     1     -15.018   1.646   0.227  1.00  0.00     0.029 A 
ATOM     65  C   UNL     1     -15.081   2.945  -0.417  1.00  0.00     0.049 A 
ATOM     66  H   UNL     1     -13.751   3.451  -2.031  1.00  0.00     0.167 HD
ATOM     67  C   UNL     1     -16.371  -3.154  -1.857  1.00  0.00     0.037 A 
ATOM     68  C   UNL     1     -16.098   3.840  -0.317  1.00  0.00     0.037 A 
ATOM     69  C   UNL     1     -16.819  -2.485  -0.628  1.00  0.00     0.049 A 
ATOM     70  C   UNL     1     -17.358   3.152   0.102  1.00  0.00     0.074 A 
ATOM     71  C   UNL     1     -16.304  -2.355   0.649  1.00  0.00     0.029 A 
ATOM     72  N   UNL     1     -17.898  -1.598  -0.704  1.00  0.00    -0.354 N 
ATOM     73  N   UNL     1     -17.574   1.890  -0.156  1.00  0.00    -0.248 NA
ATOM     74  C   UNL     1     -18.396   3.747   0.935  1.00  0.00     0.031 C 
ATOM     75  C   UNL     1     -17.012  -1.298   1.295  1.00  0.00     0.029 A 
ATOM     76  C   UNL     1     -17.993  -0.826   0.434  1.00  0.00     0.049 A 
ATOM     77  H   UNL     1     -18.511  -1.533  -1.472  1.00  0.00     0.167 HD
ATOM     78  C   UNL     1     -18.671   1.476   0.534  1.00  0.00     0.074 A 
ATOM     79  C   UNL     1     -19.186   2.681   1.161  1.00  0.00     0.031 C 
ATOM     80  C   UNL     1     -19.051   0.169   0.584  1.00  0.00     0.037 A 
BRANCH  67  81
ATOM     81  C   UNL     1     -16.029  -4.628  -1.946  1.00  0.00     0.057 A 
ATOM     82  C   UNL     1     -16.479  -5.533  -0.966  1.00  0.00     0.134 A 
ATOM     83  C   UNL     1     -15.179  -5.205  -2.914  1.00  0.00     0.134 A 
ATOM     84  F   UNL     1     -17.243  -5.125   0.058  1.00  0.00    -0.206 F 
ATOM     85  C   UNL     1     -16.153  -6.900  -0.980  1.00  0.00     0.040 A 
ATOM     86  C   UNL     1     -14.892  -6.577  -2.973  1.00  0.00     0.040 A 
ATOM     87  F   UNL     1     -14.524  -4.469  -3.820  1.00  0.00    -0.206 F 
ATOM     88  C   UNL     1     -15.379  -7.433  -2.001  1.00  0.00     0.006 A 
ENDBRANCH  67  81
BRANCH  68  89
ATOM     89  C   UNL     1     -15.886   5.062  -1.131  1.00  0.00     0.057 A 
ATOM     90  C   UNL     1     -14.883   5.938  -0.677  1.00  0.00     0.134 A 
ATOM     91  C   UNL     1     -16.209   5.130  -2.489  1.00  0.00     0.134 A 
ATOM     92  F   UNL     1     -14.566   5.955   0.626  1.00  0.00    -0.206 F 
ATOM     93  C   UNL     1     -14.114   6.712  -1.550  1.00  0.00     0.040 A 
ATOM     94  C   UNL     1     -15.466   5.930  -3.373  1.00  0.00     0.040 A 
ATOM     95  F   UNL     1     -17.150   4.329  -3.008  1.00  0.00    -0.206 F 
ATOM     96  C   UNL     1     -14.382   6.679  -2.913  1.00  0.00     0.006 A 
ENDBRANCH  68  89
BRANCH  80  97
ATOM     97  C   UNL     1     -20.464  -0.269   0.847  1.00  0.00     0.057 A 
ATOM     98  C   UNL     1     -21.581   0.539   0.573  1.00  0.00     0.134 A 
ATOM     99  C   UNL     1     -20.756  -1.607   1.181  1.00  0.00     0.134 A 
ATOM    100  F   UNL     1     -21.450   1.802   0.142  1.00  0.00    -0.206 F 
ATOM    101  C   UNL     1     -22.892   0.066   0.667  1.00  0.00     0.040 A 
ATOM    102  C   UNL     1     -22.060  -2.103   1.229  1.00  0.00     0.040 A 
ATOM    103  F   UNL     1     -19.787  -2.499   1.435  1.00  0.00    -0.206 F 
ATOM    104  C   UNL     1     -23.136  -1.264   0.980  1.00  0.00     0.006 A 
ENDBRANCH  80  97
ENDBRANCH  54  55
ENDBRANCH  47  49
ENDBRANCH  46  47
ENDBRANCH  45  46
ENDBRANCH  44  45
ENDBRANCH  43  44
ENDBRANCH  42  43
ENDBRANCH   1  42
TORSDOF 21
