REMARK SMILES CCCc1cc2c(cc1Cl)C=C(C(=O)OCCOCCOC(=O)c1ccc(-c3c4nc(c(-c5c(F)cccc5F)c5ccc([nH]5)c(-c5c(F)cccc5F)c5nc(c(-c6c(F)cccc6F)c6ccc3[nH]6)C=C5)C=C4)cc1)[C@H](C(F)(F)F)O2
REMARK SMILES IDX 18 1 17 2 16 3 15 4 13 5 14 6 12 7 4 8 5 9 9 10 6 11 8 12
REMARK SMILES IDX 10 13 7 14 83 15 11 16 78 17 3 18 2 19 1 20 79 21 80 22
REMARK SMILES IDX 81 23 82 24 19 25 20 26 21 27 22 28 23 29 24 30 25 31 77 32
REMARK SMILES IDX 26 33 76 34 27 35 28 36 29 37 70 38 30 39 75 40 69 41 71 42
REMARK SMILES IDX 31 43 74 44 68 45 67 46 32 48 58 49 41 50 57 51 42 52 45 53
REMARK SMILES IDX 56 54 72 55 43 56 44 57 55 59 73 60 46 61 33 62 34 63 39 64
REMARK SMILES IDX 35 65 36 66 38 67 40 68 37 69 59 70 60 71 65 72 61 73 62 74
REMARK SMILES IDX 64 75 66 76 63 77 47 78 48 79 53 80 49 81 50 82 52 83 54 84
REMARK SMILES IDX 51 85
REMARK H PARENT 71 47 45 58
REMARK Flexibility Score: inf
ROOT
ATOM      1  O   UNL     1      -2.384   9.880  -1.635  1.00  0.00    -0.374 OA
ENDROOT
BRANCH   1   2
ATOM      2  C   UNL     1      -2.713   9.649  -3.003  1.00  0.00     0.202 C 
BRANCH   2   3
ATOM      3  C   UNL     1      -1.732   8.793  -3.808  1.00  0.00     0.261 C 
BRANCH   3   4
ATOM      4  O   UNL     1      -1.655   7.465  -3.266  1.00  0.00    -0.460 OA
BRANCH   4   5
ATOM      5  C   UNL     1      -0.513   7.192  -2.606  1.00  0.00     0.338 C 
ATOM      6  O   UNL     1       0.511   7.856  -2.629  1.00  0.00    -0.246 OA
BRANCH   5   7
ATOM      7  C   UNL     1      -0.700   6.020  -1.729  1.00  0.00     0.087 C 
ATOM      8  C   UNL     1       0.518   2.408   1.526  1.00  0.00    -0.026 A 
ATOM      9  C   UNL     1      -0.338   2.488   0.414  1.00  0.00     0.052 A 
ATOM     10  C   UNL     1       1.040   3.611   2.039  1.00  0.00     0.045 A 
ATOM     11  C   UNL     1      -0.530   3.691  -0.262  1.00  0.00     0.128 A 
ATOM     12  C   UNL     1       0.804   4.827   1.394  1.00  0.00     0.032 A 
ATOM     13  Cl  UNL     1       2.038   3.646   3.452  1.00  0.00    -0.084 Cl
ATOM     14  C   UNL     1       0.060   4.857   0.214  1.00  0.00     0.019 A 
ATOM     15  O   UNL     1      -1.209   3.611  -1.446  1.00  0.00    -0.475 OA
ATOM     16  C   UNL     1       0.022   6.054  -0.601  1.00  0.00     0.027 C 
ATOM     17  C   UNL     1      -1.569   4.852  -2.121  1.00  0.00     0.316 C 
BRANCH   8  18
ATOM     18  C   UNL     1       0.914   1.075   2.130  1.00  0.00     0.037 C 
BRANCH  18  19
ATOM     19  C   UNL     1       0.575  -0.203   1.347  1.00  0.00     0.001 C 
ATOM     20  C   UNL     1       1.313  -0.332   0.018  1.00  0.00     0.004 C 
ENDBRANCH  18  19
ENDBRANCH   8  18
BRANCH  17  21
ATOM     21  C   UNL     1      -3.085   5.070  -1.937  1.00  0.00     0.430 C 
ATOM     22  F   UNL     1      -3.600   5.940  -2.834  1.00  0.00    -0.167 F 
ATOM     23  F   UNL     1      -3.768   3.909  -2.109  1.00  0.00    -0.167 F 
ATOM     24  F   UNL     1      -3.389   5.531  -0.701  1.00  0.00    -0.167 F 
ENDBRANCH  17  21
ENDBRANCH   5   7
ENDBRANCH   4   5
ENDBRANCH   3   4
ENDBRANCH   2   3
ENDBRANCH   1   2
BRANCH   1  25
ATOM     25  C   UNL     1      -2.743   8.872  -0.686  1.00  0.00     0.202 C 
BRANCH  25  26
ATOM     26  C   UNL     1      -4.221   8.771  -0.287  1.00  0.00     0.261 C 
BRANCH  26  27
ATOM     27  O   UNL     1      -5.032   8.264  -1.363  1.00  0.00    -0.460 OA
BRANCH  27  28
ATOM     28  C   UNL     1      -5.854   9.170  -1.944  1.00  0.00     0.338 C 
ATOM     29  O   UNL     1      -6.035  10.329  -1.605  1.00  0.00    -0.246 OA
BRANCH  28  30
ATOM     30  C   UNL     1      -6.355   8.622  -3.221  1.00  0.00     0.060 A 
ATOM     31  C   UNL     1      -6.966   7.370  -3.296  1.00  0.00     0.016 A 
ATOM     32  C   UNL     1      -6.212   9.412  -4.369  1.00  0.00     0.016 A 
ATOM     33  C   UNL     1      -7.464   6.923  -4.525  1.00  0.00     0.010 A 
ATOM     34  C   UNL     1      -6.704   8.963  -5.594  1.00  0.00     0.010 A 
ATOM     35  C   UNL     1      -7.353   7.723  -5.678  1.00  0.00    -0.014 A 
BRANCH  35  36
ATOM     36  C   UNL     1      -8.003   7.316  -6.948  1.00  0.00     0.031 A 
ATOM     37  C   UNL     1      -7.197   6.840  -8.120  1.00  0.00     0.074 A 
ATOM     38  C   UNL     1      -9.342   7.419  -7.051  1.00  0.00     0.049 A 
ATOM     39  N   UNL     1      -7.610   6.441  -9.297  1.00  0.00    -0.248 NA
ATOM     40  C   UNL     1      -5.737   6.817  -7.953  1.00  0.00     0.031 C 
ATOM     41  C   UNL     1     -10.232   7.898  -5.993  1.00  0.00     0.029 A 
ATOM     42  N   UNL     1     -10.186   7.132  -8.094  1.00  0.00    -0.354 N 
ATOM     43  C   UNL     1      -6.466   6.099 -10.006  1.00  0.00     0.074 A 
ATOM     44  C   UNL     1      -5.338   6.391  -9.144  1.00  0.00     0.031 C 
ATOM     45  C   UNL     1     -11.499   7.851  -6.432  1.00  0.00     0.029 A 
ATOM     46  C   UNL     1     -11.508   7.376  -7.812  1.00  0.00     0.049 A 
ATOM     47  H   UNL     1      -9.874   6.785  -8.960  1.00  0.00     0.167 HD
ATOM     48  C   UNL     1      -6.367   5.575 -11.253  1.00  0.00     0.037 A 
ATOM     49  C   UNL     1     -12.603   7.240  -8.584  1.00  0.00     0.037 A 
ATOM     50  C   UNL     1      -7.489   5.315 -12.120  1.00  0.00     0.049 A 
ATOM     51  C   UNL     1     -12.454   6.735  -9.992  1.00  0.00     0.074 A 
ATOM     52  C   UNL     1      -7.490   4.762 -13.389  1.00  0.00     0.029 A 
ATOM     53  N   UNL     1      -8.811   5.610 -11.816  1.00  0.00    -0.354 N 
ATOM     54  N   UNL     1     -11.374   6.343 -10.624  1.00  0.00    -0.248 NA
ATOM     55  C   UNL     1     -13.682   6.651 -10.797  1.00  0.00     0.031 C 
ATOM     56  C   UNL     1      -8.802   4.778 -13.876  1.00  0.00     0.029 A 
ATOM     57  C   UNL     1      -9.629   5.282 -12.886  1.00  0.00     0.049 A 
ATOM     58  H   UNL     1      -9.122   5.996 -10.965  1.00  0.00     0.167 HD
ATOM     59  C   UNL     1     -11.796   5.936 -11.883  1.00  0.00     0.074 A 
ATOM     60  C   UNL     1     -13.233   6.114 -11.921  1.00  0.00     0.031 C 
ATOM     61  C   UNL     1     -11.059   5.457 -12.915  1.00  0.00     0.037 A 
BRANCH  48  62
ATOM     62  C   UNL     1      -4.989   5.255 -11.759  1.00  0.00     0.057 A 
ATOM     63  C   UNL     1      -4.426   5.974 -12.821  1.00  0.00     0.134 A 
ATOM     64  C   UNL     1      -4.230   4.207 -11.218  1.00  0.00     0.134 A 
ATOM     65  F   UNL     1      -5.101   6.982 -13.395  1.00  0.00    -0.206 F 
ATOM     66  C   UNL     1      -3.160   5.668 -13.322  1.00  0.00     0.040 A 
ATOM     67  C   UNL     1      -2.951   3.909 -11.693  1.00  0.00     0.040 A 
ATOM     68  F   UNL     1      -4.706   3.479 -10.196  1.00  0.00    -0.206 F 
ATOM     69  C   UNL     1      -2.415   4.638 -12.752  1.00  0.00     0.006 A 
ENDBRANCH  48  62
BRANCH  49  70
ATOM     70  C   UNL     1     -13.945   7.584  -8.048  1.00  0.00     0.057 A 
ATOM     71  C   UNL     1     -14.302   8.908  -7.763  1.00  0.00     0.134 A 
ATOM     72  C   UNL     1     -14.918   6.598  -7.851  1.00  0.00     0.134 A 
ATOM     73  F   UNL     1     -13.413   9.899  -7.923  1.00  0.00    -0.206 F 
ATOM     74  C   UNL     1     -15.577   9.238  -7.304  1.00  0.00     0.040 A 
ATOM     75  C   UNL     1     -16.208   6.917  -7.423  1.00  0.00     0.040 A 
ATOM     76  F   UNL     1     -14.643   5.314  -8.125  1.00  0.00    -0.206 F 
ATOM     77  C   UNL     1     -16.539   8.242  -7.146  1.00  0.00     0.006 A 
ENDBRANCH  49  70
BRANCH  61  78
ATOM     78  C   UNL     1     -11.799   5.052 -14.159  1.00  0.00     0.057 A 
ATOM     79  C   UNL     1     -11.893   3.702 -14.524  1.00  0.00     0.134 A 
ATOM     80  C   UNL     1     -12.395   5.991 -15.011  1.00  0.00     0.134 A 
ATOM     81  F   UNL     1     -11.339   2.749 -13.759  1.00  0.00    -0.206 F 
ATOM     82  C   UNL     1     -12.548   3.303 -15.690  1.00  0.00     0.040 A 
ATOM     83  C   UNL     1     -13.080   5.602 -16.164  1.00  0.00     0.040 A 
ATOM     84  F   UNL     1     -12.357   7.299 -14.713  1.00  0.00    -0.206 F 
ATOM     85  C   UNL     1     -13.151   4.254 -16.510  1.00  0.00     0.006 A 
ENDBRANCH  61  78
ENDBRANCH  35  36
ENDBRANCH  28  30
ENDBRANCH  27  28
ENDBRANCH  26  27
ENDBRANCH  25  26
ENDBRANCH   1  25
TORSDOF 17
