REMARK SMILES O=C(OCCOCCOC(=O)c1ccc(-c2c3nc(c(-c4c(F)cccc4F)c4ccc([nH]4)c(-c4c(F)cccc4F)c4nc(c(-c5c(F)cccc5F)c5ccc2[nH]5)C=C4)C=C3)cc1)C1=C[C@H]2C(=N1)C=CC(Cl)=C2Cl
REMARK SMILES IDX 7 1 6 2 5 3 4 4 3 5 2 6 1 7 66 8 67 9 70 10 68 11 69 12
REMARK SMILES IDX 75 13 71 14 73 15 76 16 72 17 74 18 8 19 9 20 10 21 11 22
REMARK SMILES IDX 12 23 13 24 65 25 14 26 64 27 15 28 16 29 17 30 58 31 18 32
REMARK SMILES IDX 63 33 57 34 59 35 19 36 62 37 56 38 55 39 20 41 46 42 29 43
REMARK SMILES IDX 45 44 30 45 33 46 44 47 60 48 31 49 32 50 43 52 61 53 34 54
REMARK SMILES IDX 21 55 22 56 27 57 23 58 24 59 26 60 28 61 25 62 47 63 48 64
REMARK SMILES IDX 53 65 49 66 50 67 52 68 54 69 51 70 35 71 36 72 41 73 37 74
REMARK SMILES IDX 38 75 40 76 42 77 39 78
REMARK H PARENT 59 40 33 51
REMARK Flexibility Score: inf
ROOT
ATOM      1  C   UNL     1       3.043   0.390   2.170  1.00  0.00     0.202 C 
ENDROOT
BRANCH   1   2
ATOM      2  O   UNL     1       4.380   0.044   1.795  1.00  0.00    -0.374 OA
BRANCH   2   3
ATOM      3  C   UNL     1       4.850   0.636   0.586  1.00  0.00     0.202 C 
BRANCH   3   4
ATOM      4  C   UNL     1       4.607  -0.222  -0.653  1.00  0.00     0.261 C 
BRANCH   4   5
ATOM      5  O   UNL     1       3.219  -0.147  -1.022  1.00  0.00    -0.459 OA
BRANCH   5   6
ATOM      6  C   UNL     1       2.287  -1.062  -0.680  1.00  0.00     0.356 C 
ATOM      7  O   UNL     1       1.091  -0.815  -0.828  1.00  0.00    -0.244 OA
BRANCH   6   8
ATOM      8  C   UNL     1       2.714  -2.393  -0.193  1.00  0.00     0.145 C 
ATOM      9  C   UNL     1       2.117  -3.471  -0.716  1.00  0.00     0.024 C 
ATOM     10  N   UNL     1       3.442  -2.651   0.950  1.00  0.00    -0.245 NA
ATOM     11  C   UNL     1       2.437  -4.649   0.122  1.00  0.00     0.107 C 
ATOM     12  C   UNL     1       3.215  -3.905   1.193  1.00  0.00     0.054 C 
ATOM     13  C   UNL     1       1.335  -5.398   0.818  1.00  0.00     0.050 C 
ATOM     14  C   UNL     1       3.588  -4.643   2.421  1.00  0.00     0.026 C 
ATOM     15  C   UNL     1       1.717  -6.155   1.869  1.00  0.00     0.056 C 
ATOM     16  Cl  UNL     1      -0.142  -4.476   1.095  1.00  0.00    -0.086 Cl
ATOM     17  C   UNL     1       2.860  -5.743   2.683  1.00  0.00     0.023 C 
ATOM     18  Cl  UNL     1       1.622  -7.883   1.618  1.00  0.00    -0.083 Cl
ENDBRANCH   6   8
ENDBRANCH   5   6
ENDBRANCH   4   5
ENDBRANCH   3   4
ENDBRANCH   2   3
ENDBRANCH   1   2
BRANCH   1  19
ATOM     19  C   UNL     1       2.995   1.530   3.188  1.00  0.00     0.261 C 
BRANCH  19  20
ATOM     20  O   UNL     1       3.313   2.777   2.550  1.00  0.00    -0.460 OA
BRANCH  20  21
ATOM     21  C   UNL     1       4.621   3.126   2.589  1.00  0.00     0.338 C 
ATOM     22  O   UNL     1       5.520   2.594   3.210  1.00  0.00    -0.246 OA
BRANCH  21  23
ATOM     23  C   UNL     1       4.843   4.192   1.594  1.00  0.00     0.060 A 
ATOM     24  C   UNL     1       5.984   4.112   0.784  1.00  0.00     0.016 A 
ATOM     25  C   UNL     1       3.958   5.266   1.482  1.00  0.00     0.016 A 
ATOM     26  C   UNL     1       6.279   5.143  -0.104  1.00  0.00     0.010 A 
ATOM     27  C   UNL     1       4.256   6.299   0.599  1.00  0.00     0.010 A 
ATOM     28  C   UNL     1       5.440   6.261  -0.160  1.00  0.00    -0.014 A 
BRANCH  28  29
ATOM     29  C   UNL     1       5.879   7.498  -0.836  1.00  0.00     0.031 A 
ATOM     30  C   UNL     1       6.401   8.615   0.020  1.00  0.00     0.074 A 
ATOM     31  C   UNL     1       5.756   7.643  -2.164  1.00  0.00     0.049 A 
ATOM     32  N   UNL     1       6.665   9.854  -0.298  1.00  0.00    -0.248 NA
ATOM     33  C   UNL     1       6.634   8.290   1.437  1.00  0.00     0.031 C 
ATOM     34  C   UNL     1       5.297   6.609  -3.088  1.00  0.00     0.029 A 
ATOM     35  N   UNL     1       5.976   8.739  -2.956  1.00  0.00    -0.354 N 
ATOM     36  C   UNL     1       7.064  10.465   0.885  1.00  0.00     0.074 A 
ATOM     37  C   UNL     1       6.983   9.468   1.929  1.00  0.00     0.031 C 
ATOM     38  C   UNL     1       5.236   7.132  -4.324  1.00  0.00     0.029 A 
ATOM     39  C   UNL     1       5.607   8.544  -4.264  1.00  0.00     0.049 A 
ATOM     40  H   UNL     1       6.360   9.581  -2.621  1.00  0.00     0.167 HD
ATOM     41  C   UNL     1       7.460  11.744   1.077  1.00  0.00     0.037 A 
ATOM     42  C   UNL     1       5.538   9.424  -5.281  1.00  0.00     0.037 A 
ATOM     43  C   UNL     1       7.528  12.722   0.025  1.00  0.00     0.049 A 
ATOM     44  C   UNL     1       5.926  10.857  -5.037  1.00  0.00     0.074 A 
ATOM     45  C   UNL     1       7.941  14.040   0.095  1.00  0.00     0.029 A 
ATOM     46  N   UNL     1       7.160  12.485  -1.293  1.00  0.00    -0.354 N 
ATOM     47  N   UNL     1       6.323  11.430  -3.925  1.00  0.00    -0.248 NA
ATOM     48  C   UNL     1       5.861  11.768  -6.189  1.00  0.00     0.031 C 
ATOM     49  C   UNL     1       7.766  14.616  -1.167  1.00  0.00     0.029 A 
ATOM     50  C   UNL     1       7.312  13.639  -2.040  1.00  0.00     0.049 A 
ATOM     51  H   UNL     1       6.839  11.623  -1.643  1.00  0.00     0.167 HD
ATOM     52  C   UNL     1       6.589  12.755  -4.249  1.00  0.00     0.074 A 
ATOM     53  C   UNL     1       6.306  12.900  -5.663  1.00  0.00     0.031 C 
ATOM     54  C   UNL     1       7.037  13.756  -3.452  1.00  0.00     0.037 A 
BRANCH  41  55
ATOM     55  C   UNL     1       7.799  12.157   2.481  1.00  0.00     0.057 A 
ATOM     56  C   UNL     1       8.919  11.655   3.158  1.00  0.00     0.134 A 
ATOM     57  C   UNL     1       6.985  13.065   3.171  1.00  0.00     0.134 A 
ATOM     58  F   UNL     1       9.733  10.769   2.564  1.00  0.00    -0.206 F 
ATOM     59  C   UNL     1       9.194  12.009   4.481  1.00  0.00     0.040 A 
ATOM     60  C   UNL     1       7.268  13.453   4.481  1.00  0.00     0.040 A 
ATOM     61  F   UNL     1       5.898  13.588   2.584  1.00  0.00    -0.206 F 
ATOM     62  C   UNL     1       8.369  12.915   5.144  1.00  0.00     0.006 A 
ENDBRANCH  41  55
BRANCH  42  63
ATOM     63  C   UNL     1       5.073   8.966  -6.613  1.00  0.00     0.057 A 
ATOM     64  C   UNL     1       5.959   8.860  -7.690  1.00  0.00     0.134 A 
ATOM     65  C   UNL     1       3.741   8.594  -6.834  1.00  0.00     0.134 A 
ATOM     66  F   UNL     1       7.243   9.218  -7.545  1.00  0.00    -0.206 F 
ATOM     67  C   UNL     1       5.538   8.406  -8.941  1.00  0.00     0.040 A 
ATOM     68  C   UNL     1       3.311   8.115  -8.073  1.00  0.00     0.040 A 
ATOM     69  F   UNL     1       2.843   8.667  -5.841  1.00  0.00    -0.206 F 
ATOM     70  C   UNL     1       4.212   8.024  -9.132  1.00  0.00     0.006 A 
ENDBRANCH  42  63
BRANCH  54  71
ATOM     71  C   UNL     1       7.312  15.085  -4.095  1.00  0.00     0.057 A 
ATOM     72  C   UNL     1       6.284  15.939  -4.513  1.00  0.00     0.134 A 
ATOM     73  C   UNL     1       8.630  15.544  -4.227  1.00  0.00     0.134 A 
ATOM     74  F   UNL     1       5.002  15.556  -4.424  1.00  0.00    -0.206 F 
ATOM     75  C   UNL     1       6.559  17.197  -5.053  1.00  0.00     0.040 A 
ATOM     76  C   UNL     1       8.915  16.810  -4.737  1.00  0.00     0.040 A 
ATOM     77  F   UNL     1       9.660  14.779  -3.835  1.00  0.00    -0.206 F 
ATOM     78  C   UNL     1       7.877  17.640  -5.156  1.00  0.00     0.006 A 
ENDBRANCH  54  71
ENDBRANCH  28  29
ENDBRANCH  21  23
ENDBRANCH  20  21
ENDBRANCH  19  20
ENDBRANCH   1  19
TORSDOF 14
