REMARK SMILES CS(=O)(=O)c1ccc(-n2nc(C(F)(F)F)cc2-c2ccc(CC(=O)OCCOCCOC(=O)c3ccc(-c4c5nc(c(-c6c(F)cccc6F)c6ccc([nH]6)c(-c6c(F)cccc6F)c6nc(c(-c7c(F)cccc7F)c7ccc4[nH]7)C=C6)C=C5)cc3)cc2)cc1
REMARK SMILES IDX 27 1 26 2 25 3 23 4 24 5 22 6 21 7 18 8 19 9 89 10 20 11
REMARK SMILES IDX 88 12 17 13 9 14 10 15 11 16 16 17 8 18 5 19 6 20 91 21 7 22
REMARK SMILES IDX 90 23 2 24 1 25 3 26 4 27 12 28 13 29 14 30 15 31 28 32
REMARK SMILES IDX 29 33 30 34 31 35 32 36 33 37 34 38 35 39 87 40 36 41 86 42
REMARK SMILES IDX 37 43 38 44 39 45 80 46 40 47 85 48 79 49 81 50 41 51 84 52
REMARK SMILES IDX 78 53 77 54 42 56 68 57 51 58 67 59 52 60 55 61 66 62 82 63
REMARK SMILES IDX 53 64 54 65 65 67 83 68 56 69 43 70 44 71 49 72 45 73 46 74
REMARK SMILES IDX 48 75 50 76 47 77 69 78 70 79 75 80 71 81 72 82 74 83 76 84
REMARK SMILES IDX 73 85 57 86 58 87 63 88 59 89 60 90 62 91 64 92 61 93
REMARK H PARENT 81 55 55 66
REMARK Flexibility Score: inf
ROOT
ATOM      1  C   UNL     1      -2.334  -5.733  -5.029  1.00  0.00     0.202 C 
ENDROOT
BRANCH   1   2
ATOM      2  C   UNL     1      -1.582  -6.040  -6.331  1.00  0.00     0.261 C 
BRANCH   2   3
ATOM      3  O   UNL     1      -1.280  -4.909  -7.171  1.00  0.00    -0.463 OA
BRANCH   3   4
ATOM      4  C   UNL     1      -2.099  -4.776  -8.248  1.00  0.00     0.310 C 
ATOM      5  O   UNL     1      -3.022  -5.544  -8.511  1.00  0.00    -0.252 OA
BRANCH   4   6
ATOM      6  C   UNL     1      -1.777  -3.627  -9.172  1.00  0.00     0.158 C 
BRANCH   6   7
ATOM      7  C   UNL     1      -0.925  -2.466  -8.708  1.00  0.00    -0.037 A 
ATOM      8  C   UNL     1       0.600  -0.145  -8.139  1.00  0.00     0.000 A 
ATOM      9  C   UNL     1      -0.764  -0.204  -7.828  1.00  0.00     0.010 A 
ATOM     10  C   UNL     1       1.193  -1.257  -8.749  1.00  0.00     0.010 A 
ATOM     11  C   UNL     1      -1.514  -1.353  -8.094  1.00  0.00     0.005 A 
ATOM     12  C   UNL     1       0.440  -2.408  -9.024  1.00  0.00     0.005 A 
BRANCH   8  13
ATOM     13  C   UNL     1       1.380   1.067  -7.855  1.00  0.00     0.075 A 
ATOM     14  N   UNL     1       1.356   1.821  -6.674  1.00  0.00    -0.233 N 
ATOM     15  N   UNL     1       2.015   3.000  -6.824  1.00  0.00    -0.163 NA
ATOM     16  C   UNL     1       2.587   2.943  -8.041  1.00  0.00     0.167 A 
ATOM     17  C   UNL     1       2.184   1.776  -8.728  1.00  0.00     0.064 A 
BRANCH  14  18
ATOM     18  C   UNL     1       0.770   1.486  -5.414  1.00  0.00     0.065 A 
ATOM     19  C   UNL     1      -0.301   0.770  -2.895  1.00  0.00     0.067 A 
ATOM     20  C   UNL     1       0.127  -0.187  -3.799  1.00  0.00     0.022 A 
ATOM     21  C   UNL     1      -0.254   2.112  -3.270  1.00  0.00     0.022 A 
ATOM     22  C   UNL     1       0.657   0.153  -5.043  1.00  0.00     0.030 A 
ATOM     23  C   UNL     1       0.321   2.470  -4.516  1.00  0.00     0.030 A 
BRANCH  19  24
ATOM     24  S   UNL     1      -0.809   0.213  -1.274  1.00  0.00     0.175 S 
ATOM     25  C   UNL     1       0.499   0.624  -0.145  1.00  0.00     0.163 C 
ATOM     26  O   UNL     1      -0.885  -1.227  -1.321  1.00  0.00    -0.224 OA
ATOM     27  O   UNL     1      -1.983   1.000  -0.923  1.00  0.00    -0.224 OA
ENDBRANCH  19  24
ENDBRANCH  14  18
BRANCH  16  28
ATOM     28  C   UNL     1       3.489   4.016  -8.590  1.00  0.00     0.435 C 
ATOM     29  F   UNL     1       3.115   5.272  -8.232  1.00  0.00    -0.164 F 
ATOM     30  F   UNL     1       4.782   3.858  -8.196  1.00  0.00    -0.164 F 
ATOM     31  F   UNL     1       3.510   4.003  -9.954  1.00  0.00    -0.164 F 
ENDBRANCH  16  28
ENDBRANCH   8  13
ENDBRANCH   6   7
ENDBRANCH   4   6
ENDBRANCH   3   4
ENDBRANCH   2   3
ENDBRANCH   1   2
BRANCH   1  32
ATOM     32  O   UNL     1      -3.361  -4.755  -5.040  1.00  0.00    -0.374 OA
BRANCH  32  33
ATOM     33  C   UNL     1      -2.998  -3.413  -5.319  1.00  0.00     0.202 C 
BRANCH  33  34
ATOM     34  C   UNL     1      -1.887  -2.761  -4.505  1.00  0.00     0.261 C 
BRANCH  34  35
ATOM     35  O   UNL     1      -0.590  -3.383  -4.590  1.00  0.00    -0.460 OA
BRANCH  35  36
ATOM     36  C   UNL     1      -0.113  -3.887  -3.411  1.00  0.00     0.338 C 
ATOM     37  O   UNL     1      -0.776  -4.367  -2.509  1.00  0.00    -0.246 OA
BRANCH  36  38
ATOM     38  C   UNL     1       1.292  -3.443  -3.232  1.00  0.00     0.060 A 
ATOM     39  C   UNL     1       1.649  -3.113  -1.920  1.00  0.00     0.016 A 
ATOM     40  C   UNL     1       2.029  -2.948  -4.309  1.00  0.00     0.016 A 
ATOM     41  C   UNL     1       2.539  -2.069  -1.701  1.00  0.00     0.010 A 
ATOM     42  C   UNL     1       2.905  -1.890  -4.080  1.00  0.00     0.010 A 
ATOM     43  C   UNL     1       3.068  -1.362  -2.788  1.00  0.00    -0.014 A 
BRANCH  43  44
ATOM     44  C   UNL     1       4.083  -0.323  -2.555  1.00  0.00     0.031 A 
ATOM     45  C   UNL     1       5.365  -0.998  -2.352  1.00  0.00     0.074 A 
ATOM     46  C   UNL     1       4.030   1.027  -2.494  1.00  0.00     0.049 A 
ATOM     47  N   UNL     1       5.828  -1.302  -1.187  1.00  0.00    -0.248 NA
ATOM     48  C   UNL     1       6.019  -1.669  -3.478  1.00  0.00     0.031 C 
ATOM     49  C   UNL     1       2.888   1.893  -2.638  1.00  0.00     0.029 A 
ATOM     50  N   UNL     1       5.030   1.950  -2.309  1.00  0.00    -0.354 N 
ATOM     51  C   UNL     1       7.005  -1.961  -1.462  1.00  0.00     0.074 A 
ATOM     52  C   UNL     1       6.894  -2.430  -2.818  1.00  0.00     0.031 C 
ATOM     53  C   UNL     1       3.248   3.179  -2.836  1.00  0.00     0.029 A 
ATOM     54  C   UNL     1       4.677   3.268  -2.645  1.00  0.00     0.049 A 
ATOM     55  H   UNL     1       5.922   1.708  -1.969  1.00  0.00     0.167 HD
ATOM     56  C   UNL     1       8.102  -1.671  -0.719  1.00  0.00     0.037 A 
ATOM     57  C   UNL     1       5.448   4.390  -2.659  1.00  0.00     0.037 A 
ATOM     58  C   UNL     1       7.739  -1.047   0.539  1.00  0.00     0.049 A 
ATOM     59  C   UNL     1       6.554   4.149  -1.710  1.00  0.00     0.074 A 
ATOM     60  C   UNL     1       6.858  -1.353   1.563  1.00  0.00     0.029 A 
ATOM     61  N   UNL     1       8.046   0.281   0.709  1.00  0.00    -0.354 N 
ATOM     62  N   UNL     1       6.384   4.138  -0.418  1.00  0.00    -0.248 NA
ATOM     63  C   UNL     1       7.707   3.418  -2.206  1.00  0.00     0.031 C 
ATOM     64  C   UNL     1       6.332  -0.102   2.004  1.00  0.00     0.029 A 
ATOM     65  C   UNL     1       6.971   0.905   1.287  1.00  0.00     0.049 A 
ATOM     66  H   UNL     1       8.895   0.712   0.458  1.00  0.00     0.167 HD
ATOM     67  C   UNL     1       7.077   3.014  -0.004  1.00  0.00     0.074 A 
ATOM     68  C   UNL     1       7.939   2.658  -1.133  1.00  0.00     0.031 C 
ATOM     69  C   UNL     1       6.660   2.299   1.080  1.00  0.00     0.037 A 
BRANCH  56  70
ATOM     70  C   UNL     1       9.462  -1.519  -1.348  1.00  0.00     0.057 A 
ATOM     71  C   UNL     1      10.572  -1.407  -0.502  1.00  0.00     0.134 A 
ATOM     72  C   UNL     1       9.706  -1.200  -2.705  1.00  0.00     0.134 A 
ATOM     73  F   UNL     1      10.459  -1.654   0.811  1.00  0.00    -0.206 F 
ATOM     74  C   UNL     1      11.809  -0.942  -0.957  1.00  0.00     0.040 A 
ATOM     75  C   UNL     1      10.951  -0.796  -3.180  1.00  0.00     0.040 A 
ATOM     76  F   UNL     1       8.748  -1.152  -3.635  1.00  0.00    -0.206 F 
ATOM     77  C   UNL     1      12.001  -0.631  -2.298  1.00  0.00     0.006 A 
ENDBRANCH  56  70
BRANCH  57  78
ATOM     78  C   UNL     1       5.442   5.562  -3.577  1.00  0.00     0.057 A 
ATOM     79  C   UNL     1       6.331   6.638  -3.385  1.00  0.00     0.134 A 
ATOM     80  C   UNL     1       4.803   5.528  -4.825  1.00  0.00     0.134 A 
ATOM     81  F   UNL     1       7.008   6.769  -2.235  1.00  0.00    -0.206 F 
ATOM     82  C   UNL     1       6.620   7.571  -4.394  1.00  0.00     0.040 A 
ATOM     83  C   UNL     1       5.077   6.460  -5.837  1.00  0.00     0.040 A 
ATOM     84  F   UNL     1       3.955   4.541  -5.138  1.00  0.00    -0.206 F 
ATOM     85  C   UNL     1       6.008   7.469  -5.635  1.00  0.00     0.006 A 
ENDBRANCH  57  78
BRANCH  69  86
ATOM     86  C   UNL     1       5.664   2.933   2.013  1.00  0.00     0.057 A 
ATOM     87  C   UNL     1       4.358   3.314   1.666  1.00  0.00     0.134 A 
ATOM     88  C   UNL     1       6.020   3.055   3.362  1.00  0.00     0.134 A 
ATOM     89  F   UNL     1       3.888   3.143   0.422  1.00  0.00    -0.206 F 
ATOM     90  C   UNL     1       3.470   3.839   2.614  1.00  0.00     0.040 A 
ATOM     91  C   UNL     1       5.132   3.542   4.322  1.00  0.00     0.040 A 
ATOM     92  F   UNL     1       7.236   2.664   3.776  1.00  0.00    -0.206 F 
ATOM     93  C   UNL     1       3.856   3.949   3.948  1.00  0.00     0.006 A 
ENDBRANCH  69  86
ENDBRANCH  43  44
ENDBRANCH  36  38
ENDBRANCH  35  36
ENDBRANCH  34  35
ENDBRANCH  33  34
ENDBRANCH  32  33
ENDBRANCH   1  32
TORSDOF 19
