REMARK SMILES CC(=O)NNC(=O)CSC[C@@H]([NH3+])C(=O)OCCOCCOC(=O)c1ccc(-c2c3nc(c(-c4c(F)cccc4F)c4ccc([nH]4)c(-c4c(F)cccc4F)c4nc(c(-c5c(F)cccc5F)c5ccc2[nH]5)C=C4)C=C3)cc1
REMARK SMILES IDX 16 1 15 2 13 3 14 4 11 5 10 6 9 7 8 8 6 9 5 10 7 12 4 13
REMARK SMILES IDX 1 14 2 15 3 16 12 18 17 22 18 23 19 24 20 25 21 26 22 27
REMARK SMILES IDX 23 28 24 29 25 30 77 31 26 32 76 33 27 34 28 35 29 36 70 37
REMARK SMILES IDX 30 38 75 39 69 40 71 41 31 42 74 43 68 44 67 45 32 47 58 48
REMARK SMILES IDX 41 49 57 50 42 51 45 52 56 53 72 54 43 55 44 56 55 58 73 59
REMARK SMILES IDX 46 60 33 61 34 62 39 63 35 64 36 65 38 66 40 67 37 68 59 69
REMARK SMILES IDX 60 70 65 71 61 72 62 73 64 74 66 75 63 76 47 77 48 78 53 79
REMARK SMILES IDX 49 80 50 81 52 82 54 83 51 84
REMARK H PARENT 5 11 4 17 12 19 12 20 12 21 71 46 45 57
REMARK Flexibility Score: inf
ROOT
ATOM      1  C   UNL     1       7.911  -3.873   5.094  1.00  0.00     0.261 C 
ENDROOT
BRANCH   1   2
ATOM      2  O   UNL     1       6.498  -3.644   4.968  1.00  0.00    -0.459 OA
BRANCH   2   3
ATOM      3  C   UNL     1       5.707  -4.469   5.702  1.00  0.00     0.365 C 
ATOM      4  O   UNL     1       6.111  -5.424   6.363  1.00  0.00    -0.245 OA
BRANCH   3   5
ATOM      5  C   UNL     1       4.216  -4.084   5.680  1.00  0.00     0.301 C 
BRANCH   5   6
ATOM      6  C   UNL     1       3.873  -2.906   4.756  1.00  0.00     0.147 C 
BRANCH   6   7
ATOM      7  S   UNL     1       2.135  -2.315   4.925  1.00  0.00    -0.145 SA
BRANCH   7   8
ATOM      8  C   UNL     1       1.281  -3.403   3.730  1.00  0.00     0.171 C 
BRANCH   8   9
ATOM      9  C   UNL     1       1.869  -3.287   2.337  1.00  0.00     0.248 C 
ATOM     10  N   UNL     1       1.662  -2.135   1.618  1.00  0.00    -0.267 N 
ATOM     11  H   UNL     1       2.034  -2.087   0.708  1.00  0.00     0.191 HD
ATOM     12  O   UNL     1       2.527  -4.196   1.829  1.00  0.00    -0.272 OA
BRANCH  10  13
ATOM     13  N   UNL     1       0.960  -1.031   2.092  1.00  0.00    -0.268 N 
ATOM     14  C   UNL     1       0.916  -0.036  -0.159  1.00  0.00     0.116 C 
ATOM     15  C   UNL     1       0.556   0.016   1.301  1.00  0.00     0.235 C 
ATOM     16  O   UNL     1      -0.061   0.961   1.787  1.00  0.00    -0.274 OA
ATOM     17  H   UNL     1       0.740  -0.999   3.051  1.00  0.00     0.191 HD
ENDBRANCH  10  13
ENDBRANCH   8   9
ENDBRANCH   7   8
ENDBRANCH   6   7
ENDBRANCH   5   6
BRANCH   5  18
ATOM     18  N   UNL     1       3.434  -5.303   5.366  1.00  0.00    -0.345 N 
ATOM     19  H   UNL     1       3.694  -5.644   4.440  1.00  0.00     0.345 HD
ATOM     20  H   UNL     1       2.439  -5.080   5.379  1.00  0.00     0.345 HD
ATOM     21  H   UNL     1       3.631  -6.022   6.061  1.00  0.00     0.345 HD
ENDBRANCH   5  18
ENDBRANCH   3   5
ENDBRANCH   2   3
ENDBRANCH   1   2
BRANCH   1  22
ATOM     22  C   UNL     1       8.649  -2.613   5.551  1.00  0.00     0.202 C 
BRANCH  22  23
ATOM     23  O   UNL     1       8.211  -2.033   6.777  1.00  0.00    -0.374 OA
BRANCH  23  24
ATOM     24  C   UNL     1       7.011  -1.258   6.751  1.00  0.00     0.202 C 
BRANCH  24  25
ATOM     25  C   UNL     1       7.089   0.114   6.066  1.00  0.00     0.261 C 
BRANCH  25  26
ATOM     26  O   UNL     1       7.300   0.008   4.644  1.00  0.00    -0.460 OA
BRANCH  26  27
ATOM     27  C   UNL     1       8.454   0.562   4.200  1.00  0.00     0.338 C 
ATOM     28  O   UNL     1       9.272   1.195   4.854  1.00  0.00    -0.246 OA
BRANCH  27  29
ATOM     29  C   UNL     1       8.719   0.157   2.808  1.00  0.00     0.060 A 
ATOM     30  C   UNL     1       9.944  -0.468   2.539  1.00  0.00     0.016 A 
ATOM     31  C   UNL     1       7.841   0.472   1.770  1.00  0.00     0.016 A 
ATOM     32  C   UNL     1      10.319  -0.735   1.224  1.00  0.00     0.010 A 
ATOM     33  C   UNL     1       8.224   0.212   0.448  1.00  0.00     0.010 A 
ATOM     34  C   UNL     1       9.480  -0.358   0.168  1.00  0.00    -0.014 A 
BRANCH  34  35
ATOM     35  C   UNL     1       9.988  -0.425  -1.224  1.00  0.00     0.031 A 
ATOM     36  C   UNL     1      10.534   0.822  -1.864  1.00  0.00     0.074 A 
ATOM     37  C   UNL     1      10.004  -1.588  -1.898  1.00  0.00     0.049 A 
ATOM     38  N   UNL     1      11.015   0.996  -3.069  1.00  0.00    -0.248 NA
ATOM     39  C   UNL     1      10.542   2.036  -1.032  1.00  0.00     0.031 C 
ATOM     40  C   UNL     1       9.545  -2.874  -1.376  1.00  0.00     0.029 A 
ATOM     41  N   UNL     1      10.425  -1.872  -3.173  1.00  0.00    -0.354 N 
ATOM     42  C   UNL     1      11.379   2.334  -3.141  1.00  0.00     0.074 A 
ATOM     43  C   UNL     1      11.038   2.935  -1.869  1.00  0.00     0.031 C 
ATOM     44  C   UNL     1       9.705  -3.811  -2.327  1.00  0.00     0.029 A 
ATOM     45  C   UNL     1      10.250  -3.186  -3.530  1.00  0.00     0.049 A 
ATOM     46  H   UNL     1      10.816  -1.198  -3.775  1.00  0.00     0.167 HD
ATOM     47  C   UNL     1      11.956   3.002  -4.169  1.00  0.00     0.037 A 
ATOM     48  C   UNL     1      10.488  -3.808  -4.701  1.00  0.00     0.037 A 
ATOM     49  C   UNL     1      12.299   2.407  -5.434  1.00  0.00     0.049 A 
ATOM     50  C   UNL     1      11.061  -3.028  -5.854  1.00  0.00     0.074 A 
ATOM     51  C   UNL     1      12.897   3.000  -6.532  1.00  0.00     0.029 A 
ATOM     52  N   UNL     1      12.068   1.082  -5.770  1.00  0.00    -0.354 N 
ATOM     53  N   UNL     1      11.416  -1.767  -5.905  1.00  0.00    -0.248 NA
ATOM     54  C   UNL     1      11.267  -3.760  -7.113  1.00  0.00     0.031 C 
ATOM     55  C   UNL     1      12.990   2.044  -7.549  1.00  0.00     0.029 A 
ATOM     56  C   UNL     1      12.491   0.844  -7.067  1.00  0.00     0.049 A 
ATOM     57  H   UNL     1      11.664   0.410  -5.175  1.00  0.00     0.167 HD
ATOM     58  C   UNL     1      11.911  -1.562  -7.188  1.00  0.00     0.074 A 
ATOM     59  C   UNL     1      11.819  -2.830  -7.880  1.00  0.00     0.031 C 
ATOM     60  C   UNL     1      12.400  -0.425  -7.741  1.00  0.00     0.037 A 
BRANCH  47  61
ATOM     61  C   UNL     1      12.235   4.462  -3.972  1.00  0.00     0.057 A 
ATOM     62  C   UNL     1      13.275   4.911  -3.149  1.00  0.00     0.134 A 
ATOM     63  C   UNL     1      11.473   5.430  -4.639  1.00  0.00     0.134 A 
ATOM     64  F   UNL     1      14.032   4.035  -2.471  1.00  0.00    -0.206 F 
ATOM     65  C   UNL     1      13.536   6.272  -2.981  1.00  0.00     0.040 A 
ATOM     66  C   UNL     1      11.739   6.792  -4.497  1.00  0.00     0.040 A 
ATOM     67  F   UNL     1      10.464   5.066  -5.445  1.00  0.00    -0.206 F 
ATOM     68  C   UNL     1      12.770   7.217  -3.661  1.00  0.00     0.006 A 
ENDBRANCH  47  61
BRANCH  48  69
ATOM     69  C   UNL     1      10.175  -5.251  -4.852  1.00  0.00     0.057 A 
ATOM     70  C   UNL     1      11.192  -6.205  -4.978  1.00  0.00     0.134 A 
ATOM     71  C   UNL     1       8.853  -5.707  -4.897  1.00  0.00     0.134 A 
ATOM     72  F   UNL     1      12.478  -5.825  -4.968  1.00  0.00    -0.206 F 
ATOM     73  C   UNL     1      10.905  -7.559  -5.158  1.00  0.00     0.040 A 
ATOM     74  C   UNL     1       8.551  -7.061  -5.052  1.00  0.00     0.040 A 
ATOM     75  F   UNL     1       7.834  -4.842  -4.784  1.00  0.00    -0.206 F 
ATOM     76  C   UNL     1       9.580  -7.990  -5.190  1.00  0.00     0.006 A 
ENDBRANCH  48  69
BRANCH  60  77
ATOM     77  C   UNL     1      12.903  -0.507  -9.152  1.00  0.00     0.057 A 
ATOM     78  C   UNL     1      12.032  -0.605 -10.243  1.00  0.00     0.134 A 
ATOM     79  C   UNL     1      14.276  -0.445  -9.423  1.00  0.00     0.134 A 
ATOM     80  F   UNL     1      10.706  -0.681 -10.050  1.00  0.00    -0.206 F 
ATOM     81  C   UNL     1      12.509  -0.658 -11.554  1.00  0.00     0.040 A 
ATOM     82  C   UNL     1      14.764  -0.473 -10.730  1.00  0.00     0.040 A 
ATOM     83  F   UNL     1      15.164  -0.341  -8.423  1.00  0.00    -0.206 F 
ATOM     84  C   UNL     1      13.879  -0.585 -11.800  1.00  0.00     0.006 A 
ENDBRANCH  60  77
ENDBRANCH  34  35
ENDBRANCH  27  29
ENDBRANCH  26  27
ENDBRANCH  25  26
ENDBRANCH  24  25
ENDBRANCH  23  24
ENDBRANCH  22  23
ENDBRANCH   1  22
TORSDOF 20
