REMARK SMILES O=C(OCCOCCOC(=O)c1ccc(-c2c3nc(c(-c4c(F)cccc4F)c4ccc([nH]4)c(-c4c(F)cccc4F)c4nc(c(-c5c(F)cccc5F)c5ccc2[nH]5)C=C4)C=C3)cc1)c1ccc(NC(=O)[C@H]2CCS(=O)(=O)C2)cc1
REMARK SMILES IDX 6 1 5 2 4 3 3 4 2 5 1 6 66 7 67 8 81 9 68 10 80 11 69 12
REMARK SMILES IDX 70 13 71 14 72 16 73 17 74 18 79 19 75 20 76 21 77 22 78 23
REMARK SMILES IDX 7 24 8 25 9 26 10 27 11 28 12 29 13 30 65 31 14 32 64 33
REMARK SMILES IDX 15 34 16 35 17 36 58 37 18 38 63 39 57 40 59 41 19 42 62 43
REMARK SMILES IDX 56 44 55 45 20 47 46 48 29 49 45 50 30 51 33 52 44 53 60 54
REMARK SMILES IDX 31 55 32 56 43 58 61 59 34 60 21 61 22 62 27 63 23 64 24 65
REMARK SMILES IDX 26 66 28 67 25 68 47 69 48 70 53 71 49 72 50 73 52 74 54 75
REMARK SMILES IDX 51 76 35 77 36 78 41 79 37 80 38 81 40 82 42 83 39 84
REMARK H PARENT 70 15 59 46 33 57
REMARK Flexibility Score: inf
ROOT
ATOM      1  O   UNL     1      11.788   2.852   1.305  1.00  0.00    -0.374 OA
ENDROOT
BRANCH   1   2
ATOM      2  C   UNL     1      11.914   1.609   0.612  1.00  0.00     0.202 C 
BRANCH   2   3
ATOM      3  C   UNL     1      12.052   1.831  -0.893  1.00  0.00     0.261 C 
BRANCH   3   4
ATOM      4  O   UNL     1      13.196   2.670  -1.190  1.00  0.00    -0.460 OA
BRANCH   4   5
ATOM      5  C   UNL     1      13.124   4.009  -1.423  1.00  0.00     0.338 C 
ATOM      6  O   UNL     1      14.116   4.721  -1.488  1.00  0.00    -0.246 OA
BRANCH   5   7
ATOM      7  C   UNL     1      11.786   4.587  -1.631  1.00  0.00     0.060 A 
ATOM      8  C   UNL     1      11.088   5.139  -0.556  1.00  0.00     0.018 A 
ATOM      9  C   UNL     1      11.204   4.535  -2.897  1.00  0.00     0.018 A 
ATOM     10  C   UNL     1       9.743   5.464  -0.702  1.00  0.00     0.027 A 
ATOM     11  C   UNL     1       9.860   4.882  -3.040  1.00  0.00     0.027 A 
ATOM     12  C   UNL     1       9.104   5.227  -1.913  1.00  0.00     0.041 A 
BRANCH  12  13
ATOM     13  N   UNL     1       7.725   5.345  -2.065  1.00  0.00    -0.326 N 
ATOM     14  C   UNL     1       6.680   5.071  -1.244  1.00  0.00     0.228 C 
ATOM     15  H   UNL     1       7.454   5.697  -2.944  1.00  0.00     0.169 HD
ATOM     16  O   UNL     1       5.587   5.539  -1.596  1.00  0.00    -0.274 OA
BRANCH  14  17
ATOM     17  C   UNL     1       6.696   4.120  -0.039  1.00  0.00     0.095 C 
ATOM     18  C   UNL     1       5.705   2.972  -0.360  1.00  0.00     0.030 C 
ATOM     19  C   UNL     1       7.945   3.385   0.431  1.00  0.00     0.150 C 
ATOM     20  C   UNL     1       5.707   2.008   0.816  1.00  0.00     0.138 C 
ATOM     21  S   UNL     1       7.361   2.051   1.462  1.00  0.00     0.151 S 
ATOM     22  O   UNL     1       7.282   2.518   2.830  1.00  0.00    -0.229 OA
ATOM     23  O   UNL     1       8.050   0.834   1.084  1.00  0.00    -0.229 OA
ENDBRANCH  14  17
ENDBRANCH  12  13
ENDBRANCH   5   7
ENDBRANCH   4   5
ENDBRANCH   3   4
ENDBRANCH   2   3
ENDBRANCH   1   2
BRANCH   1  24
ATOM     24  C   UNL     1      13.004   3.318   1.907  1.00  0.00     0.202 C 
BRANCH  24  25
ATOM     25  C   UNL     1      12.814   3.446   3.418  1.00  0.00     0.261 C 
BRANCH  25  26
ATOM     26  O   UNL     1      12.892   2.135   3.992  1.00  0.00    -0.460 OA
BRANCH  26  27
ATOM     27  C   UNL     1      11.728   1.443   4.018  1.00  0.00     0.338 C 
ATOM     28  O   UNL     1      10.601   1.891   3.909  1.00  0.00    -0.246 OA
BRANCH  27  29
ATOM     29  C   UNL     1      12.061   0.002   4.002  1.00  0.00     0.060 A 
ATOM     30  C   UNL     1      11.172  -0.882   3.377  1.00  0.00     0.016 A 
ATOM     31  C   UNL     1      13.266  -0.469   4.538  1.00  0.00     0.016 A 
ATOM     32  C   UNL     1      11.480  -2.241   3.303  1.00  0.00     0.010 A 
ATOM     33  C   UNL     1      13.578  -1.822   4.454  1.00  0.00     0.010 A 
ATOM     34  C   UNL     1      12.676  -2.716   3.857  1.00  0.00    -0.014 A 
BRANCH  34  35
ATOM     35  C   UNL     1      12.956  -4.165   3.942  1.00  0.00     0.031 A 
ATOM     36  C   UNL     1      12.745  -4.856   5.258  1.00  0.00     0.074 A 
ATOM     37  C   UNL     1      13.451  -4.829   2.883  1.00  0.00     0.049 A 
ATOM     38  N   UNL     1      13.036  -6.081   5.608  1.00  0.00    -0.248 NA
ATOM     39  C   UNL     1      12.140  -4.048   6.331  1.00  0.00     0.031 C 
ATOM     40  C   UNL     1      13.695  -4.252   1.561  1.00  0.00     0.029 A 
ATOM     41  N   UNL     1      13.862  -6.131   2.764  1.00  0.00    -0.354 N 
ATOM     42  C   UNL     1      12.658  -6.188   6.940  1.00  0.00     0.074 A 
ATOM     43  C   UNL     1      12.148  -4.898   7.346  1.00  0.00     0.031 C 
ATOM     44  C   UNL     1      14.234  -5.195   0.768  1.00  0.00     0.029 A 
ATOM     45  C   UNL     1      14.400  -6.427   1.535  1.00  0.00     0.049 A 
ATOM     46  H   UNL     1      13.780  -6.792   3.490  1.00  0.00     0.167 HD
ATOM     47  C   UNL     1      12.725  -7.272   7.746  1.00  0.00     0.037 A 
ATOM     48  C   UNL     1      14.984  -7.558   1.097  1.00  0.00     0.037 A 
ATOM     49  C   UNL     1      13.231  -8.552   7.329  1.00  0.00     0.049 A 
ATOM     50  C   UNL     1      15.086  -8.736   2.031  1.00  0.00     0.074 A 
ATOM     51  C   UNL     1      13.304  -9.728   8.053  1.00  0.00     0.029 A 
ATOM     52  N   UNL     1      13.758  -8.817   6.074  1.00  0.00    -0.354 N 
ATOM     53  N   UNL     1      14.677  -8.847   3.272  1.00  0.00    -0.248 NA
ATOM     54  C   UNL     1      15.731  -9.947   1.502  1.00  0.00     0.031 C 
ATOM     55  C   UNL     1      13.920 -10.694   7.251  1.00  0.00     0.029 A 
ATOM     56  C   UNL     1      14.185 -10.132   6.012  1.00  0.00     0.049 A 
ATOM     57  H   UNL     1      13.820  -8.167   5.338  1.00  0.00     0.167 HD
ATOM     58  C   UNL     1      14.991 -10.142   3.664  1.00  0.00     0.074 A 
ATOM     59  C   UNL     1      15.608 -10.785   2.522  1.00  0.00     0.031 C 
ATOM     60  C   UNL     1      14.790 -10.749   4.859  1.00  0.00     0.037 A 
BRANCH  47  61
ATOM     61  C   UNL     1      12.251  -7.117   9.160  1.00  0.00     0.057 A 
ATOM     62  C   UNL     1      10.892  -6.993   9.474  1.00  0.00     0.134 A 
ATOM     63  C   UNL     1      13.162  -7.137  10.224  1.00  0.00     0.134 A 
ATOM     64  F   UNL     1       9.970  -6.952   8.501  1.00  0.00    -0.206 F 
ATOM     65  C   UNL     1      10.456  -6.881  10.796  1.00  0.00     0.040 A 
ATOM     66  C   UNL     1      12.736  -7.049  11.550  1.00  0.00     0.040 A 
ATOM     67  F   UNL     1      14.478  -7.253   9.992  1.00  0.00    -0.206 F 
ATOM     68  C   UNL     1      11.379  -6.918  11.839  1.00  0.00     0.006 A 
ENDBRANCH  47  61
BRANCH  48  69
ATOM     69  C   UNL     1      15.534  -7.636  -0.281  1.00  0.00     0.057 A 
ATOM     70  C   UNL     1      14.955  -8.469  -1.246  1.00  0.00     0.134 A 
ATOM     71  C   UNL     1      16.671  -6.911  -0.656  1.00  0.00     0.134 A 
ATOM     72  F   UNL     1      13.878  -9.207  -0.942  1.00  0.00    -0.206 F 
ATOM     73  C   UNL     1      15.501  -8.597  -2.525  1.00  0.00     0.040 A 
ATOM     74  C   UNL     1      17.212  -7.008  -1.939  1.00  0.00     0.040 A 
ATOM     75  F   UNL     1      17.273  -6.093   0.221  1.00  0.00    -0.206 F 
ATOM     76  C   UNL     1      16.632  -7.862  -2.875  1.00  0.00     0.006 A 
ENDBRANCH  48  69
BRANCH  60  77
ATOM     77  C   UNL     1      15.213 -12.183   4.980  1.00  0.00     0.057 A 
ATOM     78  C   UNL     1      16.562 -12.550   5.052  1.00  0.00     0.134 A 
ATOM     79  C   UNL     1      14.257 -13.203   5.069  1.00  0.00     0.134 A 
ATOM     80  F   UNL     1      17.526 -11.621   4.960  1.00  0.00    -0.206 F 
ATOM     81  C   UNL     1      16.947 -13.885   5.186  1.00  0.00     0.040 A 
ATOM     82  C   UNL     1      14.628 -14.537   5.231  1.00  0.00     0.040 A 
ATOM     83  F   UNL     1      12.947 -12.916   5.018  1.00  0.00    -0.206 F 
ATOM     84  C   UNL     1      15.977 -14.882   5.283  1.00  0.00     0.006 A 
ENDBRANCH  60  77
ENDBRANCH  34  35
ENDBRANCH  27  29
ENDBRANCH  26  27
ENDBRANCH  25  26
ENDBRANCH  24  25
ENDBRANCH   1  24
TORSDOF 16
