REMARK SMILES Cc1cccc(NC(=O)[C@H]2C=C[C@@H]([NH3+])C2)c1C(=O)OCCOCCOC(=O)c1ccc(-c2c3nc(c(-c4c(F)cccc4F)c4ccc([nH]4)c(-c4c(F)cccc4F)c4nc(c(-c5c(F)cccc5F)c5ccc2[nH]5)C=C4)C=C3)cc1
REMARK SMILES IDX 21 1 20 2 19 3 17 4 18 5 16 6 1 7 2 8 3 9 4 10 6 11 5 12
REMARK SMILES IDX 7 13 8 14 9 16 10 17 11 18 15 19 12 20 13 21 14 22 22 26
REMARK SMILES IDX 23 27 24 28 25 29 26 30 27 31 28 32 29 33 81 34 30 35 80 36
REMARK SMILES IDX 31 37 32 38 33 39 74 40 34 41 79 42 73 43 75 44 35 45 78 46
REMARK SMILES IDX 72 47 71 48 36 50 62 51 45 52 61 53 46 54 49 55 60 56 76 57
REMARK SMILES IDX 47 58 48 59 59 61 77 62 50 63 37 64 38 65 43 66 39 67 40 68
REMARK SMILES IDX 42 69 44 70 41 71 63 72 64 73 69 74 65 75 66 76 68 77 70 78
REMARK SMILES IDX 67 79 51 80 52 81 57 82 53 83 54 84 56 85 58 86 55 87
REMARK H PARENT 7 15 14 23 14 24 14 25 75 49 49 60
REMARK Flexibility Score: inf
ROOT
ATOM      1  C   UNL     1       2.135   2.271  -2.580  1.00  0.00     0.202 C 
ENDROOT
BRANCH   1   2
ATOM      2  C   UNL     1       2.734   2.326  -1.201  1.00  0.00     0.261 C 
BRANCH   2   3
ATOM      3  O   UNL     1       2.135   1.315  -0.389  1.00  0.00    -0.460 OA
BRANCH   3   4
ATOM      4  C   UNL     1       0.910   1.547   0.142  1.00  0.00     0.340 C 
ATOM      5  O   UNL     1       0.424   2.632   0.404  1.00  0.00    -0.246 OA
BRANCH   4   6
ATOM      6  C   UNL     1       0.149   0.273   0.047  1.00  0.00     0.086 A 
ATOM      7  C   UNL     1       2.236  -1.273   0.371  1.00  0.00     0.045 C 
ATOM      8  C   UNL     1       0.802  -0.991  -0.004  1.00  0.00    -0.034 A 
ATOM      9  C   UNL     1       0.083  -2.092  -0.480  1.00  0.00     0.004 A 
ATOM     10  C   UNL     1      -1.206  -1.932  -0.960  1.00  0.00     0.002 A 
ATOM     11  C   UNL     1      -1.237   0.386  -0.245  1.00  0.00     0.056 A 
ATOM     12  C   UNL     1      -1.838  -0.694  -0.864  1.00  0.00     0.027 A 
BRANCH  11  13
ATOM     13  N   UNL     1      -1.949   1.576   0.032  1.00  0.00    -0.325 N 
ATOM     14  C   UNL     1      -3.252   1.955   0.121  1.00  0.00     0.231 C 
ATOM     15  H   UNL     1      -1.340   2.330   0.207  1.00  0.00     0.169 HD
ATOM     16  O   UNL     1      -3.435   3.177   0.270  1.00  0.00    -0.274 OA
BRANCH  14  17
ATOM     17  C   UNL     1      -4.515   1.079   0.028  1.00  0.00     0.107 C 
ATOM     18  C   UNL     1      -4.997   0.931  -1.384  1.00  0.00    -0.012 C 
ATOM     19  C   UNL     1      -4.597  -0.335   0.613  1.00  0.00     0.087 C 
ATOM     20  C   UNL     1      -5.468  -0.298  -1.623  1.00  0.00     0.033 C 
ATOM     21  C   UNL     1      -5.383  -1.180  -0.419  1.00  0.00     0.205 C 
BRANCH  21  22
ATOM     22  N   UNL     1      -4.750  -2.449  -0.738  1.00  0.00    -0.352 N 
ATOM     23  H   UNL     1      -3.818  -2.278  -1.118  1.00  0.00     0.345 HD
ATOM     24  H   UNL     1      -5.312  -2.946  -1.428  1.00  0.00     0.345 HD
ATOM     25  H   UNL     1      -4.673  -3.013   0.109  1.00  0.00     0.345 HD
ENDBRANCH  21  22
ENDBRANCH  14  17
ENDBRANCH  11  13
ENDBRANCH   4   6
ENDBRANCH   3   4
ENDBRANCH   2   3
ENDBRANCH   1   2
BRANCH   1  26
ATOM     26  O   UNL     1       0.963   3.075  -2.528  1.00  0.00    -0.374 OA
BRANCH  26  27
ATOM     27  C   UNL     1       0.342   3.328  -3.777  1.00  0.00     0.202 C 
BRANCH  27  28
ATOM     28  C   UNL     1       1.244   4.085  -4.766  1.00  0.00     0.261 C 
BRANCH  28  29
ATOM     29  O   UNL     1       1.660   5.334  -4.176  1.00  0.00    -0.460 OA
BRANCH  29  30
ATOM     30  C   UNL     1       2.934   5.388  -3.704  1.00  0.00     0.338 C 
ATOM     31  O   UNL     1       3.923   4.933  -4.263  1.00  0.00    -0.246 OA
BRANCH  30  32
ATOM     32  C   UNL     1       2.920   5.811  -2.273  1.00  0.00     0.060 A 
ATOM     33  C   UNL     1       4.090   5.697  -1.496  1.00  0.00     0.016 A 
ATOM     34  C   UNL     1       1.688   5.998  -1.646  1.00  0.00     0.016 A 
ATOM     35  C   UNL     1       4.004   5.617  -0.096  1.00  0.00     0.010 A 
ATOM     36  C   UNL     1       1.602   5.844  -0.276  1.00  0.00     0.010 A 
ATOM     37  C   UNL     1       2.746   5.614   0.507  1.00  0.00    -0.014 A 
BRANCH  37  38
ATOM     38  C   UNL     1       2.454   5.199   1.886  1.00  0.00     0.031 A 
ATOM     39  C   UNL     1       1.685   6.100   2.779  1.00  0.00     0.074 A 
ATOM     40  C   UNL     1       2.576   3.893   2.232  1.00  0.00     0.049 A 
ATOM     41  N   UNL     1       1.441   5.834   4.015  1.00  0.00    -0.248 NA
ATOM     42  C   UNL     1       1.160   7.408   2.383  1.00  0.00     0.031 C 
ATOM     43  C   UNL     1       1.798   3.159   3.233  1.00  0.00     0.029 A 
ATOM     44  N   UNL     1       3.458   2.925   1.740  1.00  0.00    -0.354 N 
ATOM     45  C   UNL     1       0.453   6.686   4.439  1.00  0.00     0.074 A 
ATOM     46  C   UNL     1       0.432   7.737   3.457  1.00  0.00     0.031 C 
ATOM     47  C   UNL     1       2.364   1.963   3.459  1.00  0.00     0.029 A 
ATOM     48  C   UNL     1       3.612   1.931   2.721  1.00  0.00     0.049 A 
ATOM     49  H   UNL     1       3.896   2.937   0.858  1.00  0.00     0.167 HD
ATOM     50  C   UNL     1      -0.310   6.310   5.504  1.00  0.00     0.037 A 
ATOM     51  C   UNL     1       4.840   1.623   3.215  1.00  0.00     0.037 A 
ATOM     52  C   UNL     1       0.257   5.122   6.162  1.00  0.00     0.049 A 
ATOM     53  C   UNL     1       4.897   1.999   4.666  1.00  0.00     0.074 A 
ATOM     54  C   UNL     1      -0.153   3.807   6.292  1.00  0.00     0.029 A 
ATOM     55  N   UNL     1       1.589   5.157   6.588  1.00  0.00    -0.354 N 
ATOM     56  N   UNL     1       4.050   2.843   5.191  1.00  0.00    -0.248 NA
ATOM     57  C   UNL     1       5.805   1.435   5.658  1.00  0.00     0.031 C 
ATOM     58  C   UNL     1       0.979   3.038   6.696  1.00  0.00     0.029 A 
ATOM     59  C   UNL     1       2.062   3.889   6.864  1.00  0.00     0.049 A 
ATOM     60  H   UNL     1       2.120   5.980   6.679  1.00  0.00     0.167 HD
ATOM     61  C   UNL     1       4.232   2.906   6.533  1.00  0.00     0.074 A 
ATOM     62  C   UNL     1       5.368   2.037   6.782  1.00  0.00     0.031 C 
ATOM     63  C   UNL     1       3.435   3.677   7.323  1.00  0.00     0.037 A 
BRANCH  50  64
ATOM     64  C   UNL     1      -1.648   6.919   5.884  1.00  0.00     0.057 A 
ATOM     65  C   UNL     1      -2.276   6.557   7.093  1.00  0.00     0.134 A 
ATOM     66  C   UNL     1      -2.413   7.795   5.085  1.00  0.00     0.134 A 
ATOM     67  F   UNL     1      -1.702   5.697   7.947  1.00  0.00    -0.206 F 
ATOM     68  C   UNL     1      -3.533   7.048   7.484  1.00  0.00     0.040 A 
ATOM     69  C   UNL     1      -3.645   8.335   5.488  1.00  0.00     0.040 A 
ATOM     70  F   UNL     1      -2.051   8.135   3.844  1.00  0.00    -0.206 F 
ATOM     71  C   UNL     1      -4.214   7.960   6.692  1.00  0.00     0.006 A 
ENDBRANCH  50  64
BRANCH  51  72
ATOM     72  C   UNL     1       5.891   1.673   2.161  1.00  0.00     0.057 A 
ATOM     73  C   UNL     1       5.878   0.626   1.216  1.00  0.00     0.134 A 
ATOM     74  C   UNL     1       6.478   2.877   1.752  1.00  0.00     0.134 A 
ATOM     75  F   UNL     1       5.317  -0.554   1.531  1.00  0.00    -0.206 F 
ATOM     76  C   UNL     1       6.298   0.806  -0.106  1.00  0.00     0.040 A 
ATOM     77  C   UNL     1       6.899   3.069   0.425  1.00  0.00     0.040 A 
ATOM     78  F   UNL     1       6.513   3.933   2.577  1.00  0.00    -0.206 F 
ATOM     79  C   UNL     1       6.773   2.047  -0.516  1.00  0.00     0.006 A 
ENDBRANCH  51  72
BRANCH  63  80
ATOM     80  C   UNL     1       3.902   4.247   8.630  1.00  0.00     0.057 A 
ATOM     81  C   UNL     1       5.256   4.493   8.916  1.00  0.00     0.134 A 
ATOM     82  C   UNL     1       2.983   4.758   9.565  1.00  0.00     0.134 A 
ATOM     83  F   UNL     1       6.232   4.165   8.056  1.00  0.00    -0.206 F 
ATOM     84  C   UNL     1       5.670   5.148  10.078  1.00  0.00     0.040 A 
ATOM     85  C   UNL     1       3.383   5.464  10.701  1.00  0.00     0.040 A 
ATOM     86  F   UNL     1       1.659   4.629   9.395  1.00  0.00    -0.206 F 
ATOM     87  C   UNL     1       4.732   5.648  10.969  1.00  0.00     0.006 A 
ENDBRANCH  63  80
ENDBRANCH  37  38
ENDBRANCH  30  32
ENDBRANCH  29  30
ENDBRANCH  28  29
ENDBRANCH  27  28
ENDBRANCH  26  27
ENDBRANCH   1  26
TORSDOF 17
