REMARK SMILES CC(=O)Nc1c(C)nn([C@H](C)C(=O)OCCOCCOC(=O)c2ccc(-c3c4nc(c(-c5c(F)cccc5F)c5ccc([nH]5)c(-c5c(F)cccc5F)c5nc(c(-c6c(F)cccc6F)c6ccc3[nH]6)C=C5)C=C4)cc2)c1C
REMARK SMILES IDX 17 1 16 2 15 3 14 4 12 5 13 6 10 7 11 8 9 9 5 10 6 11 77 12
REMARK SMILES IDX 7 13 8 14 78 15 4 16 1 17 2 18 3 19 18 21 19 22 20 23 21 24
REMARK SMILES IDX 22 25 23 26 24 27 76 28 25 29 75 30 26 31 27 32 28 33 69 34
REMARK SMILES IDX 29 35 74 36 68 37 70 38 30 39 73 40 67 41 66 42 31 44 57 45
REMARK SMILES IDX 40 46 56 47 41 48 44 49 55 50 71 51 42 52 43 53 54 55 72 56
REMARK SMILES IDX 45 57 32 58 33 59 38 60 34 61 35 62 37 63 39 64 36 65 58 66
REMARK SMILES IDX 59 67 64 68 60 69 61 70 63 71 65 72 62 73 46 74 47 75 52 76
REMARK SMILES IDX 48 77 49 78 51 79 53 80 50 81
REMARK H PARENT 4 20 70 43 44 54
REMARK Flexibility Score: inf
ROOT
ATOM      1  O   UNL     1       2.997   4.871   3.002  1.00  0.00    -0.374 OA
ENDROOT
BRANCH   1   2
ATOM      2  C   UNL     1       3.194   6.064   2.255  1.00  0.00     0.202 C 
BRANCH   2   3
ATOM      3  C   UNL     1       4.270   6.072   1.176  1.00  0.00     0.261 C 
BRANCH   3   4
ATOM      4  O   UNL     1       4.067   5.102   0.130  1.00  0.00    -0.462 OA
BRANCH   4   5
ATOM      5  C   UNL     1       5.073   4.190  -0.023  1.00  0.00     0.330 C 
ATOM      6  O   UNL     1       6.001   4.053   0.768  1.00  0.00    -0.250 OA
BRANCH   5   7
ATOM      7  C   UNL     1       4.984   3.420  -1.325  1.00  0.00     0.214 C 
ATOM      8  C   UNL     1       3.586   3.233  -1.899  1.00  0.00     0.046 C 
BRANCH   7   9
ATOM      9  N   UNL     1       5.924   3.972  -2.296  1.00  0.00    -0.253 N 
ATOM     10  C   UNL     1       7.497   5.206  -3.173  1.00  0.00     0.085 A 
ATOM     11  C   UNL     1       7.530   3.882  -3.678  1.00  0.00     0.083 A 
ATOM     12  C   UNL     1       6.298   5.281  -2.495  1.00  0.00     0.060 A 
ATOM     13  C   UNL     1       8.476   3.273  -4.642  1.00  0.00     0.071 C 
ATOM     14  N   UNL     1       6.570   3.126  -3.126  1.00  0.00    -0.175 NA
ATOM     15  C   UNL     1       5.484   6.460  -2.111  1.00  0.00     0.069 C 
BRANCH  10  16
ATOM     16  N   UNL     1       8.354   6.253  -3.438  1.00  0.00    -0.323 N 
ATOM     17  C   UNL     1       8.560   7.053  -1.089  1.00  0.00     0.114 C 
ATOM     18  C   UNL     1       8.721   7.256  -2.579  1.00  0.00     0.221 C 
ATOM     19  O   UNL     1       9.256   8.275  -3.021  1.00  0.00    -0.275 OA
ATOM     20  H   UNL     1       8.745   6.282  -4.341  1.00  0.00     0.170 HD
ENDBRANCH  10  16
ENDBRANCH   7   9
ENDBRANCH   5   7
ENDBRANCH   4   5
ENDBRANCH   3   4
ENDBRANCH   2   3
ENDBRANCH   1   2
BRANCH   1  21
ATOM     21  C   UNL     1       2.654   3.666   2.332  1.00  0.00     0.202 C 
BRANCH  21  22
ATOM     22  C   UNL     1       1.292   3.579   1.654  1.00  0.00     0.261 C 
BRANCH  22  23
ATOM     23  O   UNL     1       1.084   4.566   0.649  1.00  0.00    -0.460 OA
BRANCH  23  24
ATOM     24  C   UNL     1       0.265   5.564   1.056  1.00  0.00     0.338 C 
ATOM     25  O   UNL     1      -0.010   5.867   2.205  1.00  0.00    -0.246 OA
BRANCH  24  26
ATOM     26  C   UNL     1      -0.416   6.155  -0.098  1.00  0.00     0.060 A 
ATOM     27  C   UNL     1      -1.233   7.256   0.172  1.00  0.00     0.016 A 
ATOM     28  C   UNL     1      -0.504   5.437  -1.298  1.00  0.00     0.016 A 
ATOM     29  C   UNL     1      -2.291   7.508  -0.670  1.00  0.00     0.010 A 
ATOM     30  C   UNL     1      -1.568   5.685  -2.135  1.00  0.00     0.010 A 
ATOM     31  C   UNL     1      -2.493   6.658  -1.762  1.00  0.00    -0.014 A 
BRANCH  31  32
ATOM     32  C   UNL     1      -3.697   6.854  -2.540  1.00  0.00     0.031 A 
ATOM     33  C   UNL     1      -3.659   8.060  -3.397  1.00  0.00     0.074 A 
ATOM     34  C   UNL     1      -4.698   5.955  -2.545  1.00  0.00     0.049 A 
ATOM     35  N   UNL     1      -4.434   9.091  -3.354  1.00  0.00    -0.248 NA
ATOM     36  C   UNL     1      -2.525   8.192  -4.326  1.00  0.00     0.031 C 
ATOM     37  C   UNL     1      -4.718   4.612  -1.960  1.00  0.00     0.029 A 
ATOM     38  N   UNL     1      -5.893   6.024  -3.187  1.00  0.00    -0.354 N 
ATOM     39  C   UNL     1      -4.003   9.924  -4.381  1.00  0.00     0.074 A 
ATOM     40  C   UNL     1      -2.737   9.407  -4.828  1.00  0.00     0.031 C 
ATOM     41  C   UNL     1      -5.759   3.921  -2.477  1.00  0.00     0.029 A 
ATOM     42  C   UNL     1      -6.535   4.803  -3.333  1.00  0.00     0.049 A 
ATOM     43  H   UNL     1      -6.271   6.870  -3.520  1.00  0.00     0.167 HD
ATOM     44  C   UNL     1      -4.837  10.833  -4.951  1.00  0.00     0.037 A 
ATOM     45  C   UNL     1      -7.565   4.545  -4.177  1.00  0.00     0.037 A 
ATOM     46  C   UNL     1      -5.949  11.142  -4.090  1.00  0.00     0.049 A 
ATOM     47  C   UNL     1      -8.159   5.852  -4.568  1.00  0.00     0.074 A 
ATOM     48  C   UNL     1      -6.066  11.645  -2.807  1.00  0.00     0.029 A 
ATOM     49  N   UNL     1      -7.174  10.598  -4.387  1.00  0.00    -0.354 N 
ATOM     50  N   UNL     1      -8.847   6.611  -3.762  1.00  0.00    -0.248 NA
ATOM     51  C   UNL     1      -7.601   6.527  -5.733  1.00  0.00     0.031 C 
ATOM     52  C   UNL     1      -7.165  10.942  -2.234  1.00  0.00     0.029 A 
ATOM     53  C   UNL     1      -7.681  10.097  -3.216  1.00  0.00     0.049 A 
ATOM     54  H   UNL     1      -7.605  10.572  -5.272  1.00  0.00     0.167 HD
ATOM     55  C   UNL     1      -8.459   7.905  -4.075  1.00  0.00     0.074 A 
ATOM     56  C   UNL     1      -7.757   7.797  -5.352  1.00  0.00     0.031 C 
ATOM     57  C   UNL     1      -8.480   8.898  -3.139  1.00  0.00     0.037 A 
BRANCH  44  58
ATOM     58  C   UNL     1      -4.838  11.141  -6.426  1.00  0.00     0.057 A 
ATOM     59  C   UNL     1      -5.644  12.187  -6.906  1.00  0.00     0.134 A 
ATOM     60  C   UNL     1      -4.322  10.279  -7.417  1.00  0.00     0.134 A 
ATOM     61  F   UNL     1      -6.208  13.064  -6.062  1.00  0.00    -0.206 F 
ATOM     62  C   UNL     1      -5.975  12.317  -8.259  1.00  0.00     0.040 A 
ATOM     63  C   UNL     1      -4.601  10.433  -8.776  1.00  0.00     0.040 A 
ATOM     64  F   UNL     1      -3.610   9.185  -7.123  1.00  0.00    -0.206 F 
ATOM     65  C   UNL     1      -5.458  11.434  -9.199  1.00  0.00     0.006 A 
ENDBRANCH  44  58
BRANCH  45  66
ATOM     66  C   UNL     1      -7.885   3.293  -4.904  1.00  0.00     0.057 A 
ATOM     67  C   UNL     1      -9.114   3.138  -5.563  1.00  0.00     0.134 A 
ATOM     68  C   UNL     1      -6.905   2.329  -5.204  1.00  0.00     0.134 A 
ATOM     69  F   UNL     1     -10.104   4.023  -5.375  1.00  0.00    -0.206 F 
ATOM     70  C   UNL     1      -9.345   2.110  -6.487  1.00  0.00     0.040 A 
ATOM     71  C   UNL     1      -7.126   1.291  -6.116  1.00  0.00     0.040 A 
ATOM     72  F   UNL     1      -5.668   2.409  -4.696  1.00  0.00    -0.206 F 
ATOM     73  C   UNL     1      -8.344   1.188  -6.775  1.00  0.00     0.006 A 
ENDBRANCH  45  66
BRANCH  57  74
ATOM     74  C   UNL     1      -9.155   8.620  -1.825  1.00  0.00     0.057 A 
ATOM     75  C   UNL     1      -8.732   7.633  -0.922  1.00  0.00     0.134 A 
ATOM     76  C   UNL     1     -10.160   9.489  -1.387  1.00  0.00     0.134 A 
ATOM     77  F   UNL     1      -7.704   6.824  -1.210  1.00  0.00    -0.206 F 
ATOM     78  C   UNL     1      -9.314   7.490   0.340  1.00  0.00     0.040 A 
ATOM     79  C   UNL     1     -10.726   9.380  -0.115  1.00  0.00     0.040 A 
ATOM     80  F   UNL     1     -10.575  10.495  -2.174  1.00  0.00    -0.206 F 
ATOM     81  C   UNL     1     -10.310   8.371   0.750  1.00  0.00     0.006 A 
ENDBRANCH  57  74
ENDBRANCH  31  32
ENDBRANCH  24  26
ENDBRANCH  23  24
ENDBRANCH  22  23
ENDBRANCH  21  22
ENDBRANCH   1  21
TORSDOF 16
