REMARK SMILES CN(CCO)C(=O)N[C@H]1C=C[C@@H](C(=O)OCCOCCOC(=O)c2ccc(-c3c4nc(c(-c5c(F)cccc5F)c5ccc([nH]5)c(-c5c(F)cccc5F)c5nc(c(-c6c(F)cccc6F)c6ccc3[nH]6)C=C5)C=C4)cc2)C1
REMARK SMILES IDX 16 1 15 2 13 3 14 4 12 5 9 6 10 7 78 8 11 9 8 10 6 11 7 12
REMARK SMILES IDX 2 14 1 15 3 16 4 17 5 18 17 20 18 21 19 22 20 23 21 24 22 25
REMARK SMILES IDX 23 26 24 27 25 28 77 29 26 30 76 31 27 32 28 33 29 34 70 35
REMARK SMILES IDX 30 36 75 37 69 38 71 39 31 40 74 41 68 42 67 43 32 45 58 46
REMARK SMILES IDX 41 47 57 48 42 49 45 50 56 51 72 52 43 53 44 54 55 56 73 57
REMARK SMILES IDX 46 58 33 59 34 60 39 61 35 62 36 63 38 64 40 65 37 66 59 67
REMARK SMILES IDX 60 68 65 69 61 70 62 71 64 72 66 73 63 74 47 75 48 76 53 77
REMARK SMILES IDX 49 78 50 79 52 80 54 81 51 82
REMARK H PARENT 8 13 5 19 71 44 45 55
REMARK Flexibility Score: inf
ROOT
ATOM      1  C   UNL     1       3.183  -0.534   6.389  1.00  0.00     0.261 C 
ENDROOT
BRANCH   1   2
ATOM      2  O   UNL     1       2.268  -1.349   5.637  1.00  0.00    -0.463 OA
BRANCH   2   3
ATOM      3  C   UNL     1       1.320  -2.015   6.342  1.00  0.00     0.312 C 
ATOM      4  O   UNL     1       1.298  -2.113   7.564  1.00  0.00    -0.252 OA
BRANCH   3   5
ATOM      5  C   UNL     1       0.256  -2.642   5.447  1.00  0.00     0.124 C 
ATOM      6  C   UNL     1      -0.141  -3.147   3.053  1.00  0.00     0.107 C 
ATOM      7  C   UNL     1       0.240  -4.359   3.858  1.00  0.00    -0.006 C 
ATOM      8  C   UNL     1       0.101  -2.018   4.058  1.00  0.00     0.048 C 
ATOM      9  C   UNL     1       0.490  -4.082   5.143  1.00  0.00    -0.014 C 
BRANCH   6  10
ATOM     10  N   UNL     1       0.737  -3.111   1.893  1.00  0.00    -0.332 N 
ATOM     11  C   UNL     1       0.980  -2.342   0.824  1.00  0.00     0.317 C 
ATOM     12  O   UNL     1       1.870  -2.775   0.083  1.00  0.00    -0.249 OA
ATOM     13  H   UNL     1       1.337  -3.892   1.895  1.00  0.00     0.165 HD
BRANCH  11  14
ATOM     14  N   UNL     1       0.325  -1.179   0.531  1.00  0.00    -0.326 N 
ATOM     15  C   UNL     1       0.826  -0.403  -0.601  1.00  0.00     0.148 C 
BRANCH  14  16
ATOM     16  C   UNL     1      -0.832  -0.584   1.198  1.00  0.00     0.149 C 
BRANCH  16  17
ATOM     17  C   UNL     1      -2.191  -1.129   0.755  1.00  0.00     0.177 C 
BRANCH  17  18
ATOM     18  O   UNL     1      -2.212  -2.544   0.650  1.00  0.00    -0.395 OA
ATOM     19  H   UNL     1      -1.571  -2.829  -0.021  1.00  0.00     0.210 HD
ENDBRANCH  17  18
ENDBRANCH  16  17
ENDBRANCH  14  16
ENDBRANCH  11  14
ENDBRANCH   6  10
ENDBRANCH   3   5
ENDBRANCH   2   3
ENDBRANCH   1   2
BRANCH   1  20
ATOM     20  C   UNL     1       3.336   0.826   5.704  1.00  0.00     0.202 C 
BRANCH  20  21
ATOM     21  O   UNL     1       2.191   1.677   5.816  1.00  0.00    -0.374 OA
BRANCH  21  22
ATOM     22  C   UNL     1       1.150   1.469   4.860  1.00  0.00     0.202 C 
BRANCH  22  23
ATOM     23  C   UNL     1       1.385   2.125   3.494  1.00  0.00     0.261 C 
BRANCH  23  24
ATOM     24  O   UNL     1       2.447   1.474   2.771  1.00  0.00    -0.460 OA
BRANCH  24  25
ATOM     25  C   UNL     1       3.526   2.248   2.521  1.00  0.00     0.338 C 
ATOM     26  O   UNL     1       3.636   3.454   2.723  1.00  0.00    -0.246 OA
BRANCH  25  27
ATOM     27  C   UNL     1       4.672   1.419   2.111  1.00  0.00     0.060 A 
ATOM     28  C   UNL     1       5.854   1.541   2.853  1.00  0.00     0.016 A 
ATOM     29  C   UNL     1       4.628   0.602   0.979  1.00  0.00     0.016 A 
ATOM     30  C   UNL     1       7.011   0.884   2.438  1.00  0.00     0.010 A 
ATOM     31  C   UNL     1       5.794  -0.050   0.559  1.00  0.00     0.010 A 
ATOM     32  C   UNL     1       6.999   0.115   1.266  1.00  0.00    -0.014 A 
BRANCH  32  33
ATOM     33  C   UNL     1       8.279  -0.404   0.722  1.00  0.00     0.031 A 
ATOM     34  C   UNL     1       8.965   0.344  -0.388  1.00  0.00     0.074 A 
ATOM     35  C   UNL     1       8.848  -1.508   1.238  1.00  0.00     0.049 A 
ATOM     36  N   UNL     1      10.085   0.068  -1.007  1.00  0.00    -0.248 NA
ATOM     37  C   UNL     1       8.301   1.569  -0.862  1.00  0.00     0.031 C 
ATOM     38  C   UNL     1       8.305  -2.305   2.335  1.00  0.00     0.029 A 
ATOM     39  N   UNL     1      10.014  -2.149   0.899  1.00  0.00    -0.354 N 
ATOM     40  C   UNL     1      10.258   1.078  -1.944  1.00  0.00     0.074 A 
ATOM     41  C   UNL     1       9.116   1.960  -1.832  1.00  0.00     0.031 C 
ATOM     42  C   UNL     1       9.135  -3.335   2.578  1.00  0.00     0.029 A 
ATOM     43  C   UNL     1      10.252  -3.283   1.635  1.00  0.00     0.049 A 
ATOM     44  H   UNL     1      10.623  -1.826   0.196  1.00  0.00     0.167 HD
ATOM     45  C   UNL     1      11.280   1.261  -2.815  1.00  0.00     0.037 A 
ATOM     46  C   UNL     1      11.247  -4.186   1.547  1.00  0.00     0.037 A 
ATOM     47  C   UNL     1      12.421   0.391  -2.926  1.00  0.00     0.049 A 
ATOM     48  C   UNL     1      12.336  -3.997   0.525  1.00  0.00     0.074 A 
ATOM     49  C   UNL     1      13.521   0.516  -3.757  1.00  0.00     0.029 A 
ATOM     50  N   UNL     1      12.603  -0.769  -2.191  1.00  0.00    -0.354 N 
ATOM     51  N   UNL     1      12.507  -3.020  -0.332  1.00  0.00    -0.248 NA
ATOM     52  C   UNL     1      13.372  -5.040   0.459  1.00  0.00     0.031 C 
ATOM     53  C   UNL     1      14.350  -0.594  -3.555  1.00  0.00     0.029 A 
ATOM     54  C   UNL     1      13.785  -1.385  -2.568  1.00  0.00     0.049 A 
ATOM     55  H   UNL     1      11.985  -1.105  -1.503  1.00  0.00     0.167 HD
ATOM     56  C   UNL     1      13.678  -3.316  -1.020  1.00  0.00     0.074 A 
ATOM     57  C   UNL     1      14.182  -4.558  -0.473  1.00  0.00     0.031 C 
ATOM     58  C   UNL     1      14.280  -2.619  -2.014  1.00  0.00     0.037 A 
BRANCH  45  59
ATOM     59  C   UNL     1      11.200   2.443  -3.734  1.00  0.00     0.057 A 
ATOM     60  C   UNL     1      11.415   3.750  -3.278  1.00  0.00     0.134 A 
ATOM     61  C   UNL     1      10.942   2.267  -5.099  1.00  0.00     0.134 A 
ATOM     62  F   UNL     1      11.654   3.986  -1.979  1.00  0.00    -0.206 F 
ATOM     63  C   UNL     1      11.359   4.842  -4.145  1.00  0.00     0.040 A 
ATOM     64  C   UNL     1      10.906   3.349  -5.980  1.00  0.00     0.040 A 
ATOM     65  F   UNL     1      10.732   1.041  -5.601  1.00  0.00    -0.206 F 
ATOM     66  C   UNL     1      11.110   4.642  -5.502  1.00  0.00     0.006 A 
ENDBRANCH  45  59
BRANCH  46  67
ATOM     67  C   UNL     1      11.260  -5.367   2.446  1.00  0.00     0.057 A 
ATOM     68  C   UNL     1      12.214  -5.496   3.461  1.00  0.00     0.134 A 
ATOM     69  C   UNL     1      10.332  -6.405   2.295  1.00  0.00     0.134 A 
ATOM     70  F   UNL     1      13.145  -4.546   3.637  1.00  0.00    -0.206 F 
ATOM     71  C   UNL     1      12.255  -6.621   4.285  1.00  0.00     0.040 A 
ATOM     72  C   UNL     1      10.348  -7.525   3.126  1.00  0.00     0.040 A 
ATOM     73  F   UNL     1       9.395  -6.341   1.338  1.00  0.00    -0.206 F 
ATOM     74  C   UNL     1      11.316  -7.638   4.122  1.00  0.00     0.006 A 
ENDBRANCH  46  67
BRANCH  58  75
ATOM     75  C   UNL     1      15.568  -3.166  -2.556  1.00  0.00     0.057 A 
ATOM     76  C   UNL     1      15.599  -4.288  -3.393  1.00  0.00     0.134 A 
ATOM     77  C   UNL     1      16.787  -2.536  -2.272  1.00  0.00     0.134 A 
ATOM     78  F   UNL     1      14.468  -4.943  -3.693  1.00  0.00    -0.206 F 
ATOM     79  C   UNL     1      16.799  -4.776  -3.913  1.00  0.00     0.040 A 
ATOM     80  C   UNL     1      17.990  -3.001  -2.804  1.00  0.00     0.040 A 
ATOM     81  F   UNL     1      16.826  -1.451  -1.483  1.00  0.00    -0.206 F 
ATOM     82  C   UNL     1      17.999  -4.127  -3.624  1.00  0.00     0.006 A 
ENDBRANCH  58  75
ENDBRANCH  32  33
ENDBRANCH  25  27
ENDBRANCH  24  25
ENDBRANCH  23  24
ENDBRANCH  22  23
ENDBRANCH  21  22
ENDBRANCH  20  21
ENDBRANCH   1  20
TORSDOF 19
