REMARK SMILES CC[C@@](C)([NH2+]CC(=O)N[C@@H](C)c1ccc(F)cc1)C(=O)OCCOCCOC(=O)c1ccc(-c2c3nc(c(-c4c(F)cccc4F)c4ccc([nH]4)c(-c4c(F)cccc4F)c4nc(c(-c5c(F)cccc5F)c5ccc2[nH]5)C=C4)C=C3)cc1
REMARK SMILES IDX 22 1 21 2 19 3 20 4 3 5 4 6 2 7 1 8 5 9 6 12 7 13 8 14 9 15
REMARK SMILES IDX 10 17 11 18 12 19 13 20 18 21 14 22 17 23 15 24 16 25 23 26
REMARK SMILES IDX 24 27 25 28 26 29 27 30 28 31 29 32 30 33 31 34 83 35 32 36
REMARK SMILES IDX 82 37 33 38 34 39 35 40 76 41 36 42 81 43 75 44 77 45 37 46
REMARK SMILES IDX 80 47 74 48 73 49 38 51 64 52 47 53 63 54 48 55 51 56 62 57
REMARK SMILES IDX 78 58 49 59 50 60 61 62 79 63 52 64 39 65 40 66 45 67 41 68
REMARK SMILES IDX 42 69 44 70 46 71 43 72 65 73 66 74 71 75 67 76 68 77 70 78
REMARK SMILES IDX 72 79 69 80 53 81 54 82 59 83 55 84 56 85 58 86 60 87 57 88
REMARK H PARENT 5 10 5 11 9 16 77 50 51 61
REMARK Flexibility Score: inf
ROOT
ATOM      1  C   UNL     1       4.304   0.588  -1.976  1.00  0.00     0.261 C 
ENDROOT
BRANCH   1   2
ATOM      2  O   UNL     1       2.936   0.778  -2.361  1.00  0.00    -0.459 OA
BRANCH   2   3
ATOM      3  C   UNL     1       1.958   0.121  -1.664  1.00  0.00     0.367 C 
ATOM      4  O   UNL     1       2.179  -0.653  -0.742  1.00  0.00    -0.245 OA
BRANCH   3   5
ATOM      5  C   UNL     1       0.535   0.498  -2.195  1.00  0.00     0.191 C 
ATOM      6  C   UNL     1      -0.594  -0.523  -1.971  1.00  0.00     0.092 C 
BRANCH   5   7
ATOM      7  C   UNL     1       0.122   1.763  -1.376  1.00  0.00     0.077 C 
ATOM      8  C   UNL     1       0.196   1.568   0.150  1.00  0.00     0.011 C 
ENDBRANCH   5   7
BRANCH   5   9
ATOM      9  N   UNL     1       0.568   0.790  -3.662  1.00  0.00    -0.325 N 
ATOM     10  H   UNL     1       1.033   1.690  -3.784  1.00  0.00     0.347 HD
ATOM     11  H   UNL     1      -0.409   0.761  -3.955  1.00  0.00     0.347 HD
BRANCH   9  12
ATOM     12  C   UNL     1       1.259  -0.193  -4.546  1.00  0.00     0.362 C 
BRANCH  12  13
ATOM     13  C   UNL     1       0.556  -1.548  -4.736  1.00  0.00     0.275 C 
ATOM     14  O   UNL     1      -0.476  -1.629  -5.409  1.00  0.00    -0.268 OA
ATOM     15  N   UNL     1       1.055  -2.703  -4.179  1.00  0.00    -0.345 N 
ATOM     16  H   UNL     1       0.749  -3.539  -4.597  1.00  0.00     0.164 HD
BRANCH  15  17
ATOM     17  C   UNL     1       1.973  -2.865  -3.056  1.00  0.00     0.109 C 
ATOM     18  C   UNL     1       1.277  -3.474  -1.830  1.00  0.00     0.036 C 
BRANCH  17  19
ATOM     19  C   UNL     1       3.213  -3.693  -3.327  1.00  0.00    -0.026 A 
ATOM     20  C   UNL     1       4.431  -3.251  -2.769  1.00  0.00     0.009 A 
ATOM     21  C   UNL     1       3.169  -4.959  -3.919  1.00  0.00     0.009 A 
ATOM     22  C   UNL     1       5.581  -4.030  -2.824  1.00  0.00     0.039 A 
ATOM     23  C   UNL     1       4.319  -5.754  -3.951  1.00  0.00     0.039 A 
ATOM     24  C   UNL     1       5.511  -5.282  -3.409  1.00  0.00     0.123 A 
ATOM     25  F   UNL     1       6.599  -6.062  -3.419  1.00  0.00    -0.207 F 
ENDBRANCH  17  19
ENDBRANCH  15  17
ENDBRANCH  12  13
ENDBRANCH   9  12
ENDBRANCH   5   9
ENDBRANCH   3   5
ENDBRANCH   2   3
ENDBRANCH   1   2
BRANCH   1  26
ATOM     26  C   UNL     1       5.190   1.757  -2.425  1.00  0.00     0.202 C 
BRANCH  26  27
ATOM     27  O   UNL     1       4.855   3.046  -1.922  1.00  0.00    -0.374 OA
BRANCH  27  28
ATOM     28  C   UNL     1       3.602   3.594  -2.324  1.00  0.00     0.202 C 
BRANCH  28  29
ATOM     29  C   UNL     1       3.458   4.063  -3.779  1.00  0.00     0.261 C 
BRANCH  29  30
ATOM     30  O   UNL     1       3.747   3.064  -4.774  1.00  0.00    -0.460 OA
BRANCH  30  31
ATOM     31  C   UNL     1       4.845   3.324  -5.528  1.00  0.00     0.338 C 
ATOM     32  O   UNL     1       5.616   4.260  -5.420  1.00  0.00    -0.246 OA
BRANCH  31  33
ATOM     33  C   UNL     1       5.070   2.252  -6.514  1.00  0.00     0.060 A 
ATOM     34  C   UNL     1       6.234   1.480  -6.407  1.00  0.00     0.016 A 
ATOM     35  C   UNL     1       4.245   2.138  -7.634  1.00  0.00     0.016 A 
ATOM     36  C   UNL     1       6.595   0.614  -7.441  1.00  0.00     0.010 A 
ATOM     37  C   UNL     1       4.614   1.276  -8.672  1.00  0.00     0.010 A 
ATOM     38  C   UNL     1       5.806   0.532  -8.596  1.00  0.00    -0.014 A 
BRANCH  38  39
ATOM     39  C   UNL     1       6.262  -0.247  -9.774  1.00  0.00     0.031 A 
ATOM     40  C   UNL     1       6.897   0.466 -10.936  1.00  0.00     0.074 A 
ATOM     41  C   UNL     1       6.084  -1.580  -9.822  1.00  0.00     0.049 A 
ATOM     42  N   UNL     1       7.230  -0.001 -12.113  1.00  0.00    -0.248 NA
ATOM     43  C   UNL     1       7.198   1.895 -10.750  1.00  0.00     0.031 C 
ATOM     44  C   UNL     1       5.525  -2.394  -8.745  1.00  0.00     0.029 A 
ATOM     45  N   UNL     1       6.332  -2.477 -10.832  1.00  0.00    -0.354 N 
ATOM     46  C   UNL     1       7.764   1.075 -12.811  1.00  0.00     0.074 A 
ATOM     47  C   UNL     1       7.705   2.222 -11.931  1.00  0.00     0.031 C 
ATOM     48  C   UNL     1       5.441  -3.668  -9.164  1.00  0.00     0.029 A 
ATOM     49  C   UNL     1       5.899  -3.750 -10.550  1.00  0.00     0.049 A 
ATOM     50  H   UNL     1       6.776  -2.232 -11.676  1.00  0.00     0.167 HD
ATOM     51  C   UNL     1       8.257   1.099 -14.071  1.00  0.00     0.037 A 
ATOM     52  C   UNL     1       5.837  -4.845 -11.334  1.00  0.00     0.037 A 
ATOM     53  C   UNL     1       8.332  -0.046 -14.938  1.00  0.00     0.049 A 
ATOM     54  C   UNL     1       6.315  -4.773 -12.759  1.00  0.00     0.074 A 
ATOM     55  C   UNL     1       8.862  -0.122 -16.215  1.00  0.00     0.029 A 
ATOM     56  N   UNL     1       7.857  -1.309 -14.624  1.00  0.00    -0.354 N 
ATOM     57  N   UNL     1       6.836  -3.757 -13.403  1.00  0.00    -0.248 NA
ATOM     58  C   UNL     1       6.189  -5.993 -13.571  1.00  0.00     0.031 C 
ATOM     59  C   UNL     1       8.663  -1.420 -16.693  1.00  0.00     0.029 A 
ATOM     60  C   UNL     1       8.050  -2.162 -15.697  1.00  0.00     0.049 A 
ATOM     61  H   UNL     1       7.444  -1.561 -13.767  1.00  0.00     0.167 HD
ATOM     62  C   UNL     1       7.113  -4.218 -14.684  1.00  0.00     0.074 A 
ATOM     63  C   UNL     1       6.712  -5.607 -14.727  1.00  0.00     0.031 C 
ATOM     64  C   UNL     1       7.652  -3.545 -15.729  1.00  0.00     0.037 A 
BRANCH  51  65
ATOM     65  C   UNL     1       8.750   2.406 -14.613  1.00  0.00     0.057 A 
ATOM     66  C   UNL     1       8.022   3.083 -15.600  1.00  0.00     0.134 A 
ATOM     67  C   UNL     1       9.993   2.934 -14.246  1.00  0.00     0.134 A 
ATOM     68  F   UNL     1       6.828   2.622 -16.002  1.00  0.00    -0.206 F 
ATOM     69  C   UNL     1       8.522   4.231 -16.216  1.00  0.00     0.040 A 
ATOM     70  C   UNL     1      10.496   4.091 -14.842  1.00  0.00     0.040 A 
ATOM     71  F   UNL     1      10.735   2.333 -13.303  1.00  0.00    -0.206 F 
ATOM     72  C   UNL     1       9.764   4.737 -15.839  1.00  0.00     0.006 A 
ENDBRANCH  51  65
BRANCH  52  73
ATOM     73  C   UNL     1       5.250  -6.098 -10.796  1.00  0.00     0.057 A 
ATOM     74  C   UNL     1       3.879  -6.201 -10.531  1.00  0.00     0.134 A 
ATOM     75  C   UNL     1       6.045  -7.218 -10.533  1.00  0.00     0.134 A 
ATOM     76  F   UNL     1       3.064  -5.162 -10.764  1.00  0.00    -0.206 F 
ATOM     77  C   UNL     1       3.321  -7.367 -10.007  1.00  0.00     0.040 A 
ATOM     78  C   UNL     1       5.496  -8.400 -10.030  1.00  0.00     0.040 A 
ATOM     79  F   UNL     1       7.360  -7.189 -10.792  1.00  0.00    -0.206 F 
ATOM     80  C   UNL     1       4.131  -8.473  -9.758  1.00  0.00     0.006 A 
ENDBRANCH  52  73
BRANCH  64  81
ATOM     81  C   UNL     1       7.862  -4.289 -17.014  1.00  0.00     0.057 A 
ATOM     82  C   UNL     1       9.152  -4.637 -17.435  1.00  0.00     0.134 A 
ATOM     83  C   UNL     1       6.799  -4.559 -17.883  1.00  0.00     0.134 A 
ATOM     84  F   UNL     1      10.213  -4.393 -16.652  1.00  0.00    -0.206 F 
ATOM     85  C   UNL     1       9.380  -5.206 -18.689  1.00  0.00     0.040 A 
ATOM     86  C   UNL     1       7.013  -5.146 -19.132  1.00  0.00     0.040 A 
ATOM     87  F   UNL     1       5.540  -4.257 -17.533  1.00  0.00    -0.206 F 
ATOM     88  C   UNL     1       8.308  -5.460 -19.542  1.00  0.00     0.006 A 
ENDBRANCH  64  81
ENDBRANCH  38  39
ENDBRANCH  31  33
ENDBRANCH  30  31
ENDBRANCH  29  30
ENDBRANCH  28  29
ENDBRANCH  27  28
ENDBRANCH  26  27
ENDBRANCH   1  26
TORSDOF 20
