REMARK SMILES Cc1ccc(C(=O)Nc2ccc(C(=O)OCCOCCOC(=O)c3ccc(-c4c5nc(c(-c6c(F)cccc6F)c6ccc([nH]6)c(-c6c(F)cccc6F)c6nc(c(-c7c(F)cccc7F)c7ccc4[nH]7)C=C6)C=C5)cc3)c(Cl)c2)cc1C
REMARK SMILES IDX 18 1 17 2 16 3 15 4 13 5 14 6 12 7 9 8 10 9 80 10 11 11
REMARK SMILES IDX 78 12 79 13 8 14 6 15 7 16 5 18 1 19 2 20 3 21 82 22 4 23
REMARK SMILES IDX 81 24 83 25 19 26 20 27 21 28 22 29 23 30 24 31 25 32 77 33
REMARK SMILES IDX 26 34 76 35 27 36 28 37 29 38 70 39 30 40 75 41 69 42 71 43
REMARK SMILES IDX 31 44 74 45 68 46 67 47 32 49 58 50 41 51 57 52 42 53 45 54
REMARK SMILES IDX 56 55 72 56 43 57 44 58 55 60 73 61 46 62 33 63 34 64 39 65
REMARK SMILES IDX 35 66 36 67 38 68 40 69 37 70 59 71 60 72 65 73 61 74 62 75
REMARK SMILES IDX 64 76 66 77 63 78 47 79 48 80 53 81 49 82 50 83 52 84 54 85
REMARK SMILES IDX 51 86
REMARK H PARENT 8 17 71 48 45 59
REMARK Flexibility Score: inf
ROOT
ATOM      1  O   UNL     1      -3.068   7.028   0.315  1.00  0.00    -0.374 OA
ENDROOT
BRANCH   1   2
ATOM      2  C   UNL     1      -4.366   7.487   0.698  1.00  0.00     0.202 C 
BRANCH   2   3
ATOM      3  C   UNL     1      -5.518   6.918  -0.132  1.00  0.00     0.261 C 
BRANCH   3   4
ATOM      4  O   UNL     1      -5.617   5.498   0.069  1.00  0.00    -0.460 OA
BRANCH   4   5
ATOM      5  C   UNL     1      -5.652   4.738  -1.048  1.00  0.00     0.339 C 
ATOM      6  O   UNL     1      -5.713   5.133  -2.203  1.00  0.00    -0.246 OA
BRANCH   5   7
ATOM      7  C   UNL     1      -5.385   3.327  -0.705  1.00  0.00     0.078 A 
ATOM      8  C   UNL     1      -4.633   0.686  -0.120  1.00  0.00     0.043 A 
ATOM      9  C   UNL     1      -4.027   1.364  -1.178  1.00  0.00     0.027 A 
ATOM     10  C   UNL     1      -5.672   1.301   0.587  1.00  0.00     0.047 A 
ATOM     11  C   UNL     1      -4.401   2.678  -1.469  1.00  0.00     0.019 A 
ATOM     12  C   UNL     1      -6.034   2.628   0.316  1.00  0.00     0.057 A 
ATOM     13  Cl  UNL     1      -7.293   3.313   1.280  1.00  0.00    -0.083 Cl
BRANCH   8  14
ATOM     14  N   UNL     1      -4.256  -0.606   0.271  1.00  0.00    -0.322 N 
ATOM     15  C   UNL     1      -3.044  -1.264   0.218  1.00  0.00     0.255 C 
ATOM     16  O   UNL     1      -3.048  -2.493   0.303  1.00  0.00    -0.269 OA
ATOM     17  H   UNL     1      -4.989  -1.141   0.653  1.00  0.00     0.170 HD
BRANCH  15  18
ATOM     18  C   UNL     1      -1.731  -0.546   0.202  1.00  0.00     0.040 A 
ATOM     19  C   UNL     1       2.137   1.405   0.125  1.00  0.00     0.044 C 
ATOM     20  C   UNL     1       0.820   0.682   0.173  1.00  0.00    -0.048 A 
ATOM     21  C   UNL     1      -0.321   1.395   0.566  1.00  0.00     0.004 A 
ATOM     22  C   UNL     1       0.700  -0.689  -0.113  1.00  0.00    -0.047 A 
ATOM     23  C   UNL     1      -1.571   0.775   0.623  1.00  0.00     0.014 A 
ATOM     24  C   UNL     1      -0.581  -1.279  -0.126  1.00  0.00     0.017 A 
ATOM     25  C   UNL     1       1.887  -1.588  -0.334  1.00  0.00     0.044 C 
ENDBRANCH  15  18
ENDBRANCH   8  14
ENDBRANCH   5   7
ENDBRANCH   4   5
ENDBRANCH   3   4
ENDBRANCH   2   3
ENDBRANCH   1   2
BRANCH   1  26
ATOM     26  C   UNL     1      -2.661   5.759   0.833  1.00  0.00     0.202 C 
BRANCH  26  27
ATOM     27  C   UNL     1      -2.108   5.784   2.263  1.00  0.00     0.261 C 
BRANCH  27  28
ATOM     28  O   UNL     1      -3.140   6.069   3.227  1.00  0.00    -0.460 OA
BRANCH  28  29
ATOM     29  C   UNL     1      -3.035   7.273   3.837  1.00  0.00     0.338 C 
ATOM     30  O   UNL     1      -2.126   8.082   3.727  1.00  0.00    -0.246 OA
BRANCH  29  31
ATOM     31  C   UNL     1      -4.282   7.585   4.562  1.00  0.00     0.060 A 
ATOM     32  C   UNL     1      -4.871   8.833   4.322  1.00  0.00     0.016 A 
ATOM     33  C   UNL     1      -4.829   6.714   5.508  1.00  0.00     0.016 A 
ATOM     34  C   UNL     1      -5.981   9.235   5.061  1.00  0.00     0.010 A 
ATOM     35  C   UNL     1      -5.941   7.123   6.254  1.00  0.00     0.010 A 
ATOM     36  C   UNL     1      -6.501   8.398   6.057  1.00  0.00    -0.014 A 
BRANCH  36  37
ATOM     37  C   UNL     1      -7.547   8.919   6.972  1.00  0.00     0.031 A 
ATOM     38  C   UNL     1      -7.151   9.421   8.333  1.00  0.00     0.074 A 
ATOM     39  C   UNL     1      -8.831   8.985   6.578  1.00  0.00     0.049 A 
ATOM     40  N   UNL     1      -7.898   9.930   9.280  1.00  0.00    -0.248 NA
ATOM     41  C   UNL     1      -5.722   9.338   8.672  1.00  0.00     0.031 C 
ATOM     42  C   UNL     1      -9.339   8.556   5.276  1.00  0.00     0.029 A 
ATOM     43  N   UNL     1      -9.943   9.441   7.241  1.00  0.00    -0.354 N 
ATOM     44  C   UNL     1      -7.033  10.226  10.325  1.00  0.00     0.074 A 
ATOM     45  C   UNL     1      -5.710   9.810   9.910  1.00  0.00     0.031 C 
ATOM     46  C   UNL     1     -10.666   8.766   5.237  1.00  0.00     0.029 A 
ATOM     47  C   UNL     1     -11.103   9.321   6.516  1.00  0.00     0.049 A 
ATOM     48  H   UNL     1      -9.912   9.818   8.150  1.00  0.00     0.167 HD
ATOM     49  C   UNL     1      -7.311  10.804  11.519  1.00  0.00     0.037 A 
ATOM     50  C   UNL     1     -12.373   9.615   6.853  1.00  0.00     0.037 A 
ATOM     51  C   UNL     1      -8.626  11.219  11.934  1.00  0.00     0.049 A 
ATOM     52  C   UNL     1     -12.666  10.203   8.207  1.00  0.00     0.074 A 
ATOM     53  C   UNL     1      -9.003  11.836  13.115  1.00  0.00     0.029 A 
ATOM     54  N   UNL     1      -9.780  11.051  11.185  1.00  0.00    -0.354 N 
ATOM     55  N   UNL     1     -11.835  10.512   9.173  1.00  0.00    -0.248 NA
ATOM     56  C   UNL     1     -14.075  10.489   8.514  1.00  0.00     0.031 C 
ATOM     57  C   UNL     1     -10.393  11.999  13.098  1.00  0.00     0.029 A 
ATOM     58  C   UNL     1     -10.874  11.529  11.888  1.00  0.00     0.049 A 
ATOM     59  H   UNL     1      -9.817  10.651  10.286  1.00  0.00     0.167 HD
ATOM     60  C   UNL     1     -12.615  11.049  10.190  1.00  0.00     0.074 A 
ATOM     61  C   UNL     1     -13.983  11.039   9.717  1.00  0.00     0.031 C 
ATOM     62  C   UNL     1     -12.232  11.511  11.406  1.00  0.00     0.037 A 
BRANCH  49  63
ATOM     63  C   UNL     1      -6.169  11.003  12.471  1.00  0.00     0.057 A 
ATOM     64  C   UNL     1      -5.184  11.975  12.253  1.00  0.00     0.134 A 
ATOM     65  C   UNL     1      -6.067  10.230  13.634  1.00  0.00     0.134 A 
ATOM     66  F   UNL     1      -5.216  12.739  11.150  1.00  0.00    -0.206 F 
ATOM     67  C   UNL     1      -4.127  12.156  13.146  1.00  0.00     0.040 A 
ATOM     68  C   UNL     1      -5.028  10.418  14.547  1.00  0.00     0.040 A 
ATOM     69  F   UNL     1      -6.979   9.284  13.905  1.00  0.00    -0.206 F 
ATOM     70  C   UNL     1      -4.051  11.380  14.301  1.00  0.00     0.006 A 
ENDBRANCH  49  63
BRANCH  50  71
ATOM     71  C   UNL     1     -13.473   9.355   5.891  1.00  0.00     0.057 A 
ATOM     72  C   UNL     1     -14.163  10.405   5.275  1.00  0.00     0.134 A 
ATOM     73  C   UNL     1     -13.872   8.050   5.580  1.00  0.00     0.134 A 
ATOM     74  F   UNL     1     -13.843  11.678   5.552  1.00  0.00    -0.206 F 
ATOM     75  C   UNL     1     -15.221  10.168   4.396  1.00  0.00     0.040 A 
ATOM     76  C   UNL     1     -14.912   7.797   4.684  1.00  0.00     0.040 A 
ATOM     77  F   UNL     1     -13.251   7.000   6.138  1.00  0.00    -0.206 F 
ATOM     78  C   UNL     1     -15.595   8.859   4.095  1.00  0.00     0.006 A 
ENDBRANCH  50  71
BRANCH  62  79
ATOM     79  C   UNL     1     -13.304  12.067  12.297  1.00  0.00     0.057 A 
ATOM     80  C   UNL     1     -14.243  11.242  12.929  1.00  0.00     0.134 A 
ATOM     81  C   UNL     1     -13.383  13.444  12.546  1.00  0.00     0.134 A 
ATOM     82  F   UNL     1     -14.231   9.916  12.722  1.00  0.00    -0.206 F 
ATOM     83  C   UNL     1     -15.237  11.768  13.757  1.00  0.00     0.040 A 
ATOM     84  C   UNL     1     -14.355  13.978  13.392  1.00  0.00     0.040 A 
ATOM     85  F   UNL     1     -12.509  14.290  11.980  1.00  0.00    -0.206 F 
ATOM     86  C   UNL     1     -15.291  13.140  13.994  1.00  0.00     0.006 A 
ENDBRANCH  62  79
ENDBRANCH  36  37
ENDBRANCH  29  31
ENDBRANCH  28  29
ENDBRANCH  27  28
ENDBRANCH  26  27
ENDBRANCH   1  26
TORSDOF 16
