REMARK SMILES CC1=Nc2nc(NC(=O)CCC(=O)OCCOCCOC(=O)c3ccc(-c4c5nc(c(-c6c(F)cccc6F)c6ccc([nH]6)c(-c6c(F)cccc6F)c6nc(c(-c7c(F)cccc7F)c7ccc4[nH]7)C=C6)C=C5)cc3)nn2[C@@H](c2ccc(Cl)cc2)C1
REMARK SMILES IDX 16 1 15 2 14 3 12 4 13 5 11 6 10 7 8 8 7 9 9 11 6 12 1 13
REMARK SMILES IDX 2 14 3 15 87 16 4 17 79 18 5 19 78 20 77 21 80 22 81 23
REMARK SMILES IDX 86 24 82 25 85 26 83 27 84 28 17 29 18 30 19 31 20 32 21 33
REMARK SMILES IDX 22 34 23 35 24 36 76 37 25 38 75 39 26 40 27 41 28 42 69 43
REMARK SMILES IDX 29 44 74 45 68 46 70 47 30 48 73 49 67 50 66 51 31 53 57 54
REMARK SMILES IDX 40 55 56 56 41 57 44 58 55 59 71 60 42 61 43 62 54 64 72 65
REMARK SMILES IDX 45 66 32 67 33 68 38 69 34 70 35 71 37 72 39 73 36 74 58 75
REMARK SMILES IDX 59 76 64 77 60 78 61 79 63 80 65 81 62 82 46 83 47 84 52 85
REMARK SMILES IDX 48 86 49 87 51 88 53 89 50 90
REMARK H PARENT 7 10 70 52 44 63
REMARK Flexibility Score: inf
ROOT
ATOM      1  C   UNL     1      -3.106  -2.751   1.490  1.00  0.00     0.202 C 
ENDROOT
BRANCH   1   2
ATOM      2  C   UNL     1      -4.247  -3.764   1.493  1.00  0.00     0.261 C 
BRANCH   2   3
ATOM      3  O   UNL     1      -3.970  -4.956   2.277  1.00  0.00    -0.463 OA
BRANCH   3   4
ATOM      4  C   UNL     1      -3.551  -6.054   1.605  1.00  0.00     0.306 C 
ATOM      5  O   UNL     1      -3.451  -6.098   0.383  1.00  0.00    -0.252 OA
BRANCH   4   6
ATOM      6  C   UNL     1      -3.323  -7.287   2.463  1.00  0.00     0.132 C 
BRANCH   6   7
ATOM      7  C   UNL     1      -2.494  -7.270   3.741  1.00  0.00     0.112 C 
BRANCH   7   8
ATOM      8  C   UNL     1      -2.784  -6.115   4.640  1.00  0.00     0.227 C 
ATOM      9  N   UNL     1      -1.998  -5.024   4.603  1.00  0.00    -0.293 N 
ATOM     10  H   UNL     1      -2.254  -4.324   5.246  1.00  0.00     0.173 HD
ATOM     11  O   UNL     1      -3.757  -6.134   5.398  1.00  0.00    -0.275 OA
BRANCH   9  12
ATOM     12  C   UNL     1      -0.908  -4.706   3.837  1.00  0.00     0.250 A 
ATOM     13  C   UNL     1       1.281  -0.048  -0.081  1.00  0.00     0.062 C 
ATOM     14  C   UNL     1       1.197  -1.383   0.615  1.00  0.00     0.021 C 
ATOM     15  N   UNL     1       0.692  -1.333   1.798  1.00  0.00    -0.221 NA
ATOM     16  C   UNL     1       1.772  -2.605  -0.106  1.00  0.00     0.083 C 
ATOM     17  C   UNL     1       0.481  -2.487   2.424  1.00  0.00     0.250 A 
ATOM     18  C   UNL     1       1.373  -4.061   0.280  1.00  0.00     0.147 C 
ATOM     19  N   UNL     1      -0.518  -2.840   3.703  1.00  0.00    -0.174 NA
ATOM     20  N   UNL     1       0.829  -4.112   1.635  1.00  0.00    -0.220 N 
ATOM     21  N   UNL     1      -0.068  -5.460   2.531  1.00  0.00    -0.130 NA
BRANCH  18  22
ATOM     22  C   UNL     1       0.578  -4.708  -0.858  1.00  0.00    -0.023 A 
ATOM     23  C   UNL     1      -0.799  -4.945  -0.889  1.00  0.00     0.007 A 
ATOM     24  C   UNL     1       1.282  -5.002  -2.043  1.00  0.00     0.007 A 
ATOM     25  C   UNL     1      -1.455  -5.442  -2.023  1.00  0.00     0.021 A 
ATOM     26  C   UNL     1       0.634  -5.488  -3.186  1.00  0.00     0.021 A 
ATOM     27  C   UNL     1      -0.736  -5.712  -3.171  1.00  0.00     0.041 A 
ATOM     28  Cl  UNL     1      -1.539  -6.311  -4.565  1.00  0.00    -0.084 Cl
ENDBRANCH  18  22
ENDBRANCH   9  12
ENDBRANCH   7   8
ENDBRANCH   6   7
ENDBRANCH   4   6
ENDBRANCH   3   4
ENDBRANCH   2   3
ENDBRANCH   1   2
BRANCH   1  29
ATOM     29  O   UNL     1      -2.255  -2.952   2.606  1.00  0.00    -0.374 OA
BRANCH  29  30
ATOM     30  C   UNL     1      -0.973  -3.762   2.214  1.00  0.00     0.202 C 
BRANCH  30  31
ATOM     31  C   UNL     1       0.849  -4.048   3.551  1.00  0.00     0.261 C 
BRANCH  31  32
ATOM     32  O   UNL     1       0.936  -3.677   5.042  1.00  0.00    -0.460 OA
BRANCH  32  33
ATOM     33  C   UNL     1       1.108  -2.348   5.294  1.00  0.00     0.338 C 
ATOM     34  O   UNL     1       2.034  -1.654   4.912  1.00  0.00    -0.246 OA
BRANCH  33  35
ATOM     35  C   UNL     1      -0.065  -1.911   6.093  1.00  0.00     0.060 A 
ATOM     36  C   UNL     1      -0.003  -0.621   6.562  1.00  0.00     0.016 A 
ATOM     37  C   UNL     1      -0.756  -2.909   6.789  1.00  0.00     0.016 A 
ATOM     38  C   UNL     1       0.089  -0.560   7.922  1.00  0.00     0.010 A 
ATOM     39  C   UNL     1      -0.876  -2.780   8.125  1.00  0.00     0.010 A 
ATOM     40  C   UNL     1      -0.176  -1.729   8.666  1.00  0.00    -0.014 A 
BRANCH  40  41
ATOM     41  C   UNL     1      -0.022  -1.752  10.095  1.00  0.00     0.031 A 
ATOM     42  C   UNL     1      -1.061  -0.826  10.584  1.00  0.00     0.074 A 
ATOM     43  C   UNL     1       0.879  -2.520  10.755  1.00  0.00     0.049 A 
ATOM     44  N   UNL     1      -0.862   0.439  10.750  1.00  0.00    -0.248 NA
ATOM     45  C   UNL     1      -2.490  -1.163  10.400  1.00  0.00     0.031 C 
ATOM     46  C   UNL     1       1.801  -3.559  10.263  1.00  0.00     0.029 A 
ATOM     47  N   UNL     1       1.156  -2.515  12.098  1.00  0.00    -0.354 N 
ATOM     48  C   UNL     1      -2.102   0.955  11.076  1.00  0.00     0.074 A 
ATOM     49  C   UNL     1      -3.058   0.041  10.529  1.00  0.00     0.031 C 
ATOM     50  C   UNL     1       2.325  -4.252  11.311  1.00  0.00     0.029 A 
ATOM     51  C   UNL     1       1.913  -3.619  12.547  1.00  0.00     0.049 A 
ATOM     52  H   UNL     1       0.852  -1.798  12.700  1.00  0.00     0.167 HD
ATOM     53  C   UNL     1      -2.165   1.777  12.156  1.00  0.00     0.037 A 
ATOM     54  C   UNL     1       2.176  -3.909  13.858  1.00  0.00     0.037 A 
ATOM     55  C   UNL     1      -0.832   2.281  12.445  1.00  0.00     0.049 A 
ATOM     56  C   UNL     1       1.974  -2.638  14.598  1.00  0.00     0.074 A 
ATOM     57  C   UNL     1       0.070   3.107  11.805  1.00  0.00     0.029 A 
ATOM     58  N   UNL     1      -0.101   1.434  13.243  1.00  0.00    -0.354 N 
ATOM     59  N   UNL     1       2.741  -1.596  14.428  1.00  0.00    -0.248 NA
ATOM     60  C   UNL     1       0.625  -2.365  15.064  1.00  0.00     0.031 C 
ATOM     61  C   UNL     1       1.364   2.560  12.075  1.00  0.00     0.029 A 
ATOM     62  C   UNL     1       1.237   1.506  12.980  1.00  0.00     0.049 A 
ATOM     63  H   UNL     1      -0.496   0.844  13.925  1.00  0.00     0.167 HD
ATOM     64  C   UNL     1       1.853  -0.538  14.293  1.00  0.00     0.074 A 
ATOM     65  C   UNL     1       0.570  -1.059  14.784  1.00  0.00     0.031 C 
ATOM     66  C   UNL     1       2.171   0.527  13.493  1.00  0.00     0.037 A 
BRANCH  53  67
ATOM     67  C   UNL     1      -3.200   1.602  13.250  1.00  0.00     0.057 A 
ATOM     68  C   UNL     1      -3.163   2.498  14.331  1.00  0.00     0.134 A 
ATOM     69  C   UNL     1      -4.016   0.465  13.455  1.00  0.00     0.134 A 
ATOM     70  F   UNL     1      -2.416   3.611  14.274  1.00  0.00    -0.206 F 
ATOM     71  C   UNL     1      -3.826   2.248  15.538  1.00  0.00     0.040 A 
ATOM     72  C   UNL     1      -4.713   0.226  14.640  1.00  0.00     0.040 A 
ATOM     73  F   UNL     1      -4.127  -0.533  12.575  1.00  0.00    -0.206 F 
ATOM     74  C   UNL     1      -4.600   1.105  15.698  1.00  0.00     0.006 A 
ENDBRANCH  53  67
BRANCH  54  75
ATOM     75  C   UNL     1       2.192  -5.211  14.585  1.00  0.00     0.057 A 
ATOM     76  C   UNL     1       2.724  -5.354  15.883  1.00  0.00     0.134 A 
ATOM     77  C   UNL     1       1.376  -6.266  14.151  1.00  0.00     0.134 A 
ATOM     78  F   UNL     1       3.462  -4.376  16.431  1.00  0.00    -0.206 F 
ATOM     79  C   UNL     1       2.456  -6.475  16.692  1.00  0.00     0.040 A 
ATOM     80  C   UNL     1       1.093  -7.383  14.950  1.00  0.00     0.040 A 
ATOM     81  F   UNL     1       0.743  -6.194  12.972  1.00  0.00    -0.206 F 
ATOM     82  C   UNL     1       1.627  -7.490  16.229  1.00  0.00     0.006 A 
ENDBRANCH  54  75
BRANCH  66  83
ATOM     83  C   UNL     1       3.605   0.660  13.051  1.00  0.00     0.057 A 
ATOM     84  C   UNL     1       4.261  -0.168  12.126  1.00  0.00     0.134 A 
ATOM     85  C   UNL     1       4.314   1.772  13.514  1.00  0.00     0.134 A 
ATOM     86  F   UNL     1       3.636  -1.208  11.559  1.00  0.00    -0.206 F 
ATOM     87  C   UNL     1       5.579   0.085  11.716  1.00  0.00     0.040 A 
ATOM     88  C   UNL     1       5.612   2.052  13.093  1.00  0.00     0.040 A 
ATOM     89  F   UNL     1       3.727   2.637  14.356  1.00  0.00    -0.206 F 
ATOM     90  C   UNL     1       6.256   1.200  12.201  1.00  0.00     0.006 A 
ENDBRANCH  66  83
ENDBRANCH  40  41
ENDBRANCH  33  35
ENDBRANCH  32  33
ENDBRANCH  31  32
ENDBRANCH  30  31
ENDBRANCH  29  30
ENDBRANCH   1  29
TORSDOF 18
