REMARK SMILES C[C@H]1c2ccc(O)cc2OC(=O)[C@@H]1CC(=O)N[C@@H](CC1=c2ccccc2=NC1)C(=O)OCCOCCOC(=O)c1ccc(-c2c3nc(c(-c4c(F)cccc4F)c4ccc([nH]4)c(-c4c(F)cccc4F)c4nc(c(-c5c(F)cccc5F)c5ccc2[nH]5)C=C4)C=C3)cc1
REMARK SMILES IDX 33 1 32 2 31 3 29 4 30 5 18 6 17 7 15 8 16 9 14 11 13 12
REMARK SMILES IDX 1 13 2 14 3 15 4 16 9 17 11 18 5 19 8 20 10 21 12 22 6 23
REMARK SMILES IDX 7 24 19 26 20 27 21 28 28 29 22 30 26 31 27 32 23 33 25 34
REMARK SMILES IDX 24 35 34 36 35 37 36 38 37 39 38 40 39 41 40 42 41 43 93 44
REMARK SMILES IDX 42 45 92 46 43 47 44 48 45 49 86 50 46 51 91 52 85 53 87 54
REMARK SMILES IDX 47 55 90 56 84 57 83 58 48 60 74 61 57 62 73 63 58 64 61 65
REMARK SMILES IDX 72 66 88 67 59 68 60 69 71 71 89 72 62 73 49 74 50 75 55 76
REMARK SMILES IDX 51 77 52 78 54 79 56 80 53 81 75 82 76 83 81 84 77 85 78 86
REMARK SMILES IDX 80 87 82 88 79 89 63 90 64 91 69 92 65 93 66 94 68 95 70 96
REMARK SMILES IDX 67 97
REMARK H PARENT 17 10 7 25 87 59 61 70
REMARK Flexibility Score: inf
ROOT
ATOM      1  C   UNL     1       4.306   2.825  -7.871  1.00  0.00     0.202 C 
ENDROOT
BRANCH   1   2
ATOM      2  C   UNL     1       5.161   2.080  -6.847  1.00  0.00     0.261 C 
BRANCH   2   3
ATOM      3  O   UNL     1       4.424   1.012  -6.242  1.00  0.00    -0.462 OA
BRANCH   3   4
ATOM      4  C   UNL     1       4.734   0.753  -4.949  1.00  0.00     0.329 C 
ATOM      5  O   UNL     1       5.628   1.310  -4.321  1.00  0.00    -0.250 OA
BRANCH   4   6
ATOM      6  C   UNL     1       3.909  -0.394  -4.363  1.00  0.00     0.196 C 
BRANCH   6   7
ATOM      7  N   UNL     1       2.686  -0.841  -5.043  1.00  0.00    -0.342 N 
ATOM      8  C   UNL     1       1.404  -0.944  -4.585  1.00  0.00     0.221 C 
ATOM      9  O   UNL     1       0.635  -1.706  -5.176  1.00  0.00    -0.275 OA
ATOM     10  H   UNL     1       2.812  -1.110  -5.982  1.00  0.00     0.164 HD
BRANCH   8  11
ATOM     11  C   UNL     1       0.869  -0.008  -3.501  1.00  0.00     0.116 C 
BRANCH  11  12
ATOM     12  C   UNL     1       1.051  -0.359  -2.006  1.00  0.00     0.116 C 
ATOM     13  C   UNL     1       0.276   0.074   0.404  1.00  0.00     0.014 C 
ATOM     14  C   UNL     1       0.162   0.504  -1.066  1.00  0.00     0.034 C 
ATOM     15  C   UNL     1       0.573   1.951  -1.210  1.00  0.00    -0.001 A 
ATOM     16  C   UNL     1      -0.326   3.010  -1.065  1.00  0.00     0.011 A 
ATOM     17  C   UNL     1       1.897   2.239  -1.554  1.00  0.00     0.138 A 
ATOM     18  C   UNL     1       2.460  -0.114  -1.536  1.00  0.00     0.315 C 
ATOM     19  C   UNL     1       0.086   4.319  -1.343  1.00  0.00     0.047 A 
ATOM     20  C   UNL     1       2.308   3.525  -1.883  1.00  0.00     0.093 A 
ATOM     21  O   UNL     1       2.864   1.219  -1.554  1.00  0.00    -0.426 OA
ATOM     22  O   UNL     1       3.234  -1.022  -1.254  1.00  0.00    -0.251 OA
ATOM     23  C   UNL     1       1.388   4.559  -1.782  1.00  0.00     0.119 A 
BRANCH  23  24
ATOM     24  O   UNL     1       1.806   5.813  -2.113  1.00  0.00    -0.508 OA
ATOM     25  H   UNL     1       1.212   6.535  -2.056  1.00  0.00     0.293 HD
ENDBRANCH  23  24
ENDBRANCH  11  12
ENDBRANCH   8  11
ENDBRANCH   6   7
BRANCH   6  26
ATOM     26  C   UNL     1       4.820  -1.600  -3.957  1.00  0.00     0.070 C 
BRANCH  26  27
ATOM     27  C   UNL     1       5.525  -2.418  -5.054  1.00  0.00    -0.037 C 
ATOM     28  C   UNL     1       4.929  -3.517  -5.555  1.00  0.00     0.001 A 
ATOM     29  C   UNL     1       6.070  -1.647  -6.219  1.00  0.00     0.174 C 
ATOM     30  C   UNL     1       5.568  -4.770  -5.952  1.00  0.00     0.010 A 
ATOM     31  C   UNL     1       4.427  -2.871  -6.816  1.00  0.00     0.065 A 
ATOM     32  N   UNL     1       4.981  -1.763  -7.211  1.00  0.00    -0.280 NA
ATOM     33  C   UNL     1       5.010  -5.466  -6.965  1.00  0.00     0.001 A 
ATOM     34  C   UNL     1       3.431  -3.690  -7.525  1.00  0.00     0.028 A 
ATOM     35  C   UNL     1       3.775  -4.989  -7.587  1.00  0.00     0.002 A 
ENDBRANCH  26  27
ENDBRANCH   6  26
ENDBRANCH   4   6
ENDBRANCH   3   4
ENDBRANCH   2   3
ENDBRANCH   1   2
BRANCH   1  36
ATOM     36  O   UNL     1       3.053   3.321  -7.407  1.00  0.00    -0.374 OA
BRANCH  36  37
ATOM     37  C   UNL     1       2.070   2.372  -6.988  1.00  0.00     0.202 C 
BRANCH  37  38
ATOM     38  C   UNL     1       1.528   1.388  -8.039  1.00  0.00     0.261 C 
BRANCH  38  39
ATOM     39  O   UNL     1       2.509   0.471  -8.562  1.00  0.00    -0.460 OA
BRANCH  39  40
ATOM     40  C   UNL     1       2.753   0.582  -9.893  1.00  0.00     0.338 C 
ATOM     41  O   UNL     1       2.249   1.370 -10.674  1.00  0.00    -0.246 OA
BRANCH  40  42
ATOM     42  C   UNL     1       3.844  -0.322 -10.298  1.00  0.00     0.060 A 
ATOM     43  C   UNL     1       3.623  -1.696 -10.389  1.00  0.00     0.016 A 
ATOM     44  C   UNL     1       5.056   0.230 -10.727  1.00  0.00     0.016 A 
ATOM     45  C   UNL     1       4.630  -2.524 -10.896  1.00  0.00     0.010 A 
ATOM     46  C   UNL     1       6.054  -0.596 -11.248  1.00  0.00     0.010 A 
ATOM     47  C   UNL     1       5.845  -1.979 -11.346  1.00  0.00    -0.014 A 
BRANCH  47  48
ATOM     48  C   UNL     1       6.849  -2.842 -12.018  1.00  0.00     0.031 A 
ATOM     49  C   UNL     1       8.127  -3.230 -11.335  1.00  0.00     0.074 A 
ATOM     50  C   UNL     1       6.609  -3.257 -13.277  1.00  0.00     0.049 A 
ATOM     51  N   UNL     1       9.085  -4.015 -11.763  1.00  0.00    -0.248 NA
ATOM     52  C   UNL     1       8.366  -2.654 -10.005  1.00  0.00     0.031 C 
ATOM     53  C   UNL     1       5.424  -2.911 -14.064  1.00  0.00     0.029 A 
ATOM     54  N   UNL     1       7.343  -4.058 -14.115  1.00  0.00    -0.354 N 
ATOM     55  C   UNL     1      10.034  -4.044 -10.750  1.00  0.00     0.074 A 
ATOM     56  C   UNL     1       9.560  -3.152  -9.710  1.00  0.00     0.031 C 
ATOM     57  C   UNL     1       5.500  -3.517 -15.260  1.00  0.00     0.029 A 
ATOM     58  C   UNL     1       6.748  -4.269 -15.335  1.00  0.00     0.049 A 
ATOM     59  H   UNL     1       8.214  -4.444 -13.865  1.00  0.00     0.167 HD
ATOM     60  C   UNL     1      11.181  -4.763 -10.687  1.00  0.00     0.037 A 
ATOM     61  C   UNL     1       7.163  -4.987 -16.396  1.00  0.00     0.037 A 
ATOM     62  C   UNL     1      11.661  -5.630 -11.736  1.00  0.00     0.049 A 
ATOM     63  C   UNL     1       8.471  -5.724 -16.320  1.00  0.00     0.074 A 
ATOM     64  C   UNL     1      12.789  -6.435 -11.744  1.00  0.00     0.029 A 
ATOM     65  N   UNL     1      11.055  -5.787 -12.974  1.00  0.00    -0.354 N 
ATOM     66  N   UNL     1       9.312  -5.821 -15.319  1.00  0.00    -0.248 NA
ATOM     67  C   UNL     1       8.885  -6.456 -17.526  1.00  0.00     0.031 C 
ATOM     68  C   UNL     1      12.894  -7.033 -13.005  1.00  0.00     0.029 A 
ATOM     69  C   UNL     1      11.804  -6.646 -13.766  1.00  0.00     0.049 A 
ATOM     70  H   UNL     1      10.215  -5.353 -13.250  1.00  0.00     0.167 HD
ATOM     71  C   UNL     1      10.343  -6.637 -15.766  1.00  0.00     0.074 A 
ATOM     72  C   UNL     1      10.007  -7.032 -17.118  1.00  0.00     0.031 C 
ATOM     73  C   UNL     1      11.469  -7.021 -15.117  1.00  0.00     0.037 A 
BRANCH  60  74
ATOM     74  C   UNL     1      12.004  -4.639  -9.435  1.00  0.00     0.057 A 
ATOM     75  C   UNL     1      13.262  -4.024  -9.457  1.00  0.00     0.134 A 
ATOM     76  C   UNL     1      11.566  -5.165  -8.211  1.00  0.00     0.134 A 
ATOM     77  F   UNL     1      13.749  -3.509 -10.596  1.00  0.00    -0.206 F 
ATOM     78  C   UNL     1      14.052  -3.932  -8.309  1.00  0.00     0.040 A 
ATOM     79  C   UNL     1      12.335  -5.056  -7.051  1.00  0.00     0.040 A 
ATOM     80  F   UNL     1      10.369  -5.764  -8.117  1.00  0.00    -0.206 F 
ATOM     81  C   UNL     1      13.585  -4.442  -7.099  1.00  0.00     0.006 A 
ENDBRANCH  60  74
BRANCH  61  82
ATOM     82  C   UNL     1       6.330  -5.058 -17.623  1.00  0.00     0.057 A 
ATOM     83  C   UNL     1       6.153  -3.943 -18.452  1.00  0.00     0.134 A 
ATOM     84  C   UNL     1       5.720  -6.255 -18.014  1.00  0.00     0.134 A 
ATOM     85  F   UNL     1       6.709  -2.766 -18.132  1.00  0.00    -0.206 F 
ATOM     86  C   UNL     1       5.398  -4.017 -19.623  1.00  0.00     0.040 A 
ATOM     87  C   UNL     1       4.986  -6.350 -19.197  1.00  0.00     0.040 A 
ATOM     88  F   UNL     1       5.871  -7.363 -17.272  1.00  0.00    -0.206 F 
ATOM     89  C   UNL     1       4.821  -5.226 -20.004  1.00  0.00     0.006 A 
ENDBRANCH  61  82
BRANCH  73  90
ATOM     90  C   UNL     1      12.411  -7.924 -15.864  1.00  0.00     0.057 A 
ATOM     91  C   UNL     1      12.569  -9.265 -15.491  1.00  0.00     0.134 A 
ATOM     92  C   UNL     1      13.165  -7.465 -16.953  1.00  0.00     0.134 A 
ATOM     93  F   UNL     1      11.883  -9.769 -14.454  1.00  0.00    -0.206 F 
ATOM     94  C   UNL     1      13.439 -10.116 -16.174  1.00  0.00     0.040 A 
ATOM     95  C   UNL     1      14.016  -8.315 -17.663  1.00  0.00     0.040 A 
ATOM     96  F   UNL     1      13.050  -6.197 -17.374  1.00  0.00    -0.206 F 
ATOM     97  C   UNL     1      14.158  -9.644 -17.270  1.00  0.00     0.006 A 
ENDBRANCH  73  90
ENDBRANCH  47  48
ENDBRANCH  40  42
ENDBRANCH  39  40
ENDBRANCH  38  39
ENDBRANCH  37  38
ENDBRANCH  36  37
ENDBRANCH   1  36
TORSDOF 20
