REMARK SMILES O=C(OCCOCCOC(=O)c1ccc(-c2c3nc(c(-c4c(F)cccc4F)c4ccc([nH]4)c(-c4c(F)cccc4F)c4nc(c(-c5c(F)cccc5F)c5ccc2[nH]5)C=C4)C=C3)cc1)C1=Cc2cc(Cl)cc(-c3ccc(CO)cc3)c2O[C@@H]1C(F)(F)F
REMARK SMILES IDX 5 1 4 2 3 3 2 4 1 5 66 6 67 7 84 8 68 9 83 10 69 11 82 12
REMARK SMILES IDX 70 13 73 14 71 15 72 16 85 17 86 18 87 19 88 20 74 21 75 22
REMARK SMILES IDX 81 23 76 24 80 25 77 26 78 27 79 28 6 30 7 31 8 32 9 33
REMARK SMILES IDX 10 34 11 35 12 36 13 37 65 38 14 39 64 40 15 41 16 42 17 43
REMARK SMILES IDX 58 44 18 45 63 46 57 47 59 48 19 49 62 50 56 51 55 52 20 54
REMARK SMILES IDX 46 55 29 56 45 57 30 58 33 59 44 60 60 61 31 62 32 63 43 65
REMARK SMILES IDX 61 66 34 67 21 68 22 69 27 70 23 71 24 72 26 73 28 74 25 75
REMARK SMILES IDX 47 76 48 77 53 78 49 79 50 80 52 81 54 82 51 83 35 84 36 85
REMARK SMILES IDX 41 86 37 87 38 88 40 89 42 90 39 91
REMARK H PARENT 79 29 59 53 33 64
REMARK Flexibility Score: inf
ROOT
ATOM      1  C   UNL     1       4.466  -1.213  -0.398  1.00  0.00     0.202 C 
ENDROOT
BRANCH   1   2
ATOM      2  C   UNL     1       3.650   0.800  -0.603  1.00  0.00     0.261 C 
BRANCH   2   3
ATOM      3  O   UNL     1       2.433   1.208  -1.324  1.00  0.00    -0.460 OA
BRANCH   3   4
ATOM      4  C   UNL     1       2.379   0.581  -2.502  1.00  0.00     0.338 C 
ATOM      5  O   UNL     1       1.415   0.551  -3.234  1.00  0.00    -0.246 OA
BRANCH   4   6
ATOM      6  C   UNL     1       3.462  -0.427  -2.346  1.00  0.00     0.087 C 
ATOM      7  C   UNL     1       4.839   0.035  -2.373  1.00  0.00     0.027 C 
ATOM      8  C   UNL     1       2.578  -0.982  -0.768  1.00  0.00     0.316 C 
ATOM      9  C   UNL     1       5.829   0.441  -0.934  1.00  0.00     0.019 A 
ATOM     10  O   UNL     1       3.486  -0.343   0.852  1.00  0.00    -0.475 OA
ATOM     11  C   UNL     1       7.098   0.928  -1.114  1.00  0.00     0.032 A 
ATOM     12  C   UNL     1       5.191   0.380   0.659  1.00  0.00     0.135 A 
ATOM     13  C   UNL     1       7.740   1.372   0.052  1.00  0.00     0.042 A 
ATOM     14  C   UNL     1       5.932   0.735   1.733  1.00  0.00     0.026 A 
ATOM     15  Cl  UNL     1       9.322   2.060  -0.125  1.00  0.00    -0.084 Cl
ATOM     16  C   UNL     1       7.188   1.297   1.387  1.00  0.00     0.033 A 
BRANCH   8  17
ATOM     17  C   UNL     1       2.459  -2.563  -1.464  1.00  0.00     0.430 C 
ATOM     18  F   UNL     1       1.794  -3.512  -0.792  1.00  0.00    -0.167 F 
ATOM     19  F   UNL     1       1.743  -2.422  -2.626  1.00  0.00    -0.167 F 
ATOM     20  F   UNL     1       3.628  -3.118  -1.887  1.00  0.00    -0.167 F 
ENDBRANCH   8  17
BRANCH  14  21
ATOM     21  C   UNL     1       5.475   0.575   3.069  1.00  0.00    -0.015 A 
ATOM     22  C   UNL     1       4.336   2.009   3.869  1.00  0.00     0.009 A 
ATOM     23  C   UNL     1       5.998  -0.956   4.338  1.00  0.00     0.009 A 
ATOM     24  C   UNL     1       3.412   2.148   5.640  1.00  0.00     0.007 A 
ATOM     25  C   UNL     1       5.198  -0.715   6.163  1.00  0.00     0.007 A 
ATOM     26  C   UNL     1       3.908   0.629   6.896  1.00  0.00    -0.023 A 
BRANCH  26  27
ATOM     27  C   UNL     1       3.323   0.570   8.274  1.00  0.00     0.191 C 
BRANCH  27  28
ATOM     28  O   UNL     1       4.032   1.422   9.150  1.00  0.00    -0.392 OA
ATOM     29  H   UNL     1       4.959   1.141   9.195  1.00  0.00     0.211 HD
ENDBRANCH  27  28
ENDBRANCH  26  27
ENDBRANCH  14  21
ENDBRANCH   4   6
ENDBRANCH   3   4
ENDBRANCH   2   3
ENDBRANCH   1   2
BRANCH   1  30
ATOM     30  O   UNL     1       3.757  -2.451   0.624  1.00  0.00    -0.374 OA
BRANCH  30  31
ATOM     31  C   UNL     1       2.420  -2.520   1.334  1.00  0.00     0.202 C 
BRANCH  31  32
ATOM     32  C   UNL     1       2.115  -2.384   2.843  1.00  0.00     0.261 C 
BRANCH  32  33
ATOM     33  O   UNL     1       2.551  -1.169   3.421  1.00  0.00    -0.460 OA
BRANCH  33  34
ATOM     34  C   UNL     1       3.888  -1.290   3.569  1.00  0.00     0.338 C 
ATOM     35  O   UNL     1       4.506  -2.273   3.170  1.00  0.00    -0.246 OA
BRANCH  34  36
ATOM     36  C   UNL     1       4.535  -0.027   4.412  1.00  0.00     0.060 A 
ATOM     37  C   UNL     1       6.354   0.807   4.698  1.00  0.00     0.016 A 
ATOM     38  C   UNL     1       3.908   0.542   5.127  1.00  0.00     0.016 A 
ATOM     39  C   UNL     1       7.292   1.672   5.239  1.00  0.00     0.010 A 
ATOM     40  C   UNL     1       5.224   1.731   6.025  1.00  0.00     0.010 A 
ATOM     41  C   UNL     1       6.555   2.211   6.125  1.00  0.00    -0.014 A 
BRANCH  41  42
ATOM     42  C   UNL     1       7.101   3.017   7.150  1.00  0.00     0.031 A 
ATOM     43  C   UNL     1       7.506   2.327   8.384  1.00  0.00     0.074 A 
ATOM     44  C   UNL     1       7.226   4.302   6.835  1.00  0.00     0.049 A 
ATOM     45  N   UNL     1       7.978   2.841   9.471  1.00  0.00    -0.248 NA
ATOM     46  C   UNL     1       7.297   0.868   8.438  1.00  0.00     0.031 C 
ATOM     47  C   UNL     1       6.827   4.909   5.559  1.00  0.00     0.029 A 
ATOM     48  N   UNL     1       7.765   5.304   7.553  1.00  0.00    -0.354 N 
ATOM     49  C   UNL     1       8.066   1.781  10.350  1.00  0.00     0.074 A 
ATOM     50  C   UNL     1       7.509   0.615   9.716  1.00  0.00     0.031 C 
ATOM     51  C   UNL     1       7.197   6.195   5.570  1.00  0.00     0.029 A 
ATOM     52  C   UNL     1       7.808   6.477   6.861  1.00  0.00     0.049 A 
ATOM     53  H   UNL     1       8.093   5.202   8.475  1.00  0.00     0.167 HD
ATOM     54  C   UNL     1       8.623   1.815  11.572  1.00  0.00     0.037 A 
ATOM     55  C   UNL     1       8.317   7.638   7.278  1.00  0.00     0.037 A 
ATOM     56  C   UNL     1       9.222   3.015  12.075  1.00  0.00     0.049 A 
ATOM     57  C   UNL     1       8.942   7.634   8.641  1.00  0.00     0.074 A 
ATOM     58  C   UNL     1       9.887   3.212  13.263  1.00  0.00     0.029 A 
ATOM     59  N   UNL     1       9.230   4.228  11.389  1.00  0.00    -0.354 N 
ATOM     60  N   UNL     1       9.055   6.644   9.500  1.00  0.00    -0.248 NA
ATOM     61  C   UNL     1       9.523   8.895   9.085  1.00  0.00     0.031 C 
ATOM     62  C   UNL     1      10.222   4.565  13.335  1.00  0.00     0.029 A 
ATOM     63  C   UNL     1       9.868   5.188  12.143  1.00  0.00     0.049 A 
ATOM     64  H   UNL     1       8.837   4.377  10.499  1.00  0.00     0.167 HD
ATOM     65  C   UNL     1       9.759   7.151  10.578  1.00  0.00     0.074 A 
ATOM     66  C   UNL     1      10.060   8.533  10.240  1.00  0.00     0.031 C 
ATOM     67  C   UNL     1      10.132   6.548  11.737  1.00  0.00     0.037 A 
BRANCH  54  68
ATOM     68  C   UNL     1       8.562   0.572  12.396  1.00  0.00     0.057 A 
ATOM     69  C   UNL     1       9.163  -0.633  12.005  1.00  0.00     0.134 A 
ATOM     70  C   UNL     1       7.846   0.577  13.597  1.00  0.00     0.134 A 
ATOM     71  F   UNL     1       9.841  -0.718  10.849  1.00  0.00    -0.206 F 
ATOM     72  C   UNL     1       9.018  -1.798  12.758  1.00  0.00     0.040 A 
ATOM     73  C   UNL     1       7.740  -0.567  14.386  1.00  0.00     0.040 A 
ATOM     74  F   UNL     1       7.229   1.690  14.020  1.00  0.00    -0.206 F 
ATOM     75  C   UNL     1       8.315  -1.761  13.960  1.00  0.00     0.006 A 
ENDBRANCH  54  68
BRANCH  55  76
ATOM     76  C   UNL     1       8.284   8.815   6.395  1.00  0.00     0.057 A 
ATOM     77  C   UNL     1       9.463   9.389   5.915  1.00  0.00     0.134 A 
ATOM     78  C   UNL     1       7.069   9.387   5.997  1.00  0.00     0.134 A 
ATOM     79  F   UNL     1      10.653   8.859   6.235  1.00  0.00    -0.206 F 
ATOM     80  C   UNL     1       9.440  10.538   5.128  1.00  0.00     0.040 A 
ATOM     81  C   UNL     1       7.030  10.510   5.177  1.00  0.00     0.040 A 
ATOM     82  F   UNL     1       5.904   8.847   6.384  1.00  0.00    -0.206 F 
ATOM     83  C   UNL     1       8.220  11.103   4.761  1.00  0.00     0.006 A 
ENDBRANCH  55  76
BRANCH  67  84
ATOM     84  C   UNL     1      10.967   7.373  12.667  1.00  0.00     0.057 A 
ATOM     85  C   UNL     1      10.471   8.516  13.303  1.00  0.00     0.134 A 
ATOM     86  C   UNL     1      12.290   6.996  12.933  1.00  0.00     0.134 A 
ATOM     87  F   UNL     1       9.210   8.923  13.092  1.00  0.00    -0.206 F 
ATOM     88  C   UNL     1      11.289   9.302  14.111  1.00  0.00     0.040 A 
ATOM     89  C   UNL     1      13.095   7.737  13.790  1.00  0.00     0.040 A 
ATOM     90  F   UNL     1      12.813   5.892  12.378  1.00  0.00    -0.206 F 
ATOM     91  C   UNL     1      12.603   8.908  14.361  1.00  0.00     0.006 A 
ENDBRANCH  67  84
ENDBRANCH  41  42
ENDBRANCH  34  36
ENDBRANCH  33  34
ENDBRANCH  32  33
ENDBRANCH  31  32
ENDBRANCH  30  31
ENDBRANCH   1  30
TORSDOF 18
