REMARK SMILES O=C(OCCOCCOC(=O)[C@@H]1C[N@@H+](CCOc2ccc(F)cc2)C[C@H]1C1CC1)c1ccc(-c2c3nc(c(-c4c(F)cccc4F)c4ccc([nH]4)c(-c4c(F)cccc4F)c4nc(c(-c5c(F)cccc5F)c5ccc2[nH]5)C=C4)C=C3)cc1
REMARK SMILES IDX 7 1 6 2 5 3 4 4 3 5 2 6 1 7 30 8 31 9 83 10 32 11 82 12
REMARK SMILES IDX 33 13 34 14 35 15 76 16 36 17 81 18 75 19 77 20 37 21 80 22
REMARK SMILES IDX 74 23 73 24 38 26 64 27 47 28 63 29 48 30 51 31 62 32 78 33
REMARK SMILES IDX 49 34 50 35 61 37 79 38 52 39 39 40 40 41 45 42 41 43 42 44
REMARK SMILES IDX 44 45 46 46 43 47 65 48 66 49 71 50 67 51 68 52 70 53 72 54
REMARK SMILES IDX 69 55 53 56 54 57 59 58 55 59 56 60 58 61 60 62 57 63 8 64
REMARK SMILES IDX 9 65 10 66 11 67 12 68 13 69 26 70 14 71 25 72 27 74 28 75
REMARK SMILES IDX 29 76 15 77 16 78 17 79 18 80 19 81 24 82 20 83 23 84 21 85
REMARK SMILES IDX 22 86
REMARK H PARENT 77 25 51 36 14 73
REMARK Flexibility Score: inf
ROOT
ATOM      1  C   UNL     1       1.761  -0.750   1.041  1.00  0.00     0.202 C 
ENDROOT
BRANCH   1   2
ATOM      2  O   UNL     1       3.195  -0.806   0.992  1.00  0.00    -0.374 OA
BRANCH   2   3
ATOM      3  C   UNL     1       3.862   0.434   1.255  1.00  0.00     0.202 C 
BRANCH   3   4
ATOM      4  C   UNL     1       3.896   1.466   0.119  1.00  0.00     0.261 C 
BRANCH   4   5
ATOM      5  O   UNL     1       2.597   1.671  -0.452  1.00  0.00    -0.460 OA
BRANCH   5   6
ATOM      6  C   UNL     1       2.049   1.022  -1.506  1.00  0.00     0.338 C 
ATOM      7  O   UNL     1       0.874   1.245  -1.789  1.00  0.00    -0.246 OA
BRANCH   6   8
ATOM      8  C   UNL     1       2.805   0.058  -2.361  1.00  0.00     0.060 A 
ATOM      9  C   UNL     1       3.884  -0.724  -1.938  1.00  0.00     0.016 A 
ATOM     10  C   UNL     1       2.336  -0.119  -3.672  1.00  0.00     0.016 A 
ATOM     11  C   UNL     1       4.538  -1.586  -2.799  1.00  0.00     0.010 A 
ATOM     12  C   UNL     1       2.957  -1.021  -4.536  1.00  0.00     0.010 A 
ATOM     13  C   UNL     1       4.073  -1.739  -4.097  1.00  0.00    -0.014 A 
BRANCH  13  14
ATOM     14  C   UNL     1       4.838  -2.605  -4.998  1.00  0.00     0.031 A 
ATOM     15  C   UNL     1       5.738  -1.958  -5.995  1.00  0.00     0.074 A 
ATOM     16  C   UNL     1       4.795  -3.936  -4.819  1.00  0.00     0.049 A 
ATOM     17  N   UNL     1       6.395  -2.499  -6.981  1.00  0.00    -0.248 NA
ATOM     18  C   UNL     1       5.938  -0.503  -5.858  1.00  0.00     0.031 C 
ATOM     19  C   UNL     1       4.058  -4.619  -3.752  1.00  0.00     0.029 A 
ATOM     20  N   UNL     1       5.396  -4.949  -5.512  1.00  0.00    -0.354 N 
ATOM     21  C   UNL     1       7.046  -1.449  -7.610  1.00  0.00     0.074 A 
ATOM     22  C   UNL     1       6.735  -0.241  -6.883  1.00  0.00     0.031 C 
ATOM     23  C   UNL     1       4.254  -5.942  -3.862  1.00  0.00     0.029 A 
ATOM     24  C   UNL     1       5.051  -6.198  -5.055  1.00  0.00     0.049 A 
ATOM     25  H   UNL     1       6.013  -4.799  -6.264  1.00  0.00     0.167 HD
ATOM     26  C   UNL     1       7.814  -1.511  -8.719  1.00  0.00     0.037 A 
ATOM     27  C   UNL     1       5.303  -7.405  -5.593  1.00  0.00     0.037 A 
ATOM     28  C   UNL     1       8.097  -2.743  -9.399  1.00  0.00     0.049 A 
ATOM     29  C   UNL     1       6.072  -7.439  -6.885  1.00  0.00     0.074 A 
ATOM     30  C   UNL     1       8.805  -2.945 -10.566  1.00  0.00     0.029 A 
ATOM     31  N   UNL     1       7.675  -3.990  -8.954  1.00  0.00    -0.354 N 
ATOM     32  N   UNL     1       6.613  -6.439  -7.544  1.00  0.00    -0.248 NA
ATOM     33  C   UNL     1       6.231  -8.745  -7.534  1.00  0.00     0.031 C 
ATOM     34  C   UNL     1       8.777  -4.314 -10.849  1.00  0.00     0.029 A 
ATOM     35  C   UNL     1       8.084  -4.967  -9.838  1.00  0.00     0.049 A 
ATOM     36  H   UNL     1       7.161  -4.152  -8.130  1.00  0.00     0.167 HD
ATOM     37  C   UNL     1       7.169  -6.990  -8.687  1.00  0.00     0.074 A 
ATOM     38  C   UNL     1       6.923  -8.419  -8.619  1.00  0.00     0.031 C 
ATOM     39  C   UNL     1       7.811  -6.378  -9.712  1.00  0.00     0.037 A 
BRANCH  26  40
ATOM     40  C   UNL     1       8.311  -0.221  -9.290  1.00  0.00     0.057 A 
ATOM     41  C   UNL     1       7.703   0.322 -10.429  1.00  0.00     0.134 A 
ATOM     42  C   UNL     1       9.379   0.486  -8.726  1.00  0.00     0.134 A 
ATOM     43  F   UNL     1       6.664  -0.299 -11.008  1.00  0.00    -0.206 F 
ATOM     44  C   UNL     1       8.148   1.517 -10.995  1.00  0.00     0.040 A 
ATOM     45  C   UNL     1       9.823   1.692  -9.274  1.00  0.00     0.040 A 
ATOM     46  F   UNL     1       9.982   0.035  -7.615  1.00  0.00    -0.206 F 
ATOM     47  C   UNL     1       9.211   2.207 -10.416  1.00  0.00     0.006 A 
ENDBRANCH  26  40
BRANCH  27  48
ATOM     48  C   UNL     1       4.744  -8.632  -4.971  1.00  0.00     0.057 A 
ATOM     49  C   UNL     1       3.359  -8.845  -4.900  1.00  0.00     0.134 A 
ATOM     50  C   UNL     1       5.569  -9.610  -4.409  1.00  0.00     0.134 A 
ATOM     51  F   UNL     1       2.507  -7.949  -5.420  1.00  0.00    -0.206 F 
ATOM     52  C   UNL     1       2.817  -9.967  -4.271  1.00  0.00     0.040 A 
ATOM     53  C   UNL     1       5.042 -10.752  -3.800  1.00  0.00     0.040 A 
ATOM     54  F   UNL     1       6.903  -9.478  -4.460  1.00  0.00    -0.206 F 
ATOM     55  C   UNL     1       3.661 -10.928  -3.721  1.00  0.00     0.006 A 
ENDBRANCH  27  48
BRANCH  39  56
ATOM     56  C   UNL     1       8.282  -7.244 -10.834  1.00  0.00     0.057 A 
ATOM     57  C   UNL     1       9.643  -7.531 -10.987  1.00  0.00     0.134 A 
ATOM     58  C   UNL     1       7.400  -7.679 -11.829  1.00  0.00     0.134 A 
ATOM     59  F   UNL     1      10.533  -7.125 -10.069  1.00  0.00    -0.206 F 
ATOM     60  C   UNL     1      10.117  -8.201 -12.113  1.00  0.00     0.040 A 
ATOM     61  C   UNL     1       7.860  -8.367 -12.949  1.00  0.00     0.040 A 
ATOM     62  F   UNL     1       6.085  -7.436 -11.725  1.00  0.00    -0.206 F 
ATOM     63  C   UNL     1       9.224  -8.617 -13.100  1.00  0.00     0.006 A 
ENDBRANCH  39  56
ENDBRANCH  13  14
ENDBRANCH   6   8
ENDBRANCH   5   6
ENDBRANCH   4   5
ENDBRANCH   3   4
ENDBRANCH   2   3
ENDBRANCH   1   2
BRANCH   1  64
ATOM     64  C   UNL     1       1.215  -1.740   2.063  1.00  0.00     0.261 C 
BRANCH  64  65
ATOM     65  O   UNL     1       1.733  -1.354   3.345  1.00  0.00    -0.463 OA
BRANCH  65  66
ATOM     66  C   UNL     1       2.683  -2.184   3.840  1.00  0.00     0.315 C 
ATOM     67  O   UNL     1       2.799  -3.361   3.527  1.00  0.00    -0.252 OA
BRANCH  66  68
ATOM     68  C   UNL     1       3.646  -1.479   4.769  1.00  0.00     0.163 C 
ATOM     69  C   UNL     1       3.374  -0.004   5.030  1.00  0.00     0.278 C 
ATOM     70  C   UNL     1       5.045  -1.503   4.138  1.00  0.00     0.067 C 
ATOM     71  N   UNL     1       4.681   0.597   5.319  1.00  0.00    -0.331 N 
ATOM     72  C   UNL     1       5.610  -0.092   4.426  1.00  0.00     0.267 C 
ATOM     73  H   UNL     1       4.690   1.599   5.131  1.00  0.00     0.348 HD
BRANCH  70  74
ATOM     74  C   UNL     1       5.958  -2.602   4.626  1.00  0.00    -0.001 C 
ATOM     75  C   UNL     1       5.505  -3.752   5.504  1.00  0.00     0.004 C 
ATOM     76  C   UNL     1       5.889  -4.009   4.080  1.00  0.00     0.004 C 
ENDBRANCH  70  74
BRANCH  71  77
ATOM     77  C   UNL     1       5.048   0.638   6.751  1.00  0.00     0.304 C 
BRANCH  77  78
ATOM     78  C   UNL     1       5.977  -0.420   7.400  1.00  0.00     0.290 C 
BRANCH  78  79
ATOM     79  O   UNL     1       7.335   0.057   7.478  1.00  0.00    -0.488 OA
BRANCH  79  80
ATOM     80  C   UNL     1       8.240  -0.660   6.747  1.00  0.00     0.119 A 
ATOM     81  C   UNL     1       8.974   0.050   5.792  1.00  0.00     0.049 A 
ATOM     82  C   UNL     1       8.434  -2.033   6.903  1.00  0.00     0.049 A 
ATOM     83  C   UNL     1       9.794  -0.634   4.894  1.00  0.00     0.043 A 
ATOM     84  C   UNL     1       9.271  -2.716   6.013  1.00  0.00     0.043 A 
ATOM     85  C   UNL     1       9.918  -2.014   5.000  1.00  0.00     0.123 A 
ATOM     86  F   UNL     1      10.648  -2.681   4.096  1.00  0.00    -0.207 F 
ENDBRANCH  79  80
ENDBRANCH  78  79
ENDBRANCH  77  78
ENDBRANCH  71  77
ENDBRANCH  66  68
ENDBRANCH  65  66
ENDBRANCH  64  65
ENDBRANCH   1  64
TORSDOF 19
