REMARK SMILES CC(C)(C)c1cc2c(cc1Cl)C=C(C(=O)OCCOCCOC(=O)c1ccc(-c3c4nc(c(-c5c(F)cccc5F)c5ccc([nH]5)c(-c5c(F)cccc5F)c5nc(c(-c6c(F)cccc6F)c6ccc3[nH]6)C=C5)C=C4)cc1)[C@@H](C(F)(F)F)O2
REMARK SMILES IDX 20 1 19 2 18 3 17 4 16 5 14 6 15 7 13 8 5 9 6 10 10 11 7 12
REMARK SMILES IDX 9 13 11 14 8 15 84 16 12 17 79 18 2 19 1 20 3 21 4 22 80 23
REMARK SMILES IDX 81 24 82 25 83 26 21 27 22 28 23 29 24 30 25 31 26 32 78 33
REMARK SMILES IDX 27 34 77 35 28 36 29 37 30 38 71 39 31 40 76 41 70 42 72 43
REMARK SMILES IDX 32 44 75 45 69 46 68 47 33 49 59 50 42 51 58 52 43 53 46 54
REMARK SMILES IDX 57 55 73 56 44 57 45 58 56 60 74 61 47 62 34 63 35 64 40 65
REMARK SMILES IDX 36 66 37 67 39 68 41 69 38 70 60 71 61 72 66 73 62 74 63 75
REMARK SMILES IDX 65 76 67 77 64 78 48 79 49 80 54 81 50 82 51 83 53 84 55 85
REMARK SMILES IDX 52 86
REMARK H PARENT 72 48 46 59
REMARK Flexibility Score: inf
ROOT
ATOM      1  C   UNL     1       4.173   8.372  -2.944  1.00  0.00     0.202 C 
ENDROOT
BRANCH   1   2
ATOM      2  O   UNL     1       4.042   9.416  -3.908  1.00  0.00    -0.374 OA
BRANCH   2   3
ATOM      3  C   UNL     1       2.953  10.326  -3.790  1.00  0.00     0.202 C 
BRANCH   3   4
ATOM      4  C   UNL     1       1.552   9.830  -4.161  1.00  0.00     0.261 C 
BRANCH   4   5
ATOM      5  O   UNL     1       1.192   8.635  -3.454  1.00  0.00    -0.460 OA
BRANCH   5   6
ATOM      6  C   UNL     1       1.127   7.531  -4.236  1.00  0.00     0.338 C 
ATOM      7  O   UNL     1       1.224   7.487  -5.451  1.00  0.00    -0.246 OA
BRANCH   6   8
ATOM      8  C   UNL     1       1.050   6.324  -3.393  1.00  0.00     0.087 C 
ATOM      9  C   UNL     1       1.093   1.476  -2.013  1.00  0.00    -0.020 A 
ATOM     10  C   UNL     1       0.504   2.670  -1.511  1.00  0.00     0.053 A 
ATOM     11  C   UNL     1       2.096   1.648  -2.989  1.00  0.00     0.045 A 
ATOM     12  C   UNL     1       0.773   3.930  -2.052  1.00  0.00     0.128 A 
ATOM     13  C   UNL     1       2.368   2.918  -3.526  1.00  0.00     0.032 A 
ATOM     14  Cl  UNL     1       3.109   0.400  -3.619  1.00  0.00    -0.084 Cl
ATOM     15  C   UNL     1       1.674   4.045  -3.096  1.00  0.00     0.019 A 
ATOM     16  O   UNL     1       0.102   4.989  -1.510  1.00  0.00    -0.475 OA
ATOM     17  C   UNL     1       1.834   5.311  -3.781  1.00  0.00     0.027 C 
ATOM     18  C   UNL     1       0.114   6.263  -2.219  1.00  0.00     0.316 C 
BRANCH   9  19
ATOM     19  C   UNL     1       0.557   0.134  -1.453  1.00  0.00    -0.012 C 
ATOM     20  C   UNL     1       1.072  -0.043  -0.011  1.00  0.00     0.016 C 
ATOM     21  C   UNL     1       0.918  -1.147  -2.237  1.00  0.00     0.016 C 
ATOM     22  C   UNL     1      -0.999   0.151  -1.436  1.00  0.00     0.016 C 
ENDBRANCH   9  19
BRANCH  18  23
ATOM     23  C   UNL     1      -1.331   6.620  -2.596  1.00  0.00     0.430 C 
ATOM     24  F   UNL     1      -2.157   6.514  -1.527  1.00  0.00    -0.167 F 
ATOM     25  F   UNL     1      -1.434   7.896  -3.038  1.00  0.00    -0.167 F 
ATOM     26  F   UNL     1      -1.817   5.814  -3.567  1.00  0.00    -0.167 F 
ENDBRANCH  18  23
ENDBRANCH   6   8
ENDBRANCH   5   6
ENDBRANCH   4   5
ENDBRANCH   3   4
ENDBRANCH   2   3
ENDBRANCH   1   2
BRANCH   1  27
ATOM     27  C   UNL     1       4.547   8.739  -1.502  1.00  0.00     0.261 C 
BRANCH  27  28
ATOM     28  O   UNL     1       3.556   9.556  -0.856  1.00  0.00    -0.460 OA
BRANCH  28  29
ATOM     29  C   UNL     1       3.945  10.833  -0.616  1.00  0.00     0.338 C 
ATOM     30  O   UNL     1       5.036  11.333  -0.847  1.00  0.00    -0.246 OA
BRANCH  29  31
ATOM     31  C   UNL     1       2.777  11.632  -0.204  1.00  0.00     0.060 A 
ATOM     32  C   UNL     1       2.015  11.279   0.910  1.00  0.00     0.016 A 
ATOM     33  C   UNL     1       2.483  12.793  -0.932  1.00  0.00     0.016 A 
ATOM     34  C   UNL     1       0.977  12.120   1.317  1.00  0.00     0.010 A 
ATOM     35  C   UNL     1       1.445  13.630  -0.524  1.00  0.00     0.010 A 
ATOM     36  C   UNL     1       0.703  13.313   0.621  1.00  0.00    -0.014 A 
BRANCH  36  37
ATOM     37  C   UNL     1      -0.250  14.300   1.186  1.00  0.00     0.031 A 
ATOM     38  C   UNL     1      -1.599  14.536   0.579  1.00  0.00     0.074 A 
ATOM     39  C   UNL     1       0.139  15.011   2.262  1.00  0.00     0.049 A 
ATOM     40  N   UNL     1      -2.570  15.303   1.008  1.00  0.00    -0.248 NA
ATOM     41  C   UNL     1      -1.895  13.832  -0.676  1.00  0.00     0.031 C 
ATOM     42  C   UNL     1       1.452  14.912   2.903  1.00  0.00     0.029 A 
ATOM     43  N   UNL     1      -0.527  15.947   3.008  1.00  0.00    -0.354 N 
ATOM     44  C   UNL     1      -3.604  15.158   0.092  1.00  0.00     0.074 A 
ATOM     45  C   UNL     1      -3.117  14.273  -0.948  1.00  0.00     0.031 C 
ATOM     46  C   UNL     1       1.482  15.727   3.968  1.00  0.00     0.029 A 
ATOM     47  C   UNL     1       0.205  16.426   4.066  1.00  0.00     0.049 A 
ATOM     48  H   UNL     1      -1.442  16.248   2.805  1.00  0.00     0.167 HD
ATOM     49  C   UNL     1      -4.847  15.698   0.128  1.00  0.00     0.037 A 
ATOM     50  C   UNL     1      -0.118  17.326   5.013  1.00  0.00     0.037 A 
ATOM     51  C   UNL     1      -5.313  16.606   1.148  1.00  0.00     0.049 A 
ATOM     52  C   UNL     1      -1.488  17.944   4.997  1.00  0.00     0.074 A 
ATOM     53  C   UNL     1      -6.567  17.175   1.292  1.00  0.00     0.029 A 
ATOM     54  N   UNL     1      -4.535  17.098   2.187  1.00  0.00    -0.354 N 
ATOM     55  N   UNL     1      -2.491  17.720   4.184  1.00  0.00    -0.248 NA
ATOM     56  C   UNL     1      -1.770  18.937   6.042  1.00  0.00     0.031 C 
ATOM     57  C   UNL     1      -6.531  18.054   2.381  1.00  0.00     0.029 A 
ATOM     58  C   UNL     1      -5.272  17.988   2.955  1.00  0.00     0.049 A 
ATOM     59  H   UNL     1      -3.597  16.851   2.355  1.00  0.00     0.167 HD
ATOM     60  C   UNL     1      -3.530  18.526   4.632  1.00  0.00     0.074 A 
ATOM     61  C   UNL     1      -3.043  19.217   5.808  1.00  0.00     0.031 C 
ATOM     62  C   UNL     1      -4.774  18.683   4.115  1.00  0.00     0.037 A 
BRANCH  49  63
ATOM     63  C   UNL     1      -5.796  15.320  -0.975  1.00  0.00     0.057 A 
ATOM     64  C   UNL     1      -6.225  16.267  -1.913  1.00  0.00     0.134 A 
ATOM     65  C   UNL     1      -6.320  14.024  -1.083  1.00  0.00     0.134 A 
ATOM     66  F   UNL     1      -5.774  17.530  -1.863  1.00  0.00    -0.206 F 
ATOM     67  C   UNL     1      -7.138  15.940  -2.918  1.00  0.00     0.040 A 
ATOM     68  C   UNL     1      -7.212  13.678  -2.100  1.00  0.00     0.040 A 
ATOM     69  F   UNL     1      -5.948  13.066  -0.220  1.00  0.00    -0.206 F 
ATOM     70  C   UNL     1      -7.628  14.639  -3.018  1.00  0.00     0.006 A 
ENDBRANCH  49  63
BRANCH  50  71
ATOM     71  C   UNL     1       0.861  17.690   6.068  1.00  0.00     0.057 A 
ATOM     72  C   UNL     1       2.020  18.415   5.769  1.00  0.00     0.134 A 
ATOM     73  C   UNL     1       0.636  17.357   7.409  1.00  0.00     0.134 A 
ATOM     74  F   UNL     1       2.298  18.757   4.502  1.00  0.00    -0.206 F 
ATOM     75  C   UNL     1       2.917  18.801   6.765  1.00  0.00     0.040 A 
ATOM     76  C   UNL     1       1.508  17.764   8.419  1.00  0.00     0.040 A 
ATOM     77  F   UNL     1      -0.466  16.677   7.760  1.00  0.00    -0.206 F 
ATOM     78  C   UNL     1       2.655  18.487   8.097  1.00  0.00     0.006 A 
ENDBRANCH  50  71
BRANCH  62  79
ATOM     79  C   UNL     1      -5.692  19.628   4.841  1.00  0.00     0.057 A 
ATOM     80  C   UNL     1      -6.806  19.146   5.541  1.00  0.00     0.134 A 
ATOM     81  C   UNL     1      -5.466  21.011   4.865  1.00  0.00     0.134 A 
ATOM     82  F   UNL     1      -7.090  17.835   5.553  1.00  0.00    -0.206 F 
ATOM     83  C   UNL     1      -7.652  20.003   6.247  1.00  0.00     0.040 A 
ATOM     84  C   UNL     1      -6.285  21.873   5.597  1.00  0.00     0.040 A 
ATOM     85  F   UNL     1      -4.408  21.539   4.230  1.00  0.00    -0.206 F 
ATOM     86  C   UNL     1      -7.385  21.369   6.288  1.00  0.00     0.006 A 
ENDBRANCH  62  79
ENDBRANCH  36  37
ENDBRANCH  29  31
ENDBRANCH  28  29
ENDBRANCH  27  28
ENDBRANCH   1  27
TORSDOF 16
