REMARK SMILES CCC([NH3+])(CC)C(=O)N1CCC(CC(=O)OCCOCCOC(=O)c2ccc(-c3c4nc(c(-c5c(F)cccc5F)c5ccc([nH]5)c(-c5c(F)cccc5F)c5nc(c(-c6c(F)cccc6F)c6ccc3[nH]6)C=C5)C=C4)cc2)CC1
REMARK SMILES IDX 18 1 17 2 16 3 14 4 15 5 13 6 12 7 7 8 8 9 9 10 10 11 80 12
REMARK SMILES IDX 11 13 79 14 3 15 2 16 1 17 4 18 5 22 6 23 19 24 20 25 21 26
REMARK SMILES IDX 22 27 23 28 24 29 25 30 26 31 78 32 27 33 77 34 28 35 29 36
REMARK SMILES IDX 30 37 71 38 31 39 76 40 70 41 72 42 32 43 75 44 69 45 68 46
REMARK SMILES IDX 33 48 59 49 42 50 58 51 43 52 46 53 57 54 73 55 44 56 45 57
REMARK SMILES IDX 56 59 74 60 47 61 34 62 35 63 40 64 36 65 37 66 39 67 41 68
REMARK SMILES IDX 38 69 60 70 61 71 66 72 62 73 63 74 65 75 67 76 64 77 48 78
REMARK SMILES IDX 49 79 54 80 50 81 51 82 53 83 55 84 52 85
REMARK H PARENT 4 19 4 20 4 21 72 47 46 58
REMARK Flexibility Score: inf
ROOT
ATOM      1  C   UNL     1       9.824   1.628   5.578  1.00  0.00     0.202 C 
ENDROOT
BRANCH   1   2
ATOM      2  C   UNL     1       9.784   0.146   5.199  1.00  0.00     0.261 C 
BRANCH   2   3
ATOM      3  O   UNL     1       8.428  -0.288   4.979  1.00  0.00    -0.463 OA
BRANCH   3   4
ATOM      4  C   UNL     1       7.969  -1.274   5.789  1.00  0.00     0.306 C 
ATOM      5  O   UNL     1       8.638  -1.854   6.635  1.00  0.00    -0.252 OA
BRANCH   4   6
ATOM      6  C   UNL     1       6.525  -1.639   5.510  1.00  0.00     0.126 C 
BRANCH   6   7
ATOM      7  C   UNL     1       5.535  -0.500   5.189  1.00  0.00     0.003 C 
ATOM      8  C   UNL     1       2.636  -0.360   2.545  1.00  0.00     0.283 C 
ATOM      9  O   UNL     1       3.338  -0.847   1.653  1.00  0.00    -0.268 OA
ATOM     10  N   UNL     1       3.236   0.340   3.598  1.00  0.00    -0.337 N 
ATOM     11  C   UNL     1       4.537   0.945   3.344  1.00  0.00     0.120 C 
ATOM     12  C   UNL     1       3.030   0.006   4.999  1.00  0.00     0.120 C 
ATOM     13  C   UNL     1       5.675   0.005   3.739  1.00  0.00     0.026 C 
ATOM     14  C   UNL     1       4.094  -1.000   5.450  1.00  0.00     0.026 C 
BRANCH   8  15
ATOM     15  C   UNL     1       1.056  -0.386   2.446  1.00  0.00     0.173 C 
BRANCH  15  16
ATOM     16  C   UNL     1       0.622  -0.821   1.010  1.00  0.00     0.075 C 
ATOM     17  C   UNL     1       0.996   0.114  -0.139  1.00  0.00     0.011 C 
ENDBRANCH  15  16
BRANCH  15  18
ATOM     18  N   UNL     1       0.550   0.990   2.710  1.00  0.00    -0.345 N 
ATOM     19  H   UNL     1      -0.469   0.994   2.651  1.00  0.00     0.345 HD
ATOM     20  H   UNL     1       0.933   1.632   2.017  1.00  0.00     0.345 HD
ATOM     21  H   UNL     1       0.838   1.285   3.643  1.00  0.00     0.345 HD
ENDBRANCH  15  18
BRANCH  15  22
ATOM     22  C   UNL     1       0.349  -1.327   3.453  1.00  0.00     0.075 C 
ATOM     23  C   UNL     1       0.905  -2.744   3.504  1.00  0.00     0.011 C 
ENDBRANCH  15  22
ENDBRANCH   8  15
ENDBRANCH   6   7
ENDBRANCH   4   6
ENDBRANCH   3   4
ENDBRANCH   2   3
ENDBRANCH   1   2
BRANCH   1  24
ATOM     24  O   UNL     1       9.385   1.942   6.900  1.00  0.00    -0.374 OA
BRANCH  24  25
ATOM     25  C   UNL     1       7.979   1.944   7.133  1.00  0.00     0.202 C 
BRANCH  25  26
ATOM     26  C   UNL     1       7.234   3.214   6.705  1.00  0.00     0.261 C 
BRANCH  26  27
ATOM     27  O   UNL     1       7.239   3.393   5.277  1.00  0.00    -0.460 OA
BRANCH  27  28
ATOM     28  C   UNL     1       8.018   4.410   4.837  1.00  0.00     0.338 C 
ATOM     29  O   UNL     1       8.632   5.223   5.518  1.00  0.00    -0.246 OA
BRANCH  28  30
ATOM     30  C   UNL     1       8.184   4.329   3.375  1.00  0.00     0.060 A 
ATOM     31  C   UNL     1       9.491   4.357   2.868  1.00  0.00     0.016 A 
ATOM     32  C   UNL     1       7.089   4.295   2.509  1.00  0.00     0.016 A 
ATOM     33  C   UNL     1       9.707   4.394   1.492  1.00  0.00     0.010 A 
ATOM     34  C   UNL     1       7.308   4.342   1.128  1.00  0.00     0.010 A 
ATOM     35  C   UNL     1       8.615   4.424   0.615  1.00  0.00    -0.014 A 
BRANCH  35  36
ATOM     36  C   UNL     1       8.836   4.683  -0.829  1.00  0.00     0.031 A 
ATOM     37  C   UNL     1       8.625   6.073  -1.362  1.00  0.00     0.074 A 
ATOM     38  C   UNL     1       9.234   3.699  -1.654  1.00  0.00     0.049 A 
ATOM     39  N   UNL     1       8.690   6.510  -2.594  1.00  0.00    -0.248 NA
ATOM     40  C   UNL     1       8.294   7.109  -0.371  1.00  0.00     0.031 C 
ATOM     41  C   UNL     1       9.522   2.323  -1.253  1.00  0.00     0.029 A 
ATOM     42  N   UNL     1       9.456   3.710  -3.009  1.00  0.00    -0.354 N 
ATOM     43  C   UNL     1       8.401   7.867  -2.528  1.00  0.00     0.074 A 
ATOM     44  C   UNL     1       8.134   8.176  -1.140  1.00  0.00     0.031 C 
ATOM     45  C   UNL     1       9.869   1.617  -2.342  1.00  0.00     0.029 A 
ATOM     46  C   UNL     1       9.793   2.480  -3.519  1.00  0.00     0.049 A 
ATOM     47  H   UNL     1       9.380   4.521  -3.561  1.00  0.00     0.167 HD
ATOM     48  C   UNL     1       8.367   8.774  -3.533  1.00  0.00     0.037 A 
ATOM     49  C   UNL     1       9.990   2.093  -4.794  1.00  0.00     0.037 A 
ATOM     50  C   UNL     1       8.633   8.466  -4.913  1.00  0.00     0.049 A 
ATOM     51  C   UNL     1       9.859   3.101  -5.905  1.00  0.00     0.074 A 
ATOM     52  C   UNL     1       8.638   9.320  -6.002  1.00  0.00     0.029 A 
ATOM     53  N   UNL     1       8.934   7.202  -5.395  1.00  0.00    -0.354 N 
ATOM     54  N   UNL     1       9.601   4.384  -5.832  1.00  0.00    -0.248 NA
ATOM     55  C   UNL     1      10.045   2.605  -7.277  1.00  0.00     0.031 C 
ATOM     56  C   UNL     1       8.896   8.564  -7.150  1.00  0.00     0.029 A 
ATOM     57  C   UNL     1       9.101   7.248  -6.769  1.00  0.00     0.049 A 
ATOM     58  H   UNL     1       9.017   6.391  -4.843  1.00  0.00     0.167 HD
ATOM     59  C   UNL     1       9.624   4.854  -7.140  1.00  0.00     0.074 A 
ATOM     60  C   UNL     1       9.927   3.719  -7.987  1.00  0.00     0.031 C 
ATOM     61  C   UNL     1       9.417   6.112  -7.598  1.00  0.00     0.037 A 
BRANCH  48  62
ATOM     62  C   UNL     1       8.000  10.184  -3.176  1.00  0.00     0.057 A 
ATOM     63  C   UNL     1       8.877  11.023  -2.477  1.00  0.00     0.134 A 
ATOM     64  C   UNL     1       6.764  10.718  -3.561  1.00  0.00     0.134 A 
ATOM     65  F   UNL     1      10.071  10.569  -2.067  1.00  0.00    -0.206 F 
ATOM     66  C   UNL     1       8.528  12.336  -2.152  1.00  0.00     0.040 A 
ATOM     67  C   UNL     1       6.413  12.036  -3.264  1.00  0.00     0.040 A 
ATOM     68  F   UNL     1       5.879   9.969  -4.236  1.00  0.00    -0.206 F 
ATOM     69  C   UNL     1       7.295  12.847  -2.552  1.00  0.00     0.006 A 
ENDBRANCH  48  62
BRANCH  49  70
ATOM     70  C   UNL     1      10.314   0.677  -5.099  1.00  0.00     0.057 A 
ATOM     71  C   UNL     1      11.578   0.309  -5.575  1.00  0.00     0.134 A 
ATOM     72  C   UNL     1       9.363  -0.339  -4.943  1.00  0.00     0.134 A 
ATOM     73  F   UNL     1      12.523   1.241  -5.769  1.00  0.00    -0.206 F 
ATOM     74  C   UNL     1      11.880  -1.015  -5.899  1.00  0.00     0.040 A 
ATOM     75  C   UNL     1       9.658  -1.670  -5.240  1.00  0.00     0.040 A 
ATOM     76  F   UNL     1       8.133  -0.051  -4.493  1.00  0.00    -0.206 F 
ATOM     77  C   UNL     1      10.919  -2.010  -5.727  1.00  0.00     0.006 A 
ENDBRANCH  49  70
BRANCH  61  78
ATOM     78  C   UNL     1       9.555   6.343  -9.075  1.00  0.00     0.057 A 
ATOM     79  C   UNL     1       8.586   5.908  -9.987  1.00  0.00     0.134 A 
ATOM     80  C   UNL     1      10.647   7.058  -9.583  1.00  0.00     0.134 A 
ATOM     81  F   UNL     1       7.522   5.207  -9.566  1.00  0.00    -0.206 F 
ATOM     82  C   UNL     1       8.707   6.161 -11.355  1.00  0.00     0.040 A 
ATOM     83  C   UNL     1      10.767   7.339 -10.945  1.00  0.00     0.040 A 
ATOM     84  F   UNL     1      11.606   7.512  -8.762  1.00  0.00    -0.206 F 
ATOM     85  C   UNL     1       9.797   6.885 -11.836  1.00  0.00     0.006 A 
ENDBRANCH  61  78
ENDBRANCH  35  36
ENDBRANCH  28  30
ENDBRANCH  27  28
ENDBRANCH  26  27
ENDBRANCH  25  26
ENDBRANCH  24  25
ENDBRANCH   1  24
TORSDOF 19
