REMARK SMILES COc1ccc2c(c1)c(Cc1nc(-c3ccc(C(=O)OCCOCCOC(=O)c4ccc(-c5c6nc(c(-c7c(F)cccc7F)c7ccc([nH]7)c(-c7c(F)cccc7F)c7nc(c(-c8c(F)cccc8F)c8ccc5[nH]8)C=C7)C=C6)cc4)cc3)cs1)c(C)n2C(=O)c1ccc(Cl)cc1
REMARK SMILES IDX 21 1 20 2 18 3 19 4 17 5 14 6 15 7 84 8 16 9 83 10 13 11
REMARK SMILES IDX 11 12 12 13 86 14 85 15 10 16 9 17 3 18 4 19 8 20 5 21 7 22
REMARK SMILES IDX 6 23 89 24 87 25 88 26 2 27 1 28 90 29 91 30 92 31 93 32
REMARK SMILES IDX 98 33 94 34 97 35 95 36 96 37 22 38 23 39 24 40 25 41 26 42
REMARK SMILES IDX 27 43 28 44 29 45 30 46 82 47 31 48 81 49 32 50 33 51 34 52
REMARK SMILES IDX 75 53 35 54 80 55 74 56 76 57 36 58 79 59 73 60 72 61 37 63
REMARK SMILES IDX 63 64 46 65 62 66 47 67 50 68 61 69 77 70 48 71 49 72 60 74
REMARK SMILES IDX 78 75 51 76 38 77 39 78 44 79 40 80 41 81 43 82 45 83 42 84
REMARK SMILES IDX 64 85 65 86 70 87 66 88 67 89 69 90 71 91 68 92 52 93 53 94
REMARK SMILES IDX 58 95 54 96 55 97 57 98 59 99 56 100
REMARK H PARENT 76 62 50 73
REMARK Flexibility Score: inf
ROOT
ATOM      1  C   UNL     1      -2.352   2.062  -7.832  1.00  0.00     0.261 C 
ENDROOT
BRANCH   1   2
ATOM      2  O   UNL     1      -2.498   2.397  -6.449  1.00  0.00    -0.460 OA
BRANCH   2   3
ATOM      3  C   UNL     1      -1.358   2.871  -5.887  1.00  0.00     0.338 C 
ATOM      4  O   UNL     1      -0.245   2.890  -6.387  1.00  0.00    -0.246 OA
BRANCH   3   5
ATOM      5  C   UNL     1      -1.674   3.587  -4.635  1.00  0.00     0.060 A 
ATOM      6  C   UNL     1      -2.154   5.082  -2.320  1.00  0.00     0.001 A 
ATOM      7  C   UNL     1      -1.263   5.554  -3.292  1.00  0.00     0.011 A 
ATOM      8  C   UNL     1      -2.813   3.860  -2.521  1.00  0.00     0.011 A 
ATOM      9  C   UNL     1      -1.018   4.807  -4.438  1.00  0.00     0.016 A 
ATOM     10  C   UNL     1      -2.591   3.117  -3.689  1.00  0.00     0.016 A 
BRANCH   6  11
ATOM     11  C   UNL     1      -2.291   5.810  -1.071  1.00  0.00     0.081 A 
ATOM     12  C   UNL     1      -2.019   6.042   1.109  1.00  0.00     0.098 A 
ATOM     13  N   UNL     1      -2.152   5.162   0.137  1.00  0.00    -0.241 NA
ATOM     14  S   UNL     1      -2.299   7.677   0.651  1.00  0.00    -0.126 S 
ATOM     15  C   UNL     1      -2.462   7.176  -0.983  1.00  0.00     0.095 A 
BRANCH  12  16
ATOM     16  C   UNL     1      -1.658   5.686   2.523  1.00  0.00     0.105 C 
BRANCH  16  17
ATOM     17  C   UNL     1      -0.193   5.343   2.695  1.00  0.00    -0.012 A 
ATOM     18  C   UNL     1       0.866   2.094   0.967  1.00  0.00     0.119 A 
ATOM     19  C   UNL     1       2.137   2.046   1.508  1.00  0.00     0.048 A 
ATOM     20  C   UNL     1       0.022   3.150   1.309  1.00  0.00     0.057 A 
ATOM     21  C   UNL     1       2.583   3.054   2.373  1.00  0.00     0.031 A 
ATOM     22  C   UNL     1       0.458   4.198   2.155  1.00  0.00     0.008 A 
ATOM     23  C   UNL     1       1.764   4.172   2.648  1.00  0.00     0.057 A 
ATOM     24  N   UNL     1       1.982   5.360   3.375  1.00  0.00    -0.280 N 
ATOM     25  C   UNL     1       0.752   6.042   3.441  1.00  0.00     0.028 A 
ATOM     26  C   UNL     1       0.500   7.317   4.185  1.00  0.00     0.065 C 
BRANCH  18  27
ATOM     27  O   UNL     1       0.335   1.191   0.090  1.00  0.00    -0.497 OA
ATOM     28  C   UNL     1       0.933  -0.098   0.072  1.00  0.00     0.278 C 
ENDBRANCH  18  27
BRANCH  24  29
ATOM     29  C   UNL     1       3.225   5.772   3.949  1.00  0.00     0.262 C 
ATOM     30  O   UNL     1       3.252   6.747   4.697  1.00  0.00    -0.268 OA
BRANCH  29  31
ATOM     31  C   UNL     1       4.522   5.094   3.758  1.00  0.00     0.040 A 
ATOM     32  C   UNL     1       5.106   4.989   2.490  1.00  0.00     0.015 A 
ATOM     33  C   UNL     1       5.135   4.514   4.876  1.00  0.00     0.015 A 
ATOM     34  C   UNL     1       6.256   4.210   2.330  1.00  0.00     0.021 A 
ATOM     35  C   UNL     1       6.288   3.747   4.711  1.00  0.00     0.021 A 
ATOM     36  C   UNL     1       6.829   3.578   3.436  1.00  0.00     0.041 A 
ATOM     37  Cl  UNL     1       8.197   2.558   3.221  1.00  0.00    -0.084 Cl
ENDBRANCH  29  31
ENDBRANCH  24  29
ENDBRANCH  16  17
ENDBRANCH  12  16
ENDBRANCH   6  11
ENDBRANCH   3   5
ENDBRANCH   2   3
ENDBRANCH   1   2
BRANCH   1  38
ATOM     38  C   UNL     1      -3.027   3.066  -8.777  1.00  0.00     0.202 C 
BRANCH  38  39
ATOM     39  O   UNL     1      -2.904   4.463  -8.530  1.00  0.00    -0.374 OA
BRANCH  39  40
ATOM     40  C   UNL     1      -3.607   5.025  -7.418  1.00  0.00     0.202 C 
BRANCH  40  41
ATOM     41  C   UNL     1      -5.145   4.943  -7.364  1.00  0.00     0.261 C 
BRANCH  41  42
ATOM     42  O   UNL     1      -5.603   3.585  -7.317  1.00  0.00    -0.460 OA
BRANCH  42  43
ATOM     43  C   UNL     1      -6.629   3.288  -8.159  1.00  0.00     0.338 C 
ATOM     44  O   UNL     1      -7.441   4.058  -8.642  1.00  0.00    -0.246 OA
BRANCH  43  45
ATOM     45  C   UNL     1      -6.329   1.943  -8.694  1.00  0.00     0.060 A 
ATOM     46  C   UNL     1      -5.905   0.921  -7.843  1.00  0.00     0.016 A 
ATOM     47  C   UNL     1      -6.147   1.846 -10.086  1.00  0.00     0.016 A 
ATOM     48  C   UNL     1      -5.211  -0.152  -8.386  1.00  0.00     0.010 A 
ATOM     49  C   UNL     1      -5.427   0.781 -10.621  1.00  0.00     0.010 A 
ATOM     50  C   UNL     1      -4.922  -0.198  -9.767  1.00  0.00    -0.014 A 
BRANCH  50  51
ATOM     51  C   UNL     1      -4.295  -1.422 -10.277  1.00  0.00     0.031 A 
ATOM     52  C   UNL     1      -5.163  -2.609 -10.047  1.00  0.00     0.074 A 
ATOM     53  C   UNL     1      -3.143  -1.562 -10.968  1.00  0.00     0.049 A 
ATOM     54  N   UNL     1      -4.951  -3.594  -9.239  1.00  0.00    -0.248 NA
ATOM     55  C   UNL     1      -6.498  -2.604 -10.662  1.00  0.00     0.031 C 
ATOM     56  C   UNL     1      -2.272  -0.537 -11.542  1.00  0.00     0.029 A 
ATOM     57  N   UNL     1      -2.531  -2.725 -11.354  1.00  0.00    -0.354 N 
ATOM     58  C   UNL     1      -6.054  -4.431  -9.367  1.00  0.00     0.074 A 
ATOM     59  C   UNL     1      -7.033  -3.704 -10.132  1.00  0.00     0.031 C 
ATOM     60  C   UNL     1      -1.368  -1.123 -12.368  1.00  0.00     0.029 A 
ATOM     61  C   UNL     1      -1.500  -2.570 -12.277  1.00  0.00     0.049 A 
ATOM     62  H   UNL     1      -2.800  -3.606 -11.005  1.00  0.00     0.167 HD
ATOM     63  C   UNL     1      -5.991  -5.741  -9.011  1.00  0.00     0.037 A 
ATOM     64  C   UNL     1      -0.830  -3.558 -12.930  1.00  0.00     0.037 A 
ATOM     65  C   UNL     1      -4.892  -5.992  -8.113  1.00  0.00     0.049 A 
ATOM     66  C   UNL     1      -1.008  -4.811 -12.161  1.00  0.00     0.074 A 
ATOM     67  C   UNL     1      -4.533  -5.537  -6.858  1.00  0.00     0.029 A 
ATOM     68  N   UNL     1      -3.760  -6.574  -8.626  1.00  0.00    -0.354 N 
ATOM     69  N   UNL     1      -0.461  -5.037 -11.003  1.00  0.00    -0.248 NA
ATOM     70  C   UNL     1      -2.143  -5.656 -12.495  1.00  0.00     0.031 C 
ATOM     71  C   UNL     1      -3.111  -5.419  -6.900  1.00  0.00     0.029 A 
ATOM     72  C   UNL     1      -2.690  -5.860  -8.153  1.00  0.00     0.049 A 
ATOM     73  H   UNL     1      -3.724  -7.358  -9.220  1.00  0.00     0.167 HD
ATOM     74  C   UNL     1      -1.436  -5.709 -10.285  1.00  0.00     0.074 A 
ATOM     75  C   UNL     1      -2.413  -6.142 -11.282  1.00  0.00     0.031 C 
ATOM     76  C   UNL     1      -1.500  -5.608  -8.926  1.00  0.00     0.037 A 
BRANCH  63  77
ATOM     77  C   UNL     1      -6.676  -6.843  -9.781  1.00  0.00     0.057 A 
ATOM     78  C   UNL     1      -7.108  -6.724 -11.119  1.00  0.00     0.134 A 
ATOM     79  C   UNL     1      -6.622  -8.159  -9.287  1.00  0.00     0.134 A 
ATOM     80  F   UNL     1      -7.153  -5.552 -11.763  1.00  0.00    -0.206 F 
ATOM     81  C   UNL     1      -7.421  -7.828 -11.916  1.00  0.00     0.040 A 
ATOM     82  C   UNL     1      -6.884  -9.273 -10.092  1.00  0.00     0.040 A 
ATOM     83  F   UNL     1      -6.222  -8.407  -8.031  1.00  0.00    -0.206 F 
ATOM     84  C   UNL     1      -7.273  -9.110 -11.416  1.00  0.00     0.006 A 
ENDBRANCH  63  77
BRANCH  64  85
ATOM     85  C   UNL     1      -0.251  -3.591 -14.296  1.00  0.00     0.057 A 
ATOM     86  C   UNL     1      -0.829  -2.853 -15.340  1.00  0.00     0.134 A 
ATOM     87  C   UNL     1       0.671  -4.580 -14.682  1.00  0.00     0.134 A 
ATOM     88  F   UNL     1      -1.777  -1.938 -15.091  1.00  0.00    -0.206 F 
ATOM     89  C   UNL     1      -0.531  -3.097 -16.686  1.00  0.00     0.040 A 
ATOM     90  C   UNL     1       0.977  -4.836 -16.027  1.00  0.00     0.040 A 
ATOM     91  F   UNL     1       1.245  -5.375 -13.766  1.00  0.00    -0.206 F 
ATOM     92  C   UNL     1       0.364  -4.101 -17.036  1.00  0.00     0.006 A 
ENDBRANCH  64  85
BRANCH  76  93
ATOM     93  C   UNL     1      -0.336  -4.967  -8.221  1.00  0.00     0.057 A 
ATOM     94  C   UNL     1       0.325  -5.689  -7.222  1.00  0.00     0.134 A 
ATOM     95  C   UNL     1       0.077  -3.640  -8.421  1.00  0.00     0.134 A 
ATOM     96  F   UNL     1      -0.051  -6.946  -6.935  1.00  0.00    -0.206 F 
ATOM     97  C   UNL     1       1.362  -5.131  -6.471  1.00  0.00     0.040 A 
ATOM     98  C   UNL     1       1.137  -3.081  -7.700  1.00  0.00     0.040 A 
ATOM     99  F   UNL     1      -0.560  -2.836  -9.283  1.00  0.00    -0.206 F 
ATOM    100  C   UNL     1       1.781  -3.827  -6.718  1.00  0.00     0.006 A 
ENDBRANCH  76  93
ENDBRANCH  50  51
ENDBRANCH  43  45
ENDBRANCH  42  43
ENDBRANCH  41  42
ENDBRANCH  40  41
ENDBRANCH  39  40
ENDBRANCH  38  39
ENDBRANCH   1  38
TORSDOF 20
