REMARK SMILES CN(C)Nc1ncnc(Nc2ccc(C(=O)OCCOCCOC(=O)c3ccc(-c4c5nc(c(-c6c(F)cccc6F)c6ccc([nH]6)c(-c6c(F)cccc6F)c6nc(c(-c7c(F)cccc7F)c7ccc4[nH]7)C=C6)C=C5)cc3)cc2)c1[N+](=O)[O-]
REMARK SMILES IDX 19 1 18 2 17 3 15 4 16 5 14 6 11 7 12 8 81 9 13 10 80 11
REMARK SMILES IDX 10 12 9 14 5 15 6 16 82 17 7 18 8 19 4 20 2 22 1 23 3 24
REMARK SMILES IDX 83 25 84 26 85 27 20 28 21 29 22 30 23 31 24 32 25 33 26 34
REMARK SMILES IDX 27 35 79 36 28 37 78 38 29 39 30 40 31 41 72 42 32 43 77 44
REMARK SMILES IDX 71 45 73 46 33 47 76 48 70 49 69 50 34 52 60 53 43 54 59 55
REMARK SMILES IDX 44 56 47 57 58 58 74 59 45 60 46 61 57 63 75 64 48 65 35 66
REMARK SMILES IDX 36 67 41 68 37 69 38 70 40 71 42 72 39 73 61 74 62 75 67 76
REMARK SMILES IDX 63 77 64 78 66 79 68 80 65 81 49 82 50 83 55 84 51 85 52 86
REMARK SMILES IDX 54 87 56 88 53 89
REMARK H PARENT 10 13 4 21 73 51 47 62
REMARK Flexibility Score: inf
ROOT
ATOM      1  C   UNL     1       8.963  -4.807  -8.283  1.00  0.00     0.202 C 
ENDROOT
BRANCH   1   2
ATOM      2  C   UNL     1       8.137  -5.781  -7.439  1.00  0.00     0.261 C 
BRANCH   2   3
ATOM      3  O   UNL     1       7.239  -5.079  -6.566  1.00  0.00    -0.460 OA
BRANCH   3   4
ATOM      4  C   UNL     1       7.592  -5.112  -5.260  1.00  0.00     0.338 C 
ATOM      5  O   UNL     1       8.475  -5.791  -4.755  1.00  0.00    -0.246 OA
BRANCH   4   6
ATOM      6  C   UNL     1       6.849  -4.087  -4.498  1.00  0.00     0.060 A 
ATOM      7  C   UNL     1       5.485  -2.340  -2.788  1.00  0.00     0.040 A 
ATOM      8  C   UNL     1       6.846  -2.589  -2.595  1.00  0.00     0.027 A 
ATOM      9  C   UNL     1       4.843  -2.898  -3.907  1.00  0.00     0.027 A 
ATOM     10  C   UNL     1       7.521  -3.470  -3.436  1.00  0.00     0.018 A 
ATOM     11  C   UNL     1       5.521  -3.760  -4.772  1.00  0.00     0.018 A 
BRANCH   7  12
ATOM     12  N   UNL     1       4.755  -1.736  -1.746  1.00  0.00    -0.334 N 
ATOM     13  H   UNL     1       5.018  -0.827  -1.472  1.00  0.00     0.168 HD
BRANCH  12  14
ATOM     14  C   UNL     1       3.676  -2.338  -1.066  1.00  0.00     0.215 A 
ATOM     15  C   UNL     1       1.852  -2.339   0.452  1.00  0.00     0.225 A 
ATOM     16  N   UNL     1       1.486  -3.570   0.036  1.00  0.00    -0.212 NA
ATOM     17  C   UNL     1       2.998  -1.732  -0.022  1.00  0.00     0.354 A 
ATOM     18  C   UNL     1       2.224  -4.126  -0.921  1.00  0.00     0.227 A 
ATOM     19  N   UNL     1       3.268  -3.549  -1.514  1.00  0.00    -0.212 NA
BRANCH  15  20
ATOM     20  N   UNL     1       0.887  -1.757   1.277  1.00  0.00    -0.298 N 
ATOM     21  H   UNL     1       0.517  -2.318   1.997  1.00  0.00     0.184 HD
BRANCH  20  22
ATOM     22  N   UNL     1       0.389  -0.426   1.172  1.00  0.00    -0.228 NA
ATOM     23  C   UNL     1       0.340   0.070  -0.214  1.00  0.00     0.130 C 
ATOM     24  C   UNL     1      -0.999  -0.457   1.677  1.00  0.00     0.130 C 
ENDBRANCH  20  22
ENDBRANCH  15  20
BRANCH  17  25
ATOM     25  N   UNL     1       3.570  -0.609   0.665  1.00  0.00     0.070 N 
ATOM     26  O   UNL     1       3.986   0.334  -0.026  1.00  0.00    -0.258 OA
ATOM     27  O   UNL     1       3.733  -0.707   1.889  1.00  0.00    -0.258 OA
ENDBRANCH  17  25
ENDBRANCH  12  14
ENDBRANCH   7  12
ENDBRANCH   4   6
ENDBRANCH   3   4
ENDBRANCH   2   3
ENDBRANCH   1   2
BRANCH   1  28
ATOM     28  O   UNL     1       9.814  -3.914  -7.564  1.00  0.00    -0.374 OA
BRANCH  28  29
ATOM     29  C   UNL     1       9.215  -2.727  -7.039  1.00  0.00     0.202 C 
BRANCH  29  30
ATOM     30  C   UNL     1       8.980  -1.588  -8.038  1.00  0.00     0.261 C 
BRANCH  30  31
ATOM     31  O   UNL     1       7.935  -1.911  -8.975  1.00  0.00    -0.460 OA
BRANCH  31  32
ATOM     32  C   UNL     1       8.348  -2.112 -10.246  1.00  0.00     0.338 C 
ATOM     33  O   UNL     1       9.477  -1.962 -10.694  1.00  0.00    -0.246 OA
BRANCH  32  34
ATOM     34  C   UNL     1       7.265  -2.733 -11.031  1.00  0.00     0.060 A 
ATOM     35  C   UNL     1       7.561  -3.913 -11.726  1.00  0.00     0.016 A 
ATOM     36  C   UNL     1       6.005  -2.142 -11.142  1.00  0.00     0.016 A 
ATOM     37  C   UNL     1       6.613  -4.483 -12.573  1.00  0.00     0.010 A 
ATOM     38  C   UNL     1       5.058  -2.709 -12.001  1.00  0.00     0.010 A 
ATOM     39  C   UNL     1       5.370  -3.862 -12.745  1.00  0.00    -0.014 A 
BRANCH  39  40
ATOM     40  C   UNL     1       4.450  -4.335 -13.808  1.00  0.00     0.031 A 
ATOM     41  C   UNL     1       4.405  -3.591 -15.115  1.00  0.00     0.074 A 
ATOM     42  C   UNL     1       3.666  -5.410 -13.613  1.00  0.00     0.049 A 
ATOM     43  N   UNL     1       3.627  -3.779 -16.149  1.00  0.00    -0.248 NA
ATOM     44  C   UNL     1       5.362  -2.484 -15.274  1.00  0.00     0.031 C 
ATOM     45  C   UNL     1       3.641  -6.231 -12.404  1.00  0.00     0.029 A 
ATOM     46  N   UNL     1       2.725  -5.985 -14.431  1.00  0.00    -0.354 N 
ATOM     47  C   UNL     1       3.985  -2.804 -17.072  1.00  0.00     0.074 A 
ATOM     48  C   UNL     1       5.041  -2.018 -16.473  1.00  0.00     0.031 C 
ATOM     49  C   UNL     1       2.709  -7.190 -12.548  1.00  0.00     0.029 A 
ATOM     50  C   UNL     1       2.053  -7.030 -13.845  1.00  0.00     0.049 A 
ATOM     51  H   UNL     1       2.547  -5.677 -15.349  1.00  0.00     0.167 HD
ATOM     52  C   UNL     1       3.479  -2.588 -18.309  1.00  0.00     0.037 A 
ATOM     53  C   UNL     1       1.008  -7.753 -14.293  1.00  0.00     0.037 A 
ATOM     54  C   UNL     1       2.447  -3.386 -18.913  1.00  0.00     0.049 A 
ATOM     55  C   UNL     1       0.437  -7.461 -15.656  1.00  0.00     0.074 A 
ATOM     56  C   UNL     1       1.909  -3.277 -20.184  1.00  0.00     0.029 A 
ATOM     57  N   UNL     1       1.793  -4.435 -18.289  1.00  0.00    -0.354 N 
ATOM     58  N   UNL     1       0.816  -6.569 -16.539  1.00  0.00    -0.248 NA
ATOM     59  C   UNL     1      -0.708  -8.278 -16.087  1.00  0.00     0.031 C 
ATOM     60  C   UNL     1       0.893  -4.229 -20.311  1.00  0.00     0.029 A 
ATOM     61  C   UNL     1       0.834  -4.962 -19.137  1.00  0.00     0.049 A 
ATOM     62  H   UNL     1       1.981  -4.757 -17.378  1.00  0.00     0.167 HD
ATOM     63  C   UNL     1      -0.020  -6.739 -17.637  1.00  0.00     0.074 A 
ATOM     64  C   UNL     1      -0.919  -7.826 -17.314  1.00  0.00     0.031 C 
ATOM     65  C   UNL     1      -0.041  -6.057 -18.808  1.00  0.00     0.037 A 
BRANCH  52  66
ATOM     66  C   UNL     1       4.014  -1.427 -19.092  1.00  0.00     0.057 A 
ATOM     67  C   UNL     1       5.277  -1.458 -19.695  1.00  0.00     0.134 A 
ATOM     68  C   UNL     1       3.219  -0.294 -19.308  1.00  0.00     0.134 A 
ATOM     69  F   UNL     1       6.090  -2.509 -19.517  1.00  0.00    -0.206 F 
ATOM     70  C   UNL     1       5.734  -0.397 -20.480  1.00  0.00     0.040 A 
ATOM     71  C   UNL     1       3.656   0.762 -20.108  1.00  0.00     0.040 A 
ATOM     72  F   UNL     1       1.997  -0.205 -18.761  1.00  0.00    -0.206 F 
ATOM     73  C   UNL     1       4.918   0.712 -20.697  1.00  0.00     0.006 A 
ENDBRANCH  52  66
BRANCH  53  74
ATOM     74  C   UNL     1       0.400  -8.803 -13.437  1.00  0.00     0.057 A 
ATOM     75  C   UNL     1       0.479 -10.158 -13.777  1.00  0.00     0.134 A 
ATOM     76  C   UNL     1      -0.323  -8.470 -12.284  1.00  0.00     0.134 A 
ATOM     77  F   UNL     1       1.136 -10.538 -14.884  1.00  0.00    -0.206 F 
ATOM     78  C   UNL     1      -0.161 -11.141 -13.021  1.00  0.00     0.040 A 
ATOM     79  C   UNL     1      -0.945  -9.445 -11.503  1.00  0.00     0.040 A 
ATOM     80  F   UNL     1      -0.437  -7.189 -11.902  1.00  0.00    -0.206 F 
ATOM     81  C   UNL     1      -0.874 -10.785 -11.877  1.00  0.00     0.006 A 
ENDBRANCH  53  74
BRANCH  65  82
ATOM     82  C   UNL     1      -1.035  -6.491 -19.845  1.00  0.00     0.057 A 
ATOM     83  C   UNL     1      -2.403  -6.224 -19.716  1.00  0.00     0.134 A 
ATOM     84  C   UNL     1      -0.607  -7.137 -21.012  1.00  0.00     0.134 A 
ATOM     85  F   UNL     1      -2.877  -5.619 -18.617  1.00  0.00    -0.206 F 
ATOM     86  C   UNL     1      -3.314  -6.602 -20.704  1.00  0.00     0.040 A 
ATOM     87  C   UNL     1      -1.505  -7.496 -22.018  1.00  0.00     0.040 A 
ATOM     88  F   UNL     1       0.692  -7.412 -21.201  1.00  0.00    -0.206 F 
ATOM     89  C   UNL     1      -2.864  -7.233 -21.862  1.00  0.00     0.006 A 
ENDBRANCH  65  82
ENDBRANCH  39  40
ENDBRANCH  32  34
ENDBRANCH  31  32
ENDBRANCH  30  31
ENDBRANCH  29  30
ENDBRANCH  28  29
ENDBRANCH   1  28
TORSDOF 19
