REMARK SMILES C[C@@H]1CCC[C@@H](C)C1[N@H+]1CCO[C@H](CC(=O)OCCOCCOC(=O)c2ccc(-c3c4nc(c(-c5c(F)cccc5F)c5ccc([nH]5)c(-c5c(F)cccc5F)c5nc(c(-c6c(F)cccc6F)c6ccc3[nH]6)C=C5)C=C4)cc2)C1
REMARK SMILES IDX 20 1 19 2 18 3 17 4 15 5 16 6 14 7 13 8 9 9 10 10 80 11
REMARK SMILES IDX 11 13 12 14 8 15 1 16 2 17 3 18 4 19 6 20 5 21 7 22 21 23
REMARK SMILES IDX 22 24 23 25 24 26 25 27 26 28 27 29 79 30 28 31 78 32 29 33
REMARK SMILES IDX 30 34 31 35 72 36 32 37 77 38 71 39 73 40 33 41 76 42 70 43
REMARK SMILES IDX 69 44 34 46 60 47 43 48 59 49 44 50 47 51 58 52 74 53 45 54
REMARK SMILES IDX 46 55 57 57 75 58 48 59 35 60 36 61 41 62 37 63 38 64 40 65
REMARK SMILES IDX 42 66 39 67 61 68 62 69 67 70 63 71 64 72 66 73 68 74 65 75
REMARK SMILES IDX 49 76 50 77 55 78 51 79 52 80 54 81 56 82 53 83
REMARK H PARENT 9 12 73 45 47 56
REMARK Flexibility Score: inf
ROOT
ATOM      1  O   UNL     1      -1.281   4.559  -5.160  1.00  0.00    -0.374 OA
ENDROOT
BRANCH   1   2
ATOM      2  C   UNL     1      -2.544   5.111  -4.787  1.00  0.00     0.202 C 
BRANCH   2   3
ATOM      3  C   UNL     1      -3.705   4.113  -4.757  1.00  0.00     0.261 C 
BRANCH   3   4
ATOM      4  O   UNL     1      -3.603   3.236  -3.618  1.00  0.00    -0.463 OA
BRANCH   4   5
ATOM      5  C   UNL     1      -3.731   1.908  -3.862  1.00  0.00     0.308 C 
ATOM      6  O   UNL     1      -3.954   1.421  -4.965  1.00  0.00    -0.252 OA
BRANCH   5   7
ATOM      7  C   UNL     1      -3.621   1.047  -2.625  1.00  0.00     0.160 C 
BRANCH   7   8
ATOM      8  C   UNL     1      -2.803   1.631  -1.474  1.00  0.00     0.184 C 
ATOM      9  N   UNL     1      -1.824   0.992   0.790  1.00  0.00    -0.328 N 
ATOM     10  C   UNL     1      -2.503   2.168   1.315  1.00  0.00     0.291 C 
ATOM     11  C   UNL     1      -2.425   0.512  -0.464  1.00  0.00     0.295 C 
ATOM     12  H   UNL     1      -2.036   0.359   1.561  1.00  0.00     0.348 HD
ATOM     13  C   UNL     1      -2.862   3.217   0.257  1.00  0.00     0.222 C 
ATOM     14  O   UNL     1      -3.599   2.631  -0.818  1.00  0.00    -0.366 OA
BRANCH   9  15
ATOM     15  C   UNL     1      -0.403   0.698   1.009  1.00  0.00     0.189 C 
ATOM     16  C   UNL     1       1.825   0.569  -0.220  1.00  0.00     0.014 C 
ATOM     17  C   UNL     1       0.568   1.422   0.031  1.00  0.00     0.045 C 
ATOM     18  C   UNL     1       0.959   2.827   0.512  1.00  0.00     0.009 C 
ATOM     19  C   UNL     1       1.515   2.846   1.930  1.00  0.00     0.001 C 
ATOM     20  C   UNL     1       0.125   0.788   2.480  1.00  0.00     0.045 C 
ATOM     21  C   UNL     1       0.573   2.188   2.929  1.00  0.00     0.009 C 
ATOM     22  C   UNL     1      -0.822   0.156   3.505  1.00  0.00     0.014 C 
ENDBRANCH   9  15
ENDBRANCH   7   8
ENDBRANCH   5   7
ENDBRANCH   4   5
ENDBRANCH   3   4
ENDBRANCH   2   3
ENDBRANCH   1   2
BRANCH   1  23
ATOM     23  C   UNL     1      -0.620   3.741  -4.196  1.00  0.00     0.202 C 
BRANCH  23  24
ATOM     24  C   UNL     1       0.088   4.505  -3.073  1.00  0.00     0.261 C 
BRANCH  24  25
ATOM     25  O   UNL     1      -0.843   5.189  -2.212  1.00  0.00    -0.460 OA
BRANCH  25  26
ATOM     26  C   UNL     1      -0.639   6.523  -2.113  1.00  0.00     0.338 C 
ATOM     27  O   UNL     1       0.291   7.167  -2.581  1.00  0.00    -0.246 OA
BRANCH  26  28
ATOM     28  C   UNL     1      -1.770   7.189  -1.444  1.00  0.00     0.060 A 
ATOM     29  C   UNL     1      -2.419   8.210  -2.148  1.00  0.00     0.016 A 
ATOM     30  C   UNL     1      -2.072   6.950  -0.101  1.00  0.00     0.016 A 
ATOM     31  C   UNL     1      -3.313   9.051  -1.488  1.00  0.00     0.010 A 
ATOM     32  C   UNL     1      -2.976   7.793   0.559  1.00  0.00     0.010 A 
ATOM     33  C   UNL     1      -3.554   8.884  -0.117  1.00  0.00    -0.014 A 
BRANCH  33  34
ATOM     34  C   UNL     1      -4.237   9.977   0.624  1.00  0.00     0.031 A 
ATOM     35  C   UNL     1      -3.399  10.983   1.371  1.00  0.00     0.074 A 
ATOM     36  C   UNL     1      -5.571  10.131   0.568  1.00  0.00     0.049 A 
ATOM     37  N   UNL     1      -3.772  12.059   2.019  1.00  0.00    -0.248 NA
ATOM     38  C   UNL     1      -1.947  10.746   1.389  1.00  0.00     0.031 C 
ATOM     39  C   UNL     1      -6.496   9.247  -0.139  1.00  0.00     0.029 A 
ATOM     40  N   UNL     1      -6.377  11.102   1.108  1.00  0.00    -0.354 N 
ATOM     41  C   UNL     1      -2.605  12.625   2.517  1.00  0.00     0.074 A 
ATOM     42  C   UNL     1      -1.515  11.755   2.131  1.00  0.00     0.031 C 
ATOM     43  C   UNL     1      -7.746   9.722   0.005  1.00  0.00     0.029 A 
ATOM     44  C   UNL     1      -7.709  10.936   0.821  1.00  0.00     0.049 A 
ATOM     45  H   UNL     1      -6.032  11.848   1.651  1.00  0.00     0.167 HD
ATOM     46  C   UNL     1      -2.447  13.773   3.218  1.00  0.00     0.037 A 
ATOM     47  C   UNL     1      -8.775  11.681   1.171  1.00  0.00     0.037 A 
ATOM     48  C   UNL     1      -3.520  14.651   3.598  1.00  0.00     0.049 A 
ATOM     49  C   UNL     1      -8.578  12.940   1.972  1.00  0.00     0.074 A 
ATOM     50  C   UNL     1      -3.455  15.840   4.305  1.00  0.00     0.029 A 
ATOM     51  N   UNL     1      -4.855  14.437   3.297  1.00  0.00    -0.354 N 
ATOM     52  N   UNL     1      -7.466  13.476   2.413  1.00  0.00    -0.248 NA
ATOM     53  C   UNL     1      -9.787  13.706   2.311  1.00  0.00     0.031 C 
ATOM     54  C   UNL     1      -4.756  16.331   4.457  1.00  0.00     0.029 A 
ATOM     55  C   UNL     1      -5.626  15.466   3.813  1.00  0.00     0.049 A 
ATOM     56  H   UNL     1      -5.205  13.668   2.792  1.00  0.00     0.167 HD
ATOM     57  C   UNL     1      -7.837  14.654   3.050  1.00  0.00     0.074 A 
ATOM     58  C   UNL     1      -9.276  14.759   2.934  1.00  0.00     0.031 C 
ATOM     59  C   UNL     1      -7.055  15.568   3.674  1.00  0.00     0.037 A 
BRANCH  46  60
ATOM     60  C   UNL     1      -1.051  14.138   3.628  1.00  0.00     0.057 A 
ATOM     61  C   UNL     1      -0.118  14.629   2.706  1.00  0.00     0.134 A 
ATOM     62  C   UNL     1      -0.643  14.015   4.962  1.00  0.00     0.134 A 
ATOM     63  F   UNL     1      -0.444  14.755   1.411  1.00  0.00    -0.206 F 
ATOM     64  C   UNL     1       1.180  14.966   3.093  1.00  0.00     0.040 A 
ATOM     65  C   UNL     1       0.645  14.369   5.364  1.00  0.00     0.040 A 
ATOM     66  F   UNL     1      -1.490  13.552   5.893  1.00  0.00    -0.206 F 
ATOM     67  C   UNL     1       1.563  14.841   4.427  1.00  0.00     0.006 A 
ENDBRANCH  46  60
BRANCH  47  68
ATOM     68  C   UNL     1     -10.136  11.270   0.748  1.00  0.00     0.057 A 
ATOM     69  C   UNL     1     -10.838  11.981  -0.231  1.00  0.00     0.134 A 
ATOM     70  C   UNL     1     -10.776  10.171   1.334  1.00  0.00     0.134 A 
ATOM     71  F   UNL     1     -10.286  13.057  -0.810  1.00  0.00    -0.206 F 
ATOM     72  C   UNL     1     -12.136  11.626  -0.602  1.00  0.00     0.040 A 
ATOM     73  C   UNL     1     -12.065   9.792   0.958  1.00  0.00     0.040 A 
ATOM     74  F   UNL     1     -10.155   9.452   2.280  1.00  0.00    -0.206 F 
ATOM     75  C   UNL     1     -12.751  10.525  -0.009  1.00  0.00     0.006 A 
ENDBRANCH  47  68
BRANCH  59  76
ATOM     76  C   UNL     1      -7.730  16.783   4.237  1.00  0.00     0.057 A 
ATOM     77  C   UNL     1      -8.493  16.727   5.410  1.00  0.00     0.134 A 
ATOM     78  C   UNL     1      -7.584  18.029   3.616  1.00  0.00     0.134 A 
ATOM     79  F   UNL     1      -8.679  15.561   6.046  1.00  0.00    -0.206 F 
ATOM     80  C   UNL     1      -9.108  17.867   5.933  1.00  0.00     0.040 A 
ATOM     81  C   UNL     1      -8.176  19.179   4.141  1.00  0.00     0.040 A 
ATOM     82  F   UNL     1      -6.858  18.151   2.495  1.00  0.00    -0.206 F 
ATOM     83  C   UNL     1      -8.946  19.098   5.300  1.00  0.00     0.006 A 
ENDBRANCH  59  76
ENDBRANCH  33  34
ENDBRANCH  26  28
ENDBRANCH  25  26
ENDBRANCH  24  25
ENDBRANCH  23  24
ENDBRANCH   1  23
TORSDOF 16
