REMARK SMILES O=C(COc1nc(-c2cccnc2)nc2c1CCCC2)OCCOCCOC(=O)c1ccc(-c2c3nc(c(-c4c(F)cccc4F)c4ccc([nH]4)c(-c4c(F)cccc4F)c4nc(c(-c5c(F)cccc5F)c5ccc2[nH]5)C=C4)C=C3)cc1
REMARK SMILES IDX 23 1 22 2 21 3 2 4 1 5 3 6 4 7 5 8 6 9 16 10 7 11 15 12
REMARK SMILES IDX 17 13 14 14 20 15 18 16 19 17 8 18 9 19 13 20 10 21 12 22
REMARK SMILES IDX 11 23 24 24 25 25 26 26 27 27 28 28 29 29 30 30 31 31 83 32
REMARK SMILES IDX 32 33 82 34 33 35 34 36 35 37 76 38 36 39 81 40 75 41 77 42
REMARK SMILES IDX 37 43 80 44 74 45 73 46 38 48 64 49 47 50 63 51 48 52 51 53
REMARK SMILES IDX 62 54 78 55 49 56 50 57 61 59 79 60 52 61 39 62 40 63 45 64
REMARK SMILES IDX 41 65 42 66 44 67 46 68 43 69 65 70 66 71 71 72 67 73 68 74
REMARK SMILES IDX 70 75 72 76 69 77 53 78 54 79 59 80 55 81 56 82 58 83 60 84
REMARK SMILES IDX 57 85
REMARK H PARENT 77 47 51 58
REMARK Flexibility Score: inf
ROOT
ATOM      1  C   UNL     1       4.848   1.024   0.388  1.00  0.00     0.202 C 
ENDROOT
BRANCH   1   2
ATOM      2  C   UNL     1       4.254   0.267  -0.799  1.00  0.00     0.261 C 
BRANCH   2   3
ATOM      3  O   UNL     1       2.825   0.329  -0.876  1.00  0.00    -0.461 OA
BRANCH   3   4
ATOM      4  C   UNL     1       2.001  -0.501  -0.189  1.00  0.00     0.344 C 
ATOM      5  O   UNL     1       0.784  -0.312  -0.219  1.00  0.00    -0.248 OA
BRANCH   4   6
ATOM      6  C   UNL     1       2.604  -1.575   0.723  1.00  0.00     0.353 C 
BRANCH   6   7
ATOM      7  O   UNL     1       3.711  -2.339   0.272  1.00  0.00    -0.465 OA
BRANCH   7   8
ATOM      8  C   UNL     1       3.256  -3.239  -0.660  1.00  0.00     0.221 A 
ATOM      9  N   UNL     1       2.465  -2.756  -1.621  1.00  0.00    -0.193 NA
ATOM     10  C   UNL     1       3.544  -4.561  -0.462  1.00  0.00     0.036 A 
ATOM     11  C   UNL     1       1.796  -3.656  -2.343  1.00  0.00     0.164 A 
ATOM     12  C   UNL     1       2.842  -5.419  -1.287  1.00  0.00     0.051 A 
ATOM     13  C   UNL     1       4.545  -4.998   0.562  1.00  0.00     0.043 C 
ATOM     14  N   UNL     1       1.928  -4.987  -2.197  1.00  0.00    -0.232 NA
ATOM     15  C   UNL     1       2.982  -6.909  -1.106  1.00  0.00     0.057 C 
ATOM     16  C   UNL     1       4.456  -6.484   0.883  1.00  0.00     0.005 C 
ATOM     17  C   UNL     1       4.282  -7.296  -0.395  1.00  0.00     0.007 C 
BRANCH  11  18
ATOM     18  C   UNL     1       0.766  -3.100  -3.213  1.00  0.00     0.038 A 
ATOM     19  C   UNL     1       1.028  -2.029  -4.082  1.00  0.00     0.015 A 
ATOM     20  C   UNL     1      -0.561  -3.512  -3.128  1.00  0.00     0.123 A 
ATOM     21  C   UNL     1      -0.005  -1.436  -4.808  1.00  0.00     0.021 A 
ATOM     22  N   UNL     1      -1.591  -2.958  -3.821  1.00  0.00    -0.264 NA
ATOM     23  C   UNL     1      -1.287  -1.928  -4.638  1.00  0.00     0.111 A 
ENDBRANCH  11  18
ENDBRANCH   7   8
ENDBRANCH   6   7
ENDBRANCH   4   6
ENDBRANCH   3   4
ENDBRANCH   2   3
ENDBRANCH   1   2
BRANCH   1  24
ATOM     24  O   UNL     1       4.291   0.831   1.683  1.00  0.00    -0.374 OA
BRANCH  24  25
ATOM     25  C   UNL     1       3.082   1.526   2.012  1.00  0.00     0.202 C 
BRANCH  25  26
ATOM     26  C   UNL     1       3.152   3.026   2.302  1.00  0.00     0.261 C 
BRANCH  26  27
ATOM     27  O   UNL     1       3.511   3.775   1.134  1.00  0.00    -0.460 OA
BRANCH  27  28
ATOM     28  C   UNL     1       4.790   4.209   1.121  1.00  0.00     0.338 C 
ATOM     29  O   UNL     1       5.615   4.120   2.020  1.00  0.00    -0.246 OA
BRANCH  28  30
ATOM     30  C   UNL     1       5.150   4.614  -0.248  1.00  0.00     0.060 A 
ATOM     31  C   UNL     1       6.351   4.114  -0.774  1.00  0.00     0.016 A 
ATOM     32  C   UNL     1       4.359   5.501  -0.979  1.00  0.00     0.016 A 
ATOM     33  C   UNL     1       6.815   4.573  -1.999  1.00  0.00     0.010 A 
ATOM     34  C   UNL     1       4.836   5.980  -2.197  1.00  0.00     0.010 A 
ATOM     35  C   UNL     1       6.093   5.563  -2.672  1.00  0.00    -0.014 A 
BRANCH  35  36
ATOM     36  C   UNL     1       6.778   6.368  -3.703  1.00  0.00     0.031 A 
ATOM     37  C   UNL     1       7.390   7.673  -3.271  1.00  0.00     0.074 A 
ATOM     38  C   UNL     1       6.892   5.932  -4.967  1.00  0.00     0.049 A 
ATOM     39  N   UNL     1       7.940   8.611  -3.994  1.00  0.00    -0.248 NA
ATOM     40  C   UNL     1       7.379   7.958  -1.824  1.00  0.00     0.031 C 
ATOM     41  C   UNL     1       6.414   4.644  -5.467  1.00  0.00     0.029 A 
ATOM     42  N   UNL     1       7.447   6.538  -6.063  1.00  0.00    -0.354 N 
ATOM     43  C   UNL     1       8.334   9.594  -3.093  1.00  0.00     0.074 A 
ATOM     44  C   UNL     1       7.936   9.158  -1.775  1.00  0.00     0.031 C 
ATOM     45  C   UNL     1       6.686   4.563  -6.782  1.00  0.00     0.029 A 
ATOM     46  C   UNL     1       7.314   5.808  -7.218  1.00  0.00     0.049 A 
ATOM     47  H   UNL     1       7.897   7.413  -6.026  1.00  0.00     0.167 HD
ATOM     48  C   UNL     1       8.982  10.752  -3.348  1.00  0.00     0.037 A 
ATOM     49  C   UNL     1       7.638   6.135  -8.483  1.00  0.00     0.037 A 
ATOM     50  C   UNL     1       9.376  11.174  -4.664  1.00  0.00     0.049 A 
ATOM     51  C   UNL     1       8.256   7.484  -8.749  1.00  0.00     0.074 A 
ATOM     52  C   UNL     1      10.014  12.341  -5.039  1.00  0.00     0.029 A 
ATOM     53  N   UNL     1       9.174  10.434  -5.819  1.00  0.00    -0.354 N 
ATOM     54  N   UNL     1       8.599   8.424  -7.900  1.00  0.00    -0.248 NA
ATOM     55  C   UNL     1       8.527   7.818 -10.154  1.00  0.00     0.031 C 
ATOM     56  C   UNL     1      10.162  12.326  -6.429  1.00  0.00     0.029 A 
ATOM     57  C   UNL     1       9.663  11.127  -6.912  1.00  0.00     0.049 A 
ATOM     58  H   UNL     1       8.746   9.548  -5.855  1.00  0.00     0.167 HD
ATOM     59  C   UNL     1       9.149   9.446  -8.664  1.00  0.00     0.074 A 
ATOM     60  C   UNL     1       9.120   8.997 -10.041  1.00  0.00     0.031 C 
ATOM     61  C   UNL     1       9.628  10.652  -8.270  1.00  0.00     0.037 A 
BRANCH  48  62
ATOM     62  C   UNL     1       9.304  11.648  -2.190  1.00  0.00     0.057 A 
ATOM     63  C   UNL     1      10.325  11.337  -1.284  1.00  0.00     0.134 A 
ATOM     64  C   UNL     1       8.646  12.874  -2.030  1.00  0.00     0.134 A 
ATOM     65  F   UNL     1      10.978  10.169  -1.369  1.00  0.00    -0.206 F 
ATOM     66  C   UNL     1      10.685  12.218  -0.262  1.00  0.00     0.040 A 
ATOM     67  C   UNL     1       9.013  13.772  -1.027  1.00  0.00     0.040 A 
ATOM     68  F   UNL     1       7.655  13.229  -2.861  1.00  0.00    -0.206 F 
ATOM     69  C   UNL     1      10.038  13.446  -0.141  1.00  0.00     0.006 A 
ENDBRANCH  48  62
BRANCH  49  70
ATOM     70  C   UNL     1       7.369   5.194  -9.600  1.00  0.00     0.057 A 
ATOM     71  C   UNL     1       8.416   4.635 -10.341  1.00  0.00     0.134 A 
ATOM     72  C   UNL     1       6.063   4.868  -9.987  1.00  0.00     0.134 A 
ATOM     73  F   UNL     1       9.690   4.927 -10.036  1.00  0.00    -0.206 F 
ATOM     74  C   UNL     1       8.177   3.810 -11.442  1.00  0.00     0.040 A 
ATOM     75  C   UNL     1       5.809   4.020 -11.067  1.00  0.00     0.040 A 
ATOM     76  F   UNL     1       5.012   5.370  -9.321  1.00  0.00    -0.206 F 
ATOM     77  C   UNL     1       6.869   3.497 -11.805  1.00  0.00     0.006 A 
ENDBRANCH  49  70
BRANCH  61  78
ATOM     78  C   UNL     1      10.181  11.552  -9.337  1.00  0.00     0.057 A 
ATOM     79  C   UNL     1       9.354  12.168 -10.284  1.00  0.00     0.134 A 
ATOM     80  C   UNL     1      11.553  11.830  -9.397  1.00  0.00     0.134 A 
ATOM     81  F   UNL     1       8.032  11.936 -10.286  1.00  0.00    -0.206 F 
ATOM     82  C   UNL     1       9.875  13.001 -11.275  1.00  0.00     0.040 A 
ATOM     83  C   UNL     1      12.081  12.688 -10.362  1.00  0.00     0.040 A 
ATOM     84  F   UNL     1      12.400  11.287  -8.510  1.00  0.00    -0.206 F 
ATOM     85  C   UNL     1      11.242  13.268 -11.311  1.00  0.00     0.006 A 
ENDBRANCH  61  78
ENDBRANCH  35  36
ENDBRANCH  28  30
ENDBRANCH  27  28
ENDBRANCH  26  27
ENDBRANCH  25  26
ENDBRANCH  24  25
ENDBRANCH   1  24
TORSDOF 17
