REMARK SMILES CCOc1ccc2[nH]c(=O)c(C(=O)OCCOCCOC(=O)c3ccc(-c4c5nc(c(-c6c(F)cccc6F)c6ccc([nH]6)c(-c6c(F)cccc6F)c6nc(c(-c7c(F)cccc7F)c7ccc4[nH]7)C=C6)C=C5)cc3)cc2c1
REMARK SMILES IDX 17 1 16 2 15 3 14 4 12 5 13 6 11 7 4 8 5 9 79 10 6 11 78 12
REMARK SMILES IDX 7 13 77 14 8 15 9 16 10 18 3 19 2 20 1 21 18 22 19 23 20 24
REMARK SMILES IDX 21 25 22 26 23 27 24 28 76 29 25 30 75 31 26 32 27 33 28 34
REMARK SMILES IDX 69 35 29 36 74 37 68 38 70 39 30 40 73 41 67 42 66 43 31 45
REMARK SMILES IDX 57 46 40 47 56 48 41 49 44 50 55 51 71 52 42 53 43 54 54 56
REMARK SMILES IDX 72 57 45 58 32 59 33 60 38 61 34 62 35 63 37 64 39 65 36 66
REMARK SMILES IDX 58 67 59 68 64 69 60 70 61 71 63 72 65 73 62 74 46 75 47 76
REMARK SMILES IDX 52 77 48 78 49 79 51 80 53 81 50 82
REMARK H PARENT 8 17 70 44 44 55
REMARK Flexibility Score: inf
ROOT
ATOM      1  O   UNL     1       6.588  -8.921   3.113  1.00  0.00    -0.374 OA
ENDROOT
BRANCH   1   2
ATOM      2  C   UNL     1       7.941  -8.917   2.653  1.00  0.00     0.202 C 
BRANCH   2   3
ATOM      3  C   UNL     1       8.136  -8.402   1.225  1.00  0.00     0.261 C 
BRANCH   3   4
ATOM      4  O   UNL     1       7.823  -7.002   1.157  1.00  0.00    -0.459 OA
BRANCH   4   5
ATOM      5  C   UNL     1       6.799  -6.656   0.343  1.00  0.00     0.343 C 
ATOM      6  O   UNL     1       6.210  -7.405  -0.424  1.00  0.00    -0.246 OA
BRANCH   5   7
ATOM      7  C   UNL     1       6.355  -5.273   0.618  1.00  0.00     0.125 A 
ATOM      8  C   UNL     1       2.607  -2.212   1.007  1.00  0.00     0.120 A 
ATOM      9  C   UNL     1       3.475  -1.173   1.340  1.00  0.00     0.048 A 
ATOM     10  C   UNL     1       3.090  -3.499   0.771  1.00  0.00     0.056 A 
ATOM     11  C   UNL     1       4.849  -1.405   1.401  1.00  0.00     0.030 A 
ATOM     12  C   UNL     1       4.466  -3.736   0.829  1.00  0.00     0.003 A 
ATOM     13  C   UNL     1       5.337  -2.686   1.149  1.00  0.00     0.049 A 
ATOM     14  C   UNL     1       5.027  -5.059   0.562  1.00  0.00     0.032 A 
ATOM     15  N   UNL     1       6.712  -2.938   1.225  1.00  0.00    -0.321 N 
ATOM     16  C   UNL     1       7.281  -4.166   0.984  1.00  0.00     0.263 A 
ATOM     17  H   UNL     1       7.307  -2.191   1.465  1.00  0.00     0.170 HD
ATOM     18  O   UNL     1       8.497  -4.305   1.056  1.00  0.00    -0.269 OA
BRANCH   8  19
ATOM     19  O   UNL     1       1.256  -2.000   1.018  1.00  0.00    -0.494 OA
BRANCH  19  20
ATOM     20  C   UNL     1       0.778  -1.476  -0.227  1.00  0.00     0.226 C 
ATOM     21  C   UNL     1       0.742   0.044  -0.201  1.00  0.00     0.049 C 
ENDBRANCH  19  20
ENDBRANCH   8  19
ENDBRANCH   5   7
ENDBRANCH   4   5
ENDBRANCH   3   4
ENDBRANCH   2   3
ENDBRANCH   1   2
BRANCH   1  22
ATOM     22  C   UNL     1       6.081  -7.686   3.624  1.00  0.00     0.202 C 
BRANCH  22  23
ATOM     23  C   UNL     1       6.444  -7.373   5.081  1.00  0.00     0.261 C 
BRANCH  23  24
ATOM     24  O   UNL     1       7.849  -7.097   5.230  1.00  0.00    -0.460 OA
BRANCH  24  25
ATOM     25  C   UNL     1       8.554  -8.054   5.875  1.00  0.00     0.338 C 
ATOM     26  O   UNL     1       8.116  -9.061   6.415  1.00  0.00    -0.246 OA
BRANCH  25  27
ATOM     27  C   UNL     1      10.000  -7.817   5.707  1.00  0.00     0.060 A 
ATOM     28  C   UNL     1      10.786  -8.896   5.284  1.00  0.00     0.016 A 
ATOM     29  C   UNL     1      10.590  -6.590   6.019  1.00  0.00     0.016 A 
ATOM     30  C   UNL     1      12.172  -8.769   5.220  1.00  0.00     0.010 A 
ATOM     31  C   UNL     1      11.982  -6.465   5.962  1.00  0.00     0.010 A 
ATOM     32  C   UNL     1      12.781  -7.564   5.596  1.00  0.00    -0.014 A 
BRANCH  32  33
ATOM     33  C   UNL     1      14.255  -7.504   5.739  1.00  0.00     0.031 A 
ATOM     34  C   UNL     1      14.864  -7.633   7.107  1.00  0.00     0.074 A 
ATOM     35  C   UNL     1      15.045  -7.365   4.660  1.00  0.00     0.049 A 
ATOM     36  N   UNL     1      16.122  -7.588   7.465  1.00  0.00    -0.248 NA
ATOM     37  C   UNL     1      13.927  -7.840   8.223  1.00  0.00     0.031 C 
ATOM     38  C   UNL     1      14.578  -7.261   3.279  1.00  0.00     0.029 A 
ATOM     39  N   UNL     1      16.411  -7.280   4.564  1.00  0.00    -0.354 N 
ATOM     40  C   UNL     1      16.128  -7.754   8.844  1.00  0.00     0.074 A 
ATOM     41  C   UNL     1      14.747  -7.871   9.262  1.00  0.00     0.031 C 
ATOM     42  C   UNL     1      15.643  -7.117   2.471  1.00  0.00     0.029 A 
ATOM     43  C   UNL     1      16.860  -7.089   3.280  1.00  0.00     0.049 A 
ATOM     44  H   UNL     1      17.012  -7.349   5.340  1.00  0.00     0.167 HD
ATOM     45  C   UNL     1      17.188  -7.814   9.685  1.00  0.00     0.037 A 
ATOM     46  C   UNL     1      18.109  -6.895   2.816  1.00  0.00     0.037 A 
ATOM     47  C   UNL     1      18.561  -7.697   9.269  1.00  0.00     0.049 A 
ATOM     48  C   UNL     1      19.267  -6.900   3.777  1.00  0.00     0.074 A 
ATOM     49  C   UNL     1      19.706  -7.769  10.043  1.00  0.00     0.029 A 
ATOM     50  N   UNL     1      18.973  -7.474   7.964  1.00  0.00    -0.354 N 
ATOM     51  N   UNL     1      19.265  -7.087   5.074  1.00  0.00    -0.248 NA
ATOM     52  C   UNL     1      20.602  -6.667   3.207  1.00  0.00     0.031 C 
ATOM     53  C   UNL     1      20.809  -7.542   9.212  1.00  0.00     0.029 A 
ATOM     54  C   UNL     1      20.354  -7.379   7.914  1.00  0.00     0.049 A 
ATOM     55  H   UNL     1      18.373  -7.396   7.187  1.00  0.00     0.167 HD
ATOM     56  C   UNL     1      20.595  -7.022   5.472  1.00  0.00     0.074 A 
ATOM     57  C   UNL     1      21.377  -6.787   4.276  1.00  0.00     0.031 C 
ATOM     58  C   UNL     1      21.120  -7.147   6.716  1.00  0.00     0.037 A 
BRANCH  45  59
ATOM     59  C   UNL     1      16.897  -7.989  11.146  1.00  0.00     0.057 A 
ATOM     60  C   UNL     1      16.429  -9.202  11.668  1.00  0.00     0.134 A 
ATOM     61  C   UNL     1      17.104  -6.936  12.046  1.00  0.00     0.134 A 
ATOM     62  F   UNL     1      16.196 -10.246  10.858  1.00  0.00    -0.206 F 
ATOM     63  C   UNL     1      16.153  -9.353  13.029  1.00  0.00     0.040 A 
ATOM     64  C   UNL     1      16.856  -7.082  13.411  1.00  0.00     0.040 A 
ATOM     65  F   UNL     1      17.554  -5.749  11.613  1.00  0.00    -0.206 F 
ATOM     66  C   UNL     1      16.372  -8.292  13.905  1.00  0.00     0.006 A 
ENDBRANCH  45  59
BRANCH  46  67
ATOM     67  C   UNL     1      18.330  -6.670   1.366  1.00  0.00     0.057 A 
ATOM     68  C   UNL     1      18.958  -7.634   0.569  1.00  0.00     0.134 A 
ATOM     69  C   UNL     1      17.926  -5.482   0.744  1.00  0.00     0.134 A 
ATOM     70  F   UNL     1      19.390  -8.782   1.113  1.00  0.00    -0.206 F 
ATOM     71  C   UNL     1      19.186  -7.422  -0.791  1.00  0.00     0.040 A 
ATOM     72  C   UNL     1      18.126  -5.266  -0.620  1.00  0.00     0.040 A 
ATOM     73  F   UNL     1      17.321  -4.519   1.454  1.00  0.00    -0.206 F 
ATOM     74  C   UNL     1      18.763  -6.236  -1.390  1.00  0.00     0.006 A 
ENDBRANCH  46  67
BRANCH  58  75
ATOM     75  C   UNL     1      22.613  -7.064   6.844  1.00  0.00     0.057 A 
ATOM     76  C   UNL     1      23.301  -5.851   6.715  1.00  0.00     0.134 A 
ATOM     77  C   UNL     1      23.367  -8.207   7.141  1.00  0.00     0.134 A 
ATOM     78  F   UNL     1      22.639  -4.723   6.419  1.00  0.00    -0.206 F 
ATOM     79  C   UNL     1      24.689  -5.782   6.857  1.00  0.00     0.040 A 
ATOM     80  C   UNL     1      24.751  -8.146   7.310  1.00  0.00     0.040 A 
ATOM     81  F   UNL     1      22.770  -9.399   7.286  1.00  0.00    -0.206 F 
ATOM     82  C   UNL     1      25.416  -6.930   7.162  1.00  0.00     0.006 A 
ENDBRANCH  58  75
ENDBRANCH  32  33
ENDBRANCH  25  27
ENDBRANCH  24  25
ENDBRANCH  23  24
ENDBRANCH  22  23
ENDBRANCH   1  22
TORSDOF 16
