REMARK SMILES CC(C)Oc1ccc(-c2ccc(/C(=C\c3ccc(S(C)(=O)=O)cc3)C(=O)OCCOCCOC(=O)c3ccc(-c4c5nc(c(-c6c(F)cccc6F)c6ccc([nH]6)c(-c6c(F)cccc6F)c6nc(c(-c7c(F)cccc7F)c7ccc4[nH]7)C=C6)C=C5)cc3)cc2)cc1
REMARK SMILES IDX 29 1 28 2 27 3 25 4 26 5 13 6 14 7 12 8 9 9 10 10 91 11
REMARK SMILES IDX 11 12 90 13 8 14 5 15 6 16 93 17 7 18 92 19 4 20 2 21 1 22
REMARK SMILES IDX 3 23 15 24 16 25 24 26 17 27 23 28 18 29 19 30 20 31 21 32
REMARK SMILES IDX 22 33 30 34 31 35 32 36 33 37 34 38 35 39 36 40 37 41 89 42
REMARK SMILES IDX 38 43 88 44 39 45 40 46 41 47 82 48 42 49 87 50 81 51 83 52
REMARK SMILES IDX 43 53 86 54 80 55 79 56 44 58 70 59 53 60 69 61 54 62 57 63
REMARK SMILES IDX 68 64 84 65 55 66 56 67 67 69 85 70 58 71 45 72 46 73 51 74
REMARK SMILES IDX 47 75 48 76 50 77 52 78 49 79 71 80 72 81 77 82 73 83 74 84
REMARK SMILES IDX 76 85 78 86 75 87 59 88 60 89 65 90 61 91 62 92 64 93 66 94
REMARK SMILES IDX 63 95
REMARK H PARENT 83 57 57 68
REMARK Flexibility Score: inf
ROOT
ATOM      1  C   UNL     1      -7.204  -8.482   5.061  1.00  0.00     0.202 C 
ENDROOT
BRANCH   1   2
ATOM      2  C   UNL     1      -8.263  -8.058   4.041  1.00  0.00     0.261 C 
BRANCH   2   3
ATOM      3  O   UNL     1      -7.752  -8.210   2.707  1.00  0.00    -0.460 OA
BRANCH   3   4
ATOM      4  C   UNL     1      -7.773  -7.084   1.947  1.00  0.00     0.338 C 
ATOM      5  O   UNL     1      -8.379  -6.057   2.212  1.00  0.00    -0.246 OA
BRANCH   4   6
ATOM      6  C   UNL     1      -6.822  -7.203   0.790  1.00  0.00     0.067 C 
ATOM      7  C   UNL     1      -6.809  -8.390   0.134  1.00  0.00     0.024 C 
BRANCH   6   8
ATOM      8  C   UNL     1      -5.980  -6.014   0.468  1.00  0.00    -0.011 A 
ATOM      9  C   UNL     1      -4.199  -3.829  -0.059  1.00  0.00    -0.018 A 
ATOM     10  C   UNL     1      -4.803  -4.556  -1.095  1.00  0.00     0.009 A 
ATOM     11  C   UNL     1      -4.542  -4.194   1.251  1.00  0.00     0.009 A 
ATOM     12  C   UNL     1      -5.704  -5.598  -0.837  1.00  0.00     0.009 A 
ATOM     13  C   UNL     1      -5.407  -5.267   1.509  1.00  0.00     0.009 A 
BRANCH   9  14
ATOM     14  C   UNL     1      -3.270  -2.710  -0.338  1.00  0.00    -0.018 A 
ATOM     15  C   UNL     1      -1.534  -0.530  -0.854  1.00  0.00     0.119 A 
ATOM     16  C   UNL     1      -2.610  -0.785  -1.697  1.00  0.00     0.047 A 
ATOM     17  C   UNL     1      -1.329  -1.338   0.257  1.00  0.00     0.047 A 
ATOM     18  C   UNL     1      -3.464  -1.863  -1.444  1.00  0.00     0.012 A 
ATOM     19  C   UNL     1      -2.176  -2.427   0.500  1.00  0.00     0.012 A 
BRANCH  15  20
ATOM     20  O   UNL     1      -0.817   0.604  -1.097  1.00  0.00    -0.491 OA
BRANCH  20  21
ATOM     21  C   UNL     1       0.585   0.476  -1.384  1.00  0.00     0.167 C 
ATOM     22  C   UNL     1       1.437   0.344  -0.126  1.00  0.00     0.052 C 
ATOM     23  C   UNL     1       0.922  -0.575  -2.440  1.00  0.00     0.052 C 
ENDBRANCH  20  21
ENDBRANCH  15  20
ENDBRANCH   9  14
ENDBRANCH   6   8
BRANCH   7  24
ATOM     24  C   UNL     1      -6.090  -8.682  -1.117  1.00  0.00    -0.025 A 
ATOM     25  C   UNL     1      -6.871  -8.872  -2.267  1.00  0.00     0.009 A 
ATOM     26  C   UNL     1      -4.696  -8.601  -1.234  1.00  0.00     0.009 A 
ATOM     27  C   UNL     1      -6.284  -8.849  -3.530  1.00  0.00     0.021 A 
ATOM     28  C   UNL     1      -4.101  -8.572  -2.501  1.00  0.00     0.021 A 
ATOM     29  C   UNL     1      -4.904  -8.661  -3.641  1.00  0.00     0.067 A 
BRANCH  29  30
ATOM     30  S   UNL     1      -4.218  -8.336  -5.250  1.00  0.00     0.175 S 
ATOM     31  C   UNL     1      -4.183  -9.920  -6.038  1.00  0.00     0.163 C 
ATOM     32  O   UNL     1      -5.176  -7.502  -5.953  1.00  0.00    -0.224 OA
ATOM     33  O   UNL     1      -2.848  -7.897  -5.067  1.00  0.00    -0.224 OA
ENDBRANCH  29  30
ENDBRANCH   7  24
ENDBRANCH   4   6
ENDBRANCH   3   4
ENDBRANCH   2   3
ENDBRANCH   1   2
BRANCH   1  34
ATOM     34  O   UNL     1      -6.022  -7.681   5.093  1.00  0.00    -0.374 OA
BRANCH  34  35
ATOM     35  C   UNL     1      -5.037  -7.931   4.088  1.00  0.00     0.202 C 
BRANCH  35  36
ATOM     36  C   UNL     1      -4.110  -9.127   4.324  1.00  0.00     0.261 C 
BRANCH  36  37
ATOM     37  O   UNL     1      -4.821 -10.374   4.259  1.00  0.00    -0.460 OA
BRANCH  37  38
ATOM     38  C   UNL     1      -4.966 -11.005   5.446  1.00  0.00     0.338 C 
ATOM     39  O   UNL     1      -4.489 -10.678   6.524  1.00  0.00    -0.246 OA
BRANCH  38  40
ATOM     40  C   UNL     1      -5.952 -12.092   5.318  1.00  0.00     0.060 A 
ATOM     41  C   UNL     1      -6.986 -12.140   6.261  1.00  0.00     0.016 A 
ATOM     42  C   UNL     1      -5.838 -13.080   4.337  1.00  0.00     0.016 A 
ATOM     43  C   UNL     1      -7.880 -13.207   6.262  1.00  0.00     0.010 A 
ATOM     44  C   UNL     1      -6.732 -14.155   4.343  1.00  0.00     0.010 A 
ATOM     45  C   UNL     1      -7.733 -14.240   5.328  1.00  0.00    -0.014 A 
BRANCH  45  46
ATOM     46  C   UNL     1      -8.531 -15.479   5.480  1.00  0.00     0.031 A 
ATOM     47  C   UNL     1      -7.900 -16.674   6.139  1.00  0.00     0.074 A 
ATOM     48  C   UNL     1      -9.808 -15.530   5.066  1.00  0.00     0.049 A 
ATOM     49  N   UNL     1      -8.399 -17.864   6.354  1.00  0.00    -0.248 NA
ATOM     50  C   UNL     1      -6.519 -16.503   6.620  1.00  0.00     0.031 C 
ATOM     51  C   UNL     1     -10.542 -14.425   4.451  1.00  0.00     0.029 A 
ATOM     52  N   UNL     1     -10.713 -16.560   5.100  1.00  0.00    -0.354 N 
ATOM     53  C   UNL     1      -7.396 -18.583   6.991  1.00  0.00     0.074 A 
ATOM     54  C   UNL     1      -6.248 -17.708   7.098  1.00  0.00     0.031 C 
ATOM     55  C   UNL     1     -11.787 -14.840   4.160  1.00  0.00     0.029 A 
ATOM     56  C   UNL     1     -11.926 -16.244   4.540  1.00  0.00     0.049 A 
ATOM     57  H   UNL     1     -10.512 -17.442   5.490  1.00  0.00     0.167 HD
ATOM     58  C   UNL     1      -7.431 -19.855   7.455  1.00  0.00     0.037 A 
ATOM     59  C   UNL     1     -13.016 -17.010   4.342  1.00  0.00     0.037 A 
ATOM     60  C   UNL     1      -8.572 -20.725   7.346  1.00  0.00     0.049 A 
ATOM     61  C   UNL     1     -13.004 -18.445   4.797  1.00  0.00     0.074 A 
ATOM     62  C   UNL     1      -8.712 -22.026   7.796  1.00  0.00     0.029 A 
ATOM     63  N   UNL     1      -9.769 -20.382   6.737  1.00  0.00    -0.354 N 
ATOM     64  N   UNL     1     -12.059 -19.110   5.415  1.00  0.00    -0.248 NA
ATOM     65  C   UNL     1     -14.214 -19.235   4.526  1.00  0.00     0.031 C 
ATOM     66  C   UNL     1      -9.978 -22.485   7.418  1.00  0.00     0.029 A 
ATOM     67  C   UNL     1     -10.644 -21.454   6.776  1.00  0.00     0.049 A 
ATOM     68  H   UNL     1      -9.967 -19.505   6.335  1.00  0.00     0.167 HD
ATOM     69  C   UNL     1     -12.568 -20.384   5.633  1.00  0.00     0.074 A 
ATOM     70  C   UNL     1     -13.910 -20.396   5.088  1.00  0.00     0.031 C 
ATOM     71  C   UNL     1     -11.979 -21.448   6.234  1.00  0.00     0.037 A 
BRANCH  58  72
ATOM     72  C   UNL     1      -6.185 -20.385   8.102  1.00  0.00     0.057 A 
ATOM     73  C   UNL     1      -5.763 -19.948   9.364  1.00  0.00     0.134 A 
ATOM     74  C   UNL     1      -5.408 -21.358   7.462  1.00  0.00     0.134 A 
ATOM     75  F   UNL     1      -6.455 -19.006  10.024  1.00  0.00    -0.206 F 
ATOM     76  C   UNL     1      -4.599 -20.441   9.956  1.00  0.00     0.040 A 
ATOM     77  C   UNL     1      -4.255 -21.877   8.054  1.00  0.00     0.040 A 
ATOM     78  F   UNL     1      -5.757 -21.822   6.253  1.00  0.00    -0.206 F 
ATOM     79  C   UNL     1      -3.844 -21.413   9.302  1.00  0.00     0.006 A 
ENDBRANCH  58  72
BRANCH  59  80
ATOM     80  C   UNL     1     -14.212 -16.439   3.675  1.00  0.00     0.057 A 
ATOM     81  C   UNL     1     -15.398 -16.216   4.383  1.00  0.00     0.134 A 
ATOM     82  C   UNL     1     -14.203 -16.117   2.312  1.00  0.00     0.134 A 
ATOM     83  F   UNL     1     -15.475 -16.526   5.685  1.00  0.00    -0.206 F 
ATOM     84  C   UNL     1     -16.538 -15.707   3.757  1.00  0.00     0.040 A 
ATOM     85  C   UNL     1     -15.327 -15.586   1.679  1.00  0.00     0.040 A 
ATOM     86  F   UNL     1     -13.096 -16.307   1.579  1.00  0.00    -0.206 F 
ATOM     87  C   UNL     1     -16.502 -15.385   2.402  1.00  0.00     0.006 A 
ENDBRANCH  59  80
BRANCH  71  88
ATOM     88  C   UNL     1     -12.793 -22.702   6.364  1.00  0.00     0.057 A 
ATOM     89  C   UNL     1     -13.071 -23.522   5.264  1.00  0.00     0.134 A 
ATOM     90  C   UNL     1     -13.271 -23.113   7.616  1.00  0.00     0.134 A 
ATOM     91  F   UNL     1     -12.653 -23.178   4.037  1.00  0.00    -0.206 F 
ATOM     92  C   UNL     1     -13.812 -24.698   5.400  1.00  0.00     0.040 A 
ATOM     93  C   UNL     1     -13.991 -24.299   7.768  1.00  0.00     0.040 A 
ATOM     94  F   UNL     1     -13.032 -22.377   8.712  1.00  0.00    -0.206 F 
ATOM     95  C   UNL     1     -14.269 -25.092   6.657  1.00  0.00     0.006 A 
ENDBRANCH  71  88
ENDBRANCH  45  46
ENDBRANCH  38  40
ENDBRANCH  37  38
ENDBRANCH  36  37
ENDBRANCH  35  36
ENDBRANCH  34  35
ENDBRANCH   1  34
TORSDOF 20
