REMARK SMILES CCC(CC)COc1cc2c(cc1Cl)C=C(C(=O)OCCOCCOC(=O)c1ccc(-c3c4nc(c(-c5c(F)cccc5F)c5ccc([nH]5)c(-c5c(F)cccc5F)c5nc(c(-c6c(F)cccc6F)c6ccc3[nH]6)C=C5)C=C4)cc1)[C@@H](C(F)(F)F)O2
REMARK SMILES IDX 21 1 20 2 19 3 17 4 18 5 16 6 8 7 9 8 13 9 10 10 12 11 14 12
REMARK SMILES IDX 11 13 87 14 15 15 82 16 7 17 6 18 3 19 2 20 1 21 4 22 5 23
REMARK SMILES IDX 83 24 84 25 85 26 86 27 22 28 23 29 24 30 25 31 26 32 27 33
REMARK SMILES IDX 28 34 29 35 81 36 30 37 80 38 31 39 32 40 33 41 74 42 34 43
REMARK SMILES IDX 79 44 73 45 75 46 35 47 78 48 72 49 71 50 36 52 62 53 45 54
REMARK SMILES IDX 61 55 46 56 49 57 60 58 76 59 47 60 48 61 59 63 77 64 50 65
REMARK SMILES IDX 37 66 38 67 43 68 39 69 40 70 42 71 44 72 41 73 63 74 64 75
REMARK SMILES IDX 69 76 65 77 66 78 68 79 70 80 67 81 51 82 52 83 57 84 53 85
REMARK SMILES IDX 54 86 56 87 58 88 55 89
REMARK H PARENT 75 51 49 62
REMARK Flexibility Score: inf
ROOT
ATOM      1  C   UNL     1      -1.339 -10.276  -1.483  1.00  0.00     0.202 C 
ENDROOT
BRANCH   1   2
ATOM      2  C   UNL     1      -0.142 -10.264  -0.525  1.00  0.00     0.261 C 
BRANCH   2   3
ATOM      3  O   UNL     1      -0.227  -9.231   0.469  1.00  0.00    -0.460 OA
BRANCH   3   4
ATOM      4  C   UNL     1       0.713  -8.270   0.315  1.00  0.00     0.338 C 
ATOM      5  O   UNL     1       1.638  -8.281  -0.484  1.00  0.00    -0.246 OA
BRANCH   4   6
ATOM      6  C   UNL     1       0.434  -7.103   1.165  1.00  0.00     0.087 C 
ATOM      7  C   UNL     1       1.227  -2.597   3.107  1.00  0.00     0.141 A 
ATOM      8  C   UNL     1       0.455  -3.682   3.553  1.00  0.00     0.095 A 
ATOM      9  C   UNL     1       1.950  -2.709   1.913  1.00  0.00     0.083 A 
ATOM     10  C   UNL     1       0.342  -4.820   2.747  1.00  0.00     0.131 A 
ATOM     11  C   UNL     1       1.685  -3.755   1.041  1.00  0.00     0.036 A 
ATOM     12  Cl  UNL     1       3.226  -1.633   1.480  1.00  0.00    -0.080 Cl
ATOM     13  C   UNL     1       0.870  -4.802   1.456  1.00  0.00     0.019 A 
ATOM     14  O   UNL     1      -0.275  -5.941   3.250  1.00  0.00    -0.475 OA
ATOM     15  C   UNL     1       0.706  -5.935   0.575  1.00  0.00     0.027 C 
ATOM     16  C   UNL     1       0.100  -7.222   2.626  1.00  0.00     0.316 C 
BRANCH   7  17
ATOM     17  O   UNL     1       1.352  -1.478   3.888  1.00  0.00    -0.492 OA
BRANCH  17  18
ATOM     18  C   UNL     1       0.332  -0.475   3.640  1.00  0.00     0.233 C 
BRANCH  18  19
ATOM     19  C   UNL     1       0.631   0.419   2.406  1.00  0.00     0.026 C 
BRANCH  19  20
ATOM     20  C   UNL     1      -0.053  -0.132   1.132  1.00  0.00     0.003 C 
ATOM     21  C   UNL     1       0.549   0.415  -0.156  1.00  0.00     0.004 C 
ENDBRANCH  19  20
BRANCH  19  22
ATOM     22  C   UNL     1       0.294   1.909   2.640  1.00  0.00     0.003 C 
ATOM     23  C   UNL     1      -1.185   2.247   2.742  1.00  0.00     0.004 C 
ENDBRANCH  19  22
ENDBRANCH  18  19
ENDBRANCH  17  18
ENDBRANCH   7  17
BRANCH  16  24
ATOM     24  C   UNL     1       1.239  -7.909   3.396  1.00  0.00     0.430 C 
ATOM     25  F   UNL     1       0.964  -8.001   4.717  1.00  0.00    -0.167 F 
ATOM     26  F   UNL     1       1.432  -9.175   2.949  1.00  0.00    -0.167 F 
ATOM     27  F   UNL     1       2.414  -7.254   3.266  1.00  0.00    -0.167 F 
ENDBRANCH  16  24
ENDBRANCH   4   6
ENDBRANCH   3   4
ENDBRANCH   2   3
ENDBRANCH   1   2
BRANCH   1  28
ATOM     28  O   UNL     1      -1.685  -9.073  -2.159  1.00  0.00    -0.374 OA
BRANCH  28  29
ATOM     29  C   UNL     1      -2.203  -7.974  -1.415  1.00  0.00     0.202 C 
BRANCH  29  30
ATOM     30  C   UNL     1      -3.557  -8.115  -0.707  1.00  0.00     0.261 C 
BRANCH  30  31
ATOM     31  O   UNL     1      -3.596  -9.170   0.266  1.00  0.00    -0.460 OA
BRANCH  31  32
ATOM     32  C   UNL     1      -4.362 -10.235  -0.089  1.00  0.00     0.338 C 
ATOM     33  O   UNL     1      -4.993 -10.383  -1.119  1.00  0.00    -0.246 OA
BRANCH  32  34
ATOM     34  C   UNL     1      -4.184 -11.315   0.898  1.00  0.00     0.060 A 
ATOM     35  C   UNL     1      -4.455 -11.100   2.249  1.00  0.00     0.016 A 
ATOM     36  C   UNL     1      -3.806 -12.583   0.436  1.00  0.00     0.016 A 
ATOM     37  C   UNL     1      -4.378 -12.175   3.136  1.00  0.00     0.010 A 
ATOM     38  C   UNL     1      -3.733 -13.656   1.325  1.00  0.00     0.010 A 
ATOM     39  C   UNL     1      -4.042 -13.463   2.677  1.00  0.00    -0.014 A 
BRANCH  39  40
ATOM     40  C   UNL     1      -4.153 -14.618   3.601  1.00  0.00     0.031 A 
ATOM     41  C   UNL     1      -2.941 -15.302   4.155  1.00  0.00     0.074 A 
ATOM     42  C   UNL     1      -5.384 -15.040   3.946  1.00  0.00     0.049 A 
ATOM     43  N   UNL     1      -2.870 -16.227   5.079  1.00  0.00    -0.248 NA
ATOM     44  C   UNL     1      -1.642 -14.905   3.595  1.00  0.00     0.031 C 
ATOM     45  C   UNL     1      -6.637 -14.490   3.424  1.00  0.00     0.029 A 
ATOM     46  N   UNL     1      -5.785 -16.009   4.827  1.00  0.00    -0.354 N 
ATOM     47  C   UNL     1      -1.519 -16.504   5.235  1.00  0.00     0.074 A 
ATOM     48  C   UNL     1      -0.811 -15.694   4.265  1.00  0.00     0.031 C 
ATOM     49  C   UNL     1      -7.668 -15.098   4.032  1.00  0.00     0.029 A 
ATOM     50  C   UNL     1      -7.150 -16.095   4.962  1.00  0.00     0.049 A 
ATOM     51  H   UNL     1      -5.157 -16.588   5.316  1.00  0.00     0.167 HD
ATOM     52  C   UNL     1      -0.926 -17.341   6.122  1.00  0.00     0.037 A 
ATOM     53  C   UNL     1      -7.897 -16.880   5.758  1.00  0.00     0.037 A 
ATOM     54  C   UNL     1      -1.640 -18.171   7.060  1.00  0.00     0.049 A 
ATOM     55  C   UNL     1      -7.213 -17.833   6.697  1.00  0.00     0.074 A 
ATOM     56  C   UNL     1      -1.130 -19.026   8.023  1.00  0.00     0.029 A 
ATOM     57  N   UNL     1      -3.023 -18.269   7.138  1.00  0.00    -0.354 N 
ATOM     58  N   UNL     1      -5.931 -18.011   6.910  1.00  0.00    -0.248 NA
ATOM     59  C   UNL     1      -8.084 -18.690   7.513  1.00  0.00     0.031 C 
ATOM     60  C   UNL     1      -2.201 -19.682   8.642  1.00  0.00     0.029 A 
ATOM     61  C   UNL     1      -3.382 -19.195   8.107  1.00  0.00     0.049 A 
ATOM     62  H   UNL     1      -3.656 -17.757   6.585  1.00  0.00     0.167 HD
ATOM     63  C   UNL     1      -5.843 -18.984   7.897  1.00  0.00     0.074 A 
ATOM     64  C   UNL     1      -7.201 -19.331   8.263  1.00  0.00     0.031 C 
ATOM     65  C   UNL     1      -4.738 -19.546   8.448  1.00  0.00     0.037 A 
BRANCH  52  66
ATOM     66  C   UNL     1       0.576 -17.398   6.113  1.00  0.00     0.057 A 
ATOM     67  C   UNL     1       1.252 -18.551   5.694  1.00  0.00     0.134 A 
ATOM     68  C   UNL     1       1.355 -16.315   6.545  1.00  0.00     0.134 A 
ATOM     69  F   UNL     1       0.569 -19.628   5.278  1.00  0.00    -0.206 F 
ATOM     70  C   UNL     1       2.646 -18.623   5.700  1.00  0.00     0.040 A 
ATOM     71  C   UNL     1       2.750 -16.365   6.529  1.00  0.00     0.040 A 
ATOM     72  F   UNL     1       0.772 -15.178   6.952  1.00  0.00    -0.206 F 
ATOM     73  C   UNL     1       3.400 -17.524   6.110  1.00  0.00     0.006 A 
ENDBRANCH  52  66
BRANCH  53  74
ATOM     74  C   UNL     1      -9.379 -16.789   5.724  1.00  0.00     0.057 A 
ATOM     75  C   UNL     1     -10.110 -17.216   4.609  1.00  0.00     0.134 A 
ATOM     76  C   UNL     1     -10.100 -16.308   6.823  1.00  0.00     0.134 A 
ATOM     77  F   UNL     1      -9.478 -17.680   3.521  1.00  0.00    -0.206 F 
ATOM     78  C   UNL     1     -11.504 -17.172   4.590  1.00  0.00     0.040 A 
ATOM     79  C   UNL     1     -11.495 -16.286   6.829  1.00  0.00     0.040 A 
ATOM     80  F   UNL     1      -9.456 -15.899   7.926  1.00  0.00    -0.206 F 
ATOM     81  C   UNL     1     -12.201 -16.718   5.708  1.00  0.00     0.006 A 
ENDBRANCH  53  74
BRANCH  65  82
ATOM     82  C   UNL     1      -4.967 -20.584   9.511  1.00  0.00     0.057 A 
ATOM     83  C   UNL     1      -4.648 -20.322  10.850  1.00  0.00     0.134 A 
ATOM     84  C   UNL     1      -5.519 -21.838   9.214  1.00  0.00     0.134 A 
ATOM     85  F   UNL     1      -4.109 -19.146  11.206  1.00  0.00    -0.206 F 
ATOM     86  C   UNL     1      -4.877 -21.265  11.854  1.00  0.00     0.040 A 
ATOM     87  C   UNL     1      -5.784 -22.776  10.214  1.00  0.00     0.040 A 
ATOM     88  F   UNL     1      -5.863 -22.148   7.955  1.00  0.00    -0.206 F 
ATOM     89  C   UNL     1      -5.459 -22.491  11.538  1.00  0.00     0.006 A 
ENDBRANCH  65  82
ENDBRANCH  39  40
ENDBRANCH  32  34
ENDBRANCH  31  32
ENDBRANCH  30  31
ENDBRANCH  29  30
ENDBRANCH  28  29
ENDBRANCH   1  28
TORSDOF 20
