REMARK SMILES O=C(OCCOCCOC(=O)[C@H]1[C@H]2CC[C@H](CC2)[C@@H]1C(=O)Nc1ccc(Cc2ccncc2)cc1)c1ccc(-c2c3nc(c(-c4c(F)cccc4F)c4ccc([nH]4)c(-c4c(F)cccc4F)c4nc(c(-c5c(F)cccc5F)c5ccc2[nH]5)C=C4)C=C3)cc1
REMARK SMILES IDX 7 1 6 2 5 3 4 4 3 5 2 6 1 7 36 8 37 9 89 10 38 11 88 12
REMARK SMILES IDX 39 13 40 14 41 15 82 16 42 17 87 18 81 19 83 20 43 21 86 22
REMARK SMILES IDX 80 23 79 24 44 26 70 27 53 28 69 29 54 30 57 31 68 32 84 33
REMARK SMILES IDX 55 34 56 35 67 37 85 38 58 39 45 40 46 41 51 42 47 43 48 44
REMARK SMILES IDX 50 45 52 46 49 47 71 48 72 49 77 50 73 51 74 52 76 53 78 54
REMARK SMILES IDX 75 55 59 56 60 57 65 58 61 59 62 60 64 61 66 62 63 63 8 64
REMARK SMILES IDX 9 65 10 66 11 67 12 68 13 69 19 70 18 71 14 72 16 73 17 74
REMARK SMILES IDX 15 75 20 76 21 77 22 78 23 80 24 81 35 82 25 83 34 84 26 85
REMARK SMILES IDX 27 86 28 87 29 88 33 89 30 90 32 91 31 92
REMARK H PARENT 83 25 57 36 22 79
REMARK Flexibility Score: inf
ROOT
ATOM      1  C   UNL     1       2.618  -1.739   0.180  1.00  0.00     0.202 C 
ENDROOT
BRANCH   1   2
ATOM      2  O   UNL     1       3.960  -1.317  -0.044  1.00  0.00    -0.374 OA
BRANCH   2   3
ATOM      3  C   UNL     1       4.572  -0.393   0.856  1.00  0.00     0.202 C 
BRANCH   3   4
ATOM      4  C   UNL     1       4.120   1.067   0.766  1.00  0.00     0.261 C 
BRANCH   4   5
ATOM      5  O   UNL     1       2.704   1.180   0.566  1.00  0.00    -0.460 OA
BRANCH   5   6
ATOM      6  C   UNL     1       2.076   1.287  -0.632  1.00  0.00     0.338 C 
ATOM      7  O   UNL     1       0.854   1.412  -0.660  1.00  0.00    -0.246 OA
BRANCH   6   8
ATOM      8  C   UNL     1       2.808   1.235  -1.934  1.00  0.00     0.060 A 
ATOM      9  C   UNL     1       3.994   0.536  -2.135  1.00  0.00     0.016 A 
ATOM     10  C   UNL     1       2.228   1.855  -3.047  1.00  0.00     0.016 A 
ATOM     11  C   UNL     1       4.607   0.429  -3.351  1.00  0.00     0.010 A 
ATOM     12  C   UNL     1       2.837   1.761  -4.304  1.00  0.00     0.010 A 
ATOM     13  C   UNL     1       4.025   1.035  -4.443  1.00  0.00    -0.014 A 
BRANCH  13  14
ATOM     14  C   UNL     1       4.847   0.995  -5.648  1.00  0.00     0.031 A 
ATOM     15  C   UNL     1       5.669   2.201  -5.945  1.00  0.00     0.074 A 
ATOM     16  C   UNL     1       5.039  -0.188  -6.255  1.00  0.00     0.049 A 
ATOM     17  N   UNL     1       6.449   2.434  -6.959  1.00  0.00    -0.248 NA
ATOM     18  C   UNL     1       5.625   3.288  -4.947  1.00  0.00     0.031 C 
ATOM     19  C   UNL     1       4.441  -1.463  -5.834  1.00  0.00     0.029 A 
ATOM     20  N   UNL     1       5.829  -0.526  -7.313  1.00  0.00    -0.354 N 
ATOM     21  C   UNL     1       6.939   3.715  -6.756  1.00  0.00     0.074 A 
ATOM     22  C   UNL     1       6.393   4.204  -5.513  1.00  0.00     0.031 C 
ATOM     23  C   UNL     1       4.893  -2.443  -6.630  1.00  0.00     0.029 A 
ATOM     24  C   UNL     1       5.728  -1.850  -7.663  1.00  0.00     0.049 A 
ATOM     25  H   UNL     1       6.414   0.114  -7.779  1.00  0.00     0.167 HD
ATOM     26  C   UNL     1       7.755   4.414  -7.574  1.00  0.00     0.037 A 
ATOM     27  C   UNL     1       6.213  -2.477  -8.748  1.00  0.00     0.037 A 
ATOM     28  C   UNL     1       8.266   3.862  -8.797  1.00  0.00     0.049 A 
ATOM     29  C   UNL     1       7.007  -1.642  -9.713  1.00  0.00     0.074 A 
ATOM     30  C   UNL     1       9.023   4.470  -9.776  1.00  0.00     0.029 A 
ATOM     31  N   UNL     1       8.058   2.545  -9.200  1.00  0.00    -0.354 N 
ATOM     32  N   UNL     1       7.370  -0.383  -9.608  1.00  0.00    -0.248 NA
ATOM     33  C   UNL     1       7.435  -2.293 -10.953  1.00  0.00     0.031 C 
ATOM     34  C   UNL     1       9.228   3.535 -10.798  1.00  0.00     0.029 A 
ATOM     35  C   UNL     1       8.653   2.326 -10.427  1.00  0.00     0.049 A 
ATOM     36  H   UNL     1       7.561   1.869  -8.686  1.00  0.00     0.167 HD
ATOM     37  C   UNL     1       8.084  -0.092 -10.759  1.00  0.00     0.074 A 
ATOM     38  C   UNL     1       8.117  -1.317 -11.538  1.00  0.00     0.031 C 
ATOM     39  C   UNL     1       8.657   1.075 -11.148  1.00  0.00     0.037 A 
BRANCH  26  40
ATOM     40  C   UNL     1       8.006   5.846  -7.214  1.00  0.00     0.057 A 
ATOM     41  C   UNL     1       8.786   6.226  -6.114  1.00  0.00     0.134 A 
ATOM     42  C   UNL     1       7.377   6.865  -7.941  1.00  0.00     0.134 A 
ATOM     43  F   UNL     1       9.380   5.298  -5.348  1.00  0.00    -0.206 F 
ATOM     44  C   UNL     1       8.908   7.565  -5.734  1.00  0.00     0.040 A 
ATOM     45  C   UNL     1       7.512   8.208  -7.586  1.00  0.00     0.040 A 
ATOM     46  F   UNL     1       6.598   6.571  -8.993  1.00  0.00    -0.206 F 
ATOM     47  C   UNL     1       8.271   8.560  -6.473  1.00  0.00     0.006 A 
ENDBRANCH  26  40
BRANCH  27  48
ATOM     48  C   UNL     1       5.879  -3.900  -9.013  1.00  0.00     0.057 A 
ATOM     49  C   UNL     1       6.866  -4.888  -9.072  1.00  0.00     0.134 A 
ATOM     50  C   UNL     1       4.553  -4.307  -9.226  1.00  0.00     0.134 A 
ATOM     51  F   UNL     1       8.155  -4.566  -8.892  1.00  0.00    -0.206 F 
ATOM     52  C   UNL     1       6.552  -6.221  -9.351  1.00  0.00     0.040 A 
ATOM     53  C   UNL     1       4.222  -5.640  -9.476  1.00  0.00     0.040 A 
ATOM     54  F   UNL     1       3.552  -3.415  -9.182  1.00  0.00    -0.206 F 
ATOM     55  C   UNL     1       5.226  -6.601  -9.550  1.00  0.00     0.006 A 
ENDBRANCH  27  48
BRANCH  39  56
ATOM     56  C   UNL     1       9.395   1.052 -12.450  1.00  0.00     0.057 A 
ATOM     57  C   UNL     1       8.726   0.997 -13.678  1.00  0.00     0.134 A 
ATOM     58  C   UNL     1      10.792   1.142 -12.466  1.00  0.00     0.134 A 
ATOM     59  F   UNL     1       7.389   0.894 -13.721  1.00  0.00    -0.206 F 
ATOM     60  C   UNL     1       9.426   1.014 -14.882  1.00  0.00     0.040 A 
ATOM     61  C   UNL     1      11.500   1.193 -13.665  1.00  0.00     0.040 A 
ATOM     62  F   UNL     1      11.485   1.208 -11.319  1.00  0.00    -0.206 F 
ATOM     63  C   UNL     1      10.816   1.123 -14.877  1.00  0.00     0.006 A 
ENDBRANCH  39  56
ENDBRANCH  13  14
ENDBRANCH   6   8
ENDBRANCH   5   6
ENDBRANCH   4   5
ENDBRANCH   3   4
ENDBRANCH   2   3
ENDBRANCH   1   2
BRANCH   1  64
ATOM     64  C   UNL     1       2.594  -3.267   0.204  1.00  0.00     0.261 C 
BRANCH  64  65
ATOM     65  O   UNL     1       3.095  -3.684   1.477  1.00  0.00    -0.463 OA
BRANCH  65  66
ATOM     66  C   UNL     1       4.413  -3.448   1.677  1.00  0.00     0.310 C 
ATOM     67  O   UNL     1       5.276  -3.418   0.801  1.00  0.00    -0.252 OA
BRANCH  66  68
ATOM     68  C   UNL     1       4.727  -3.286   3.136  1.00  0.00     0.115 C 
ATOM     69  C   UNL     1       3.877  -2.246   3.925  1.00  0.00     0.004 C 
ATOM     70  C   UNL     1       4.609  -4.678   3.768  1.00  0.00     0.096 C 
ATOM     71  C   UNL     1       2.411  -2.667   4.094  1.00  0.00     0.005 C 
ATOM     72  C   UNL     1       4.496  -2.152   5.328  1.00  0.00     0.005 C 
ATOM     73  C   UNL     1       3.768  -4.561   5.068  1.00  0.00     0.002 C 
ATOM     74  C   UNL     1       2.349  -4.091   4.650  1.00  0.00     0.005 C 
ATOM     75  C   UNL     1       4.335  -3.499   6.036  1.00  0.00     0.005 C 
BRANCH  70  76
ATOM     76  C   UNL     1       6.014  -5.244   3.959  1.00  0.00     0.228 C 
ATOM     77  O   UNL     1       6.828  -4.696   4.707  1.00  0.00    -0.274 OA
ATOM     78  N   UNL     1       6.386  -6.409   3.346  1.00  0.00    -0.326 N 
ATOM     79  H   UNL     1       7.276  -6.744   3.603  1.00  0.00     0.169 HD
BRANCH  78  80
ATOM     80  C   UNL     1       5.706  -7.203   2.414  1.00  0.00     0.041 A 
ATOM     81  C   UNL     1       5.611  -8.563   2.679  1.00  0.00     0.026 A 
ATOM     82  C   UNL     1       5.174  -6.710   1.224  1.00  0.00     0.026 A 
ATOM     83  C   UNL     1       4.870  -9.391   1.833  1.00  0.00     0.006 A 
ATOM     84  C   UNL     1       4.461  -7.541   0.353  1.00  0.00     0.006 A 
ATOM     85  C   UNL     1       4.279  -8.891   0.664  1.00  0.00    -0.043 A 
BRANCH  85  86
ATOM     86  C   UNL     1       3.484  -9.798  -0.251  1.00  0.00     0.071 C 
BRANCH  86  87
ATOM     87  C   UNL     1       4.328 -10.663  -1.158  1.00  0.00    -0.041 A 
ATOM     88  C   UNL     1       5.127 -11.688  -0.641  1.00  0.00     0.024 A 
ATOM     89  C   UNL     1       4.322 -10.473  -2.543  1.00  0.00     0.024 A 
ATOM     90  C   UNL     1       5.893 -12.449  -1.510  1.00  0.00     0.111 A 
ATOM     91  C   UNL     1       5.112 -11.298  -3.332  1.00  0.00     0.111 A 
ATOM     92  N   UNL     1       5.900 -12.280  -2.846  1.00  0.00    -0.265 NA
ENDBRANCH  86  87
ENDBRANCH  85  86
ENDBRANCH  78  80
ENDBRANCH  70  76
ENDBRANCH  66  68
ENDBRANCH  65  66
ENDBRANCH  64  65
ENDBRANCH   1  64
TORSDOF 18
