REMARK SMILES CC(C)OCCS(=O)(=O)N[C@@H]1COC[C@@H]1C(=O)OCCOCCOC(=O)c1ccc(-c2c3nc(c(-c4c(F)cccc4F)c4ccc([nH]4)c(-c4c(F)cccc4F)c4nc(c(-c5c(F)cccc5F)c5ccc2[nH]5)C=C4)C=C3)cc1
REMARK SMILES IDX 19 1 18 2 16 3 17 4 15 5 11 6 12 7 13 8 14 9 10 10 7 12 8 13
REMARK SMILES IDX 9 14 6 15 5 16 4 17 2 18 1 19 3 20 20 21 21 22 22 23 23 24
REMARK SMILES IDX 24 25 25 26 26 27 27 28 28 29 80 30 29 31 79 32 30 33 31 34
REMARK SMILES IDX 32 35 73 36 33 37 78 38 72 39 74 40 34 41 77 42 71 43 70 44
REMARK SMILES IDX 35 46 61 47 44 48 60 49 45 50 48 51 59 52 75 53 46 54 47 55
REMARK SMILES IDX 58 57 76 58 49 59 36 60 37 61 42 62 38 63 39 64 41 65 43 66
REMARK SMILES IDX 40 67 62 68 63 69 68 70 64 71 65 72 67 73 69 74 66 75 50 76
REMARK SMILES IDX 51 77 56 78 52 79 53 80 55 81 57 82 54 83
REMARK H PARENT 10 11 74 45 48 56
REMARK Flexibility Score: inf
ROOT
ATOM      1  C   UNL     1       5.507  -1.064  -0.289  1.00  0.00     0.261 C 
ENDROOT
BRANCH   1   2
ATOM      2  O   UNL     1       4.234  -0.646   0.231  1.00  0.00    -0.463 OA
BRANCH   2   3
ATOM      3  C   UNL     1       3.846   0.633  -0.057  1.00  0.00     0.313 C 
ATOM      4  O   UNL     1       4.538   1.486  -0.589  1.00  0.00    -0.252 OA
BRANCH   3   5
ATOM      5  C   UNL     1       2.405   0.802   0.352  1.00  0.00     0.145 C 
ATOM      6  C   UNL     1       1.647   1.982  -0.219  1.00  0.00     0.112 C 
ATOM      7  C   UNL     1       2.247   3.138   0.569  1.00  0.00     0.181 C 
ATOM      8  O   UNL     1       2.477   2.615   1.894  1.00  0.00    -0.379 OA
ATOM      9  C   UNL     1       2.401   1.176   1.828  1.00  0.00     0.177 C 
BRANCH   6  10
ATOM     10  N   UNL     1       1.535   2.232  -1.676  1.00  0.00    -0.209 NA
ATOM     11  H   UNL     1       1.054   3.127  -1.768  1.00  0.00     0.141 HD
BRANCH  10  12
ATOM     12  S   UNL     1       0.770   1.192  -2.736  1.00  0.00     0.214 S 
ATOM     13  O   UNL     1       0.880  -0.129  -2.167  1.00  0.00    -0.212 OA
ATOM     14  O   UNL     1       1.394   1.484  -4.009  1.00  0.00    -0.212 OA
BRANCH  12  15
ATOM     15  C   UNL     1      -0.977   1.595  -2.932  1.00  0.00     0.182 C 
BRANCH  15  16
ATOM     16  C   UNL     1      -1.912   0.494  -2.426  1.00  0.00     0.178 C 
BRANCH  16  17
ATOM     17  O   UNL     1      -2.761   0.838  -1.331  1.00  0.00    -0.378 OA
BRANCH  17  18
ATOM     18  C   UNL     1      -2.199   1.029  -0.034  1.00  0.00     0.112 C 
ATOM     19  C   UNL     1      -1.205  -0.048   0.394  1.00  0.00     0.038 C 
ATOM     20  C   UNL     1      -1.731   2.473   0.102  1.00  0.00     0.038 C 
ENDBRANCH  17  18
ENDBRANCH  16  17
ENDBRANCH  15  16
ENDBRANCH  12  15
ENDBRANCH  10  12
ENDBRANCH   6  10
ENDBRANCH   3   5
ENDBRANCH   2   3
ENDBRANCH   1   2
BRANCH   1  21
ATOM     21  C   UNL     1       5.349  -1.815  -1.616  1.00  0.00     0.202 C 
BRANCH  21  22
ATOM     22  O   UNL     1       4.951  -1.020  -2.733  1.00  0.00    -0.374 OA
BRANCH  22  23
ATOM     23  C   UNL     1       3.544  -0.810  -2.854  1.00  0.00     0.202 C 
BRANCH  23  24
ATOM     24  C   UNL     1       2.802  -1.774  -3.784  1.00  0.00     0.261 C 
BRANCH  24  25
ATOM     25  O   UNL     1       2.845  -3.091  -3.236  1.00  0.00    -0.460 OA
BRANCH  25  26
ATOM     26  C   UNL     1       3.785  -3.870  -3.809  1.00  0.00     0.338 C 
ATOM     27  O   UNL     1       4.440  -3.661  -4.807  1.00  0.00    -0.246 OA
BRANCH  26  28
ATOM     28  C   UNL     1       4.049  -4.972  -2.882  1.00  0.00     0.060 A 
ATOM     29  C   UNL     1       5.390  -5.214  -2.573  1.00  0.00     0.016 A 
ATOM     30  C   UNL     1       3.014  -5.743  -2.346  1.00  0.00     0.016 A 
ATOM     31  C   UNL     1       5.713  -6.299  -1.783  1.00  0.00     0.010 A 
ATOM     32  C   UNL     1       3.338  -6.834  -1.553  1.00  0.00     0.010 A 
ATOM     33  C   UNL     1       4.690  -7.138  -1.326  1.00  0.00    -0.014 A 
BRANCH  33  34
ATOM     34  C   UNL     1       5.067  -8.455  -0.797  1.00  0.00     0.031 A 
ATOM     35  C   UNL     1       4.969  -9.632  -1.720  1.00  0.00     0.074 A 
ATOM     36  C   UNL     1       5.558  -8.546   0.448  1.00  0.00     0.049 A 
ATOM     37  N   UNL     1       5.256 -10.885  -1.493  1.00  0.00    -0.248 NA
ATOM     38  C   UNL     1       4.479  -9.365  -3.086  1.00  0.00     0.031 C 
ATOM     39  C   UNL     1       5.717  -7.426   1.376  1.00  0.00     0.029 A 
ATOM     40  N   UNL     1       6.021  -9.629   1.138  1.00  0.00    -0.354 N 
ATOM     41  C   UNL     1       4.982 -11.550  -2.682  1.00  0.00     0.074 A 
ATOM     42  C   UNL     1       4.462 -10.578  -3.614  1.00  0.00     0.031 C 
ATOM     43  C   UNL     1       6.246  -7.884   2.522  1.00  0.00     0.029 A 
ATOM     44  C   UNL     1       6.425  -9.328   2.414  1.00  0.00     0.049 A 
ATOM     45  H   UNL     1       6.061 -10.536   0.758  1.00  0.00     0.167 HD
ATOM     46  C   UNL     1       5.170 -12.858  -2.964  1.00  0.00     0.037 A 
ATOM     47  C   UNL     1       6.867 -10.149   3.382  1.00  0.00     0.037 A 
ATOM     48  C   UNL     1       5.693 -13.796  -2.009  1.00  0.00     0.049 A 
ATOM     49  C   UNL     1       6.996 -11.613   3.059  1.00  0.00     0.074 A 
ATOM     50  C   UNL     1       5.928 -15.149  -2.166  1.00  0.00     0.029 A 
ATOM     51  N   UNL     1       6.061 -13.468  -0.711  1.00  0.00    -0.354 N 
ATOM     52  N   UNL     1       6.750 -12.237   1.931  1.00  0.00    -0.248 NA
ATOM     53  C   UNL     1       7.469 -12.486   4.139  1.00  0.00     0.031 C 
ATOM     54  C   UNL     1       6.388 -15.649  -0.944  1.00  0.00     0.029 A 
ATOM     55  C   UNL     1       6.502 -14.597  -0.047  1.00  0.00     0.049 A 
ATOM     56  H   UNL     1       6.015 -12.565  -0.322  1.00  0.00     0.167 HD
ATOM     57  C   UNL     1       7.069 -13.569   2.153  1.00  0.00     0.074 A 
ATOM     58  C   UNL     1       7.545 -13.655   3.520  1.00  0.00     0.031 C 
ATOM     59  C   UNL     1       6.979 -14.630   1.313  1.00  0.00     0.037 A 
BRANCH  46  60
ATOM     60  C   UNL     1       4.792 -13.342  -4.333  1.00  0.00     0.057 A 
ATOM     61  C   UNL     1       5.521 -12.983  -5.475  1.00  0.00     0.134 A 
ATOM     62  C   UNL     1       3.704 -14.206  -4.509  1.00  0.00     0.134 A 
ATOM     63  F   UNL     1       6.560 -12.139  -5.382  1.00  0.00    -0.206 F 
ATOM     64  C   UNL     1       5.174 -13.456  -6.742  1.00  0.00     0.040 A 
ATOM     65  C   UNL     1       3.365 -14.708  -5.766  1.00  0.00     0.040 A 
ATOM     66  F   UNL     1       2.959 -14.585  -3.459  1.00  0.00    -0.206 F 
ATOM     67  C   UNL     1       4.099 -14.330  -6.888  1.00  0.00     0.006 A 
ENDBRANCH  46  60
BRANCH  47  68
ATOM     68  C   UNL     1       7.195  -9.616   4.728  1.00  0.00     0.057 A 
ATOM     69  C   UNL     1       8.501  -9.655   5.229  1.00  0.00     0.134 A 
ATOM     70  C   UNL     1       6.204  -9.076   5.558  1.00  0.00     0.134 A 
ATOM     71  F   UNL     1       9.494 -10.166   4.488  1.00  0.00    -0.206 F 
ATOM     72  C   UNL     1       8.803  -9.211   6.518  1.00  0.00     0.040 A 
ATOM     73  C   UNL     1       6.497  -8.600   6.836  1.00  0.00     0.040 A 
ATOM     74  F   UNL     1       4.934  -8.995   5.134  1.00  0.00    -0.206 F 
ATOM     75  C   UNL     1       7.799  -8.679   7.325  1.00  0.00     0.006 A 
ENDBRANCH  47  68
BRANCH  59  76
ATOM     76  C   UNL     1       7.449 -15.952   1.842  1.00  0.00     0.057 A 
ATOM     77  C   UNL     1       6.737 -16.654   2.821  1.00  0.00     0.134 A 
ATOM     78  C   UNL     1       8.612 -16.544   1.333  1.00  0.00     0.134 A 
ATOM     79  F   UNL     1       5.621 -16.134   3.356  1.00  0.00    -0.206 F 
ATOM     80  C   UNL     1       7.183 -17.886   3.301  1.00  0.00     0.040 A 
ATOM     81  C   UNL     1       9.049 -17.791   1.778  1.00  0.00     0.040 A 
ATOM     82  F   UNL     1       9.332 -15.929   0.383  1.00  0.00    -0.206 F 
ATOM     83  C   UNL     1       8.338 -18.460   2.773  1.00  0.00     0.006 A 
ENDBRANCH  59  76
ENDBRANCH  33  34
ENDBRANCH  26  28
ENDBRANCH  25  26
ENDBRANCH  24  25
ENDBRANCH  23  24
ENDBRANCH  22  23
ENDBRANCH  21  22
ENDBRANCH   1  21
TORSDOF 20
