REMARK SMILES CCCCc1nc(C[N@H+]2CC[NH2+][C@H](C(=O)OCCOCCOC(=O)c3ccc(-c4c5nc(c(-c6c(F)cccc6F)c6ccc([nH]6)c(-c6c(F)cccc6F)c6nc(c(-c7c(F)cccc7F)c7ccc4[nH]7)C=C6)C=C5)cc3)C2)c(Cl)[nH]1
REMARK SMILES IDX 17 1 16 2 14 3 15 4 13 5 9 6 10 7 79 8 11 10 12 11 8 14 7 15
REMARK SMILES IDX 5 16 6 17 82 18 80 19 81 21 4 22 3 23 2 24 1 25 18 26 19 27
REMARK SMILES IDX 20 28 21 29 22 30 23 31 24 32 25 33 26 34 78 35 27 36 77 37
REMARK SMILES IDX 28 38 29 39 30 40 71 41 31 42 76 43 70 44 72 45 32 46 75 47
REMARK SMILES IDX 69 48 68 49 33 51 59 52 42 53 58 54 43 55 46 56 57 57 73 58
REMARK SMILES IDX 44 59 45 60 56 62 74 63 47 64 34 65 35 66 40 67 36 68 37 69
REMARK SMILES IDX 39 70 41 71 38 72 60 73 61 74 66 75 62 76 63 77 65 78 67 79
REMARK SMILES IDX 64 80 48 81 49 82 54 83 50 84 51 85 53 86 55 87 52 88
REMARK H PARENT 9 9 12 12 12 13 82 20 72 50 46 61
REMARK Flexibility Score: inf
ROOT
ATOM      1  C   UNL     1       1.520  -2.095  -3.999  1.00  0.00     0.261 C 
ENDROOT
BRANCH   1   2
ATOM      2  O   UNL     1       0.485  -1.099  -3.907  1.00  0.00    -0.459 OA
BRANCH   2   3
ATOM      3  C   UNL     1      -0.798  -1.547  -3.759  1.00  0.00     0.371 C 
ATOM      4  O   UNL     1      -1.138  -2.721  -3.826  1.00  0.00    -0.245 OA
BRANCH   3   5
ATOM      5  C   UNL     1      -1.750  -0.377  -3.441  1.00  0.00     0.348 C 
ATOM      6  N   UNL     1      -4.118   0.033  -2.549  1.00  0.00    -0.320 N 
ATOM      7  C   UNL     1      -4.340   0.827  -3.758  1.00  0.00     0.324 C 
ATOM      8  C   UNL     1      -3.007  -0.916  -2.706  1.00  0.00     0.341 C 
ATOM      9  H   UNL     1      -4.955  -0.543  -2.461  1.00  0.00     0.348 HD
ATOM     10  C   UNL     1      -3.058   1.404  -4.397  1.00  0.00     0.323 C 
ATOM     11  N   UNL     1      -2.046   0.376  -4.690  1.00  0.00    -0.325 N 
ATOM     12  H   UNL     1      -1.195   0.822  -5.031  1.00  0.00     0.347 HD
ATOM     13  H   UNL     1      -2.398  -0.262  -5.403  1.00  0.00     0.347 HD
BRANCH   6  14
ATOM     14  C   UNL     1      -4.200   0.739  -1.264  1.00  0.00     0.323 C 
BRANCH  14  15
ATOM     15  C   UNL     1      -3.263   1.889  -1.058  1.00  0.00     0.132 A 
ATOM     16  C   UNL     1      -1.450   2.942  -0.465  1.00  0.00     0.107 A 
ATOM     17  N   UNL     1      -1.970   1.727  -0.573  1.00  0.00    -0.231 NA
ATOM     18  N   UNL     1      -2.371   3.888  -0.853  1.00  0.00    -0.333 N 
ATOM     19  C   UNL     1      -3.499   3.231  -1.224  1.00  0.00     0.135 A 
ATOM     20  H   UNL     1      -2.237   4.863  -0.860  1.00  0.00     0.169 HD
ATOM     21  Cl  UNL     1      -4.811   4.141  -1.784  1.00  0.00    -0.062 Cl
BRANCH  16  22
ATOM     22  C   UNL     1      -0.015   3.311  -0.277  1.00  0.00     0.075 C 
BRANCH  22  23
ATOM     23  C   UNL     1       0.746   2.937   0.999  1.00  0.00     0.008 C 
BRANCH  23  24
ATOM     24  C   UNL     1       0.422   1.602   1.679  1.00  0.00    -0.003 C 
ATOM     25  C   UNL     1       1.660   0.824   2.135  1.00  0.00     0.004 C 
ENDBRANCH  23  24
ENDBRANCH  22  23
ENDBRANCH  16  22
ENDBRANCH  14  15
ENDBRANCH   6  14
ENDBRANCH   3   5
ENDBRANCH   2   3
ENDBRANCH   1   2
BRANCH   1  26
ATOM     26  C   UNL     1       2.532  -2.040  -2.844  1.00  0.00     0.202 C 
BRANCH  26  27
ATOM     27  O   UNL     1       2.043  -2.094  -1.511  1.00  0.00    -0.374 OA
BRANCH  27  28
ATOM     28  C   UNL     1       1.065  -1.150  -1.126  1.00  0.00     0.202 C 
BRANCH  28  29
ATOM     29  C   UNL     1       1.287   0.342  -1.386  1.00  0.00     0.261 C 
BRANCH  29  30
ATOM     30  O   UNL     1       1.986   0.809  -2.539  1.00  0.00    -0.460 OA
BRANCH  30  31
ATOM     31  C   UNL     1       3.228   1.256  -2.212  1.00  0.00     0.338 C 
ATOM     32  O   UNL     1       4.059   0.625  -1.585  1.00  0.00    -0.246 OA
BRANCH  31  33
ATOM     33  C   UNL     1       3.367   2.710  -2.454  1.00  0.00     0.060 A 
ATOM     34  C   UNL     1       4.604   3.286  -2.154  1.00  0.00     0.016 A 
ATOM     35  C   UNL     1       2.263   3.521  -2.741  1.00  0.00     0.016 A 
ATOM     36  C   UNL     1       4.706   4.664  -2.030  1.00  0.00     0.010 A 
ATOM     37  C   UNL     1       2.344   4.894  -2.539  1.00  0.00     0.010 A 
ATOM     38  C   UNL     1       3.562   5.461  -2.165  1.00  0.00    -0.014 A 
BRANCH  38  39
ATOM     39  C   UNL     1       3.751   6.905  -2.267  1.00  0.00     0.031 A 
ATOM     40  C   UNL     1       4.313   7.273  -3.594  1.00  0.00     0.074 A 
ATOM     41  C   UNL     1       3.382   7.837  -1.365  1.00  0.00     0.049 A 
ATOM     42  N   UNL     1       5.501   7.716  -3.839  1.00  0.00    -0.248 NA
ATOM     43  C   UNL     1       3.544   6.922  -4.801  1.00  0.00     0.031 C 
ATOM     44  C   UNL     1       2.603   7.659  -0.141  1.00  0.00     0.029 A 
ATOM     45  N   UNL     1       3.569   9.191  -1.408  1.00  0.00    -0.354 N 
ATOM     46  C   UNL     1       5.551   7.900  -5.217  1.00  0.00     0.074 A 
ATOM     47  C   UNL     1       4.423   7.198  -5.763  1.00  0.00     0.031 C 
ATOM     48  C   UNL     1       2.198   8.871   0.311  1.00  0.00     0.029 A 
ATOM     49  C   UNL     1       2.776   9.915  -0.521  1.00  0.00     0.049 A 
ATOM     50  H   UNL     1       4.213   9.619  -2.017  1.00  0.00     0.167 HD
ATOM     51  C   UNL     1       6.343   8.864  -5.757  1.00  0.00     0.037 A 
ATOM     52  C   UNL     1       2.575  11.262  -0.515  1.00  0.00     0.037 A 
ATOM     53  C   UNL     1       7.379   9.258  -4.833  1.00  0.00     0.049 A 
ATOM     54  C   UNL     1       3.684  11.888  -1.280  1.00  0.00     0.074 A 
ATOM     55  C   UNL     1       8.368   8.586  -4.138  1.00  0.00     0.029 A 
ATOM     56  N   UNL     1       7.253  10.476  -4.210  1.00  0.00    -0.354 N 
ATOM     57  N   UNL     1       4.910  11.956  -0.848  1.00  0.00    -0.248 NA
ATOM     58  C   UNL     1       3.519  12.027  -2.719  1.00  0.00     0.031 C 
ATOM     59  C   UNL     1       8.416   9.218  -2.861  1.00  0.00     0.029 A 
ATOM     60  C   UNL     1       7.520  10.285  -2.881  1.00  0.00     0.049 A 
ATOM     61  H   UNL     1       7.015  11.329  -4.641  1.00  0.00     0.167 HD
ATOM     62  C   UNL     1       5.682  11.664  -1.960  1.00  0.00     0.074 A 
ATOM     63  C   UNL     1       4.779  11.803  -3.102  1.00  0.00     0.031 C 
ATOM     64  C   UNL     1       6.893  11.048  -1.832  1.00  0.00     0.037 A 
BRANCH  51  65
ATOM     65  C   UNL     1       5.900   9.752  -6.900  1.00  0.00     0.057 A 
ATOM     66  C   UNL     1       6.809  10.700  -7.403  1.00  0.00     0.134 A 
ATOM     67  C   UNL     1       4.559   9.943  -7.300  1.00  0.00     0.134 A 
ATOM     68  F   UNL     1       8.114  10.632  -7.099  1.00  0.00    -0.206 F 
ATOM     69  C   UNL     1       6.397  11.815  -8.142  1.00  0.00     0.040 A 
ATOM     70  C   UNL     1       4.147  11.023  -8.083  1.00  0.00     0.040 A 
ATOM     71  F   UNL     1       3.554   9.169  -6.880  1.00  0.00    -0.206 F 
ATOM     72  C   UNL     1       5.060  11.986  -8.472  1.00  0.00     0.006 A 
ENDBRANCH  51  65
BRANCH  52  73
ATOM     73  C   UNL     1       1.373  12.048  -0.129  1.00  0.00     0.057 A 
ATOM     74  C   UNL     1       1.425  13.447   0.016  1.00  0.00     0.134 A 
ATOM     75  C   UNL     1       0.084  11.491  -0.172  1.00  0.00     0.134 A 
ATOM     76  F   UNL     1       2.602  14.090   0.027  1.00  0.00    -0.206 F 
ATOM     77  C   UNL     1       0.269  14.240   0.081  1.00  0.00     0.040 A 
ATOM     78  C   UNL     1      -1.077  12.271  -0.100  1.00  0.00     0.040 A 
ATOM     79  F   UNL     1      -0.097  10.179  -0.379  1.00  0.00    -0.206 F 
ATOM     80  C   UNL     1      -0.989  13.652   0.011  1.00  0.00     0.006 A 
ENDBRANCH  52  73
BRANCH  64  81
ATOM     81  C   UNL     1       7.505  10.951  -0.465  1.00  0.00     0.057 A 
ATOM     82  C   UNL     1       6.922  10.286   0.625  1.00  0.00     0.134 A 
ATOM     83  C   UNL     1       8.812  11.424  -0.293  1.00  0.00     0.134 A 
ATOM     84  F   UNL     1       5.716   9.709   0.526  1.00  0.00    -0.206 F 
ATOM     85  C   UNL     1       7.595  10.141   1.842  1.00  0.00     0.040 A 
ATOM     86  C   UNL     1       9.508  11.252   0.904  1.00  0.00     0.040 A 
ATOM     87  F   UNL     1       9.453  12.024  -1.308  1.00  0.00    -0.206 F 
ATOM     88  C   UNL     1       8.896  10.618   1.981  1.00  0.00     0.006 A 
ENDBRANCH  64  81
ENDBRANCH  38  39
ENDBRANCH  31  33
ENDBRANCH  30  31
ENDBRANCH  29  30
ENDBRANCH  28  29
ENDBRANCH  27  28
ENDBRANCH  26  27
ENDBRANCH   1  26
TORSDOF 19
