REMARK SMILES NS(=O)(=O)c1ccc(-n2nc(C(=O)NCCCCCCCCCCC(=O)OCCOCCOC(=O)c3ccc(-c4c5nc(c(-c6c(F)cccc6F)c6ccc([nH]6)c(-c6c(F)cccc6F)c6nc(c(-c7c(F)cccc7F)c7ccc4[nH]7)C=C6)C=C5)cc3)cc2-c2ccccc2)cc1
REMARK SMILES IDX 23 1 22 2 21 3 20 4 19 5 18 6 17 7 16 8 15 9 14 10 12 11
REMARK SMILES IDX 13 12 11 14 9 15 10 16 91 17 90 18 8 19 5 20 6 21 99 22 7 23
REMARK SMILES IDX 98 24 2 25 3 26 4 27 1 28 92 31 93 32 97 33 94 34 96 35
REMARK SMILES IDX 95 36 24 37 25 38 26 39 27 40 28 41 29 42 30 43 31 44 32 45
REMARK SMILES IDX 33 46 34 47 35 48 36 49 37 50 89 51 38 52 88 53 39 54 40 55
REMARK SMILES IDX 41 56 82 57 42 58 87 59 81 60 83 61 43 62 86 63 80 64 79 65
REMARK SMILES IDX 44 67 70 68 53 69 69 70 54 71 57 72 68 73 84 74 55 75 56 76
REMARK SMILES IDX 67 78 85 79 58 80 45 81 46 82 51 83 47 84 48 85 50 86 52 87
REMARK SMILES IDX 49 88 71 89 72 90 77 91 73 92 74 93 76 94 78 95 75 96 59 97
REMARK SMILES IDX 60 98 65 99 61 100 62 101 64 102 66 103 63 104
REMARK H PARENT 14 13 1 29 1 30 83 66 57 77
REMARK Flexibility Score: inf
ROOT
ATOM      1  C   UNL     1       5.933 -17.308  -2.042  1.00  0.00     0.012 C 
ENDROOT
BRANCH   1   2
ATOM      2  C   UNL     1       6.157 -16.862  -0.596  1.00  0.00     0.001 C 
BRANCH   2   3
ATOM      3  C   UNL     1       6.943 -15.560  -0.473  1.00  0.00     0.000 C 
BRANCH   3   4
ATOM      4  C   UNL     1       6.143 -14.358  -0.975  1.00  0.00     0.000 C 
BRANCH   4   5
ATOM      5  C   UNL     1       4.863 -14.124  -0.166  1.00  0.00     0.000 C 
BRANCH   5   6
ATOM      6  C   UNL     1       5.137 -13.925   1.329  1.00  0.00     0.000 C 
BRANCH   6   7
ATOM      7  C   UNL     1       5.977 -12.675   1.626  1.00  0.00     0.002 C 
BRANCH   7   8
ATOM      8  C   UNL     1       5.354 -11.391   1.071  1.00  0.00     0.021 C 
BRANCH   8   9
ATOM      9  C   UNL     1       3.985 -11.134   1.695  1.00  0.00     0.116 C 
BRANCH   9  10
ATOM     10  N   UNL     1       4.142 -10.374   2.909  1.00  0.00    -0.351 N 
ATOM     11  C   UNL     1       3.992  -9.040   3.190  1.00  0.00     0.271 C 
ATOM     12  O   UNL     1       4.317  -8.700   4.331  1.00  0.00    -0.267 OA
ATOM     13  H   UNL     1       4.408 -10.917   3.686  1.00  0.00     0.163 HD
BRANCH  11  14
ATOM     14  C   UNL     1       3.417  -8.095   2.211  1.00  0.00     0.151 A 
ATOM     15  N   UNL     1       2.404  -6.303   1.587  1.00  0.00    -0.232 N 
ATOM     16  N   UNL     1       3.103  -6.846   2.604  1.00  0.00    -0.162 NA
ATOM     17  C   UNL     1       2.364  -7.128   0.481  1.00  0.00     0.075 A 
ATOM     18  C   UNL     1       3.112  -8.230   0.836  1.00  0.00     0.065 A 
BRANCH  15  19
ATOM     19  C   UNL     1       1.875  -5.001   1.710  1.00  0.00     0.065 A 
ATOM     20  C   UNL     1       0.985  -2.384   1.712  1.00  0.00     0.082 A 
ATOM     21  C   UNL     1       0.140  -3.394   1.245  1.00  0.00     0.024 A 
ATOM     22  C   UNL     1       2.249  -2.680   2.235  1.00  0.00     0.024 A 
ATOM     23  C   UNL     1       0.594  -4.709   1.227  1.00  0.00     0.030 A 
ATOM     24  C   UNL     1       2.688  -4.001   2.258  1.00  0.00     0.030 A 
BRANCH  20  25
ATOM     25  S   UNL     1       0.458  -0.699   1.659  1.00  0.00     0.238 S 
ATOM     26  O   UNL     1       1.093   0.036   2.715  1.00  0.00    -0.207 OA
ATOM     27  O   UNL     1      -0.975  -0.656   1.425  1.00  0.00    -0.207 OA
BRANCH  25  28
ATOM     28  N   UNL     1       1.164  -0.175   0.227  1.00  0.00    -0.225 NA
ATOM     29  H   UNL     1       0.933   0.806   0.073  1.00  0.00     0.137 HD
ATOM     30  H   UNL     1       0.811  -0.734  -0.550  1.00  0.00     0.137 HD
ENDBRANCH  25  28
ENDBRANCH  20  25
ENDBRANCH  15  19
BRANCH  17  31
ATOM     31  C   UNL     1       1.804  -6.821  -0.829  1.00  0.00     0.000 A 
ATOM     32  C   UNL     1       2.313  -5.765  -1.593  1.00  0.00     0.010 A 
ATOM     33  C   UNL     1       0.781  -7.621  -1.353  1.00  0.00     0.010 A 
ATOM     34  C   UNL     1       1.795  -5.504  -2.861  1.00  0.00     0.001 A 
ATOM     35  C   UNL     1       0.264  -7.357  -2.622  1.00  0.00     0.001 A 
ATOM     36  C   UNL     1       0.772  -6.300  -3.374  1.00  0.00     0.000 A 
ENDBRANCH  17  31
ENDBRANCH  11  14
ENDBRANCH   9  10
ENDBRANCH   8   9
ENDBRANCH   7   8
ENDBRANCH   6   7
ENDBRANCH   5   6
ENDBRANCH   4   5
ENDBRANCH   3   4
ENDBRANCH   2   3
ENDBRANCH   1   2
BRANCH   1  37
ATOM     37  C   UNL     1       7.181 -17.346  -2.935  1.00  0.00     0.123 C 
BRANCH  37  38
ATOM     38  C   UNL     1       8.303 -18.294  -2.557  1.00  0.00     0.305 C 
ATOM     39  O   UNL     1       9.157 -18.655  -3.356  1.00  0.00    -0.252 OA
BRANCH  38  40
ATOM     40  O   UNL     1       8.229 -18.698  -1.269  1.00  0.00    -0.463 OA
BRANCH  40  41
ATOM     41  C   UNL     1       9.076 -19.784  -0.861  1.00  0.00     0.261 C 
BRANCH  41  42
ATOM     42  C   UNL     1       8.216 -20.996  -0.506  1.00  0.00     0.202 C 
BRANCH  42  43
ATOM     43  O   UNL     1       7.595 -21.677  -1.599  1.00  0.00    -0.374 OA
BRANCH  43  44
ATOM     44  C   UNL     1       6.457 -21.090  -2.224  1.00  0.00     0.202 C 
BRANCH  44  45
ATOM     45  C   UNL     1       5.119 -21.258  -1.517  1.00  0.00     0.261 C 
BRANCH  45  46
ATOM     46  O   UNL     1       5.125 -20.596  -0.261  1.00  0.00    -0.460 OA
BRANCH  46  47
ATOM     47  C   UNL     1       5.409 -21.390   0.797  1.00  0.00     0.338 C 
ATOM     48  O   UNL     1       5.729 -22.564   0.781  1.00  0.00    -0.246 OA
BRANCH  47  49
ATOM     49  C   UNL     1       5.116 -20.628   2.017  1.00  0.00     0.060 A 
ATOM     50  C   UNL     1       4.929 -21.399   3.162  1.00  0.00     0.016 A 
ATOM     51  C   UNL     1       4.631 -19.317   1.907  1.00  0.00     0.016 A 
ATOM     52  C   UNL     1       3.958 -20.994   4.039  1.00  0.00     0.010 A 
ATOM     53  C   UNL     1       3.654 -18.916   2.775  1.00  0.00     0.010 A 
ATOM     54  C   UNL     1       3.252 -19.823   3.747  1.00  0.00    -0.014 A 
BRANCH  54  55
ATOM     55  C   UNL     1       2.070 -19.545   4.520  1.00  0.00     0.031 A 
ATOM     56  C   UNL     1       2.394 -19.001   5.848  1.00  0.00     0.074 A 
ATOM     57  C   UNL     1       0.837 -19.687   4.006  1.00  0.00     0.049 A 
ATOM     58  N   UNL     1       2.294 -19.596   6.988  1.00  0.00    -0.248 NA
ATOM     59  C   UNL     1       3.139 -17.733   5.885  1.00  0.00     0.031 C 
ATOM     60  C   UNL     1       0.439 -19.934   2.617  1.00  0.00     0.029 A 
ATOM     61  N   UNL     1      -0.350 -19.518   4.641  1.00  0.00    -0.354 N 
ATOM     62  C   UNL     1       2.764 -18.674   7.915  1.00  0.00     0.074 A 
ATOM     63  C   UNL     1       3.492 -17.687   7.168  1.00  0.00     0.031 C 
ATOM     64  C   UNL     1      -0.879 -19.658   2.481  1.00  0.00     0.029 A 
ATOM     65  C   UNL     1      -1.430 -19.340   3.786  1.00  0.00     0.049 A 
ATOM     66  H   UNL     1      -0.437 -19.521   5.621  1.00  0.00     0.167 HD
ATOM     67  C   UNL     1       2.251 -18.631   9.173  1.00  0.00     0.037 A 
ATOM     68  C   UNL     1      -2.628 -18.832   4.172  1.00  0.00     0.037 A 
ATOM     69  C   UNL     1       1.584 -19.871   9.497  1.00  0.00     0.049 A 
ATOM     70  C   UNL     1      -2.703 -18.973   5.657  1.00  0.00     0.074 A 
ATOM     71  C   UNL     1       1.973 -21.198   9.541  1.00  0.00     0.029 A 
ATOM     72  N   UNL     1       0.209 -19.891   9.459  1.00  0.00    -0.354 N 
ATOM     73  N   UNL     1      -2.787 -20.123   6.272  1.00  0.00    -0.248 NA
ATOM     74  C   UNL     1      -2.172 -17.877   6.461  1.00  0.00     0.031 C 
ATOM     75  C   UNL     1       0.859 -21.928   9.032  1.00  0.00     0.029 A 
ATOM     76  C   UNL     1      -0.164 -21.016   8.769  1.00  0.00     0.049 A 
ATOM     77  H   UNL     1      -0.396 -19.222   9.854  1.00  0.00     0.167 HD
ATOM     78  C   UNL     1      -1.953 -20.002   7.377  1.00  0.00     0.074 A 
ATOM     79  C   UNL     1      -1.646 -18.576   7.471  1.00  0.00     0.031 C 
ATOM     80  C   UNL     1      -1.342 -21.089   7.937  1.00  0.00     0.037 A 
BRANCH  67  81
ATOM     81  C   UNL     1       1.980 -17.341   9.917  1.00  0.00     0.057 A 
ATOM     82  C   UNL     1       1.451 -17.423  11.217  1.00  0.00     0.134 A 
ATOM     83  C   UNL     1       1.926 -16.055   9.337  1.00  0.00     0.134 A 
ATOM     84  F   UNL     1       1.458 -18.583  11.892  1.00  0.00    -0.206 F 
ATOM     85  C   UNL     1       0.809 -16.345  11.836  1.00  0.00     0.040 A 
ATOM     86  C   UNL     1       1.333 -14.960   9.968  1.00  0.00     0.040 A 
ATOM     87  F   UNL     1       2.353 -15.785   8.100  1.00  0.00    -0.206 F 
ATOM     88  C   UNL     1       0.733 -15.112  11.204  1.00  0.00     0.006 A 
ENDBRANCH  67  81
BRANCH  68  89
ATOM     89  C   UNL     1      -3.502 -17.909   3.410  1.00  0.00     0.057 A 
ATOM     90  C   UNL     1      -4.819 -17.656   3.821  1.00  0.00     0.134 A 
ATOM     91  C   UNL     1      -2.996 -17.052   2.415  1.00  0.00     0.134 A 
ATOM     92  F   UNL     1      -5.378 -18.385   4.797  1.00  0.00    -0.206 F 
ATOM     93  C   UNL     1      -5.579 -16.606   3.285  1.00  0.00     0.040 A 
ATOM     94  C   UNL     1      -3.747 -16.008   1.865  1.00  0.00     0.040 A 
ATOM     95  F   UNL     1      -1.724 -17.139   2.001  1.00  0.00    -0.206 F 
ATOM     96  C   UNL     1      -5.040 -15.773   2.309  1.00  0.00     0.006 A 
ENDBRANCH  68  89
BRANCH  80  97
ATOM     97  C   UNL     1      -1.747 -22.459   7.469  1.00  0.00     0.057 A 
ATOM     98  C   UNL     1      -1.561 -22.922   6.157  1.00  0.00     0.134 A 
ATOM     99  C   UNL     1      -2.158 -23.400   8.418  1.00  0.00     0.134 A 
ATOM    100  F   UNL     1      -1.070 -22.120   5.203  1.00  0.00    -0.206 F 
ATOM    101  C   UNL     1      -1.808 -24.252   5.802  1.00  0.00     0.040 A 
ATOM    102  C   UNL     1      -2.376 -24.739   8.085  1.00  0.00     0.040 A 
ATOM    103  F   UNL     1      -2.300 -23.044   9.705  1.00  0.00    -0.206 F 
ATOM    104  C   UNL     1      -2.208 -25.167   6.771  1.00  0.00     0.006 A 
ENDBRANCH  80  97
ENDBRANCH  54  55
ENDBRANCH  47  49
ENDBRANCH  46  47
ENDBRANCH  45  46
ENDBRANCH  44  45
ENDBRANCH  43  44
ENDBRANCH  42  43
ENDBRANCH  41  42
ENDBRANCH  40  41
ENDBRANCH  38  40
ENDBRANCH  37  38
ENDBRANCH   1  37
TORSDOF 29
