REMARK SMILES C#CCN(CC(=O)OCCOCCOC(=O)c1ccc(-c2c3nc(c(-c4c(F)cccc4F)c4ccc([nH]4)c(-c4c(F)cccc4F)c4nc(c(-c5c(F)cccc5F)c5ccc2[nH]5)C=C4)C=C3)cc1)C(=O)[C@H](c1ccc(Cl)cc1)C(C)C
REMARK SMILES IDX 10 1 9 2 8 3 6 4 7 5 5 6 4 7 3 8 2 9 1 10 71 11 72 12 73 13
REMARK SMILES IDX 81 14 82 15 83 16 74 17 75 18 80 19 76 20 79 21 77 22 78 23
REMARK SMILES IDX 11 24 12 25 13 26 14 27 15 28 16 29 17 30 18 31 70 32 19 33
REMARK SMILES IDX 69 34 20 35 21 36 22 37 63 38 23 39 68 40 62 41 64 42 24 43
REMARK SMILES IDX 67 44 61 45 60 46 25 48 51 49 34 50 50 51 35 52 38 53 49 54
REMARK SMILES IDX 65 55 36 56 37 57 48 59 66 60 39 61 26 62 27 63 32 64 28 65
REMARK SMILES IDX 29 66 31 67 33 68 30 69 52 70 53 71 58 72 54 73 55 74 57 75
REMARK SMILES IDX 59 76 56 77 40 78 41 79 46 80 42 81 43 82 45 83 47 84 44 85
REMARK H PARENT 64 47 38 58
REMARK Flexibility Score: inf
ROOT
ATOM      1  C   UNL     1       1.635   4.011  -2.067  1.00  0.00     0.202 C 
ENDROOT
BRANCH   1   2
ATOM      2  C   UNL     1       1.739   2.560  -1.590  1.00  0.00     0.261 C 
BRANCH   2   3
ATOM      3  O   UNL     1       0.887   1.675  -2.353  1.00  0.00    -0.462 OA
BRANCH   3   4
ATOM      4  C   UNL     1       0.555   0.538  -1.686  1.00  0.00     0.325 C 
ATOM      5  O   UNL     1       1.018   0.228  -0.592  1.00  0.00    -0.250 OA
BRANCH   4   6
ATOM      6  C   UNL     1      -0.367  -0.405  -2.458  1.00  0.00     0.243 C 
BRANCH   6   7
ATOM      7  N   UNL     1      -1.077  -0.015  -3.682  1.00  0.00    -0.320 N 
BRANCH   7   8
ATOM      8  C   UNL     1      -0.525  -0.621  -4.937  1.00  0.00     0.210 C 
BRANCH   8   9
ATOM      9  C   UNL     1      -1.645  -1.346  -5.665  1.00  0.00    -0.085 C 
ATOM     10  C   UNL     1      -2.607  -1.968  -6.288  1.00  0.00     0.006 C 
ENDBRANCH   8   9
ENDBRANCH   7   8
BRANCH   7  11
ATOM     11  C   UNL     1      -2.220   0.789  -3.815  1.00  0.00     0.231 C 
ATOM     12  O   UNL     1      -2.528   1.108  -4.978  1.00  0.00    -0.274 OA
BRANCH  11  13
ATOM     13  C   UNL     1      -3.073   1.491  -2.675  1.00  0.00     0.111 C 
BRANCH  13  14
ATOM     14  C   UNL     1      -4.592   1.811  -3.004  1.00  0.00    -0.000 C 
ATOM     15  C   UNL     1      -5.160   2.886  -2.045  1.00  0.00     0.008 C 
ATOM     16  C   UNL     1      -4.854   2.366  -4.419  1.00  0.00     0.008 C 
ENDBRANCH  13  14
BRANCH  13  17
ATOM     17  C   UNL     1      -2.866   1.086  -1.220  1.00  0.00    -0.035 A 
ATOM     18  C   UNL     1      -3.054  -0.211  -0.747  1.00  0.00     0.006 A 
ATOM     19  C   UNL     1      -2.464   2.068  -0.289  1.00  0.00     0.006 A 
ATOM     20  C   UNL     1      -2.609  -0.554   0.540  1.00  0.00     0.021 A 
ATOM     21  C   UNL     1      -2.030   1.739   0.989  1.00  0.00     0.021 A 
ATOM     22  C   UNL     1      -2.057   0.412   1.382  1.00  0.00     0.041 A 
ATOM     23  Cl  UNL     1      -1.397  -0.033   2.905  1.00  0.00    -0.084 Cl
ENDBRANCH  13  17
ENDBRANCH  11  13
ENDBRANCH   7  11
ENDBRANCH   6   7
ENDBRANCH   4   6
ENDBRANCH   3   4
ENDBRANCH   2   3
ENDBRANCH   1   2
BRANCH   1  24
ATOM     24  O   UNL     1       0.410   4.707  -1.829  1.00  0.00    -0.374 OA
BRANCH  24  25
ATOM     25  C   UNL     1      -0.775   4.133  -2.355  1.00  0.00     0.202 C 
BRANCH  25  26
ATOM     26  C   UNL     1      -1.101   4.266  -3.847  1.00  0.00     0.261 C 
BRANCH  26  27
ATOM     27  O   UNL     1       0.036   4.428  -4.654  1.00  0.00    -0.460 OA
BRANCH  27  28
ATOM     28  C   UNL     1       0.439   5.714  -4.721  1.00  0.00     0.338 C 
ATOM     29  O   UNL     1      -0.078   6.707  -4.265  1.00  0.00    -0.246 OA
BRANCH  28  30
ATOM     30  C   UNL     1       1.769   5.629  -5.310  1.00  0.00     0.060 A 
ATOM     31  C   UNL     1       2.821   6.212  -4.603  1.00  0.00     0.016 A 
ATOM     32  C   UNL     1       1.961   4.897  -6.488  1.00  0.00     0.016 A 
ATOM     33  C   UNL     1       4.093   6.124  -5.127  1.00  0.00     0.010 A 
ATOM     34  C   UNL     1       3.235   4.803  -7.008  1.00  0.00     0.010 A 
ATOM     35  C   UNL     1       4.279   5.470  -6.352  1.00  0.00    -0.014 A 
BRANCH  35  36
ATOM     36  C   UNL     1       5.529   5.704  -7.073  1.00  0.00     0.031 A 
ATOM     37  C   UNL     1       5.519   6.765  -8.129  1.00  0.00     0.074 A 
ATOM     38  C   UNL     1       6.624   5.016  -6.725  1.00  0.00     0.049 A 
ATOM     39  N   UNL     1       6.493   7.184  -8.887  1.00  0.00    -0.248 NA
ATOM     40  C   UNL     1       4.231   7.446  -8.370  1.00  0.00     0.031 C 
ATOM     41  C   UNL     1       6.680   3.992  -5.681  1.00  0.00     0.029 A 
ATOM     42  N   UNL     1       7.897   5.087  -7.206  1.00  0.00    -0.354 N 
ATOM     43  C   UNL     1       5.937   8.171  -9.690  1.00  0.00     0.074 A 
ATOM     44  C   UNL     1       4.533   8.257  -9.369  1.00  0.00     0.031 C 
ATOM     45  C   UNL     1       7.940   3.535  -5.593  1.00  0.00     0.029 A 
ATOM     46  C   UNL     1       8.756   4.213  -6.594  1.00  0.00     0.049 A 
ATOM     47  H   UNL     1       8.171   5.704  -7.923  1.00  0.00     0.167 HD
ATOM     48  C   UNL     1       6.564   8.948 -10.600  1.00  0.00     0.037 A 
ATOM     49  C   UNL     1      10.058   3.996  -6.841  1.00  0.00     0.037 A 
ATOM     50  C   UNL     1       7.965   8.822 -10.890  1.00  0.00     0.049 A 
ATOM     51  C   UNL     1      10.717   4.834  -7.901  1.00  0.00     0.074 A 
ATOM     52  C   UNL     1       8.731   9.537 -11.788  1.00  0.00     0.029 A 
ATOM     53  N   UNL     1       8.808   7.901 -10.279  1.00  0.00    -0.354 N 
ATOM     54  N   UNL     1      10.199   5.784  -8.647  1.00  0.00    -0.248 NA
ATOM     55  C   UNL     1      12.139   4.581  -8.149  1.00  0.00     0.031 C 
ATOM     56  C   UNL     1      10.027   9.011 -11.759  1.00  0.00     0.029 A 
ATOM     57  C   UNL     1      10.085   8.012 -10.797  1.00  0.00     0.049 A 
ATOM     58  H   UNL     1       8.536   7.263  -9.579  1.00  0.00     0.167 HD
ATOM     59  C   UNL     1      11.236   6.261  -9.435  1.00  0.00     0.074 A 
ATOM     60  C   UNL     1      12.416   5.506  -9.057  1.00  0.00     0.031 C 
ATOM     61  C   UNL     1      11.226   7.231 -10.385  1.00  0.00     0.037 A 
BRANCH  48  62
ATOM     62  C   UNL     1       5.732   9.949 -11.346  1.00  0.00     0.057 A 
ATOM     63  C   UNL     1       5.167  11.068 -10.716  1.00  0.00     0.134 A 
ATOM     64  C   UNL     1       5.483   9.789 -12.714  1.00  0.00     0.134 A 
ATOM     65  F   UNL     1       5.341  11.269  -9.401  1.00  0.00    -0.206 F 
ATOM     66  C   UNL     1       4.366  11.975 -11.414  1.00  0.00     0.040 A 
ATOM     67  C   UNL     1       4.709  10.705 -13.430  1.00  0.00     0.040 A 
ATOM     68  F   UNL     1       5.982   8.736 -13.379  1.00  0.00    -0.206 F 
ATOM     69  C   UNL     1       4.142  11.798 -12.778  1.00  0.00     0.006 A 
ENDBRANCH  48  62
BRANCH  49  70
ATOM     70  C   UNL     1      10.799   2.967  -6.072  1.00  0.00     0.057 A 
ATOM     71  C   UNL     1      11.813   3.319  -5.175  1.00  0.00     0.134 A 
ATOM     72  C   UNL     1      10.498   1.605  -6.200  1.00  0.00     0.134 A 
ATOM     73  F   UNL     1      12.153   4.606  -5.011  1.00  0.00    -0.206 F 
ATOM     74  C   UNL     1      12.516   2.354  -4.451  1.00  0.00     0.040 A 
ATOM     75  C   UNL     1      11.172   0.632  -5.462  1.00  0.00     0.040 A 
ATOM     76  F   UNL     1       9.524   1.201  -7.031  1.00  0.00    -0.206 F 
ATOM     77  C   UNL     1      12.192   1.006  -4.590  1.00  0.00     0.006 A 
ENDBRANCH  49  70
BRANCH  61  78
ATOM     78  C   UNL     1      12.537   7.538 -11.043  1.00  0.00     0.057 A 
ATOM     79  C   UNL     1      13.144   6.646 -11.935  1.00  0.00     0.134 A 
ATOM     80  C   UNL     1      13.182   8.757 -10.801  1.00  0.00     0.134 A 
ATOM     81  F   UNL     1      12.580   5.457 -12.199  1.00  0.00    -0.206 F 
ATOM     82  C   UNL     1      14.367   6.941 -12.536  1.00  0.00     0.040 A 
ATOM     83  C   UNL     1      14.386   9.079 -11.424  1.00  0.00     0.040 A 
ATOM     84  F   UNL     1      12.643   9.661  -9.968  1.00  0.00    -0.206 F 
ATOM     85  C   UNL     1      14.988   8.164 -12.286  1.00  0.00     0.006 A 
ENDBRANCH  61  78
ENDBRANCH  35  36
ENDBRANCH  28  30
ENDBRANCH  27  28
ENDBRANCH  26  27
ENDBRANCH  25  26
ENDBRANCH  24  25
ENDBRANCH   1  24
TORSDOF 21
