REMARK SMILES N#Cc1cc(-c2cncc(C(=O)OCCOCCOC(=O)c3ccc(-c4c5nc(c(-c6c(F)cccc6F)c6ccc([nH]6)c(-c6c(F)cccc6F)c6nc(c(-c7c(F)cccc7F)c7ccc4[nH]7)C=C6)C=C5)cc3)c2)ccc1Cl
REMARK SMILES IDX 16 1 15 2 14 3 13 4 11 5 12 6 10 7 6 8 7 9 76 10 8 11 9 12
REMARK SMILES IDX 5 13 3 14 4 15 79 16 78 17 80 18 77 19 2 20 1 21 17 22 18 23
REMARK SMILES IDX 19 24 20 25 21 26 22 27 23 28 75 29 24 30 74 31 25 32 26 33
REMARK SMILES IDX 27 34 68 35 28 36 73 37 67 38 69 39 29 40 72 41 66 42 65 43
REMARK SMILES IDX 30 45 56 46 39 47 55 48 40 49 43 50 54 51 70 52 41 53 42 54
REMARK SMILES IDX 53 56 71 57 44 58 31 59 32 60 37 61 33 62 34 63 36 64 38 65
REMARK SMILES IDX 35 66 57 67 58 68 63 69 59 70 60 71 62 72 64 73 61 74 45 75
REMARK SMILES IDX 46 76 51 77 47 78 48 79 50 80 52 81 49 82
REMARK H PARENT 69 44 43 55
REMARK Flexibility Score: inf
ROOT
ATOM      1  O   UNL     1       7.616   4.768   3.723  1.00  0.00    -0.374 OA
ENDROOT
BRANCH   1   2
ATOM      2  C   UNL     1       6.445   5.322   4.312  1.00  0.00     0.202 C 
BRANCH   2   3
ATOM      3  C   UNL     1       5.303   5.784   3.401  1.00  0.00     0.261 C 
BRANCH   3   4
ATOM      4  O   UNL     1       4.826   4.742   2.536  1.00  0.00    -0.460 OA
BRANCH   4   5
ATOM      5  C   UNL     1       5.230   4.862   1.247  1.00  0.00     0.339 C 
ATOM      6  O   UNL     1       5.850   5.790   0.755  1.00  0.00    -0.246 OA
BRANCH   5   7
ATOM      7  C   UNL     1       4.975   3.609   0.519  1.00  0.00     0.079 A 
ATOM      8  C   UNL     1       3.673   1.647  -0.055  1.00  0.00     0.001 A 
ATOM      9  C   UNL     1       4.692   1.344  -0.964  1.00  0.00     0.119 A 
ATOM     10  C   UNL     1       3.854   2.801   0.725  1.00  0.00     0.027 A 
ATOM     11  N   UNL     1       5.813   2.081  -1.150  1.00  0.00    -0.263 NA
ATOM     12  C   UNL     1       5.918   3.211  -0.418  1.00  0.00     0.126 A 
BRANCH   8  13
ATOM     13  C   UNL     1       2.444   0.839   0.017  1.00  0.00    -0.015 A 
ATOM     14  C   UNL     1      -0.008   0.719   0.027  1.00  0.00     0.071 A 
ATOM     15  C   UNL     1       1.183   1.463   0.022  1.00  0.00     0.029 A 
ATOM     16  C   UNL     1       0.054  -0.675   0.028  1.00  0.00     0.058 A 
ATOM     17  C   UNL     1       1.296  -1.315   0.031  1.00  0.00     0.022 A 
ATOM     18  Cl  UNL     1      -1.364  -1.660   0.017  1.00  0.00    -0.083 Cl
ATOM     19  C   UNL     1       2.478  -0.565   0.027  1.00  0.00     0.010 A 
BRANCH  14  20
ATOM     20  C   UNL     1      -1.255   1.429   0.017  1.00  0.00     0.101 C 
ATOM     21  N   UNL     1      -2.234   2.046   0.009  1.00  0.00    -0.192 NA
ENDBRANCH  14  20
ENDBRANCH   8  13
ENDBRANCH   5   7
ENDBRANCH   4   5
ENDBRANCH   3   4
ENDBRANCH   2   3
ENDBRANCH   1   2
BRANCH   1  22
ATOM     22  C   UNL     1       7.558   3.449   3.187  1.00  0.00     0.202 C 
BRANCH  22  23
ATOM     23  C   UNL     1       7.431   2.251   4.139  1.00  0.00     0.261 C 
BRANCH  23  24
ATOM     24  O   UNL     1       6.267   2.299   4.978  1.00  0.00    -0.460 OA
BRANCH  24  25
ATOM     25  C   UNL     1       6.526   2.634   6.267  1.00  0.00     0.338 C 
ATOM     26  O   UNL     1       7.612   2.864   6.770  1.00  0.00    -0.246 OA
BRANCH  25  27
ATOM     27  C   UNL     1       5.260   2.874   6.980  1.00  0.00     0.060 A 
ATOM     28  C   UNL     1       5.064   4.132   7.565  1.00  0.00     0.016 A 
ATOM     29  C   UNL     1       4.321   1.856   7.143  1.00  0.00     0.016 A 
ATOM     30  C   UNL     1       3.944   4.364   8.357  1.00  0.00     0.010 A 
ATOM     31  C   UNL     1       3.199   2.090   7.942  1.00  0.00     0.010 A 
ATOM     32  C   UNL     1       3.024   3.332   8.581  1.00  0.00    -0.014 A 
BRANCH  32  33
ATOM     33  C   UNL     1       1.945   3.507   9.582  1.00  0.00     0.031 A 
ATOM     34  C   UNL     1       2.055   2.816  10.913  1.00  0.00     0.074 A 
ATOM     35  C   UNL     1       0.882   4.284   9.311  1.00  0.00     0.049 A 
ATOM     36  N   UNL     1       1.207   2.788  11.909  1.00  0.00    -0.248 NA
ATOM     37  C   UNL     1       3.286   2.045  11.146  1.00  0.00     0.031 C 
ATOM     38  C   UNL     1       0.683   5.039   8.076  1.00  0.00     0.029 A 
ATOM     39  N   UNL     1      -0.232   4.559  10.062  1.00  0.00    -0.354 N 
ATOM     40  C   UNL     1       1.796   1.991  12.883  1.00  0.00     0.074 A 
ATOM     41  C   UNL     1       3.049   1.516  12.336  1.00  0.00     0.031 C 
ATOM     42  C   UNL     1      -0.485   5.698   8.155  1.00  0.00     0.029 A 
ATOM     43  C   UNL     1      -1.132   5.375   9.425  1.00  0.00     0.049 A 
ATOM     44  H   UNL     1      -0.372   4.205  10.970  1.00  0.00     0.167 HD
ATOM     45  C   UNL     1       1.340   1.693  14.124  1.00  0.00     0.037 A 
ATOM     46  C   UNL     1      -2.350   5.797   9.816  1.00  0.00     0.037 A 
ATOM     47  C   UNL     1       0.082   2.156  14.653  1.00  0.00     0.049 A 
ATOM     48  C   UNL     1      -2.884   5.368  11.156  1.00  0.00     0.074 A 
ATOM     49  C   UNL     1      -0.470   1.920  15.900  1.00  0.00     0.029 A 
ATOM     50  N   UNL     1      -0.830   2.938  13.957  1.00  0.00    -0.354 N 
ATOM     51  N   UNL     1      -2.313   4.635  12.081  1.00  0.00    -0.248 NA
ATOM     52  C   UNL     1      -4.235   5.830  11.505  1.00  0.00     0.031 C 
ATOM     53  C   UNL     1      -1.744   2.496  15.931  1.00  0.00     0.029 A 
ATOM     54  C   UNL     1      -1.956   3.162  14.734  1.00  0.00     0.049 A 
ATOM     55  H   UNL     1      -0.696   3.284  13.044  1.00  0.00     0.167 HD
ATOM     56  C   UNL     1      -3.217   4.579  13.136  1.00  0.00     0.074 A 
ATOM     57  C   UNL     1      -4.369   5.362  12.738  1.00  0.00     0.031 C 
ATOM     58  C   UNL     1      -3.099   3.943  14.329  1.00  0.00     0.037 A 
BRANCH  45  59
ATOM     59  C   UNL     1       2.194   0.789  14.970  1.00  0.00     0.057 A 
ATOM     60  C   UNL     1       3.457   1.179  15.439  1.00  0.00     0.134 A 
ATOM     61  C   UNL     1       1.753  -0.495  15.314  1.00  0.00     0.134 A 
ATOM     62  F   UNL     1       3.949   2.392  15.142  1.00  0.00    -0.206 F 
ATOM     63  C   UNL     1       4.268   0.310  16.172  1.00  0.00     0.040 A 
ATOM     64  C   UNL     1       2.538  -1.360  16.079  1.00  0.00     0.040 A 
ATOM     65  F   UNL     1       0.551  -0.935  14.912  1.00  0.00    -0.206 F 
ATOM     66  C   UNL     1       3.806  -0.964  16.497  1.00  0.00     0.006 A 
ENDBRANCH  45  59
BRANCH  46  67
ATOM     67  C   UNL     1      -3.141   6.689   8.931  1.00  0.00     0.057 A 
ATOM     68  C   UNL     1      -3.390   8.019   9.289  1.00  0.00     0.134 A 
ATOM     69  C   UNL     1      -3.664   6.240   7.712  1.00  0.00     0.134 A 
ATOM     70  F   UNL     1      -2.933   8.501  10.454  1.00  0.00    -0.206 F 
ATOM     71  C   UNL     1      -4.142   8.867   8.475  1.00  0.00     0.040 A 
ATOM     72  C   UNL     1      -4.392   7.086   6.874  1.00  0.00     0.040 A 
ATOM     73  F   UNL     1      -3.456   4.978   7.309  1.00  0.00    -0.206 F 
ATOM     74  C   UNL     1      -4.639   8.402   7.259  1.00  0.00     0.006 A 
ENDBRANCH  46  67
BRANCH  58  75
ATOM     75  C   UNL     1      -4.226   4.104  15.314  1.00  0.00     0.057 A 
ATOM     76  C   UNL     1      -5.489   3.536  15.106  1.00  0.00     0.134 A 
ATOM     77  C   UNL     1      -4.029   4.812  16.508  1.00  0.00     0.134 A 
ATOM     78  F   UNL     1      -5.753   2.855  13.980  1.00  0.00    -0.206 F 
ATOM     79  C   UNL     1      -6.523   3.693  16.032  1.00  0.00     0.040 A 
ATOM     80  C   UNL     1      -5.042   4.944  17.458  1.00  0.00     0.040 A 
ATOM     81  F   UNL     1      -2.841   5.374  16.780  1.00  0.00    -0.206 F 
ATOM     82  C   UNL     1      -6.297   4.392  17.217  1.00  0.00     0.006 A 
ENDBRANCH  58  75
ENDBRANCH  32  33
ENDBRANCH  25  27
ENDBRANCH  24  25
ENDBRANCH  23  24
ENDBRANCH  22  23
ENDBRANCH   1  22
TORSDOF 16
