REMARK SMILES CCc1ccc(-c2cc(Cl)cc3c2O[C@@H](C(F)(F)F)C(C(=O)OCCOCCOC(=O)c2ccc(-c4c5nc(c(-c6c(F)cccc6F)c6ccc([nH]6)c(-c6c(F)cccc6F)c6nc(c(-c7c(F)cccc7F)c7ccc4[nH]7)C=C6)C=C5)cc2)=C3)cc1
REMARK SMILES IDX 26 1 25 2 24 3 23 4 21 5 22 6 20 7 7 8 8 9 13 10 9 11 12 12
REMARK SMILES IDX 14 13 10 14 11 15 86 16 15 17 6 18 3 19 4 20 88 21 5 22
REMARK SMILES IDX 87 23 2 24 1 25 16 26 17 27 18 28 19 29 27 30 28 31 29 32
REMARK SMILES IDX 30 33 31 34 32 35 33 36 85 37 34 38 84 39 35 40 36 41 37 42
REMARK SMILES IDX 78 43 38 44 83 45 77 46 79 47 39 48 82 49 76 50 75 51 40 53
REMARK SMILES IDX 66 54 49 55 65 56 50 57 53 58 64 59 80 60 51 61 52 62 63 64
REMARK SMILES IDX 81 65 54 66 41 67 42 68 47 69 43 70 44 71 46 72 48 73 45 74
REMARK SMILES IDX 67 75 68 76 73 77 69 78 70 79 72 80 74 81 71 82 55 83 56 84
REMARK SMILES IDX 61 85 57 86 58 87 60 88 62 89 59 90
REMARK H PARENT 79 52 53 63
REMARK Flexibility Score: inf
ROOT
ATOM      1  O   UNL     1       2.739  -6.446   9.591  1.00  0.00    -0.374 OA
ENDROOT
BRANCH   1   2
ATOM      2  C   UNL     1       3.238  -6.450  10.922  1.00  0.00     0.202 C 
BRANCH   2   3
ATOM      3  C   UNL     1       3.355  -5.112  11.669  1.00  0.00     0.261 C 
BRANCH   3   4
ATOM      4  O   UNL     1       2.494  -4.092  11.140  1.00  0.00    -0.460 OA
BRANCH   4   5
ATOM      5  C   UNL     1       2.983  -2.837  11.176  1.00  0.00     0.338 C 
ATOM      6  O   UNL     1       4.006  -2.494  11.753  1.00  0.00    -0.246 OA
BRANCH   5   7
ATOM      7  C   UNL     1       2.238  -1.913  10.287  1.00  0.00     0.087 C 
ATOM      8  C   UNL     1       1.456  -3.293   6.443  1.00  0.00     0.026 A 
ATOM      9  C   UNL     1       2.456  -4.265   6.204  1.00  0.00     0.033 A 
ATOM     10  C   UNL     1       1.587  -2.588   7.660  1.00  0.00     0.135 A 
ATOM     11  C   UNL     1       3.649  -4.268   6.925  1.00  0.00     0.042 A 
ATOM     12  C   UNL     1       2.872  -2.409   8.204  1.00  0.00     0.019 A 
ATOM     13  O   UNL     1       0.501  -2.535   8.561  1.00  0.00    -0.475 OA
ATOM     14  Cl  UNL     1       4.854  -5.441   6.575  1.00  0.00    -0.084 Cl
ATOM     15  C   UNL     1       3.902  -3.271   7.854  1.00  0.00     0.032 A 
ATOM     16  C   UNL     1       3.047  -1.454   9.319  1.00  0.00     0.027 C 
ATOM     17  C   UNL     1       0.772  -1.960   9.911  1.00  0.00     0.316 C 
BRANCH   8  18
ATOM     18  C   UNL     1       0.874  -2.720   5.167  1.00  0.00    -0.015 A 
ATOM     19  C   UNL     1       0.635  -1.783   2.439  1.00  0.00    -0.048 A 
ATOM     20  C   UNL     1       0.346  -3.109   2.790  1.00  0.00     0.004 A 
ATOM     21  C   UNL     1       0.958  -0.908   3.479  1.00  0.00     0.004 A 
ATOM     22  C   UNL     1       0.448  -3.562   4.120  1.00  0.00     0.009 A 
ATOM     23  C   UNL     1       1.074  -1.367   4.815  1.00  0.00     0.009 A 
BRANCH  19  24
ATOM     24  C   UNL     1       0.562  -1.401   0.971  1.00  0.00     0.032 C 
ATOM     25  C   UNL     1       1.133  -0.056   0.533  1.00  0.00     0.009 C 
ENDBRANCH  19  24
ENDBRANCH   8  18
BRANCH  17  26
ATOM     26  C   UNL     1      -0.172  -2.387  11.059  1.00  0.00     0.430 C 
ATOM     27  F   UNL     1      -0.161  -1.425  12.024  1.00  0.00    -0.167 F 
ATOM     28  F   UNL     1      -1.455  -2.496  10.647  1.00  0.00    -0.167 F 
ATOM     29  F   UNL     1       0.150  -3.544  11.667  1.00  0.00    -0.167 F 
ENDBRANCH  17  26
ENDBRANCH   5   7
ENDBRANCH   4   5
ENDBRANCH   3   4
ENDBRANCH   2   3
ENDBRANCH   1   2
BRANCH   1  30
ATOM     30  C   UNL     1       1.380  -6.069   9.381  1.00  0.00     0.202 C 
BRANCH  30  31
ATOM     31  C   UNL     1       0.271  -6.975   9.926  1.00  0.00     0.261 C 
BRANCH  31  32
ATOM     32  O   UNL     1       0.317  -7.153  11.350  1.00  0.00    -0.460 OA
BRANCH  32  33
ATOM     33  C   UNL     1       0.590  -8.415  11.751  1.00  0.00     0.338 C 
ATOM     34  O   UNL     1       0.797  -9.397  11.046  1.00  0.00    -0.246 OA
BRANCH  33  35
ATOM     35  C   UNL     1       0.766  -8.452  13.209  1.00  0.00     0.060 A 
ATOM     36  C   UNL     1       2.007  -8.858  13.714  1.00  0.00     0.016 A 
ATOM     37  C   UNL     1      -0.307  -8.199  14.064  1.00  0.00     0.016 A 
ATOM     38  C   UNL     1       2.170  -9.048  15.083  1.00  0.00     0.010 A 
ATOM     39  C   UNL     1      -0.143  -8.398  15.437  1.00  0.00     0.010 A 
ATOM     40  C   UNL     1       1.085  -8.854  15.948  1.00  0.00    -0.014 A 
BRANCH  40  41
ATOM     41  C   UNL     1       1.200  -9.253  17.370  1.00  0.00     0.031 A 
ATOM     42  C   UNL     1       0.577 -10.544  17.820  1.00  0.00     0.074 A 
ATOM     43  C   UNL     1       1.865  -8.476  18.243  1.00  0.00     0.049 A 
ATOM     44  N   UNL     1       0.509 -11.058  19.021  1.00  0.00    -0.248 NA
ATOM     45  C   UNL     1      -0.060 -11.364  16.777  1.00  0.00     0.031 C 
ATOM     46  C   UNL     1       2.537  -7.220  17.913  1.00  0.00     0.029 A 
ATOM     47  N   UNL     1       2.073  -8.627  19.590  1.00  0.00    -0.354 N 
ATOM     48  C   UNL     1      -0.188 -12.252  18.881  1.00  0.00     0.074 A 
ATOM     49  C   UNL     1      -0.546 -12.373  17.485  1.00  0.00     0.031 C 
ATOM     50  C   UNL     1       3.072  -6.706  19.032  1.00  0.00     0.029 A 
ATOM     51  C   UNL     1       2.748  -7.576  20.160  1.00  0.00     0.049 A 
ATOM     52  H   UNL     1       1.767  -9.412  20.099  1.00  0.00     0.167 HD
ATOM     53  C   UNL     1      -0.495 -13.166  19.832  1.00  0.00     0.037 A 
ATOM     54  C   UNL     1       3.046  -7.334  21.451  1.00  0.00     0.037 A 
ATOM     55  C   UNL     1      -0.131 -13.038  21.220  1.00  0.00     0.049 A 
ATOM     56  C   UNL     1       2.640  -8.337  22.499  1.00  0.00     0.074 A 
ATOM     57  C   UNL     1      -0.366 -13.923  22.257  1.00  0.00     0.029 A 
ATOM     58  N   UNL     1       0.538 -11.952  21.764  1.00  0.00    -0.354 N 
ATOM     59  N   UNL     1       2.012  -9.479  22.353  1.00  0.00    -0.248 NA
ATOM     60  C   UNL     1       2.989  -8.019  23.891  1.00  0.00     0.031 C 
ATOM     61  C   UNL     1       0.106 -13.344  23.439  1.00  0.00     0.029 A 
ATOM     62  C   UNL     1       0.696 -12.130  23.128  1.00  0.00     0.049 A 
ATOM     63  H   UNL     1       0.855 -11.170  21.255  1.00  0.00     0.167 HD
ATOM     64  C   UNL     1       1.919 -10.030  23.626  1.00  0.00     0.074 A 
ATOM     65  C   UNL     1       2.568  -9.102  24.529  1.00  0.00     0.031 C 
ATOM     66  C   UNL     1       1.352 -11.199  24.012  1.00  0.00     0.037 A 
BRANCH  53  67
ATOM     67  C   UNL     1      -1.291 -14.368  19.413  1.00  0.00     0.057 A 
ATOM     68  C   UNL     1      -0.746 -15.380  18.612  1.00  0.00     0.134 A 
ATOM     69  C   UNL     1      -2.612 -14.533  19.849  1.00  0.00     0.134 A 
ATOM     70  F   UNL     1       0.509 -15.280  18.148  1.00  0.00    -0.206 F 
ATOM     71  C   UNL     1      -1.493 -16.501  18.242  1.00  0.00     0.040 A 
ATOM     72  C   UNL     1      -3.359 -15.663  19.511  1.00  0.00     0.040 A 
ATOM     73  F   UNL     1      -3.195 -13.605  20.623  1.00  0.00    -0.206 F 
ATOM     74  C   UNL     1      -2.801 -16.648  18.700  1.00  0.00     0.006 A 
ENDBRANCH  53  67
BRANCH  54  75
ATOM     75  C   UNL     1       3.750  -6.082  21.830  1.00  0.00     0.057 A 
ATOM     76  C   UNL     1       5.054  -6.105  22.336  1.00  0.00     0.134 A 
ATOM     77  C   UNL     1       3.126  -4.834  21.715  1.00  0.00     0.134 A 
ATOM     78  F   UNL     1       5.698  -7.271  22.491  1.00  0.00    -0.206 F 
ATOM     79  C   UNL     1       5.706  -4.936  22.734  1.00  0.00     0.040 A 
ATOM     80  C   UNL     1       3.775  -3.654  22.081  1.00  0.00     0.040 A 
ATOM     81  F   UNL     1       1.877  -4.742  21.235  1.00  0.00    -0.206 F 
ATOM     82  C   UNL     1       5.067  -3.704  22.601  1.00  0.00     0.006 A 
ENDBRANCH  54  75
BRANCH  66  83
ATOM     83  C   UNL     1       1.446 -11.564  25.467  1.00  0.00     0.057 A 
ATOM     84  C   UNL     1       0.717 -10.889  26.453  1.00  0.00     0.134 A 
ATOM     85  C   UNL     1       2.248 -12.637  25.878  1.00  0.00     0.134 A 
ATOM     86  F   UNL     1      -0.061  -9.845  26.129  1.00  0.00    -0.206 F 
ATOM     87  C   UNL     1       0.803 -11.250  27.799  1.00  0.00     0.040 A 
ATOM     88  C   UNL     1       2.318 -13.028  27.216  1.00  0.00     0.040 A 
ATOM     89  F   UNL     1       2.965 -13.335  24.983  1.00  0.00    -0.206 F 
ATOM     90  C   UNL     1       1.599 -12.328  28.182  1.00  0.00     0.006 A 
ENDBRANCH  66  83
ENDBRANCH  40  41
ENDBRANCH  33  35
ENDBRANCH  32  33
ENDBRANCH  31  32
ENDBRANCH  30  31
ENDBRANCH   1  30
TORSDOF 17
