REMARK SMILES O=C(CC1CCN(S(=O)(=O)c2cc[nH]c2)CC1)OCCOCCOC(=O)c1ccc(-c2c3nc(c(-c4c(F)cccc4F)c4ccc([nH]4)c(-c4c(F)cccc4F)c4nc(c(-c5c(F)cccc5F)c5ccc2[nH]5)C=C4)C=C3)cc1
REMARK SMILES IDX 20 1 19 2 18 3 2 4 1 5 3 6 4 7 5 8 17 9 6 10 16 11 7 12 8 13
REMARK SMILES IDX 9 14 10 15 11 16 12 17 15 18 13 19 14 20 21 22 22 23 23 24
REMARK SMILES IDX 24 25 25 26 26 27 27 28 28 29 80 30 29 31 79 32 30 33 31 34
REMARK SMILES IDX 32 35 73 36 33 37 78 38 72 39 74 40 34 41 77 42 71 43 70 44
REMARK SMILES IDX 35 46 61 47 44 48 60 49 45 50 48 51 59 52 75 53 46 54 47 55
REMARK SMILES IDX 58 57 76 58 49 59 36 60 37 61 42 62 38 63 39 64 41 65 43 66
REMARK SMILES IDX 40 67 62 68 63 69 68 70 64 71 65 72 67 73 69 74 66 75 50 76
REMARK SMILES IDX 51 77 56 78 52 79 53 80 55 81 57 82 54 83
REMARK H PARENT 14 21 74 45 48 56
REMARK Flexibility Score: inf
ROOT
ATOM      1  C   UNL     1       3.376   1.262  -1.417  1.00  0.00     0.202 C 
ENDROOT
BRANCH   1   2
ATOM      2  C   UNL     1       2.941  -0.151  -1.151  1.00  0.00     0.261 C 
BRANCH   2   3
ATOM      3  O   UNL     1       1.726  -0.242  -0.413  1.00  0.00    -0.463 OA
BRANCH   3   4
ATOM      4  C   UNL     1       1.766  -0.888   0.778  1.00  0.00     0.306 C 
ATOM      5  O   UNL     1       0.826  -1.591   1.135  1.00  0.00    -0.252 OA
BRANCH   4   6
ATOM      6  C   UNL     1       2.942  -0.592   1.695  1.00  0.00     0.126 C 
BRANCH   6   7
ATOM      7  C   UNL     1       4.124  -1.582   1.827  1.00  0.00     0.003 C 
ATOM      8  C   UNL     1       5.511  -0.938   1.693  1.00  0.00     0.021 C 
ATOM      9  C   UNL     1       4.108  -2.893   1.048  1.00  0.00     0.021 C 
ATOM     10  C   UNL     1       6.097  -0.860   0.288  1.00  0.00     0.103 C 
ATOM     11  C   UNL     1       4.664  -2.867  -0.372  1.00  0.00     0.103 C 
ATOM     12  N   UNL     1       5.905  -2.082  -0.565  1.00  0.00    -0.198 NA
BRANCH  12  13
ATOM     13  S   UNL     1       6.308  -1.708  -2.216  1.00  0.00     0.244 S 
ATOM     14  O   UNL     1       5.326  -0.761  -2.702  1.00  0.00    -0.207 OA
ATOM     15  O   UNL     1       7.720  -1.393  -2.263  1.00  0.00    -0.207 OA
BRANCH  13  16
ATOM     16  C   UNL     1       6.098  -3.015  -3.330  1.00  0.00     0.100 A 
ATOM     17  C   UNL     1       4.942  -3.826  -3.490  1.00  0.00     0.041 A 
ATOM     18  C   UNL     1       6.936  -3.305  -4.392  1.00  0.00     0.104 A 
ATOM     19  C   UNL     1       5.143  -4.624  -4.595  1.00  0.00     0.083 A 
ATOM     20  N   UNL     1       6.357  -4.295  -5.140  1.00  0.00    -0.366 N 
ATOM     21  H   UNL     1       6.750  -4.706  -5.943  1.00  0.00     0.165 HD
ENDBRANCH  13  16
ENDBRANCH  12  13
ENDBRANCH   6   7
ENDBRANCH   4   6
ENDBRANCH   3   4
ENDBRANCH   2   3
ENDBRANCH   1   2
BRANCH   1  22
ATOM     22  O   UNL     1       3.640   1.974  -0.208  1.00  0.00    -0.374 OA
BRANCH  22  23
ATOM     23  C   UNL     1       2.580   2.808   0.250  1.00  0.00     0.202 C 
BRANCH  23  24
ATOM     24  C   UNL     1       2.250   4.028  -0.610  1.00  0.00     0.261 C 
BRANCH  24  25
ATOM     25  O   UNL     1       2.732   3.936  -1.935  1.00  0.00    -0.460 OA
BRANCH  25  26
ATOM     26  C   UNL     1       4.078   4.017  -2.092  1.00  0.00     0.338 C 
ATOM     27  O   UNL     1       4.919   4.236  -1.255  1.00  0.00    -0.246 OA
BRANCH  26  28
ATOM     28  C   UNL     1       4.330   3.902  -3.538  1.00  0.00     0.060 A 
ATOM     29  C   UNL     1       5.660   3.937  -3.957  1.00  0.00     0.016 A 
ATOM     30  C   UNL     1       3.259   4.183  -4.394  1.00  0.00     0.016 A 
ATOM     31  C   UNL     1       5.927   4.537  -5.164  1.00  0.00     0.010 A 
ATOM     32  C   UNL     1       3.523   4.904  -5.520  1.00  0.00     0.010 A 
ATOM     33  C   UNL     1       4.858   5.104  -5.869  1.00  0.00    -0.014 A 
BRANCH  33  34
ATOM     34  C   UNL     1       5.136   5.804  -7.113  1.00  0.00     0.031 A 
ATOM     35  C   UNL     1       5.017   4.779  -8.268  1.00  0.00     0.074 A 
ATOM     36  C   UNL     1       5.468   7.130  -6.947  1.00  0.00     0.049 A 
ATOM     37  N   UNL     1       5.644   4.742  -9.396  1.00  0.00    -0.248 NA
ATOM     38  C   UNL     1       4.148   3.561  -8.133  1.00  0.00     0.031 C 
ATOM     39  C   UNL     1       5.412   7.887  -5.661  1.00  0.00     0.029 A 
ATOM     40  N   UNL     1       5.917   8.124  -7.789  1.00  0.00    -0.354 N 
ATOM     41  C   UNL     1       5.069   3.715 -10.178  1.00  0.00     0.074 A 
ATOM     42  C   UNL     1       4.280   2.923  -9.297  1.00  0.00     0.031 C 
ATOM     43  C   UNL     1       5.915   9.139  -5.796  1.00  0.00     0.029 A 
ATOM     44  C   UNL     1       6.327   9.348  -7.169  1.00  0.00     0.049 A 
ATOM     45  H   UNL     1       5.953   8.000  -8.765  1.00  0.00     0.167 HD
ATOM     46  C   UNL     1       5.134   3.732 -11.541  1.00  0.00     0.037 A 
ATOM     47  C   UNL     1       6.996  10.410  -7.735  1.00  0.00     0.037 A 
ATOM     48  C   UNL     1       5.927   4.847 -11.939  1.00  0.00     0.049 A 
ATOM     49  C   UNL     1       6.998  10.084  -9.162  1.00  0.00     0.074 A 
ATOM     50  C   UNL     1       7.265   5.097 -11.774  1.00  0.00     0.029 A 
ATOM     51  N   UNL     1       5.248   6.032 -12.110  1.00  0.00    -0.354 N 
ATOM     52  N   UNL     1       5.956  10.161  -9.932  1.00  0.00    -0.248 NA
ATOM     53  C   UNL     1       8.208   9.487  -9.738  1.00  0.00     0.031 C 
ATOM     54  C   UNL     1       7.260   6.425 -11.310  1.00  0.00     0.029 A 
ATOM     55  C   UNL     1       6.025   7.026 -11.580  1.00  0.00     0.049 A 
ATOM     56  H   UNL     1       4.366   6.144 -12.535  1.00  0.00     0.167 HD
ATOM     57  C   UNL     1       6.288   9.288 -10.936  1.00  0.00     0.074 A 
ATOM     58  C   UNL     1       7.737   9.200 -10.948  1.00  0.00     0.031 C 
ATOM     59  C   UNL     1       5.420   8.295 -11.270  1.00  0.00     0.037 A 
BRANCH  46  60
ATOM     60  C   UNL     1       4.326   3.056 -12.610  1.00  0.00     0.057 A 
ATOM     61  C   UNL     1       4.782   3.184 -13.944  1.00  0.00     0.134 A 
ATOM     62  C   UNL     1       2.998   2.650 -12.458  1.00  0.00     0.134 A 
ATOM     63  F   UNL     1       6.059   3.503 -14.213  1.00  0.00    -0.206 F 
ATOM     64  C   UNL     1       3.929   3.092 -15.043  1.00  0.00     0.040 A 
ATOM     65  C   UNL     1       2.146   2.499 -13.560  1.00  0.00     0.040 A 
ATOM     66  F   UNL     1       2.447   2.477 -11.250  1.00  0.00    -0.206 F 
ATOM     67  C   UNL     1       2.595   2.772 -14.849  1.00  0.00     0.006 A 
ENDBRANCH  46  60
BRANCH  47  68
ATOM     68  C   UNL     1       7.754  11.677  -7.370  1.00  0.00     0.057 A 
ATOM     69  C   UNL     1       7.783  12.312  -6.128  1.00  0.00     0.134 A 
ATOM     70  C   UNL     1       8.609  12.295  -8.337  1.00  0.00     0.134 A 
ATOM     71  F   UNL     1       6.947  11.947  -5.149  1.00  0.00    -0.206 F 
ATOM     72  C   UNL     1       8.674  13.379  -5.845  1.00  0.00     0.040 A 
ATOM     73  C   UNL     1       9.535  13.305  -8.056  1.00  0.00     0.040 A 
ATOM     74  F   UNL     1       8.592  11.949  -9.631  1.00  0.00    -0.206 F 
ATOM     75  C   UNL     1       9.586  13.843  -6.792  1.00  0.00     0.006 A 
ENDBRANCH  47  68
BRANCH  59  76
ATOM     76  C   UNL     1       3.963   8.566 -10.927  1.00  0.00     0.057 A 
ATOM     77  C   UNL     1       3.334   9.710 -11.441  1.00  0.00     0.134 A 
ATOM     78  C   UNL     1       3.191   7.817 -10.024  1.00  0.00     0.134 A 
ATOM     79  F   UNL     1       3.969  10.477 -12.341  1.00  0.00    -0.206 F 
ATOM     80  C   UNL     1       2.046  10.105 -11.053  1.00  0.00     0.040 A 
ATOM     81  C   UNL     1       1.900   8.199  -9.620  1.00  0.00     0.040 A 
ATOM     82  F   UNL     1       3.655   6.681  -9.502  1.00  0.00    -0.206 F 
ATOM     83  C   UNL     1       1.325   9.355 -10.130  1.00  0.00     0.006 A 
ENDBRANCH  59  76
ENDBRANCH  33  34
ENDBRANCH  26  28
ENDBRANCH  25  26
ENDBRANCH  24  25
ENDBRANCH  23  24
ENDBRANCH  22  23
ENDBRANCH   1  22
TORSDOF 17
