REMARK SMILES Cc1ncccc1C(=O)N1CC[C@H](C(=O)OCCOCCOC(=O)c2ccc(-c3c4nc(c(-c5c(F)cccc5F)c5ccc([nH]5)c(-c5c(F)cccc5F)c5nc(c(-c6c(F)cccc6F)c6ccc3[nH]6)C=C5)C=C4)cc2)C1
REMARK SMILES IDX 19 1 18 2 17 3 16 4 14 5 15 6 13 7 10 8 11 9 79 10 12 11
REMARK SMILES IDX 8 12 9 13 7 14 1 15 2 16 3 17 4 18 6 19 5 20 20 21 21 22
REMARK SMILES IDX 22 23 23 24 24 25 25 26 26 27 78 28 27 29 77 30 28 31 29 32
REMARK SMILES IDX 30 33 71 34 31 35 76 36 70 37 72 38 32 39 75 40 69 41 68 42
REMARK SMILES IDX 33 44 59 45 42 46 58 47 43 48 46 49 57 50 73 51 44 52 45 53
REMARK SMILES IDX 56 55 74 56 47 57 34 58 35 59 40 60 36 61 37 62 39 63 41 64
REMARK SMILES IDX 38 65 60 66 61 67 66 68 62 69 63 70 65 71 67 72 64 73 48 74
REMARK SMILES IDX 49 75 54 76 50 77 51 78 53 79 55 80 52 81
REMARK H PARENT 72 43 46 54
REMARK Flexibility Score: inf
ROOT
ATOM      1  O   UNL     1       7.736  -1.565  -2.982  1.00  0.00    -0.374 OA
ENDROOT
BRANCH   1   2
ATOM      2  C   UNL     1       6.667  -1.192  -3.849  1.00  0.00     0.202 C 
BRANCH   2   3
ATOM      3  C   UNL     1       5.461  -2.136  -3.897  1.00  0.00     0.261 C 
BRANCH   3   4
ATOM      4  O   UNL     1       4.824  -2.267  -2.613  1.00  0.00    -0.463 OA
BRANCH   4   5
ATOM      5  C   UNL     1       4.906  -3.495  -2.034  1.00  0.00     0.310 C 
ATOM      6  O   UNL     1       5.400  -4.487  -2.556  1.00  0.00    -0.252 OA
BRANCH   5   7
ATOM      7  C   UNL     1       4.260  -3.546  -0.667  1.00  0.00     0.120 C 
ATOM      8  N   UNL     1       2.121  -2.723  -0.098  1.00  0.00    -0.338 N 
ATOM      9  C   UNL     1       3.021  -2.227   0.921  1.00  0.00     0.121 C 
ATOM     10  C   UNL     1       2.766  -3.786  -0.848  1.00  0.00     0.135 C 
ATOM     11  C   UNL     1       4.370  -2.290   0.218  1.00  0.00     0.039 C 
BRANCH   8  12
ATOM     12  C   UNL     1       0.821  -2.387  -0.407  1.00  0.00     0.255 C 
ATOM     13  O   UNL     1       0.116  -3.152  -1.070  1.00  0.00    -0.269 OA
BRANCH  12  14
ATOM     14  C   UNL     1       0.214  -1.091  -0.021  1.00  0.00     0.061 A 
ATOM     15  C   UNL     1       2.179   0.398  -0.738  1.00  0.00     0.067 C 
ATOM     16  C   UNL     1       0.789   0.168  -0.231  1.00  0.00     0.050 A 
ATOM     17  N   UNL     1       0.091   1.325  -0.032  1.00  0.00    -0.261 NA
ATOM     18  C   UNL     1      -1.217   1.237   0.288  1.00  0.00     0.111 A 
ATOM     19  C   UNL     1      -1.146  -1.134   0.331  1.00  0.00     0.017 A 
ATOM     20  C   UNL     1      -1.877   0.040   0.475  1.00  0.00     0.021 A 
ENDBRANCH  12  14
ENDBRANCH   8  12
ENDBRANCH   5   7
ENDBRANCH   4   5
ENDBRANCH   3   4
ENDBRANCH   2   3
ENDBRANCH   1   2
BRANCH   1  21
ATOM     21  C   UNL     1       7.562  -1.329  -1.586  1.00  0.00     0.202 C 
BRANCH  21  22
ATOM     22  C   UNL     1       7.720   0.119  -1.104  1.00  0.00     0.261 C 
BRANCH  22  23
ATOM     23  O   UNL     1       6.736   1.004  -1.670  1.00  0.00    -0.460 OA
BRANCH  23  24
ATOM     24  C   UNL     1       7.236   1.943  -2.508  1.00  0.00     0.338 C 
ATOM     25  O   UNL     1       8.415   2.162  -2.759  1.00  0.00    -0.246 OA
BRANCH  24  26
ATOM     26  C   UNL     1       6.146   2.601  -3.248  1.00  0.00     0.060 A 
ATOM     27  C   UNL     1       6.203   2.573  -4.648  1.00  0.00     0.016 A 
ATOM     28  C   UNL     1       5.125   3.294  -2.594  1.00  0.00     0.016 A 
ATOM     29  C   UNL     1       5.255   3.264  -5.400  1.00  0.00     0.010 A 
ATOM     30  C   UNL     1       4.180   3.996  -3.351  1.00  0.00     0.010 A 
ATOM     31  C   UNL     1       4.253   4.003  -4.756  1.00  0.00    -0.014 A 
BRANCH  31  32
ATOM     32  C   UNL     1       3.333   4.850  -5.553  1.00  0.00     0.031 A 
ATOM     33  C   UNL     1       3.594   6.325  -5.672  1.00  0.00     0.074 A 
ATOM     34  C   UNL     1       2.275   4.301  -6.176  1.00  0.00     0.049 A 
ATOM     35  N   UNL     1       2.888   7.246  -6.277  1.00  0.00    -0.248 NA
ATOM     36  C   UNL     1       4.814   6.830  -5.022  1.00  0.00     0.031 C 
ATOM     37  C   UNL     1       1.934   2.880  -6.164  1.00  0.00     0.029 A 
ATOM     38  N   UNL     1       1.285   4.881  -6.929  1.00  0.00    -0.354 N 
ATOM     39  C   UNL     1       3.572   8.438  -6.079  1.00  0.00     0.074 A 
ATOM     40  C   UNL     1       4.737   8.128  -5.277  1.00  0.00     0.031 C 
ATOM     41  C   UNL     1       0.800   2.700  -6.863  1.00  0.00     0.029 A 
ATOM     42  C   UNL     1       0.321   3.995  -7.341  1.00  0.00     0.049 A 
ATOM     43  H   UNL     1       1.268   5.840  -7.153  1.00  0.00     0.167 HD
ATOM     44  C   UNL     1       3.259   9.677  -6.529  1.00  0.00     0.037 A 
ATOM     45  C   UNL     1      -0.833   4.209  -8.002  1.00  0.00     0.037 A 
ATOM     46  C   UNL     1       2.099   9.984  -7.325  1.00  0.00     0.049 A 
ATOM     47  C   UNL     1      -1.199   5.606  -8.422  1.00  0.00     0.074 A 
ATOM     48  C   UNL     1       1.718  11.202  -7.860  1.00  0.00     0.029 A 
ATOM     49  N   UNL     1       1.125   9.067  -7.687  1.00  0.00    -0.354 N 
ATOM     50  N   UNL     1      -0.528   6.721  -8.261  1.00  0.00    -0.248 NA
ATOM     51  C   UNL     1      -2.486   5.776  -9.112  1.00  0.00     0.031 C 
ATOM     52  C   UNL     1       0.487  11.033  -8.502  1.00  0.00     0.029 A 
ATOM     53  C   UNL     1       0.124   9.699  -8.408  1.00  0.00     0.049 A 
ATOM     54  H   UNL     1       1.141   8.108  -7.465  1.00  0.00     0.167 HD
ATOM     55  C   UNL     1      -1.301   7.719  -8.842  1.00  0.00     0.074 A 
ATOM     56  C   UNL     1      -2.483   7.075  -9.375  1.00  0.00     0.031 C 
ATOM     57  C   UNL     1      -1.052   9.049  -8.925  1.00  0.00     0.037 A 
BRANCH  44  58
ATOM     58  C   UNL     1       4.174  10.803  -6.149  1.00  0.00     0.057 A 
ATOM     59  C   UNL     1       5.441  10.954  -6.725  1.00  0.00     0.134 A 
ATOM     60  C   UNL     1       3.764  11.772  -5.224  1.00  0.00     0.134 A 
ATOM     61  F   UNL     1       5.899  10.055  -7.609  1.00  0.00    -0.206 F 
ATOM     62  C   UNL     1       6.277  12.019  -6.380  1.00  0.00     0.040 A 
ATOM     63  C   UNL     1       4.580  12.853  -4.889  1.00  0.00     0.040 A 
ATOM     64  F   UNL     1       2.559  11.689  -4.640  1.00  0.00    -0.206 F 
ATOM     65  C   UNL     1       5.843  12.976  -5.464  1.00  0.00     0.006 A 
ENDBRANCH  44  58
BRANCH  45  66
ATOM     66  C   UNL     1      -1.744   3.072  -8.283  1.00  0.00     0.057 A 
ATOM     67  C   UNL     1      -1.940   2.601  -9.586  1.00  0.00     0.134 A 
ATOM     68  C   UNL     1      -2.451   2.437  -7.254  1.00  0.00     0.134 A 
ATOM     69  F   UNL     1      -1.310   3.186 -10.616  1.00  0.00    -0.206 F 
ATOM     70  C   UNL     1      -2.813   1.547  -9.858  1.00  0.00     0.040 A 
ATOM     71  C   UNL     1      -3.309   1.366  -7.508  1.00  0.00     0.040 A 
ATOM     72  F   UNL     1      -2.310   2.845  -5.984  1.00  0.00    -0.206 F 
ATOM     73  C   UNL     1      -3.496   0.922  -8.816  1.00  0.00     0.006 A 
ENDBRANCH  45  66
BRANCH  57  74
ATOM     74  C   UNL     1      -2.073   9.896  -9.628  1.00  0.00     0.057 A 
ATOM     75  C   UNL     1      -3.307  10.201  -9.040  1.00  0.00     0.134 A 
ATOM     76  C   UNL     1      -1.803  10.446 -10.888  1.00  0.00     0.134 A 
ATOM     77  F   UNL     1      -3.632   9.695  -7.841  1.00  0.00    -0.206 F 
ATOM     78  C   UNL     1      -4.243  11.008  -9.688  1.00  0.00     0.040 A 
ATOM     79  C   UNL     1      -2.721  11.274 -11.534  1.00  0.00     0.040 A 
ATOM     80  F   UNL     1      -0.636  10.199 -11.503  1.00  0.00    -0.206 F 
ATOM     81  C   UNL     1      -3.948  11.553 -10.936  1.00  0.00     0.006 A 
ENDBRANCH  57  74
ENDBRANCH  31  32
ENDBRANCH  24  26
ENDBRANCH  23  24
ENDBRANCH  22  23
ENDBRANCH  21  22
ENDBRANCH   1  21
TORSDOF 16
