REMARK SMILES CO[C@@H]1C[C@H](C(=O)OCCOCCOC(=O)c2ccc(-c3c4nc(c(-c5c(F)cccc5F)c5ccc([nH]5)c(-c5c(F)cccc5F)c5nc(c(-c6c(F)cccc6F)c6ccc3[nH]6)C=C5)C=C4)cc2)N(C(=O)c2ccn(C)c(=O)c2)C1
REMARK SMILES IDX 11 1 10 2 9 3 8 4 6 5 7 6 5 7 3 8 4 9 82 10 71 11 2 12 1 13
REMARK SMILES IDX 72 14 73 15 74 16 75 17 81 18 76 19 79 20 77 21 80 22 78 23
REMARK SMILES IDX 12 24 13 25 14 26 15 27 16 28 17 29 18 30 70 31 19 32 69 33
REMARK SMILES IDX 20 34 21 35 22 36 63 37 23 38 68 39 62 40 64 41 24 42 67 43
REMARK SMILES IDX 61 44 60 45 25 47 51 48 34 49 50 50 35 51 38 52 49 53 65 54
REMARK SMILES IDX 36 55 37 56 48 58 66 59 39 60 26 61 27 62 32 63 28 64 29 65
REMARK SMILES IDX 31 66 33 67 30 68 52 69 53 70 58 71 54 72 55 73 57 74 59 75
REMARK SMILES IDX 56 76 40 77 41 78 46 79 42 80 43 81 45 82 47 83 44 84
REMARK H PARENT 64 46 38 57
REMARK Flexibility Score: inf
ROOT
ATOM      1  O   UNL     1      -3.326   5.445  -0.984  1.00  0.00    -0.374 OA
ENDROOT
BRANCH   1   2
ATOM      2  C   UNL     1      -3.684   4.321  -1.786  1.00  0.00     0.202 C 
BRANCH   2   3
ATOM      3  C   UNL     1      -2.660   3.881  -2.832  1.00  0.00     0.261 C 
BRANCH   3   4
ATOM      4  O   UNL     1      -1.388   3.610  -2.228  1.00  0.00    -0.462 OA
BRANCH   4   5
ATOM      5  C   UNL     1      -0.349   4.325  -2.731  1.00  0.00     0.329 C 
ATOM      6  O   UNL     1      -0.424   5.032  -3.731  1.00  0.00    -0.250 OA
BRANCH   5   7
ATOM      7  C   UNL     1       0.935   4.211  -1.888  1.00  0.00     0.198 C 
ATOM      8  C   UNL     1       1.679   1.952  -1.284  1.00  0.00     0.140 C 
ATOM      9  C   UNL     1       0.939   3.188  -0.749  1.00  0.00     0.071 C 
ATOM     10  C   UNL     1       2.160   2.337  -2.685  1.00  0.00     0.152 C 
ATOM     11  N   UNL     1       2.022   3.776  -2.758  1.00  0.00    -0.322 N 
BRANCH   8  12
ATOM     12  O   UNL     1       0.799   0.832  -1.341  1.00  0.00    -0.380 OA
ATOM     13  C   UNL     1       0.815   0.072  -0.137  1.00  0.00     0.195 C 
ENDBRANCH   8  12
BRANCH  11  14
ATOM     14  C   UNL     1       2.730   4.512  -3.681  1.00  0.00     0.254 C 
ATOM     15  O   UNL     1       3.504   3.999  -4.486  1.00  0.00    -0.269 OA
BRANCH  14  16
ATOM     16  C   UNL     1       2.533   5.987  -3.694  1.00  0.00     0.046 A 
ATOM     17  C   UNL     1       1.904   6.631  -4.822  1.00  0.00     0.032 A 
ATOM     18  C   UNL     1       3.003   6.708  -2.667  1.00  0.00     0.085 A 
ATOM     19  C   UNL     1       1.741   7.958  -4.824  1.00  0.00     0.089 A 
ATOM     20  C   UNL     1       2.813   8.181  -2.653  1.00  0.00     0.251 A 
ATOM     21  N   UNL     1       2.180   8.733  -3.765  1.00  0.00    -0.319 N 
ATOM     22  O   UNL     1       3.206   8.814  -1.676  1.00  0.00    -0.269 OA
ATOM     23  C   UNL     1       1.971  10.171  -3.827  1.00  0.00     0.153 C 
ENDBRANCH  14  16
ENDBRANCH  11  14
ENDBRANCH   5   7
ENDBRANCH   4   5
ENDBRANCH   3   4
ENDBRANCH   2   3
ENDBRANCH   1   2
BRANCH   1  24
ATOM     24  C   UNL     1      -2.353   5.260   0.046  1.00  0.00     0.202 C 
BRANCH  24  25
ATOM     25  C   UNL     1      -2.740   4.353   1.221  1.00  0.00     0.261 C 
BRANCH  25  26
ATOM     26  O   UNL     1      -2.835   2.967   0.835  1.00  0.00    -0.460 OA
BRANCH  26  27
ATOM     27  C   UNL     1      -4.046   2.402   1.053  1.00  0.00     0.338 C 
ATOM     28  O   UNL     1      -5.015   2.914   1.601  1.00  0.00    -0.246 OA
BRANCH  27  29
ATOM     29  C   UNL     1      -4.141   1.098   0.377  1.00  0.00     0.060 A 
ATOM     30  C   UNL     1      -5.179   0.920  -0.547  1.00  0.00     0.016 A 
ATOM     31  C   UNL     1      -3.317   0.029   0.735  1.00  0.00     0.016 A 
ATOM     32  C   UNL     1      -5.436  -0.343  -1.075  1.00  0.00     0.010 A 
ATOM     33  C   UNL     1      -3.584  -1.241   0.212  1.00  0.00     0.010 A 
ATOM     34  C   UNL     1      -4.670  -1.440  -0.660  1.00  0.00    -0.014 A 
BRANCH  34  35
ATOM     35  C   UNL     1      -5.124  -2.811  -0.995  1.00  0.00     0.031 A 
ATOM     36  C   UNL     1      -5.925  -3.579   0.023  1.00  0.00     0.074 A 
ATOM     37  C   UNL     1      -4.865  -3.354  -2.196  1.00  0.00     0.049 A 
ATOM     38  N   UNL     1      -6.388  -4.801  -0.034  1.00  0.00    -0.248 NA
ATOM     39  C   UNL     1      -6.245  -2.870   1.273  1.00  0.00     0.031 C 
ATOM     40  C   UNL     1      -4.146  -2.696  -3.284  1.00  0.00     0.029 A 
ATOM     41  N   UNL     1      -5.179  -4.593  -2.697  1.00  0.00    -0.354 N 
ATOM     42  C   UNL     1      -7.046  -5.010   1.172  1.00  0.00     0.074 A 
ATOM     43  C   UNL     1      -6.902  -3.799   1.950  1.00  0.00     0.031 C 
ATOM     44  C   UNL     1      -4.061  -3.545  -4.324  1.00  0.00     0.029 A 
ATOM     45  C   UNL     1      -4.694  -4.812  -3.963  1.00  0.00     0.049 A 
ATOM     46  H   UNL     1      -5.701  -5.261  -2.197  1.00  0.00     0.167 HD
ATOM     47  C   UNL     1      -7.717  -6.110   1.590  1.00  0.00     0.037 A 
ATOM     48  C   UNL     1      -4.737  -5.918  -4.730  1.00  0.00     0.037 A 
ATOM     49  C   UNL     1      -7.866  -7.313   0.816  1.00  0.00     0.049 A 
ATOM     50  C   UNL     1      -5.426  -7.153  -4.214  1.00  0.00     0.074 A 
ATOM     51  C   UNL     1      -8.537  -8.477   1.150  1.00  0.00     0.029 A 
ATOM     52  N   UNL     1      -7.332  -7.507  -0.448  1.00  0.00    -0.354 N 
ATOM     53  N   UNL     1      -6.053  -7.338  -3.078  1.00  0.00    -0.248 NA
ATOM     54  C   UNL     1      -5.414  -8.335  -5.090  1.00  0.00     0.031 C 
ATOM     55  C   UNL     1      -8.374  -9.390   0.103  1.00  0.00     0.029 A 
ATOM     56  C   UNL     1      -7.640  -8.779  -0.900  1.00  0.00     0.049 A 
ATOM     57  H   UNL     1      -6.812  -6.839  -0.951  1.00  0.00     0.167 HD
ATOM     58  C   UNL     1      -6.532  -8.643  -3.113  1.00  0.00     0.074 A 
ATOM     59  C   UNL     1      -6.130  -9.201  -4.387  1.00  0.00     0.031 C 
ATOM     60  C   UNL     1      -7.242  -9.316  -2.176  1.00  0.00     0.037 A 
BRANCH  47  61
ATOM     61  C   UNL     1      -8.319  -6.068   2.963  1.00  0.00     0.057 A 
ATOM     62  C   UNL     1      -9.465  -5.313   3.245  1.00  0.00     0.134 A 
ATOM     63  C   UNL     1      -7.760  -6.812   4.009  1.00  0.00     0.134 A 
ATOM     64  F   UNL     1     -10.039  -4.566   2.290  1.00  0.00    -0.206 F 
ATOM     65  C   UNL     1     -10.021  -5.285   4.525  1.00  0.00     0.040 A 
ATOM     66  C   UNL     1      -8.320  -6.810   5.287  1.00  0.00     0.040 A 
ATOM     67  F   UNL     1      -6.663  -7.557   3.804  1.00  0.00    -0.206 F 
ATOM     68  C   UNL     1      -9.452  -6.040   5.549  1.00  0.00     0.006 A 
ENDBRANCH  47  61
BRANCH  48  69
ATOM     69  C   UNL     1      -4.090  -5.920  -6.065  1.00  0.00     0.057 A 
ATOM     70  C   UNL     1      -4.849  -5.964  -7.240  1.00  0.00     0.134 A 
ATOM     71  C   UNL     1      -2.696  -5.901  -6.197  1.00  0.00     0.134 A 
ATOM     72  F   UNL     1      -6.188  -6.010  -7.176  1.00  0.00    -0.206 F 
ATOM     73  C   UNL     1      -4.247  -6.004  -8.498  1.00  0.00     0.040 A 
ATOM     74  C   UNL     1      -2.080  -5.917  -7.449  1.00  0.00     0.040 A 
ATOM     75  F   UNL     1      -1.914  -5.862  -5.109  1.00  0.00    -0.206 F 
ATOM     76  C   UNL     1      -2.857  -5.975  -8.605  1.00  0.00     0.006 A 
ENDBRANCH  48  69
BRANCH  60  77
ATOM     77  C   UNL     1      -7.664 -10.718  -2.506  1.00  0.00     0.057 A 
ATOM     78  C   UNL     1      -6.756 -11.783  -2.501  1.00  0.00     0.134 A 
ATOM     79  C   UNL     1      -9.005 -11.010  -2.785  1.00  0.00     0.134 A 
ATOM     80  F   UNL     1      -5.455 -11.568  -2.252  1.00  0.00    -0.206 F 
ATOM     81  C   UNL     1      -7.164 -13.089  -2.781  1.00  0.00     0.040 A 
ATOM     82  C   UNL     1      -9.429 -12.314  -3.044  1.00  0.00     0.040 A 
ATOM     83  F   UNL     1      -9.926 -10.035  -2.796  1.00  0.00    -0.206 F 
ATOM     84  C   UNL     1      -8.506 -13.357  -3.047  1.00  0.00     0.006 A 
ENDBRANCH  60  77
ENDBRANCH  34  35
ENDBRANCH  27  29
ENDBRANCH  26  27
ENDBRANCH  25  26
ENDBRANCH  24  25
ENDBRANCH   1  24
TORSDOF 17
