REMARK SMILES CC1(C)[C@H](C(=O)OCCOCCOC(=O)c2ccc(-c3c4nc(c(-c5c(F)cccc5F)c5ccc([nH]5)c(-c5c(F)cccc5F)c5nc(c(-c6c(F)cccc6F)c6ccc3[nH]6)C=C5)C=C4)cc2)[C@@H]1C(=O)Nc1ccc(NC(=O)C2CCC2)cc1
REMARK SMILES IDX 9 1 8 2 7 3 5 4 6 5 4 6 1 7 2 8 3 9 70 10 71 11 72 12 73 13
REMARK SMILES IDX 74 15 75 16 86 17 76 18 85 19 77 20 78 21 79 22 80 24 81 25
REMARK SMILES IDX 82 26 84 27 83 28 10 29 11 30 12 31 13 32 14 33 15 34 16 35
REMARK SMILES IDX 17 36 69 37 18 38 68 39 19 40 20 41 21 42 62 43 22 44 67 45
REMARK SMILES IDX 61 46 63 47 23 48 66 49 60 50 59 51 24 53 50 54 33 55 49 56
REMARK SMILES IDX 34 57 37 58 48 59 64 60 35 61 36 62 47 64 65 65 38 66 25 67
REMARK SMILES IDX 26 68 31 69 27 70 28 71 30 72 32 73 29 74 51 75 52 76 57 77
REMARK SMILES IDX 53 78 54 79 56 80 58 81 55 82 39 83 40 84 45 85 41 86 42 87
REMARK SMILES IDX 44 88 46 89 43 90
REMARK H PARENT 73 14 78 23 63 52 37 63
REMARK Flexibility Score: inf
ROOT
ATOM      1  C   UNL     1      -1.907   2.544  -3.887  1.00  0.00     0.202 C 
ENDROOT
BRANCH   1   2
ATOM      2  C   UNL     1      -1.692   2.803  -2.382  1.00  0.00     0.261 C 
BRANCH   2   3
ATOM      3  O   UNL     1      -1.105   1.812  -1.542  1.00  0.00    -0.463 OA
BRANCH   3   4
ATOM      4  C   UNL     1      -1.707   0.604  -1.498  1.00  0.00     0.310 C 
ATOM      5  O   UNL     1      -2.607   0.248  -2.230  1.00  0.00    -0.252 OA
BRANCH   4   6
ATOM      6  C   UNL     1      -1.052  -0.372  -0.595  1.00  0.00     0.118 C 
ATOM      7  C   UNL     1       1.210  -1.270   0.207  1.00  0.00     0.013 C 
ATOM      8  C   UNL     1       0.198  -0.150   0.233  1.00  0.00    -0.009 C 
ATOM      9  C   UNL     1       0.852   1.215   0.306  1.00  0.00     0.013 C 
ATOM     10  C   UNL     1      -1.168  -0.417   0.907  1.00  0.00     0.100 C 
BRANCH  10  11
ATOM     11  C   UNL     1      -1.699   0.592   1.854  1.00  0.00     0.228 C 
ATOM     12  O   UNL     1      -0.972   1.000   2.759  1.00  0.00    -0.274 OA
ATOM     13  N   UNL     1      -2.978   1.079   1.780  1.00  0.00    -0.326 N 
ATOM     14  H   UNL     1      -3.276   1.604   2.557  1.00  0.00     0.169 HD
BRANCH  13  15
ATOM     15  C   UNL     1      -3.913   0.933   0.759  1.00  0.00     0.041 A 
ATOM     16  C   UNL     1      -4.347   2.123   0.199  1.00  0.00     0.028 A 
ATOM     17  C   UNL     1      -4.343  -0.276   0.222  1.00  0.00     0.028 A 
ATOM     18  C   UNL     1      -5.033   2.103  -1.009  1.00  0.00     0.028 A 
ATOM     19  C   UNL     1      -5.134  -0.272  -0.945  1.00  0.00     0.028 A 
ATOM     20  C   UNL     1      -5.425   0.930  -1.617  1.00  0.00     0.041 A 
BRANCH  20  21
ATOM     21  N   UNL     1      -6.016   0.856  -2.886  1.00  0.00    -0.326 N 
ATOM     22  C   UNL     1      -6.339   1.726  -3.908  1.00  0.00     0.227 C 
ATOM     23  H   UNL     1      -6.270  -0.069  -3.110  1.00  0.00     0.169 HD
ATOM     24  O   UNL     1      -6.832   1.150  -4.901  1.00  0.00    -0.274 OA
BRANCH  22  25
ATOM     25  C   UNL     1      -6.121   3.254  -3.985  1.00  0.00     0.079 C 
ATOM     26  C   UNL     1      -7.341   4.010  -4.638  1.00  0.00     0.013 C 
ATOM     27  C   UNL     1      -6.265   4.313  -2.861  1.00  0.00     0.013 C 
ATOM     28  C   UNL     1      -6.909   5.263  -3.871  1.00  0.00     0.002 C 
ENDBRANCH  22  25
ENDBRANCH  20  21
ENDBRANCH  13  15
ENDBRANCH  10  11
ENDBRANCH   4   6
ENDBRANCH   3   4
ENDBRANCH   2   3
ENDBRANCH   1   2
BRANCH   1  29
ATOM     29  O   UNL     1      -1.306   1.502  -4.634  1.00  0.00    -0.374 OA
BRANCH  29  30
ATOM     30  C   UNL     1      -0.099   0.878  -4.253  1.00  0.00     0.202 C 
BRANCH  30  31
ATOM     31  C   UNL     1       1.185   1.695  -4.319  1.00  0.00     0.261 C 
BRANCH  31  32
ATOM     32  O   UNL     1       1.100   2.946  -3.628  1.00  0.00    -0.460 OA
BRANCH  32  33
ATOM     33  C   UNL     1       0.985   4.019  -4.445  1.00  0.00     0.338 C 
ATOM     34  O   UNL     1       0.957   4.024  -5.664  1.00  0.00    -0.246 OA
BRANCH  33  35
ATOM     35  C   UNL     1       0.766   5.240  -3.652  1.00  0.00     0.060 A 
ATOM     36  C   UNL     1      -0.263   6.095  -4.062  1.00  0.00     0.016 A 
ATOM     37  C   UNL     1       1.607   5.589  -2.591  1.00  0.00     0.016 A 
ATOM     38  C   UNL     1      -0.409   7.341  -3.463  1.00  0.00     0.010 A 
ATOM     39  C   UNL     1       1.466   6.846  -1.997  1.00  0.00     0.010 A 
ATOM     40  C   UNL     1       0.491   7.744  -2.468  1.00  0.00    -0.014 A 
BRANCH  40  41
ATOM     41  C   UNL     1       0.539   9.176  -2.092  1.00  0.00     0.031 A 
ATOM     42  C   UNL     1       1.563  10.057  -2.755  1.00  0.00     0.074 A 
ATOM     43  C   UNL     1      -0.352   9.697  -1.233  1.00  0.00     0.049 A 
ATOM     44  N   UNL     1       1.780  11.338  -2.603  1.00  0.00    -0.248 NA
ATOM     45  C   UNL     1       2.464   9.405  -3.720  1.00  0.00     0.031 C 
ATOM     46  C   UNL     1      -1.416   8.952  -0.563  1.00  0.00     0.029 A 
ATOM     47  N   UNL     1      -0.502  10.983  -0.781  1.00  0.00    -0.354 N 
ATOM     48  C   UNL     1       2.838  11.644  -3.450  1.00  0.00     0.074 A 
ATOM     49  C   UNL     1       3.244  10.410  -4.086  1.00  0.00     0.031 C 
ATOM     50  C   UNL     1      -2.108   9.796   0.222  1.00  0.00     0.029 A 
ATOM     51  C   UNL     1      -1.520  11.132   0.126  1.00  0.00     0.049 A 
ATOM     52  H   UNL     1       0.068  11.729  -1.080  1.00  0.00     0.167 HD
ATOM     53  C   UNL     1       3.411  12.847  -3.688  1.00  0.00     0.037 A 
ATOM     54  C   UNL     1      -1.920  12.221   0.809  1.00  0.00     0.037 A 
ATOM     55  C   UNL     1       3.005  14.073  -3.057  1.00  0.00     0.049 A 
ATOM     56  C   UNL     1      -1.219  13.534   0.580  1.00  0.00     0.074 A 
ATOM     57  C   UNL     1       3.513  15.348  -3.241  1.00  0.00     0.029 A 
ATOM     58  N   UNL     1       1.996  14.176  -2.112  1.00  0.00    -0.354 N 
ATOM     59  N   UNL     1      -0.238  13.819  -0.243  1.00  0.00    -0.248 NA
ATOM     60  C   UNL     1      -1.686  14.681   1.373  1.00  0.00     0.031 C 
ATOM     61  C   UNL     1       2.843  16.213  -2.370  1.00  0.00     0.029 A 
ATOM     62  C   UNL     1       1.882  15.488  -1.683  1.00  0.00     0.049 A 
ATOM     63  H   UNL     1       1.442  13.427  -1.793  1.00  0.00     0.167 HD
ATOM     64  C   UNL     1       0.009  15.178  -0.088  1.00  0.00     0.074 A 
ATOM     65  C   UNL     1      -0.935  15.663   0.897  1.00  0.00     0.031 C 
ATOM     66  C   UNL     1       0.933  15.955  -0.705  1.00  0.00     0.037 A 
BRANCH  53  67
ATOM     67  C   UNL     1       4.558  12.885  -4.656  1.00  0.00     0.057 A 
ATOM     68  C   UNL     1       4.371  12.712  -6.034  1.00  0.00     0.134 A 
ATOM     69  C   UNL     1       5.863  13.120  -4.205  1.00  0.00     0.134 A 
ATOM     70  F   UNL     1       3.149  12.466  -6.529  1.00  0.00    -0.206 F 
ATOM     71  C   UNL     1       5.445  12.748  -6.926  1.00  0.00     0.040 A 
ATOM     72  C   UNL     1       6.940  13.185  -5.090  1.00  0.00     0.040 A 
ATOM     73  F   UNL     1       6.111  13.295  -2.899  1.00  0.00    -0.206 F 
ATOM     74  C   UNL     1       6.733  12.992  -6.454  1.00  0.00     0.006 A 
ENDBRANCH  53  67
BRANCH  54  75
ATOM     75  C   UNL     1      -3.034  12.120   1.786  1.00  0.00     0.057 A 
ATOM     76  C   UNL     1      -4.262  12.749   1.556  1.00  0.00     0.134 A 
ATOM     77  C   UNL     1      -2.885  11.415   2.987  1.00  0.00     0.134 A 
ATOM     78  F   UNL     1      -4.458  13.458   0.434  1.00  0.00    -0.206 F 
ATOM     79  C   UNL     1      -5.296  12.697   2.493  1.00  0.00     0.040 A 
ATOM     80  C   UNL     1      -3.918  11.334   3.921  1.00  0.00     0.040 A 
ATOM     81  F   UNL     1      -1.732  10.789   3.266  1.00  0.00    -0.206 F 
ATOM     82  C   UNL     1      -5.126  11.984   3.678  1.00  0.00     0.006 A 
ENDBRANCH  54  75
BRANCH  66  83
ATOM     83  C   UNL     1       0.946  17.416  -0.359  1.00  0.00     0.057 A 
ATOM     84  C   UNL     1       1.405  17.879   0.880  1.00  0.00     0.134 A 
ATOM     85  C   UNL     1       0.528  18.373  -1.293  1.00  0.00     0.134 A 
ATOM     86  F   UNL     1       1.809  17.014   1.823  1.00  0.00    -0.206 F 
ATOM     87  C   UNL     1       1.423  19.241   1.188  1.00  0.00     0.040 A 
ATOM     88  C   UNL     1       0.568  19.738  -1.007  1.00  0.00     0.040 A 
ATOM     89  F   UNL     1       0.087  17.998  -2.503  1.00  0.00    -0.206 F 
ATOM     90  C   UNL     1       1.010  20.175   0.240  1.00  0.00     0.006 A 
ENDBRANCH  66  83
ENDBRANCH  40  41
ENDBRANCH  33  35
ENDBRANCH  32  33
ENDBRANCH  31  32
ENDBRANCH  30  31
ENDBRANCH  29  30
ENDBRANCH   1  29
TORSDOF 18
