REMARK SMILES COc1ccc(-c2c(C(=O)OCCOCCOC(=O)c3ccc(-c4c5nc(c(-c6c(F)cccc6F)c6ccc([nH]6)c(-c6c(F)cccc6F)c6nc(c(-c7c(F)cccc7F)c7ccc4[nH]7)C=C6)C=C5)cc3)sc3c2N=C(O)C[C@H]3c2ccc(OC)c(OC)c2)cc1
REMARK SMILES IDX 14 1 13 2 12 3 11 4 9 5 10 6 8 7 7 8 76 9 74 10 75 11 77 12
REMARK SMILES IDX 81 13 78 14 80 15 6 16 3 17 4 18 93 19 5 20 92 21 2 22 1 23
REMARK SMILES IDX 82 24 83 25 91 26 84 27 88 28 85 29 89 30 90 31 86 32 87 33
REMARK SMILES IDX 79 34 15 36 16 37 17 38 18 39 19 40 20 41 21 42 73 43 22 44
REMARK SMILES IDX 72 45 23 46 24 47 25 48 66 49 26 50 71 51 65 52 67 53 27 54
REMARK SMILES IDX 70 55 64 56 63 57 28 59 54 60 37 61 53 62 38 63 41 64 52 65
REMARK SMILES IDX 68 66 39 67 40 68 51 70 69 71 42 72 29 73 30 74 35 75 31 76
REMARK SMILES IDX 32 77 34 78 36 79 33 80 55 81 56 82 61 83 57 84 58 85 60 86
REMARK SMILES IDX 62 87 59 88 43 89 44 90 49 91 45 92 46 93 48 94 50 95 47 96
REMARK H PARENT 79 35 67 58 41 69
REMARK Flexibility Score: inf
ROOT
ATOM      1  O   UNL     1      -1.364  -8.047   0.790  1.00  0.00    -0.374 OA
ENDROOT
BRANCH   1   2
ATOM      2  C   UNL     1      -1.779  -6.692   0.611  1.00  0.00     0.202 C 
BRANCH   2   3
ATOM      3  C   UNL     1      -1.885  -5.798   1.844  1.00  0.00     0.261 C 
BRANCH   3   4
ATOM      4  O   UNL     1      -0.609  -5.571   2.459  1.00  0.00    -0.459 OA
BRANCH   4   5
ATOM      5  C   UNL     1      -0.472  -6.077   3.720  1.00  0.00     0.349 C 
ATOM      6  O   UNL     1      -1.341  -6.702   4.308  1.00  0.00    -0.245 OA
BRANCH   5   7
ATOM      7  C   UNL     1       0.873  -5.851   4.219  1.00  0.00     0.123 A 
ATOM      8  C   UNL     1       1.740  -4.767   4.123  1.00  0.00     0.033 A 
ATOM      9  C   UNL     1       2.910  -4.999   4.920  1.00  0.00     0.090 A 
ATOM     10  S   UNL     1       1.572  -7.153   5.103  1.00  0.00    -0.130 S 
ATOM     11  C   UNL     1       2.934  -6.229   5.518  1.00  0.00     0.040 A 
ATOM     12  N   UNL     1       3.891  -4.025   5.131  1.00  0.00    -0.216 NA
ATOM     13  C   UNL     1       3.995  -6.727   6.441  1.00  0.00     0.071 C 
ATOM     14  C   UNL     1       4.830  -4.349   5.955  1.00  0.00     0.186 C 
ATOM     15  C   UNL     1       5.077  -5.661   6.659  1.00  0.00     0.111 C 
BRANCH   8  16
ATOM     16  C   UNL     1       1.416  -3.551   3.376  1.00  0.00    -0.014 A 
ATOM     17  C   UNL     1       0.764  -1.292   1.826  1.00  0.00     0.118 A 
ATOM     18  C   UNL     1      -0.127  -1.775   2.786  1.00  0.00     0.047 A 
ATOM     19  C   UNL     1       2.002  -1.914   1.670  1.00  0.00     0.047 A 
ATOM     20  C   UNL     1       0.198  -2.889   3.563  1.00  0.00     0.012 A 
ATOM     21  C   UNL     1       2.325  -3.038   2.442  1.00  0.00     0.012 A 
BRANCH  17  22
ATOM     22  O   UNL     1       0.327  -0.193   1.141  1.00  0.00    -0.497 OA
ATOM     23  C   UNL     1       0.972   0.082  -0.096  1.00  0.00     0.278 C 
ENDBRANCH  17  22
ENDBRANCH   8  16
BRANCH  13  24
ATOM     24  C   UNL     1       3.443  -7.212   7.778  1.00  0.00    -0.035 A 
ATOM     25  C   UNL     1       2.687  -6.368   8.598  1.00  0.00     0.008 A 
ATOM     26  C   UNL     1       3.687  -8.529   8.206  1.00  0.00     0.054 A 
ATOM     27  C   UNL     1       2.198  -6.834   9.815  1.00  0.00     0.051 A 
ATOM     28  C   UNL     1       3.204  -9.008   9.436  1.00  0.00     0.161 A 
ATOM     29  C   UNL     1       2.445  -8.145  10.247  1.00  0.00     0.160 A 
BRANCH  28  30
ATOM     30  O   UNL     1       3.455 -10.275   9.891  1.00  0.00    -0.493 OA
ATOM     31  C   UNL     1       4.215 -11.153   9.071  1.00  0.00     0.278 C 
ENDBRANCH  28  30
BRANCH  29  32
ATOM     32  O   UNL     1       1.890  -8.391  11.476  1.00  0.00    -0.493 OA
ATOM     33  C   UNL     1       1.839  -9.728  11.947  1.00  0.00     0.278 C 
ENDBRANCH  29  32
ENDBRANCH  13  24
BRANCH  14  34
ATOM     34  O   UNL     1       5.763  -3.414   6.242  1.00  0.00    -0.496 OA
ATOM     35  H   UNL     1       5.705  -2.562   5.858  1.00  0.00     0.294 HD
ENDBRANCH  14  34
ENDBRANCH   5   7
ENDBRANCH   4   5
ENDBRANCH   3   4
ENDBRANCH   2   3
ENDBRANCH   1   2
BRANCH   1  36
ATOM     36  C   UNL     1      -0.060  -8.342   1.278  1.00  0.00     0.202 C 
BRANCH  36  37
ATOM     37  C   UNL     1       1.129  -8.100   0.359  1.00  0.00     0.261 C 
BRANCH  37  38
ATOM     38  O   UNL     1       1.194  -6.757  -0.089  1.00  0.00    -0.460 OA
BRANCH  38  39
ATOM     39  C   UNL     1       0.695  -6.572  -1.332  1.00  0.00     0.338 C 
ATOM     40  O   UNL     1       0.065  -7.367  -2.006  1.00  0.00    -0.246 OA
BRANCH  39  41
ATOM     41  C   UNL     1       1.157  -5.273  -1.831  1.00  0.00     0.060 A 
ATOM     42  C   UNL     1       0.783  -4.957  -3.139  1.00  0.00     0.016 A 
ATOM     43  C   UNL     1       2.211  -4.625  -1.173  1.00  0.00     0.016 A 
ATOM     44  C   UNL     1       1.659  -4.215  -3.892  1.00  0.00     0.010 A 
ATOM     45  C   UNL     1       3.085  -3.888  -1.925  1.00  0.00     0.010 A 
ATOM     46  C   UNL     1       2.855  -3.807  -3.294  1.00  0.00    -0.014 A 
BRANCH  46  47
ATOM     47  C   UNL     1       3.892  -3.273  -4.142  1.00  0.00     0.031 A 
ATOM     48  C   UNL     1       3.615  -1.887  -4.565  1.00  0.00     0.074 A 
ATOM     49  C   UNL     1       5.018  -3.968  -4.391  1.00  0.00     0.049 A 
ATOM     50  N   UNL     1       3.322  -1.466  -5.748  1.00  0.00    -0.248 NA
ATOM     51  C   UNL     1       3.438  -0.882  -3.502  1.00  0.00     0.031 C 
ATOM     52  C   UNL     1       5.470  -5.230  -3.795  1.00  0.00     0.029 A 
ATOM     53  N   UNL     1       6.065  -3.614  -5.180  1.00  0.00    -0.354 N 
ATOM     54  C   UNL     1       3.141  -0.095  -5.611  1.00  0.00     0.074 A 
ATOM     55  C   UNL     1       3.005   0.164  -4.203  1.00  0.00     0.031 C 
ATOM     56  C   UNL     1       6.786  -5.404  -4.059  1.00  0.00     0.029 A 
ATOM     57  C   UNL     1       7.226  -4.346  -4.949  1.00  0.00     0.049 A 
ATOM     58  H   UNL     1       6.008  -2.901  -5.857  1.00  0.00     0.167 HD
ATOM     59  C   UNL     1       3.405   0.753  -6.639  1.00  0.00     0.037 A 
ATOM     60  C   UNL     1       8.460  -3.999  -5.396  1.00  0.00     0.037 A 
ATOM     61  C   UNL     1       3.461   0.054  -7.896  1.00  0.00     0.049 A 
ATOM     62  C   UNL     1       8.262  -3.039  -6.518  1.00  0.00     0.074 A 
ATOM     63  C   UNL     1       2.556  -0.685  -8.632  1.00  0.00     0.029 A 
ATOM     64  N   UNL     1       4.702  -0.274  -8.386  1.00  0.00    -0.354 N 
ATOM     65  N   UNL     1       7.718  -3.371  -7.658  1.00  0.00    -0.248 NA
ATOM     66  C   UNL     1       8.188  -1.623  -6.180  1.00  0.00     0.031 C 
ATOM     67  C   UNL     1       3.316  -1.760  -9.178  1.00  0.00     0.029 A 
ATOM     68  C   UNL     1       4.648  -1.578  -8.805  1.00  0.00     0.049 A 
ATOM     69  H   UNL     1       5.487   0.320  -8.428  1.00  0.00     0.167 HD
ATOM     70  C   UNL     1       6.882  -2.308  -7.978  1.00  0.00     0.074 A 
ATOM     71  C   UNL     1       7.252  -1.238  -7.053  1.00  0.00     0.031 C 
ATOM     72  C   UNL     1       5.771  -2.486  -8.752  1.00  0.00     0.037 A 
BRANCH  59  73
ATOM     73  C   UNL     1       4.003   2.119  -6.448  1.00  0.00     0.057 A 
ATOM     74  C   UNL     1       4.058   2.997  -7.541  1.00  0.00     0.134 A 
ATOM     75  C   UNL     1       4.779   2.494  -5.331  1.00  0.00     0.134 A 
ATOM     76  F   UNL     1       3.377   2.737  -8.667  1.00  0.00    -0.206 F 
ATOM     77  C   UNL     1       4.880   4.129  -7.546  1.00  0.00     0.040 A 
ATOM     78  C   UNL     1       5.559   3.650  -5.305  1.00  0.00     0.040 A 
ATOM     79  F   UNL     1       4.912   1.718  -4.249  1.00  0.00    -0.206 F 
ATOM     80  C   UNL     1       5.639   4.455  -6.428  1.00  0.00     0.006 A 
ENDBRANCH  59  73
BRANCH  60  81
ATOM     81  C   UNL     1       9.742  -4.112  -4.660  1.00  0.00     0.057 A 
ATOM     82  C   UNL     1      10.976  -4.037  -5.318  1.00  0.00     0.134 A 
ATOM     83  C   UNL     1       9.787  -4.027  -3.255  1.00  0.00     0.134 A 
ATOM     84  F   UNL     1      11.034  -4.054  -6.657  1.00  0.00    -0.206 F 
ATOM     85  C   UNL     1      12.185  -3.882  -4.621  1.00  0.00     0.040 A 
ATOM     86  C   UNL     1      10.984  -3.875  -2.548  1.00  0.00     0.040 A 
ATOM     87  F   UNL     1       8.661  -3.998  -2.527  1.00  0.00    -0.206 F 
ATOM     88  C   UNL     1      12.190  -3.792  -3.232  1.00  0.00     0.006 A 
ENDBRANCH  60  81
BRANCH  72  89
ATOM     89  C   UNL     1       5.577  -3.820  -9.418  1.00  0.00     0.057 A 
ATOM     90  C   UNL     1       5.317  -5.012  -8.723  1.00  0.00     0.134 A 
ATOM     91  C   UNL     1       5.452  -3.860 -10.810  1.00  0.00     0.134 A 
ATOM     92  F   UNL     1       5.320  -5.046  -7.385  1.00  0.00    -0.206 F 
ATOM     93  C   UNL     1       4.973  -6.194  -9.387  1.00  0.00     0.040 A 
ATOM     94  C   UNL     1       5.079  -5.025 -11.484  1.00  0.00     0.040 A 
ATOM     95  F   UNL     1       5.629  -2.744 -11.535  1.00  0.00    -0.206 F 
ATOM     96  C   UNL     1       4.843  -6.199 -10.773  1.00  0.00     0.006 A 
ENDBRANCH  72  89
ENDBRANCH  46  47
ENDBRANCH  39  41
ENDBRANCH  38  39
ENDBRANCH  37  38
ENDBRANCH  36  37
ENDBRANCH   1  36
TORSDOF 20
