REMARK SMILES O=C(OCCOCCOC(=O)c1ccccc1-c1ccc(/C=C2/SC(=S)N(Cc3ccccc3)C2=O)o1)c1ccc(-c2c3nc(c(-c4c(F)cccc4F)c4ccc([nH]4)c(-c4c(F)cccc4F)c4nc(c(-c5c(F)cccc5F)c5ccc2[nH]5)C=C4)C=C3)cc1
REMARK SMILES IDX 7 1 6 2 5 3 4 4 3 5 2 6 1 7 38 8 39 9 91 10 40 11 90 12
REMARK SMILES IDX 41 13 42 14 43 15 84 16 44 17 89 18 83 19 85 20 45 21 88 22
REMARK SMILES IDX 82 23 81 24 46 26 72 27 55 28 71 29 56 30 59 31 70 32 86 33
REMARK SMILES IDX 57 34 58 35 69 37 87 38 60 39 47 40 48 41 53 42 49 43 50 44
REMARK SMILES IDX 52 45 54 46 51 47 73 48 74 49 79 50 75 51 76 52 78 53 80 54
REMARK SMILES IDX 77 55 61 56 62 57 67 58 63 59 64 60 66 61 68 62 65 63 8 64
REMARK SMILES IDX 9 65 10 66 11 67 12 68 13 69 17 70 14 71 16 72 15 73 18 74
REMARK SMILES IDX 19 75 37 76 20 77 21 78 22 79 23 80 24 81 35 82 25 83 27 84
REMARK SMILES IDX 36 85 26 86 28 87 29 88 30 89 34 90 31 91 33 92 32 93
REMARK H PARENT 85 25 59 36
REMARK Flexibility Score: inf
ROOT
ATOM      1  C   UNL     1       2.866  -1.521  -1.235  1.00  0.00     0.202 C 
ENDROOT
BRANCH   1   2
ATOM      2  O   UNL     1       4.200  -1.179  -0.844  1.00  0.00    -0.374 OA
BRANCH   2   3
ATOM      3  C   UNL     1       4.505  -1.347   0.541  1.00  0.00     0.202 C 
BRANCH   3   4
ATOM      4  C   UNL     1       4.304  -0.065   1.355  1.00  0.00     0.261 C 
BRANCH   4   5
ATOM      5  O   UNL     1       2.928   0.347   1.328  1.00  0.00    -0.460 OA
BRANCH   5   6
ATOM      6  C   UNL     1       2.299   1.150   0.442  1.00  0.00     0.338 C 
ATOM      7  O   UNL     1       1.077   1.272   0.540  1.00  0.00    -0.246 OA
BRANCH   6   8
ATOM      8  C   UNL     1       2.975   1.900  -0.664  1.00  0.00     0.060 A 
ATOM      9  C   UNL     1       4.202   1.574  -1.248  1.00  0.00     0.016 A 
ATOM     10  C   UNL     1       2.249   2.963  -1.230  1.00  0.00     0.016 A 
ATOM     11  C   UNL     1       4.670   2.205  -2.385  1.00  0.00     0.010 A 
ATOM     12  C   UNL     1       2.734   3.651  -2.342  1.00  0.00     0.010 A 
ATOM     13  C   UNL     1       3.946   3.260  -2.916  1.00  0.00    -0.014 A 
BRANCH  13  14
ATOM     14  C   UNL     1       4.615   4.073  -3.929  1.00  0.00     0.031 A 
ATOM     15  C   UNL     1       5.361   5.269  -3.445  1.00  0.00     0.074 A 
ATOM     16  C   UNL     1       4.642   3.664  -5.205  1.00  0.00     0.049 A 
ATOM     17  N   UNL     1       5.923   6.226  -4.124  1.00  0.00    -0.248 NA
ATOM     18  C   UNL     1       5.498   5.397  -1.982  1.00  0.00     0.031 C 
ATOM     19  C   UNL     1       4.080   2.406  -5.700  1.00  0.00     0.029 A 
ATOM     20  N   UNL     1       5.166   4.263  -6.314  1.00  0.00    -0.354 N 
ATOM     21  C   UNL     1       6.437   7.096  -3.173  1.00  0.00     0.074 A 
ATOM     22  C   UNL     1       6.138   6.548  -1.871  1.00  0.00     0.031 C 
ATOM     23  C   UNL     1       4.261   2.344  -7.029  1.00  0.00     0.029 A 
ATOM     24  C   UNL     1       4.884   3.586  -7.474  1.00  0.00     0.049 A 
ATOM     25  H   UNL     1       5.691   5.095  -6.285  1.00  0.00     0.167 HD
ATOM     26  C   UNL     1       7.076   8.265  -3.390  1.00  0.00     0.037 A 
ATOM     27  C   UNL     1       5.057   3.980  -8.748  1.00  0.00     0.037 A 
ATOM     28  C   UNL     1       7.321   8.768  -4.713  1.00  0.00     0.049 A 
ATOM     29  C   UNL     1       5.671   5.335  -8.977  1.00  0.00     0.074 A 
ATOM     30  C   UNL     1       7.894   9.963  -5.097  1.00  0.00     0.029 A 
ATOM     31  N   UNL     1       6.984   8.084  -5.877  1.00  0.00    -0.354 N 
ATOM     32  N   UNL     1       6.088   6.209  -8.088  1.00  0.00    -0.248 NA
ATOM     33  C   UNL     1       5.826   5.770 -10.368  1.00  0.00     0.031 C 
ATOM     34  C   UNL     1       7.851  10.025  -6.494  1.00  0.00     0.029 A 
ATOM     35  C   UNL     1       7.315   8.840  -6.983  1.00  0.00     0.049 A 
ATOM     36  H   UNL     1       6.570   7.191  -5.907  1.00  0.00     0.167 HD
ATOM     37  C   UNL     1       6.580   7.287  -8.809  1.00  0.00     0.074 A 
ATOM     38  C   UNL     1       6.405   6.954 -10.211  1.00  0.00     0.031 C 
ATOM     39  C   UNL     1       7.131   8.443  -8.361  1.00  0.00     0.037 A 
BRANCH  26  40
ATOM     40  C   UNL     1       7.410   9.085  -2.179  1.00  0.00     0.057 A 
ATOM     41  C   UNL     1       8.366   8.683  -1.235  1.00  0.00     0.134 A 
ATOM     42  C   UNL     1       6.682  10.248  -1.900  1.00  0.00     0.134 A 
ATOM     43  F   UNL     1       9.073   7.558  -1.419  1.00  0.00    -0.206 F 
ATOM     44  C   UNL     1       8.548   9.380  -0.037  1.00  0.00     0.040 A 
ATOM     45  C   UNL     1       6.877  10.970  -0.721  1.00  0.00     0.040 A 
ATOM     46  F   UNL     1       5.743  10.686  -2.752  1.00  0.00    -0.206 F 
ATOM     47  C   UNL     1       7.801  10.527   0.222  1.00  0.00     0.006 A 
ENDBRANCH  26  40
BRANCH  27  48
ATOM     48  C   UNL     1       4.583   3.115  -9.857  1.00  0.00     0.057 A 
ATOM     49  C   UNL     1       5.475   2.485 -10.729  1.00  0.00     0.134 A 
ATOM     50  C   UNL     1       3.216   2.855 -10.039  1.00  0.00     0.134 A 
ATOM     51  F   UNL     1       6.794   2.701 -10.617  1.00  0.00    -0.206 F 
ATOM     52  C   UNL     1       5.029   1.628 -11.739  1.00  0.00     0.040 A 
ATOM     53  C   UNL     1       2.758   1.982 -11.028  1.00  0.00     0.040 A 
ATOM     54  F   UNL     1       2.305   3.422  -9.234  1.00  0.00    -0.206 F 
ATOM     55  C   UNL     1       3.668   1.367 -11.884  1.00  0.00     0.006 A 
ENDBRANCH  27  48
BRANCH  39  56
ATOM     56  C   UNL     1       7.635   9.402  -9.394  1.00  0.00     0.057 A 
ATOM     57  C   UNL     1       6.770  10.209 -10.140  1.00  0.00     0.134 A 
ATOM     58  C   UNL     1       9.013   9.596  -9.552  1.00  0.00     0.134 A 
ATOM     59  F   UNL     1       5.441  10.061 -10.037  1.00  0.00    -0.206 F 
ATOM     60  C   UNL     1       7.261  11.180 -11.012  1.00  0.00     0.040 A 
ATOM     61  C   UNL     1       9.515  10.581 -10.399  1.00  0.00     0.040 A 
ATOM     62  F   UNL     1       9.889   8.858  -8.853  1.00  0.00    -0.206 F 
ATOM     63  C   UNL     1       8.637  11.377 -11.132  1.00  0.00     0.006 A 
ENDBRANCH  39  56
ENDBRANCH  13  14
ENDBRANCH   6   8
ENDBRANCH   5   6
ENDBRANCH   4   5
ENDBRANCH   3   4
ENDBRANCH   2   3
ENDBRANCH   1   2
BRANCH   1  64
ATOM     64  C   UNL     1       2.928  -2.798  -2.045  1.00  0.00     0.261 C 
BRANCH  64  65
ATOM     65  O   UNL     1       3.511  -3.769  -1.179  1.00  0.00    -0.460 OA
BRANCH  65  66
ATOM     66  C   UNL     1       4.828  -4.054  -1.325  1.00  0.00     0.338 C 
ATOM     67  O   UNL     1       5.588  -3.648  -2.173  1.00  0.00    -0.246 OA
BRANCH  66  68
ATOM     68  C   UNL     1       5.219  -4.881  -0.154  1.00  0.00     0.071 A 
ATOM     69  C   UNL     1       6.411  -4.527   0.492  1.00  0.00     0.016 A 
ATOM     70  C   UNL     1       4.401  -5.916   0.347  1.00  0.00     0.032 A 
ATOM     71  C   UNL     1       6.788  -5.191   1.656  1.00  0.00     0.001 A 
ATOM     72  C   UNL     1       4.803  -6.580   1.512  1.00  0.00     0.013 A 
ATOM     73  C   UNL     1       5.989  -6.217   2.161  1.00  0.00     0.001 A 
BRANCH  70  74
ATOM     74  C   UNL     1       3.155  -6.268  -0.320  1.00  0.00     0.135 A 
ATOM     75  C   UNL     1       2.820  -6.383  -1.653  1.00  0.00     0.051 A 
ATOM     76  O   UNL     1       2.030  -6.310   0.454  1.00  0.00    -0.457 OA
ATOM     77  C   UNL     1       1.419  -6.301  -1.700  1.00  0.00     0.051 A 
ATOM     78  C   UNL     1       0.953  -6.404  -0.393  1.00  0.00     0.128 A 
BRANCH  78  79
ATOM     79  C   UNL     1      -0.388  -6.657   0.001  1.00  0.00     0.068 C 
ATOM     80  C   UNL     1      -0.960  -7.793  -0.427  1.00  0.00     0.084 C 
ATOM     81  S   UNL     1      -2.645  -8.107  -0.507  1.00  0.00    -0.054 SA
ATOM     82  C   UNL     1      -0.233  -8.892  -1.120  1.00  0.00     0.266 C 
ATOM     83  C   UNL     1      -2.418  -9.307  -1.798  1.00  0.00     0.148 C 
ATOM     84  N   UNL     1      -1.075  -9.526  -2.002  1.00  0.00    -0.288 N 
ATOM     85  O   UNL     1       0.927  -9.209  -0.895  1.00  0.00    -0.268 OA
ATOM     86  S   UNL     1      -3.707 -10.017  -2.581  1.00  0.00    -0.052 S 
BRANCH  84  87
ATOM     87  C   UNL     1      -0.473 -10.420  -2.991  1.00  0.00     0.163 C 
BRANCH  87  88
ATOM     88  C   UNL     1      -0.010  -9.685  -4.238  1.00  0.00    -0.028 A 
ATOM     89  C   UNL     1      -0.668  -9.869  -5.461  1.00  0.00     0.005 A 
ATOM     90  C   UNL     1       1.108  -8.834  -4.208  1.00  0.00     0.005 A 
ATOM     91  C   UNL     1      -0.223  -9.218  -6.617  1.00  0.00     0.000 A 
ATOM     92  C   UNL     1       1.537  -8.163  -5.357  1.00  0.00     0.000 A 
ATOM     93  C   UNL     1       0.873  -8.360  -6.564  1.00  0.00     0.000 A 
ENDBRANCH  87  88
ENDBRANCH  84  87
ENDBRANCH  78  79
ENDBRANCH  70  74
ENDBRANCH  66  68
ENDBRANCH  65  66
ENDBRANCH  64  65
ENDBRANCH   1  64
TORSDOF 18
