REMARK SMILES CCCOC(=O)c1c(NC(=O)[C@@H]2CC=CC[C@H]2C(=O)OCCOCCOC(=O)c2ccc(-c3c4nc(c(-c5c(F)cccc5F)c5ccc([nH]5)c(-c5c(F)cccc5F)c5nc(c(-c6c(F)cccc6F)c6ccc3[nH]6)C=C5)C=C4)cc2)sc2c1CCCC2
REMARK SMILES IDX 21 1 20 2 18 3 19 4 17 5 12 6 13 7 14 8 16 9 15 10 10 11
REMARK SMILES IDX 9 12 11 14 8 15 7 16 85 17 83 18 84 19 86 20 89 21 87 22
REMARK SMILES IDX 88 23 5 24 6 25 4 26 3 27 2 28 1 29 22 30 23 31 24 32 25 33
REMARK SMILES IDX 26 34 27 35 28 36 29 37 30 38 82 39 31 40 81 41 32 42 33 43
REMARK SMILES IDX 34 44 75 45 35 46 80 47 74 48 76 49 36 50 79 51 73 52 72 53
REMARK SMILES IDX 37 55 63 56 46 57 62 58 47 59 50 60 61 61 77 62 48 63 49 64
REMARK SMILES IDX 60 66 78 67 51 68 38 69 39 70 44 71 40 72 41 73 43 74 45 75
REMARK SMILES IDX 42 76 64 77 65 78 70 79 66 80 67 81 69 82 71 83 68 84 52 85
REMARK SMILES IDX 53 86 58 87 54 88 55 89 57 90 59 91 56 92
REMARK H PARENT 9 13 76 54 50 65
REMARK Flexibility Score: inf
ROOT
ATOM      1  C   UNL     1       3.240   2.679  -2.567  1.00  0.00     0.261 C 
ENDROOT
BRANCH   1   2
ATOM      2  O   UNL     1       2.285   2.067  -1.679  1.00  0.00    -0.463 OA
BRANCH   2   3
ATOM      3  C   UNL     1       2.736   1.718  -0.441  1.00  0.00     0.310 C 
ATOM      4  O   UNL     1       3.840   2.023  -0.002  1.00  0.00    -0.252 OA
BRANCH   3   5
ATOM      5  C   UNL     1       1.775   0.830   0.349  1.00  0.00     0.116 C 
ATOM      6  C   UNL     1       0.379   0.643  -0.239  1.00  0.00     0.097 C 
ATOM      7  C   UNL     1      -0.527  -0.103   0.746  1.00  0.00     0.041 C 
ATOM      8  C   UNL     1       0.098  -1.419   1.106  1.00  0.00    -0.030 C 
ATOM      9  C   UNL     1       2.384  -0.582   0.495  1.00  0.00     0.043 C 
ATOM     10  C   UNL     1       1.415  -1.639   0.968  1.00  0.00    -0.030 C 
BRANCH   6  11
ATOM     11  C   UNL     1      -0.273   1.904  -0.698  1.00  0.00     0.229 C 
ATOM     12  N   UNL     1      -0.928   1.933  -1.892  1.00  0.00    -0.317 N 
ATOM     13  H   UNL     1      -1.189   2.830  -2.202  1.00  0.00     0.170 HD
ATOM     14  O   UNL     1      -0.298   2.901   0.027  1.00  0.00    -0.274 OA
BRANCH  12  15
ATOM     15  C   UNL     1      -1.283   0.900  -2.736  1.00  0.00     0.110 A 
ATOM     16  C   UNL     1      -0.830  -0.334  -3.204  1.00  0.00     0.098 A 
ATOM     17  C   UNL     1      -1.958  -1.034  -3.836  1.00  0.00    -0.017 A 
ATOM     18  S   UNL     1      -2.881   1.261  -3.273  1.00  0.00    -0.122 S 
ATOM     19  C   UNL     1      -3.137  -0.323  -3.783  1.00  0.00     0.011 A 
ATOM     20  C   UNL     1      -1.927  -2.425  -4.420  1.00  0.00     0.038 C 
ATOM     21  C   UNL     1      -4.490  -0.826  -4.186  1.00  0.00     0.047 C 
ATOM     22  C   UNL     1      -3.192  -2.735  -5.231  1.00  0.00     0.005 C 
ATOM     23  C   UNL     1      -4.450  -2.339  -4.452  1.00  0.00     0.006 C 
BRANCH  16  24
ATOM     24  C   UNL     1       0.468  -1.046  -3.087  1.00  0.00     0.341 C 
ATOM     25  O   UNL     1       0.483  -2.268  -2.945  1.00  0.00    -0.246 OA
BRANCH  24  26
ATOM     26  O   UNL     1       1.645  -0.324  -3.226  1.00  0.00    -0.462 OA
BRANCH  26  27
ATOM     27  C   UNL     1       2.771  -1.226  -3.397  1.00  0.00     0.233 C 
BRANCH  27  28
ATOM     28  C   UNL     1       4.173  -0.599  -3.391  1.00  0.00     0.038 C 
ATOM     29  C   UNL     1       4.912  -0.707  -2.061  1.00  0.00     0.007 C 
ENDBRANCH  27  28
ENDBRANCH  26  27
ENDBRANCH  24  26
ENDBRANCH  16  24
ENDBRANCH  12  15
ENDBRANCH   6  11
ENDBRANCH   3   5
ENDBRANCH   2   3
ENDBRANCH   1   2
BRANCH   1  30
ATOM     30  C   UNL     1       3.003   4.142  -2.947  1.00  0.00     0.202 C 
BRANCH  30  31
ATOM     31  O   UNL     1       2.939   5.104  -1.907  1.00  0.00    -0.374 OA
BRANCH  31  32
ATOM     32  C   UNL     1       1.794   5.053  -1.061  1.00  0.00     0.202 C 
BRANCH  32  33
ATOM     33  C   UNL     1       0.469   5.555  -1.656  1.00  0.00     0.261 C 
BRANCH  33  34
ATOM     34  O   UNL     1       0.089   4.901  -2.886  1.00  0.00    -0.460 OA
BRANCH  34  35
ATOM     35  C   UNL     1       0.070   5.725  -3.965  1.00  0.00     0.338 C 
ATOM     36  O   UNL     1       0.239   6.933  -3.972  1.00  0.00    -0.246 OA
BRANCH  35  37
ATOM     37  C   UNL     1      -0.072   4.975  -5.230  1.00  0.00     0.060 A 
ATOM     38  C   UNL     1       0.832   5.283  -6.255  1.00  0.00     0.016 A 
ATOM     39  C   UNL     1      -1.154   4.128  -5.476  1.00  0.00     0.016 A 
ATOM     40  C   UNL     1       0.608   4.819  -7.549  1.00  0.00     0.010 A 
ATOM     41  C   UNL     1      -1.376   3.656  -6.778  1.00  0.00     0.010 A 
ATOM     42  C   UNL     1      -0.527   4.047  -7.830  1.00  0.00    -0.014 A 
BRANCH  42  43
ATOM     43  C   UNL     1      -0.910   3.814  -9.247  1.00  0.00     0.031 A 
ATOM     44  C   UNL     1      -1.971   4.684  -9.871  1.00  0.00     0.074 A 
ATOM     45  C   UNL     1      -0.281   2.887  -9.990  1.00  0.00     0.049 A 
ATOM     46  N   UNL     1      -2.458   4.659 -11.086  1.00  0.00    -0.248 NA
ATOM     47  C   UNL     1      -2.559   5.723  -9.010  1.00  0.00     0.031 C 
ATOM     48  C   UNL     1       0.795   2.018  -9.520  1.00  0.00     0.029 A 
ATOM     49  N   UNL     1      -0.458   2.526 -11.303  1.00  0.00    -0.354 N 
ATOM     50  C   UNL     1      -3.410   5.671 -11.133  1.00  0.00     0.074 A 
ATOM     51  C   UNL     1      -3.454   6.272  -9.818  1.00  0.00     0.031 C 
ATOM     52  C   UNL     1       1.180   1.217 -10.529  1.00  0.00     0.029 A 
ATOM     53  C   UNL     1       0.358   1.499 -11.706  1.00  0.00     0.049 A 
ATOM     54  H   UNL     1      -1.109   2.963 -11.899  1.00  0.00     0.167 HD
ATOM     55  C   UNL     1      -4.171   6.072 -12.180  1.00  0.00     0.037 A 
ATOM     56  C   UNL     1       0.423   0.848 -12.884  1.00  0.00     0.037 A 
ATOM     57  C   UNL     1      -4.123   5.481 -13.491  1.00  0.00     0.049 A 
ATOM     58  C   UNL     1      -0.483   1.265 -14.012  1.00  0.00     0.074 A 
ATOM     59  C   UNL     1      -4.843   5.829 -14.622  1.00  0.00     0.029 A 
ATOM     60  N   UNL     1      -3.312   4.415 -13.846  1.00  0.00    -0.354 N 
ATOM     61  N   UNL     1      -1.366   2.234 -14.049  1.00  0.00    -0.248 NA
ATOM     62  C   UNL     1      -0.382   0.498 -15.262  1.00  0.00     0.031 C 
ATOM     63  C   UNL     1      -4.500   4.942 -15.648  1.00  0.00     0.029 A 
ATOM     64  C   UNL     1      -3.532   4.073 -15.170  1.00  0.00     0.049 A 
ATOM     65  H   UNL     1      -2.673   3.966 -13.246  1.00  0.00     0.167 HD
ATOM     66  C   UNL     1      -1.905   2.210 -15.329  1.00  0.00     0.074 A 
ATOM     67  C   UNL     1      -1.243   1.138 -16.042  1.00  0.00     0.031 C 
ATOM     68  C   UNL     1      -2.861   3.006 -15.867  1.00  0.00     0.037 A 
BRANCH  55  69
ATOM     69  C   UNL     1      -5.141   7.192 -11.942  1.00  0.00     0.057 A 
ATOM     70  C   UNL     1      -4.719   8.518 -11.782  1.00  0.00     0.134 A 
ATOM     71  C   UNL     1      -6.520   6.945 -11.906  1.00  0.00     0.134 A 
ATOM     72  F   UNL     1      -3.412   8.821 -11.794  1.00  0.00    -0.206 F 
ATOM     73  C   UNL     1      -5.631   9.555 -11.573  1.00  0.00     0.040 A 
ATOM     74  C   UNL     1      -7.443   7.976 -11.722  1.00  0.00     0.040 A 
ATOM     75  F   UNL     1      -6.992   5.698 -12.058  1.00  0.00    -0.206 F 
ATOM     76  C   UNL     1      -6.998   9.285 -11.549  1.00  0.00     0.006 A 
ENDBRANCH  55  69
BRANCH  56  77
ATOM     77  C   UNL     1       1.372  -0.281 -13.055  1.00  0.00     0.057 A 
ATOM     78  C   UNL     1       2.484  -0.176 -13.899  1.00  0.00     0.134 A 
ATOM     79  C   UNL     1       1.180  -1.497 -12.389  1.00  0.00     0.134 A 
ATOM     80  F   UNL     1       2.708   0.956 -14.583  1.00  0.00    -0.206 F 
ATOM     81  C   UNL     1       3.363  -1.244 -14.084  1.00  0.00     0.040 A 
ATOM     82  C   UNL     1       2.065  -2.565 -12.546  1.00  0.00     0.040 A 
ATOM     83  F   UNL     1       0.134  -1.662 -11.566  1.00  0.00    -0.206 F 
ATOM     84  C   UNL     1       3.158  -2.442 -13.402  1.00  0.00     0.006 A 
ENDBRANCH  56  77
BRANCH  68  85
ATOM     85  C   UNL     1      -3.228   2.770 -17.303  1.00  0.00     0.057 A 
ATOM     86  C   UNL     1      -3.990   1.664 -17.698  1.00  0.00     0.134 A 
ATOM     87  C   UNL     1      -2.854   3.686 -18.295  1.00  0.00     0.134 A 
ATOM     88  F   UNL     1      -4.370   0.744 -16.799  1.00  0.00    -0.206 F 
ATOM     89  C   UNL     1      -4.351   1.467 -19.032  1.00  0.00     0.040 A 
ATOM     90  C   UNL     1      -3.230   3.513 -19.627  1.00  0.00     0.040 A 
ATOM     91  F   UNL     1      -2.132   4.772 -17.981  1.00  0.00    -0.206 F 
ATOM     92  C   UNL     1      -3.977   2.398 -20.000  1.00  0.00     0.006 A 
ENDBRANCH  68  85
ENDBRANCH  42  43
ENDBRANCH  35  37
ENDBRANCH  34  35
ENDBRANCH  33  34
ENDBRANCH  32  33
ENDBRANCH  31  32
ENDBRANCH  30  31
ENDBRANCH   1  30
TORSDOF 20
