REMARK SMILES O=C(OCCOCCOC(=O)C1([C@H]2CCC[C@H]2O)CCCCC1)c1ccc(-c2c3nc(c(-c4c(F)cccc4F)c4ccc([nH]4)c(-c4c(F)cccc4F)c4nc(c(-c5c(F)cccc5F)c5ccc2[nH]5)C=C4)C=C3)cc1
REMARK SMILES IDX 6 1 5 2 4 3 3 4 2 5 1 6 24 7 25 8 77 9 26 10 76 11 27 12
REMARK SMILES IDX 28 13 29 14 70 15 30 16 75 17 69 18 71 19 31 20 74 21 68 22
REMARK SMILES IDX 67 23 32 25 58 26 41 27 57 28 42 29 45 30 56 31 72 32 43 33
REMARK SMILES IDX 44 34 55 36 73 37 46 38 33 39 34 40 39 41 35 42 36 43 38 44
REMARK SMILES IDX 40 45 37 46 59 47 60 48 65 49 61 50 62 51 64 52 66 53 63 54
REMARK SMILES IDX 47 55 48 56 53 57 49 58 50 59 52 60 54 61 51 62 7 63 8 64
REMARK SMILES IDX 9 65 10 66 11 67 12 68 19 69 23 70 20 71 22 72 21 73 13 74
REMARK SMILES IDX 14 75 17 76 15 77 16 78 18 79
REMARK H PARENT 71 24 45 35 18 80
REMARK Flexibility Score: inf
ROOT
ATOM      1  O   UNL     1       4.008  -1.261  -0.929  1.00  0.00    -0.374 OA
ENDROOT
BRANCH   1   2
ATOM      2  C   UNL     1       4.608  -1.078   0.354  1.00  0.00     0.202 C 
BRANCH   2   3
ATOM      3  C   UNL     1       4.383   0.266   1.057  1.00  0.00     0.261 C 
BRANCH   3   4
ATOM      4  O   UNL     1       2.991   0.598   1.102  1.00  0.00    -0.460 OA
BRANCH   4   5
ATOM      5  C   UNL     1       2.294   1.262   0.151  1.00  0.00     0.338 C 
ATOM      6  O   UNL     1       1.077   1.376   0.280  1.00  0.00    -0.246 OA
BRANCH   5   7
ATOM      7  C   UNL     1       2.935   1.881  -1.048  1.00  0.00     0.060 A 
ATOM      8  C   UNL     1       4.114   1.437  -1.649  1.00  0.00     0.016 A 
ATOM      9  C   UNL     1       2.250   2.943  -1.655  1.00  0.00     0.016 A 
ATOM     10  C   UNL     1       4.606   1.982  -2.807  1.00  0.00     0.010 A 
ATOM     11  C   UNL     1       2.745   3.527  -2.820  1.00  0.00     0.010 A 
ATOM     12  C   UNL     1       3.924   3.034  -3.385  1.00  0.00    -0.014 A 
BRANCH  12  13
ATOM     13  C   UNL     1       4.617   3.697  -4.480  1.00  0.00     0.031 A 
ATOM     14  C   UNL     1       5.408   4.910  -4.140  1.00  0.00     0.074 A 
ATOM     15  C   UNL     1       4.667   3.095  -5.677  1.00  0.00     0.049 A 
ATOM     16  N   UNL     1       6.002   5.753  -4.929  1.00  0.00    -0.248 NA
ATOM     17  C   UNL     1       5.559   5.206  -2.702  1.00  0.00     0.031 C 
ATOM     18  C   UNL     1       4.089   1.784  -5.988  1.00  0.00     0.029 A 
ATOM     19  N   UNL     1       5.242   3.498  -6.844  1.00  0.00    -0.354 N 
ATOM     20  C   UNL     1       6.543   6.716  -4.091  1.00  0.00     0.074 A 
ATOM     21  C   UNL     1       6.235   6.341  -2.732  1.00  0.00     0.031 C 
ATOM     22  C   UNL     1       4.311   1.508  -7.282  1.00  0.00     0.029 A 
ATOM     23  C   UNL     1       4.965   2.658  -7.892  1.00  0.00     0.049 A 
ATOM     24  H   UNL     1       5.797   4.308  -6.927  1.00  0.00     0.167 HD
ATOM     25  C   UNL     1       7.205   7.833  -4.460  1.00  0.00     0.037 A 
ATOM     26  C   UNL     1       5.154   2.860  -9.206  1.00  0.00     0.037 A 
ATOM     27  C   UNL     1       7.460   8.144  -5.838  1.00  0.00     0.049 A 
ATOM     28  C   UNL     1       5.785   4.162  -9.612  1.00  0.00     0.074 A 
ATOM     29  C   UNL     1       8.051   9.264  -6.384  1.00  0.00     0.029 A 
ATOM     30  N   UNL     1       7.117   7.306  -6.897  1.00  0.00    -0.354 N 
ATOM     31  N   UNL     1       6.210   5.142  -8.845  1.00  0.00    -0.248 NA
ATOM     32  C   UNL     1       5.950   4.402 -11.047  1.00  0.00     0.031 C 
ATOM     33  C   UNL     1       8.012   9.127  -7.777  1.00  0.00     0.029 A 
ATOM     34  C   UNL     1       7.460   7.893  -8.098  1.00  0.00     0.049 A 
ATOM     35  H   UNL     1       6.692   6.423  -6.802  1.00  0.00     0.167 HD
ATOM     36  C   UNL     1       6.714   6.109  -9.699  1.00  0.00     0.074 A 
ATOM     37  C   UNL     1       6.540   5.591 -11.046  1.00  0.00     0.031 C 
ATOM     38  C   UNL     1       7.272   7.311  -9.408  1.00  0.00     0.037 A 
BRANCH  25  39
ATOM     39  C   UNL     1       7.542   8.806  -3.369  1.00  0.00     0.057 A 
ATOM     40  C   UNL     1       8.484   8.528  -2.370  1.00  0.00     0.134 A 
ATOM     41  C   UNL     1       6.823  10.003  -3.260  1.00  0.00     0.134 A 
ATOM     42  F   UNL     1       9.180   7.381  -2.389  1.00  0.00    -0.206 F 
ATOM     43  C   UNL     1       8.665   9.383  -1.279  1.00  0.00     0.040 A 
ATOM     44  C   UNL     1       7.016  10.879  -2.191  1.00  0.00     0.040 A 
ATOM     45  F   UNL     1       5.894  10.326  -4.172  1.00  0.00    -0.206 F 
ATOM     46  C   UNL     1       7.929  10.563  -1.188  1.00  0.00     0.006 A 
ENDBRANCH  25  39
BRANCH  26  47
ATOM     47  C   UNL     1       4.661   1.857 -10.181  1.00  0.00     0.057 A 
ATOM     48  C   UNL     1       5.539   1.091 -10.951  1.00  0.00     0.134 A 
ATOM     49  C   UNL     1       3.289   1.596 -10.319  1.00  0.00     0.134 A 
ATOM     50  F   UNL     1       6.861   1.297 -10.873  1.00  0.00    -0.206 F 
ATOM     51  C   UNL     1       5.074   0.102 -11.823  1.00  0.00     0.040 A 
ATOM     52  C   UNL     1       2.812   0.595 -11.166  1.00  0.00     0.040 A 
ATOM     53  F   UNL     1       2.391   2.289  -9.602  1.00  0.00    -0.206 F 
ATOM     54  C   UNL     1       3.707  -0.155 -11.924  1.00  0.00     0.006 A 
ENDBRANCH  26  47
BRANCH  38  55
ATOM     55  C   UNL     1       7.781   8.116 -10.562  1.00  0.00     0.057 A 
ATOM     56  C   UNL     1       6.920   8.819 -11.409  1.00  0.00     0.134 A 
ATOM     57  C   UNL     1       9.161   8.271 -10.748  1.00  0.00     0.134 A 
ATOM     58  F   UNL     1       5.590   8.698 -11.283  1.00  0.00    -0.206 F 
ATOM     59  C   UNL     1       7.417   9.655 -12.408  1.00  0.00     0.040 A 
ATOM     60  C   UNL     1       9.668   9.125 -11.724  1.00  0.00     0.040 A 
ATOM     61  F   UNL     1      10.032   7.628  -9.955  1.00  0.00    -0.206 F 
ATOM     62  C   UNL     1       8.794   9.820 -12.557  1.00  0.00     0.006 A 
ENDBRANCH  38  55
ENDBRANCH  12  13
ENDBRANCH   5   7
ENDBRANCH   4   5
ENDBRANCH   3   4
ENDBRANCH   2   3
ENDBRANCH   1   2
BRANCH   1  63
ATOM     63  C   UNL     1       2.651  -1.714  -0.942  1.00  0.00     0.202 C 
BRANCH  63  64
ATOM     64  C   UNL     1       2.561  -3.153  -1.447  1.00  0.00     0.261 C 
BRANCH  64  65
ATOM     65  O   UNL     1       3.087  -4.023  -0.431  1.00  0.00    -0.463 OA
BRANCH  65  66
ATOM     66  C   UNL     1       4.444  -4.162  -0.452  1.00  0.00     0.312 C 
ATOM     67  O   UNL     1       5.125  -3.879  -1.423  1.00  0.00    -0.252 OA
BRANCH  66  68
ATOM     68  C   UNL     1       4.989  -4.700   0.904  1.00  0.00     0.073 C 
ATOM     69  C   UNL     1       4.169  -4.090   2.101  1.00  0.00     0.019 C 
ATOM     70  C   UNL     1       4.732  -6.223   0.834  1.00  0.00     0.019 C 
ATOM     71  C   UNL     1       4.149  -4.870   3.407  1.00  0.00     0.001 C 
ATOM     72  C   UNL     1       4.750  -6.974   2.158  1.00  0.00     0.001 C 
ATOM     73  C   UNL     1       3.842  -6.337   3.199  1.00  0.00     0.000 C 
BRANCH  68  74
ATOM     74  C   UNL     1       6.487  -4.200   1.022  1.00  0.00     0.035 C 
ATOM     75  C   UNL     1       7.265  -4.548   2.308  1.00  0.00     0.007 C 
ATOM     76  C   UNL     1       7.498  -4.457  -0.123  1.00  0.00     0.118 C 
ATOM     77  C   UNL     1       8.696  -4.875   1.893  1.00  0.00     0.003 C 
ATOM     78  C   UNL     1       8.859  -4.233   0.529  1.00  0.00     0.032 C 
BRANCH  76  79
ATOM     79  O   UNL     1       7.420  -5.766  -0.655  1.00  0.00    -0.393 OA
ATOM     80  H   UNL     1       7.588  -6.412   0.048  1.00  0.00     0.210 HD
ENDBRANCH  76  79
ENDBRANCH  68  74
ENDBRANCH  66  68
ENDBRANCH  65  66
ENDBRANCH  64  65
ENDBRANCH  63  64
ENDBRANCH   1  63
TORSDOF 16
