REMARK SMILES C[C@H]1[C@@H](C(=O)OCCOCCOC(=O)c2ccc(-c3c4nc(c(-c5c(F)cccc5F)c5ccc([nH]5)c(-c5c(F)cccc5F)c5nc(c(-c6c(F)cccc6F)c6ccc3[nH]6)C=C5)C=C4)cc2)CCN1C(=O)c1n[nH]c(N)n1
REMARK SMILES IDX 8 1 7 2 6 3 4 4 5 5 3 6 1 7 2 8 71 9 69 10 70 11 72 12 73 13
REMARK SMILES IDX 74 14 75 15 79 16 76 17 77 18 78 20 9 23 10 24 11 25 12 26
REMARK SMILES IDX 13 27 14 28 15 29 16 30 68 31 17 32 67 33 18 34 19 35 20 36
REMARK SMILES IDX 61 37 21 38 66 39 60 40 62 41 22 42 65 43 59 44 58 45 23 47
REMARK SMILES IDX 49 48 32 49 48 50 33 51 36 52 47 53 63 54 34 55 35 56 46 58
REMARK SMILES IDX 64 59 37 60 24 61 25 62 30 63 26 64 27 65 29 66 31 67 28 68
REMARK SMILES IDX 50 69 51 70 56 71 52 72 53 73 55 74 57 75 54 76 38 77 39 78
REMARK SMILES IDX 44 79 40 80 41 81 43 82 45 83 42 84
REMARK H PARENT 76 19 78 21 78 22 62 46 36 57
REMARK Flexibility Score: inf
ROOT
ATOM      1  C   UNL     1       1.350   2.476  -3.563  1.00  0.00     0.202 C 
ENDROOT
BRANCH   1   2
ATOM      2  C   UNL     1       1.465   3.283  -2.267  1.00  0.00     0.261 C 
BRANCH   2   3
ATOM      3  O   UNL     1       1.357   2.382  -1.147  1.00  0.00    -0.463 OA
BRANCH   3   4
ATOM      4  C   UNL     1       0.358   2.586  -0.267  1.00  0.00     0.311 C 
ATOM      5  O   UNL     1      -0.353   3.586  -0.257  1.00  0.00    -0.252 OA
BRANCH   4   6
ATOM      6  C   UNL     1       0.132   1.434   0.702  1.00  0.00     0.123 C 
ATOM      7  C   UNL     1       2.179   0.031  -0.210  1.00  0.00     0.032 C 
ATOM      8  C   UNL     1       1.010   0.157   0.767  1.00  0.00     0.096 C 
ATOM      9  N   UNL     1       0.073  -0.967   0.623  1.00  0.00    -0.332 N 
ATOM     10  C   UNL     1      -1.317   0.928   0.550  1.00  0.00     0.039 C 
ATOM     11  C   UNL     1      -1.226  -0.537   0.177  1.00  0.00     0.121 C 
BRANCH   9  12
ATOM     12  C   UNL     1       0.325  -2.334   0.791  1.00  0.00     0.293 C 
ATOM     13  O   UNL     1      -0.497  -3.172   0.416  1.00  0.00    -0.265 OA
BRANCH  12  14
ATOM     14  C   UNL     1       1.608  -2.737   1.407  1.00  0.00     0.241 A 
ATOM     15  N   UNL     1       2.129  -2.159   2.512  1.00  0.00    -0.147 NA
ATOM     16  N   UNL     1       2.412  -3.731   0.872  1.00  0.00    -0.187 NA
ATOM     17  N   UNL     1       3.275  -2.842   2.660  1.00  0.00    -0.245 N 
ATOM     18  C   UNL     1       3.453  -3.752   1.660  1.00  0.00     0.216 A 
ATOM     19  H   UNL     1       3.910  -2.703   3.399  1.00  0.00     0.193 HD
BRANCH  18  20
ATOM     20  N   UNL     1       4.551  -4.503   1.552  1.00  0.00    -0.368 N 
ATOM     21  H   UNL     1       5.271  -4.422   2.219  1.00  0.00     0.159 HD
ATOM     22  H   UNL     1       4.642  -5.138   0.805  1.00  0.00     0.159 HD
ENDBRANCH  18  20
ENDBRANCH  12  14
ENDBRANCH   9  12
ENDBRANCH   4   6
ENDBRANCH   3   4
ENDBRANCH   2   3
ENDBRANCH   1   2
BRANCH   1  23
ATOM     23  O   UNL     1       0.007   2.127  -3.912  1.00  0.00    -0.374 OA
BRANCH  23  24
ATOM     24  C   UNL     1      -0.554   1.007  -3.228  1.00  0.00     0.202 C 
BRANCH  24  25
ATOM     25  C   UNL     1      -0.331  -0.342  -3.917  1.00  0.00     0.261 C 
BRANCH  25  26
ATOM     26  O   UNL     1       1.065  -0.682  -3.930  1.00  0.00    -0.460 OA
BRANCH  26  27
ATOM     27  C   UNL     1       1.674  -0.485  -5.119  1.00  0.00     0.338 C 
ATOM     28  O   UNL     1       1.143  -0.164  -6.176  1.00  0.00    -0.246 OA
BRANCH  27  29
ATOM     29  C   UNL     1       3.139  -0.559  -4.969  1.00  0.00     0.060 A 
ATOM     30  C   UNL     1       3.894   0.355  -5.712  1.00  0.00     0.016 A 
ATOM     31  C   UNL     1       3.772  -1.532  -4.189  1.00  0.00     0.016 A 
ATOM     32  C   UNL     1       5.278   0.242  -5.756  1.00  0.00     0.010 A 
ATOM     33  C   UNL     1       5.168  -1.642  -4.230  1.00  0.00     0.010 A 
ATOM     34  C   UNL     1       5.919  -0.791  -5.059  1.00  0.00    -0.014 A 
BRANCH  34  35
ATOM     35  C   UNL     1       7.341  -1.070  -5.374  1.00  0.00     0.031 A 
ATOM     36  C   UNL     1       7.666  -2.171  -6.347  1.00  0.00     0.074 A 
ATOM     37  C   UNL     1       8.319  -0.286  -4.888  1.00  0.00     0.049 A 
ATOM     38  N   UNL     1       8.822  -2.518  -6.854  1.00  0.00    -0.248 NA
ATOM     39  C   UNL     1       6.535  -2.990  -6.815  1.00  0.00     0.031 C 
ATOM     40  C   UNL     1       8.127   0.830  -3.963  1.00  0.00     0.029 A 
ATOM     41  N   UNL     1       9.670  -0.301  -5.124  1.00  0.00    -0.354 N 
ATOM     42  C   UNL     1       8.556  -3.585  -7.703  1.00  0.00     0.074 A 
ATOM     43  C   UNL     1       7.139  -3.860  -7.609  1.00  0.00     0.031 C 
ATOM     44  C   UNL     1       9.318   1.402  -3.718  1.00  0.00     0.029 A 
ATOM     45  C   UNL     1      10.355   0.685  -4.458  1.00  0.00     0.049 A 
ATOM     46  H   UNL     1      10.107  -0.956  -5.715  1.00  0.00     0.167 HD
ATOM     47  C   UNL     1       9.411  -4.265  -8.504  1.00  0.00     0.037 A 
ATOM     48  C   UNL     1      11.670   0.975  -4.451  1.00  0.00     0.037 A 
ATOM     49  C   UNL     1      10.820  -3.990  -8.601  1.00  0.00     0.049 A 
ATOM     50  C   UNL     1      12.608   0.176  -5.316  1.00  0.00     0.074 A 
ATOM     51  C   UNL     1      11.769  -4.615  -9.392  1.00  0.00     0.029 A 
ATOM     52  N   UNL     1      11.482  -3.009  -7.880  1.00  0.00    -0.354 N 
ATOM     53  N   UNL     1      12.340  -0.809  -6.139  1.00  0.00    -0.248 NA
ATOM     54  C   UNL     1      14.031   0.540  -5.260  1.00  0.00     0.031 C 
ATOM     55  C   UNL     1      13.014  -4.039  -9.116  1.00  0.00     0.029 A 
ATOM     56  C   UNL     1      12.832  -3.024  -8.190  1.00  0.00     0.049 A 
ATOM     57  H   UNL     1      11.056  -2.393  -7.241  1.00  0.00     0.167 HD
ATOM     58  C   UNL     1      13.552  -1.162  -6.719  1.00  0.00     0.074 A 
ATOM     59  C   UNL     1      14.554  -0.276  -6.164  1.00  0.00     0.031 C 
ATOM     60  C   UNL     1      13.814  -2.132  -7.630  1.00  0.00     0.037 A 
BRANCH  47  61
ATOM     61  C   UNL     1       8.841  -5.384  -9.325  1.00  0.00     0.057 A 
ATOM     62  C   UNL     1       8.018  -5.143 -10.433  1.00  0.00     0.134 A 
ATOM     63  C   UNL     1       9.134  -6.718  -9.015  1.00  0.00     0.134 A 
ATOM     64  F   UNL     1       7.686  -3.889 -10.774  1.00  0.00    -0.206 F 
ATOM     65  C   UNL     1       7.488  -6.190 -11.190  1.00  0.00     0.040 A 
ATOM     66  C   UNL     1       8.630  -7.772  -9.778  1.00  0.00     0.040 A 
ATOM     67  F   UNL     1       9.918  -7.017  -7.968  1.00  0.00    -0.206 F 
ATOM     68  C   UNL     1       7.799  -7.510 -10.866  1.00  0.00     0.006 A 
ENDBRANCH  47  61
BRANCH  48  69
ATOM     69  C   UNL     1      12.181   2.084  -3.606  1.00  0.00     0.057 A 
ATOM     70  C   UNL     1      12.675   3.264  -4.173  1.00  0.00     0.134 A 
ATOM     71  C   UNL     1      12.208   1.978  -2.211  1.00  0.00     0.134 A 
ATOM     72  F   UNL     1      12.696   3.416  -5.506  1.00  0.00    -0.206 F 
ATOM     73  C   UNL     1      13.194   4.292  -3.384  1.00  0.00     0.040 A 
ATOM     74  C   UNL     1      12.702   3.007  -1.409  1.00  0.00     0.040 A 
ATOM     75  F   UNL     1      11.747   0.873  -1.606  1.00  0.00    -0.206 F 
ATOM     76  C   UNL     1      13.205   4.166  -1.996  1.00  0.00     0.006 A 
ENDBRANCH  48  69
BRANCH  60  77
ATOM     77  C   UNL     1      15.232  -2.261  -8.105  1.00  0.00     0.057 A 
ATOM     78  C   UNL     1      16.243  -2.780  -7.286  1.00  0.00     0.134 A 
ATOM     79  C   UNL     1      15.584  -1.885  -9.408  1.00  0.00     0.134 A 
ATOM     80  F   UNL     1      15.973  -3.148  -6.024  1.00  0.00    -0.206 F 
ATOM     81  C   UNL     1      17.559  -2.892  -7.735  1.00  0.00     0.040 A 
ATOM     82  C   UNL     1      16.892  -2.018  -9.877  1.00  0.00     0.040 A 
ATOM     83  F   UNL     1      14.662  -1.391 -10.248  1.00  0.00    -0.206 F 
ATOM     84  C   UNL     1      17.886  -2.515  -9.037  1.00  0.00     0.006 A 
ENDBRANCH  60  77
ENDBRANCH  34  35
ENDBRANCH  27  29
ENDBRANCH  26  27
ENDBRANCH  25  26
ENDBRANCH  24  25
ENDBRANCH  23  24
ENDBRANCH   1  23
TORSDOF 17
