REMARK SMILES NS(=O)(=O)c1ccc(N2N=C(C(=O)OCCOCCOC(=O)c3ccc(-c4c5nc(c(-c6c(F)cccc6F)c6ccc([nH]6)c(-c6c(F)cccc6F)c6nc(c(-c7c(F)cccc7F)c7ccc4[nH]7)C=C6)C=C5)cc3)C[C@H]2c2ccco2)cc1
REMARK SMILES IDX 16 1 15 2 14 3 12 4 13 5 11 6 9 7 10 8 78 9 77 10 8 11 5 12
REMARK SMILES IDX 6 13 85 14 7 15 84 16 2 17 3 18 4 19 1 20 79 23 80 24 83 25
REMARK SMILES IDX 81 26 82 27 17 28 18 29 19 30 20 31 21 32 22 33 23 34 24 35
REMARK SMILES IDX 76 36 25 37 75 38 26 39 27 40 28 41 69 42 29 43 74 44 68 45
REMARK SMILES IDX 70 46 30 47 73 48 67 49 66 50 31 52 57 53 40 54 56 55 41 56
REMARK SMILES IDX 44 57 55 58 71 59 42 60 43 61 54 63 72 64 45 65 32 66 33 67
REMARK SMILES IDX 38 68 34 69 35 70 37 71 39 72 36 73 58 74 59 75 64 76 60 77
REMARK SMILES IDX 61 78 63 79 65 80 62 81 46 82 47 83 52 84 48 85 49 86 51 87
REMARK SMILES IDX 53 88 50 89
REMARK H PARENT 1 21 1 22 70 51 44 62
REMARK Flexibility Score: inf
ROOT
ATOM      1  C   UNL     1       5.085   6.218   9.320  1.00  0.00     0.202 C 
ENDROOT
BRANCH   1   2
ATOM      2  C   UNL     1       4.979   7.365   8.311  1.00  0.00     0.261 C 
BRANCH   2   3
ATOM      3  O   UNL     1       3.789   7.223   7.523  1.00  0.00    -0.459 OA
BRANCH   3   4
ATOM      4  C   UNL     1       3.987   7.228   6.188  1.00  0.00     0.354 C 
ATOM      5  O   UNL     1       4.985   7.562   5.580  1.00  0.00    -0.245 OA
BRANCH   4   6
ATOM      6  C   UNL     1       2.787   6.613   5.517  1.00  0.00     0.148 C 
ATOM      7  N   UNL     1       1.603   5.449   4.210  1.00  0.00    -0.254 N 
ATOM      8  N   UNL     1       2.884   5.681   4.616  1.00  0.00    -0.169 NA
ATOM      9  C   UNL     1       0.665   6.481   4.684  1.00  0.00     0.180 C 
ATOM     10  C   UNL     1       1.398   6.970   5.943  1.00  0.00     0.101 C 
BRANCH   7  11
ATOM     11  C   UNL     1       1.377   4.583   3.152  1.00  0.00     0.060 A 
ATOM     12  C   UNL     1       0.855   2.787   1.050  1.00  0.00     0.082 A 
ATOM     13  C   UNL     1       1.050   2.300   2.343  1.00  0.00     0.024 A 
ATOM     14  C   UNL     1       0.966   4.152   0.788  1.00  0.00     0.024 A 
ATOM     15  C   UNL     1       1.316   3.200   3.382  1.00  0.00     0.029 A 
ATOM     16  C   UNL     1       1.234   5.037   1.836  1.00  0.00     0.029 A 
BRANCH  12  17
ATOM     17  S   UNL     1       0.486   1.695  -0.288  1.00  0.00     0.238 S 
ATOM     18  O   UNL     1       1.153   2.175  -1.481  1.00  0.00    -0.207 OA
ATOM     19  O   UNL     1      -0.921   1.394  -0.252  1.00  0.00    -0.207 OA
BRANCH  17  20
ATOM     20  N   UNL     1       1.280   0.267   0.106  1.00  0.00    -0.225 NA
ATOM     21  H   UNL     1       1.116  -0.426  -0.625  1.00  0.00     0.137 HD
ATOM     22  H   UNL     1       0.925  -0.086   0.995  1.00  0.00     0.137 HD
ENDBRANCH  17  20
ENDBRANCH  12  17
ENDBRANCH   7  11
BRANCH   9  23
ATOM     23  C   UNL     1       0.365   7.623   3.751  1.00  0.00     0.128 A 
ATOM     24  C   UNL     1      -0.545   7.788   2.724  1.00  0.00     0.048 A 
ATOM     25  O   UNL     1       1.105   8.765   3.889  1.00  0.00    -0.467 OA
ATOM     26  C   UNL     1      -0.331   9.085   2.198  1.00  0.00     0.042 A 
ATOM     27  C   UNL     1       0.673   9.643   2.951  1.00  0.00     0.195 A 
ENDBRANCH   9  23
ENDBRANCH   4   6
ENDBRANCH   3   4
ENDBRANCH   2   3
ENDBRANCH   1   2
BRANCH   1  28
ATOM     28  O   UNL     1       5.226   4.909   8.768  1.00  0.00    -0.374 OA
BRANCH  28  29
ATOM     29  C   UNL     1       4.067   4.293   8.205  1.00  0.00     0.202 C 
BRANCH  29  30
ATOM     30  C   UNL     1       3.057   3.692   9.191  1.00  0.00     0.261 C 
BRANCH  30  31
ATOM     31  O   UNL     1       2.525   4.666  10.106  1.00  0.00    -0.460 OA
BRANCH  31  32
ATOM     32  C   UNL     1       2.957   4.519  11.383  1.00  0.00     0.338 C 
ATOM     33  O   UNL     1       3.657   3.624  11.828  1.00  0.00    -0.246 OA
BRANCH  32  34
ATOM     34  C   UNL     1       2.601   5.700  12.192  1.00  0.00     0.060 A 
ATOM     35  C   UNL     1       3.634   6.308  12.915  1.00  0.00     0.016 A 
ATOM     36  C   UNL     1       1.284   6.144  12.327  1.00  0.00     0.016 A 
ATOM     37  C   UNL     1       3.345   7.318  13.827  1.00  0.00     0.010 A 
ATOM     38  C   UNL     1       0.995   7.162  13.245  1.00  0.00     0.010 A 
ATOM     39  C   UNL     1       2.018   7.723  14.031  1.00  0.00    -0.014 A 
BRANCH  39  40
ATOM     40  C   UNL     1       1.720   8.636  15.162  1.00  0.00     0.031 A 
ATOM     41  C   UNL     1       1.170   8.076  16.444  1.00  0.00     0.074 A 
ATOM     42  C   UNL     1       2.005   9.947  15.072  1.00  0.00     0.049 A 
ATOM     43  N   UNL     1       0.938   8.681  17.582  1.00  0.00    -0.248 NA
ATOM     44  C   UNL     1       0.832   6.645  16.444  1.00  0.00     0.031 C 
ATOM     45  C   UNL     1       2.541  10.612  13.886  1.00  0.00     0.029 A 
ATOM     46  N   UNL     1       1.889  10.950  16.000  1.00  0.00    -0.354 N 
ATOM     47  C   UNL     1       0.429   7.707  18.432  1.00  0.00     0.074 A 
ATOM     48  C   UNL     1       0.345   6.482  17.665  1.00  0.00     0.031 C 
ATOM     49  C   UNL     1       2.707  11.917  14.159  1.00  0.00     0.029 A 
ATOM     50  C   UNL     1       2.280  12.178  15.532  1.00  0.00     0.049 A 
ATOM     51  H   UNL     1       1.556  10.802  16.915  1.00  0.00     0.167 HD
ATOM     52  C   UNL     1       0.077   7.817  19.736  1.00  0.00     0.037 A 
ATOM     53  C   UNL     1       2.292  13.380  16.141  1.00  0.00     0.037 A 
ATOM     54  C   UNL     1       0.160   9.036  20.500  1.00  0.00     0.049 A 
ATOM     55  C   UNL     1       1.886  13.485  17.585  1.00  0.00     0.074 A 
ATOM     56  C   UNL     1      -0.132   9.239  21.837  1.00  0.00     0.029 A 
ATOM     57  N   UNL     1       0.552  10.264  19.987  1.00  0.00    -0.354 N 
ATOM     58  N   UNL     1       1.469  12.544  18.397  1.00  0.00    -0.248 NA
ATOM     59  C   UNL     1       1.973  14.816  18.202  1.00  0.00     0.031 C 
ATOM     60  C   UNL     1       0.034  10.600  22.121  1.00  0.00     0.029 A 
ATOM     61  C   UNL     1       0.482  11.235  20.974  1.00  0.00     0.049 A 
ATOM     62  H   UNL     1       0.838  10.423  19.058  1.00  0.00     0.167 HD
ATOM     63  C   UNL     1       1.265  13.163  19.625  1.00  0.00     0.074 A 
ATOM     64  C   UNL     1       1.619  14.557  19.453  1.00  0.00     0.031 C 
ATOM     65  C   UNL     1       0.827  12.623  20.790  1.00  0.00     0.037 A 
BRANCH  52  66
ATOM     66  C   UNL     1      -0.458   6.585  20.408  1.00  0.00     0.057 A 
ATOM     67  C   UNL     1       0.358   5.484  20.701  1.00  0.00     0.134 A 
ATOM     68  C   UNL     1      -1.808   6.500  20.770  1.00  0.00     0.134 A 
ATOM     69  F   UNL     1       1.658   5.493  20.370  1.00  0.00    -0.206 F 
ATOM     70  C   UNL     1      -0.157   4.330  21.296  1.00  0.00     0.040 A 
ATOM     71  C   UNL     1      -2.329   5.364  21.391  1.00  0.00     0.040 A 
ATOM     72  F   UNL     1      -2.645   7.520  20.524  1.00  0.00    -0.206 F 
ATOM     73  C   UNL     1      -1.505   4.270  21.646  1.00  0.00     0.006 A 
ENDBRANCH  52  66
BRANCH  53  74
ATOM     74  C   UNL     1       2.720  14.577  15.376  1.00  0.00     0.057 A 
ATOM     75  C   UNL     1       3.945  15.205  15.625  1.00  0.00     0.134 A 
ATOM     76  C   UNL     1       1.917  15.105  14.357  1.00  0.00     0.134 A 
ATOM     77  F   UNL     1       4.747  14.756  16.602  1.00  0.00    -0.206 F 
ATOM     78  C   UNL     1       4.355  16.320  14.893  1.00  0.00     0.040 A 
ATOM     79  C   UNL     1       2.325  16.205  13.602  1.00  0.00     0.040 A 
ATOM     80  F   UNL     1       0.735  14.543  14.068  1.00  0.00    -0.206 F 
ATOM     81  C   UNL     1       3.547  16.818  13.872  1.00  0.00     0.006 A 
ENDBRANCH  53  74
BRANCH  65  82
ATOM     82  C   UNL     1       0.729  13.539  21.977  1.00  0.00     0.057 A 
ATOM     83  C   UNL     1      -0.256  14.532  22.068  1.00  0.00     0.134 A 
ATOM     84  C   UNL     1       1.617  13.412  23.052  1.00  0.00     0.134 A 
ATOM     85  F   UNL     1      -1.132  14.715  21.068  1.00  0.00    -0.206 F 
ATOM     86  C   UNL     1      -0.334  15.384  23.172  1.00  0.00     0.040 A 
ATOM     87  C   UNL     1       1.532  14.239  24.173  1.00  0.00     0.040 A 
ATOM     88  F   UNL     1       2.578  12.476  23.035  1.00  0.00    -0.206 F 
ATOM     89  C   UNL     1       0.559  15.235  24.231  1.00  0.00     0.006 A 
ENDBRANCH  65  82
ENDBRANCH  39  40
ENDBRANCH  32  34
ENDBRANCH  31  32
ENDBRANCH  30  31
ENDBRANCH  29  30
ENDBRANCH  28  29
ENDBRANCH   1  28
TORSDOF 18
