REMARK SMILES O=C(OCCOCCOC(=O)c1ccc(-c2c3nc(c(-c4c(F)cccc4F)c4ccc([nH]4)c(-c4c(F)cccc4F)c4nc(c(-c5c(F)cccc5F)c5ccc2[nH]5)C=C4)C=C3)cc1)C1=Cc2cc(S(F)(F)(F)(F)F)cc(Br)c2O[C@@H]1C(F)(F)F
REMARK SMILES IDX 7 1 6 2 5 3 4 4 3 5 2 6 1 7 66 8 67 9 82 10 68 11 81 12
REMARK SMILES IDX 69 13 80 14 70 15 78 16 77 17 79 18 83 19 84 20 85 21 86 22
REMARK SMILES IDX 71 23 72 24 73 25 74 26 75 27 76 28 8 29 9 30 10 31 11 32
REMARK SMILES IDX 12 33 13 34 65 35 14 36 64 37 15 38 16 39 17 40 58 41 18 42
REMARK SMILES IDX 63 43 57 44 59 45 19 46 62 47 56 48 55 49 20 51 46 52 29 53
REMARK SMILES IDX 45 54 30 55 33 56 44 57 60 58 31 59 32 60 43 62 61 63 34 64
REMARK SMILES IDX 21 65 22 66 27 67 23 68 24 69 26 70 28 71 25 72 47 73 48 74
REMARK SMILES IDX 53 75 49 76 50 77 52 78 54 79 51 80 35 81 36 82 41 83 37 84
REMARK SMILES IDX 38 85 40 86 42 87 39 88
REMARK H PARENT 59 50 33 61
REMARK Flexibility Score: inf
ROOT
ATOM      1  C   UNL     1       2.977  -1.407   0.182  1.00  0.00     0.202 C 
ENDROOT
BRANCH   1   2
ATOM      2  O   UNL     1       4.397  -1.407   0.182  1.00  0.00    -0.374 OA
BRANCH   2   3
ATOM      3  C   UNL     1       4.870  -0.489   1.156  1.00  0.00     0.202 C 
BRANCH   3   4
ATOM      4  C   UNL     1       4.364   0.906   0.826  1.00  0.00     0.261 C 
BRANCH   4   5
ATOM      5  O   UNL     1       2.944   0.906   0.826  1.00  0.00    -0.460 OA
BRANCH   5   6
ATOM      6  C   UNL     1       2.234   0.062  -0.069  1.00  0.00     0.338 C 
ATOM      7  O   UNL     1       0.963   0.062  -0.069  1.00  0.00    -0.246 OA
BRANCH   6   8
ATOM      8  C   UNL     1       2.994  -0.840  -1.027  1.00  0.00     0.087 C 
ATOM      9  C   UNL     1       4.354  -0.840  -1.027  1.00  0.00     0.027 C 
ATOM     10  C   UNL     1       2.234  -1.743  -1.985  1.00  0.00     0.316 C 
ATOM     11  C   UNL     1       5.114   0.062  -0.069  1.00  0.00     0.020 A 
ATOM     12  O   UNL     1       3.412  -0.451   1.508  1.00  0.00    -0.474 OA
ATOM     13  C   UNL     1       6.275   0.717  -0.447  1.00  0.00     0.036 A 
ATOM     14  C   UNL     1       4.684   0.092   1.187  1.00  0.00     0.142 A 
ATOM     15  C   UNL     1       7.074   1.140   0.641  1.00  0.00     0.109 A 
ATOM     16  C   UNL     1       5.459   0.644   2.179  1.00  0.00     0.062 A 
ATOM     17  C   UNL     1       6.646   1.255   1.885  1.00  0.00     0.044 A 
ATOM     18  Br  UNL     1       4.853   0.553   4.041  1.00  0.00    -0.047 Br
BRANCH  10  19
ATOM     19  C   UNL     1       2.601  -3.193  -1.714  1.00  0.00     0.430 C 
ATOM     20  F   UNL     1       2.280  -3.505  -0.461  1.00  0.00    -0.167 F 
ATOM     21  F   UNL     1       1.936  -3.983  -2.552  1.00  0.00    -0.167 F 
ATOM     22  F   UNL     1       3.909  -3.360  -1.891  1.00  0.00    -0.167 F 
ENDBRANCH  10  19
BRANCH  15  23
ATOM     23  S   UNL     1       8.804   1.553   0.305  1.00  0.00     0.310 S 
ATOM     24  F   UNL     1       9.169   1.569   1.849  1.00  0.00    -0.094 F 
ATOM     25  F   UNL     1       8.435   3.078   0.446  1.00  0.00    -0.094 F 
ATOM     26  F   UNL     1      10.289   1.911   0.013  1.00  0.00    -0.094 F 
ATOM     27  F   UNL     1       9.183   0.019   0.307  1.00  0.00    -0.094 F 
ATOM     28  F   UNL     1       7.325   1.173   0.712  1.00  0.00    -0.094 F 
ENDBRANCH  15  23
ENDBRANCH   6   8
ENDBRANCH   5   6
ENDBRANCH   4   5
ENDBRANCH   3   4
ENDBRANCH   2   3
ENDBRANCH   1   2
BRANCH   1  29
ATOM     29  C   UNL     1       2.470  -1.819   1.554  1.00  0.00     0.261 C 
BRANCH  29  30
ATOM     30  O   UNL     1       2.944  -0.901   2.529  1.00  0.00    -0.460 OA
BRANCH  30  31
ATOM     31  C   UNL     1       4.340  -0.723   2.717  1.00  0.00     0.338 C 
ATOM     32  O   UNL     1       5.166  -1.385   2.014  1.00  0.00    -0.246 OA
BRANCH  31  33
ATOM     33  C   UNL     1       4.846   0.260   3.760  1.00  0.00     0.060 A 
ATOM     34  C   UNL     1       5.983   1.017   3.529  1.00  0.00     0.016 A 
ATOM     35  C   UNL     1       4.264   0.239   4.954  1.00  0.00     0.016 A 
ATOM     36  C   UNL     1       6.603   1.497   4.707  1.00  0.00     0.010 A 
ATOM     37  C   UNL     1       4.860   0.846   6.033  1.00  0.00     0.010 A 
ATOM     38  C   UNL     1       6.016   1.561   5.888  1.00  0.00    -0.014 A 
BRANCH  38  39
ATOM     39  C   UNL     1       6.596   2.386   7.026  1.00  0.00     0.031 A 
ATOM     40  C   UNL     1       6.921   1.665   8.177  1.00  0.00     0.074 A 
ATOM     41  C   UNL     1       6.908   3.721   6.835  1.00  0.00     0.049 A 
ATOM     42  N   UNL     1       7.593   2.098   9.244  1.00  0.00    -0.248 NA
ATOM     43  C   UNL     1       6.560   0.257   8.396  1.00  0.00     0.031 C 
ATOM     44  C   UNL     1       6.591   4.452   5.673  1.00  0.00     0.029 A 
ATOM     45  N   UNL     1       7.562   4.568   7.701  1.00  0.00    -0.354 N 
ATOM     46  C   UNL     1       7.725   1.113  10.136  1.00  0.00     0.074 A 
ATOM     47  C   UNL     1       7.057  -0.083   9.606  1.00  0.00     0.031 C 
ATOM     48  C   UNL     1       7.037   5.725   5.842  1.00  0.00     0.029 A 
ATOM     49  C   UNL     1       7.641   5.810   7.111  1.00  0.00     0.049 A 
ATOM     50  H   UNL     1       7.913   4.328   8.589  1.00  0.00     0.167 HD
ATOM     51  C   UNL     1       8.378   1.166  11.368  1.00  0.00     0.037 A 
ATOM     52  C   UNL     1       8.202   6.965   7.634  1.00  0.00     0.037 A 
ATOM     53  C   UNL     1       8.977   2.309  11.873  1.00  0.00     0.049 A 
ATOM     54  C   UNL     1       8.804   7.032   8.892  1.00  0.00     0.074 A 
ATOM     55  C   UNL     1       9.646   2.377  13.110  1.00  0.00     0.029 A 
ATOM     56  N   UNL     1       9.034   3.557  11.293  1.00  0.00    -0.354 N 
ATOM     57  N   UNL     1       8.971   6.038   9.766  1.00  0.00    -0.248 NA
ATOM     58  C   UNL     1       9.373   8.257   9.470  1.00  0.00     0.031 C 
ATOM     59  C   UNL     1      10.092   3.650  13.278  1.00  0.00     0.029 A 
ATOM     60  C   UNL     1       9.709   4.399  12.149  1.00  0.00     0.049 A 
ATOM     61  H   UNL     1       8.658   3.805  10.417  1.00  0.00     0.167 HD
ATOM     62  C   UNL     1       9.607   6.482  10.852  1.00  0.00     0.074 A 
ATOM     63  C   UNL     1       9.868   7.918  10.680  1.00  0.00     0.031 C 
ATOM     64  C   UNL     1       9.983   5.747  11.977  1.00  0.00     0.037 A 
BRANCH  51  65
ATOM     65  C   UNL     1       8.435  -0.102  12.204  1.00  0.00     0.057 A 
ATOM     66  C   UNL     1       9.028  -1.253  11.712  1.00  0.00     0.134 A 
ATOM     67  C   UNL     1       7.884  -0.074  13.412  1.00  0.00     0.134 A 
ATOM     68  F   UNL     1       9.805  -1.264  10.632  1.00  0.00    -0.206 F 
ATOM     69  C   UNL     1       8.733  -2.416  12.462  1.00  0.00     0.040 A 
ATOM     70  C   UNL     1       7.750  -1.227  14.147  1.00  0.00     0.040 A 
ATOM     71  F   UNL     1       7.459   1.081  13.915  1.00  0.00    -0.206 F 
ATOM     72  C   UNL     1       8.261  -2.413  13.695  1.00  0.00     0.006 A 
ENDBRANCH  51  65
BRANCH  52  73
ATOM     73  C   UNL     1       8.160   8.228   6.790  1.00  0.00     0.057 A 
ATOM     74  C   UNL     1       9.362   8.816   6.433  1.00  0.00     0.134 A 
ATOM     75  C   UNL     1       6.999   8.745   6.404  1.00  0.00     0.134 A 
ATOM     76  F   UNL     1      10.537   8.209   6.575  1.00  0.00    -0.206 F 
ATOM     77  C   UNL     1       9.227  10.121   5.904  1.00  0.00     0.040 A 
ATOM     78  C   UNL     1       6.952   9.963   5.770  1.00  0.00     0.040 A 
ATOM     79  F   UNL     1       5.872   8.078   6.634  1.00  0.00    -0.206 F 
ATOM     80  C   UNL     1       8.100  10.628   5.439  1.00  0.00     0.006 A 
ENDBRANCH  52  73
BRANCH  64  81
ATOM     81  C   UNL     1      10.741   6.468  13.080  1.00  0.00     0.057 A 
ATOM     82  C   UNL     1      10.239   7.621  13.660  1.00  0.00     0.134 A 
ATOM     83  C   UNL     1      11.953   6.017  13.381  1.00  0.00     0.134 A 
ATOM     84  F   UNL     1       8.957   7.970  13.589  1.00  0.00    -0.206 F 
ATOM     85  C   UNL     1      11.213   8.394  14.335  1.00  0.00     0.040 A 
ATOM     86  C   UNL     1      12.804   6.764  14.159  1.00  0.00     0.040 A 
ATOM     87  F   UNL     1      12.347   4.831  12.925  1.00  0.00    -0.206 F 
ATOM     88  C   UNL     1      12.394   7.943  14.717  1.00  0.00     0.006 A 
ENDBRANCH  64  81
ENDBRANCH  38  39
ENDBRANCH  31  33
ENDBRANCH  30  31
ENDBRANCH  29  30
ENDBRANCH   1  29
TORSDOF 16
