REMARK SMILES CCC[NH+]1CCN(C(=O)N[C@H]2C=C[C@@H](C(=O)OCCOCCOC(=O)c3ccc(-c4c5nc(c(-c6c(F)cccc6F)c6ccc([nH]6)c(-c6c(F)cccc6F)c6nc(c(-c7c(F)cccc7F)c7ccc4[nH]7)C=C6)C=C5)cc3)C2)CC1
REMARK SMILES IDX 19 1 18 2 17 3 15 4 16 5 14 6 11 7 12 8 80 9 13 10 10 11
REMARK SMILES IDX 4 12 5 13 82 14 6 16 81 17 7 18 8 19 9 20 3 22 2 23 1 24
REMARK SMILES IDX 20 25 21 26 22 27 23 28 24 29 25 30 26 31 27 32 79 33 28 34
REMARK SMILES IDX 78 35 29 36 30 37 31 38 72 39 32 40 77 41 71 42 73 43 33 44
REMARK SMILES IDX 76 45 70 46 69 47 34 49 60 50 43 51 59 52 44 53 47 54 58 55
REMARK SMILES IDX 74 56 45 57 46 58 57 60 75 61 48 62 35 63 36 64 41 65 37 66
REMARK SMILES IDX 38 67 40 68 42 69 39 70 61 71 62 72 67 73 63 74 64 75 66 76
REMARK SMILES IDX 68 77 65 78 49 79 50 80 55 81 51 82 52 83 54 84 56 85 53 86
REMARK H PARENT 4 15 10 21 73 48 47 59
REMARK Flexibility Score: inf
ROOT
ATOM      1  C   UNL     1       1.986   5.090  12.053  1.00  0.00     0.202 C 
ENDROOT
BRANCH   1   2
ATOM      2  C   UNL     1       1.197   6.233  11.412  1.00  0.00     0.261 C 
BRANCH   2   3
ATOM      3  O   UNL     1       0.750   5.884  10.089  1.00  0.00    -0.463 OA
BRANCH   3   4
ATOM      4  C   UNL     1       1.229   6.654   9.076  1.00  0.00     0.312 C 
ATOM      5  O   UNL     1       1.921   7.655   9.225  1.00  0.00    -0.252 OA
BRANCH   4   6
ATOM      6  C   UNL     1       0.774   6.185   7.701  1.00  0.00     0.124 C 
ATOM      7  C   UNL     1      -0.455   4.486   6.461  1.00  0.00     0.107 C 
ATOM      8  C   UNL     1      -1.302   5.693   6.733  1.00  0.00    -0.006 C 
ATOM      9  C   UNL     1       0.684   4.671   7.473  1.00  0.00     0.048 C 
ATOM     10  C   UNL     1      -0.622   6.636   7.398  1.00  0.00    -0.014 C 
BRANCH   7  11
ATOM     11  N   UNL     1      -1.217   3.295   6.726  1.00  0.00    -0.332 N 
ATOM     12  N   UNL     1       0.077   1.298   2.368  1.00  0.00    -0.332 N 
ATOM     13  C   UNL     1      -1.049   0.624   3.073  1.00  0.00     0.284 C 
ATOM     14  C   UNL     1       0.509   2.475   3.167  1.00  0.00     0.284 C 
ATOM     15  H   UNL     1      -0.247   1.613   1.454  1.00  0.00     0.348 HD
ATOM     16  C   UNL     1      -0.808   0.343   4.577  1.00  0.00     0.183 C 
ATOM     17  C   UNL     1       0.767   2.176   4.659  1.00  0.00     0.183 C 
ATOM     18  N   UNL     1      -0.425   1.583   5.263  1.00  0.00    -0.314 N 
ATOM     19  C   UNL     1      -1.260   2.048   6.233  1.00  0.00     0.318 C 
ATOM     20  O   UNL     1      -2.151   1.337   6.712  1.00  0.00    -0.249 OA
ATOM     21  H   UNL     1      -1.870   3.428   7.451  1.00  0.00     0.165 HD
BRANCH  12  22
ATOM     22  C   UNL     1       1.196   0.377   2.103  1.00  0.00     0.262 C 
BRANCH  22  23
ATOM     23  C   UNL     1       0.932  -0.562   0.915  1.00  0.00     0.058 C 
ATOM     24  C   UNL     1       1.060   0.137  -0.432  1.00  0.00     0.010 C 
ENDBRANCH  22  23
ENDBRANCH  12  22
ENDBRANCH   7  11
ENDBRANCH   4   6
ENDBRANCH   3   4
ENDBRANCH   2   3
ENDBRANCH   1   2
BRANCH   1  25
ATOM     25  O   UNL     1       3.230   4.768  11.432  1.00  0.00    -0.374 OA
BRANCH  25  26
ATOM     26  C   UNL     1       3.180   3.974  10.247  1.00  0.00     0.202 C 
BRANCH  26  27
ATOM     27  C   UNL     1       2.955   2.470  10.446  1.00  0.00     0.261 C 
BRANCH  27  28
ATOM     28  O   UNL     1       1.648   2.181  10.975  1.00  0.00    -0.460 OA
BRANCH  28  29
ATOM     29  C   UNL     1       1.641   1.700  12.240  1.00  0.00     0.338 C 
ATOM     30  O   UNL     1       2.614   1.420  12.930  1.00  0.00    -0.246 OA
BRANCH  29  31
ATOM     31  C   UNL     1       0.273   1.706  12.787  1.00  0.00     0.060 A 
ATOM     32  C   UNL     1       0.080   2.321  14.031  1.00  0.00     0.016 A 
ATOM     33  C   UNL     1      -0.784   1.053  12.149  1.00  0.00     0.016 A 
ATOM     34  C   UNL     1      -1.155   2.236  14.669  1.00  0.00     0.010 A 
ATOM     35  C   UNL     1      -2.022   0.961  12.796  1.00  0.00     0.010 A 
ATOM     36  C   UNL     1      -2.201   1.519  14.075  1.00  0.00    -0.014 A 
BRANCH  36  37
ATOM     37  C   UNL     1      -3.421   1.226  14.866  1.00  0.00     0.031 A 
ATOM     38  C   UNL     1      -3.550  -0.113  15.540  1.00  0.00     0.074 A 
ATOM     39  C   UNL     1      -4.381   2.154  15.025  1.00  0.00     0.049 A 
ATOM     40  N   UNL     1      -4.525  -0.582  16.278  1.00  0.00    -0.248 NA
ATOM     41  C   UNL     1      -2.428  -1.047  15.361  1.00  0.00     0.031 C 
ATOM     42  C   UNL     1      -4.354   3.502  14.460  1.00  0.00     0.029 A 
ATOM     43  N   UNL     1      -5.567   2.098  15.712  1.00  0.00    -0.354 N 
ATOM     44  C   UNL     1      -4.135  -1.863  16.648  1.00  0.00     0.074 A 
ATOM     45  C   UNL     1      -2.850  -2.110  16.029  1.00  0.00     0.031 C 
ATOM     46  C   UNL     1      -5.478   4.146  14.821  1.00  0.00     0.029 A 
ATOM     47  C   UNL     1      -6.312   3.247  15.617  1.00  0.00     0.049 A 
ATOM     48  H   UNL     1      -5.857   1.309  16.224  1.00  0.00     0.167 HD
ATOM     49  C   UNL     1      -4.782  -2.750  17.442  1.00  0.00     0.037 A 
ATOM     50  C   UNL     1      -7.535   3.534  16.104  1.00  0.00     0.037 A 
ATOM     51  C   UNL     1      -6.061  -2.508  18.055  1.00  0.00     0.049 A 
ATOM     52  C   UNL     1      -8.270   2.502  16.918  1.00  0.00     0.074 A 
ATOM     53  C   UNL     1      -6.793  -3.342  18.883  1.00  0.00     0.029 A 
ATOM     54  N   UNL     1      -6.803  -1.347  17.900  1.00  0.00    -0.354 N 
ATOM     55  N   UNL     1      -7.882   1.303  17.281  1.00  0.00    -0.248 NA
ATOM     56  C   UNL     1      -9.613   2.866  17.392  1.00  0.00     0.031 C 
ATOM     57  C   UNL     1      -7.997  -2.702  19.194  1.00  0.00     0.029 A 
ATOM     58  C   UNL     1      -7.995  -1.451  18.598  1.00  0.00     0.049 A 
ATOM     59  H   UNL     1      -6.523  -0.565  17.371  1.00  0.00     0.167 HD
ATOM     60  C   UNL     1      -8.917   0.784  18.050  1.00  0.00     0.074 A 
ATOM     61  C   UNL     1      -9.945   1.801  18.108  1.00  0.00     0.031 C 
ATOM     62  C   UNL     1      -9.005  -0.426  18.655  1.00  0.00     0.037 A 
BRANCH  49  63
ATOM     63  C   UNL     1      -4.120  -4.077  17.671  1.00  0.00     0.057 A 
ATOM     64  C   UNL     1      -2.985  -4.206  18.482  1.00  0.00     0.134 A 
ATOM     65  C   UNL     1      -4.636  -5.242  17.091  1.00  0.00     0.134 A 
ATOM     66  F   UNL     1      -2.432  -3.126  19.056  1.00  0.00    -0.206 F 
ATOM     67  C   UNL     1      -2.373  -5.444  18.689  1.00  0.00     0.040 A 
ATOM     68  C   UNL     1      -4.048  -6.489  17.310  1.00  0.00     0.040 A 
ATOM     69  F   UNL     1      -5.724  -5.189  16.307  1.00  0.00    -0.206 F 
ATOM     70  C   UNL     1      -2.909  -6.591  18.106  1.00  0.00     0.006 A 
ENDBRANCH  49  63
BRANCH  50  71
ATOM     71  C   UNL     1      -8.152   4.856  15.833  1.00  0.00     0.057 A 
ATOM     72  C   UNL     1      -8.335   5.794  16.855  1.00  0.00     0.134 A 
ATOM     73  C   UNL     1      -8.595   5.203  14.551  1.00  0.00     0.134 A 
ATOM     74  F   UNL     1      -7.954   5.508  18.109  1.00  0.00    -0.206 F 
ATOM     75  C   UNL     1      -8.951   7.024  16.617  1.00  0.00     0.040 A 
ATOM     76  C   UNL     1      -9.191   6.439  14.294  1.00  0.00     0.040 A 
ATOM     77  F   UNL     1      -8.450   4.348  13.529  1.00  0.00    -0.206 F 
ATOM     78  C   UNL     1      -9.377   7.350  15.331  1.00  0.00     0.006 A 
ENDBRANCH  50  71
BRANCH  62  79
ATOM     79  C   UNL     1     -10.238  -0.701  19.467  1.00  0.00     0.057 A 
ATOM     80  C   UNL     1     -11.479  -0.949  18.868  1.00  0.00     0.134 A 
ATOM     81  C   UNL     1     -10.171  -0.755  20.865  1.00  0.00     0.134 A 
ATOM     82  F   UNL     1     -11.613  -0.900  17.534  1.00  0.00    -0.206 F 
ATOM     83  C   UNL     1     -12.616  -1.218  19.633  1.00  0.00     0.040 A 
ATOM     84  C   UNL     1     -11.295  -1.048  21.639  1.00  0.00     0.040 A 
ATOM     85  F   UNL     1      -9.011  -0.536  21.501  1.00  0.00    -0.206 F 
ATOM     86  C   UNL     1     -12.524  -1.274  21.023  1.00  0.00     0.006 A 
ENDBRANCH  62  79
ENDBRANCH  36  37
ENDBRANCH  29  31
ENDBRANCH  28  29
ENDBRANCH  27  28
ENDBRANCH  26  27
ENDBRANCH  25  26
ENDBRANCH   1  25
TORSDOF 17
