REMARK SMILES O=C(OCCOCCOC(=O)c1ccccc1Nc1nc(Cl)nc(Nc2ccc(N3CCOCC3=O)cc2)n1)c1ccc(-c2c3nc(c(-c4c(F)cccc4F)c4ccc([nH]4)c(-c4c(F)cccc4F)c4nc(c(-c5c(F)cccc5F)c5ccc2[nH]5)C=C4)C=C3)cc1
REMARK SMILES IDX 7 1 6 2 5 3 4 4 3 5 2 6 1 7 40 8 41 9 93 10 42 11 92 12
REMARK SMILES IDX 43 13 44 14 45 15 86 16 46 17 91 18 85 19 87 20 47 21 90 22
REMARK SMILES IDX 84 23 83 24 48 26 74 27 57 28 73 29 58 30 61 31 72 32 88 33
REMARK SMILES IDX 59 34 60 35 71 37 89 38 62 39 49 40 50 41 55 42 51 43 52 44
REMARK SMILES IDX 54 45 56 46 53 47 75 48 76 49 81 50 77 51 78 52 80 53 82 54
REMARK SMILES IDX 79 55 63 56 64 57 69 58 65 59 66 60 68 61 70 62 67 63 8 64
REMARK SMILES IDX 9 65 10 66 11 67 12 68 13 69 17 70 14 71 16 72 15 73 18 74
REMARK SMILES IDX 19 76 20 77 39 78 21 79 24 80 22 81 23 82 25 83 26 85 27 86
REMARK SMILES IDX 38 87 28 88 37 89 29 90 30 91 31 92 35 93 32 94 34 95 36 96
REMARK SMILES IDX 33 97
REMARK H PARENT 87 25 61 36 18 75 25 84
REMARK Flexibility Score: inf
ROOT
ATOM      1  C   UNL     1       2.849   0.942  -2.086  1.00  0.00     0.202 C 
ENDROOT
BRANCH   1   2
ATOM      2  O   UNL     1       4.115   0.509  -1.580  1.00  0.00    -0.374 OA
BRANCH   2   3
ATOM      3  C   UNL     1       4.278  -0.900  -1.417  1.00  0.00     0.202 C 
BRANCH   3   4
ATOM      4  C   UNL     1       3.914  -1.401  -0.018  1.00  0.00     0.261 C 
BRANCH   4   5
ATOM      5  O   UNL     1       2.540  -1.102   0.277  1.00  0.00    -0.460 OA
BRANCH   5   6
ATOM      6  C   UNL     1       2.030  -0.070   0.987  1.00  0.00     0.338 C 
ATOM      7  O   UNL     1       0.808   0.003   1.115  1.00  0.00    -0.246 OA
BRANCH   6   8
ATOM      8  C   UNL     1       2.858   0.985   1.651  1.00  0.00     0.060 A 
ATOM      9  C   UNL     1       4.133   1.381   1.248  1.00  0.00     0.016 A 
ATOM     10  C   UNL     1       2.265   1.681   2.720  1.00  0.00     0.016 A 
ATOM     11  C   UNL     1       4.827   2.384   1.903  1.00  0.00     0.010 A 
ATOM     12  C   UNL     1       2.945   2.712   3.376  1.00  0.00     0.010 A 
ATOM     13  C   UNL     1       4.243   3.044   2.978  1.00  0.00    -0.014 A 
BRANCH  13  14
ATOM     14  C   UNL     1       5.110   3.951   3.744  1.00  0.00     0.031 A 
ATOM     15  C   UNL     1       5.733   3.424   4.999  1.00  0.00     0.074 A 
ATOM     16  C   UNL     1       5.476   5.127   3.206  1.00  0.00     0.049 A 
ATOM     17  N   UNL     1       6.577   4.000   5.811  1.00  0.00    -0.248 NA
ATOM     18  C   UNL     1       5.377   2.045   5.377  1.00  0.00     0.031 C 
ATOM     19  C   UNL     1       5.022   5.636   1.909  1.00  0.00     0.029 A 
ATOM     20  N   UNL     1       6.352   6.077   3.651  1.00  0.00    -0.354 N 
ATOM     21  C   UNL     1       6.828   3.067   6.808  1.00  0.00     0.074 A 
ATOM     22  C   UNL     1       6.053   1.887   6.502  1.00  0.00     0.031 C 
ATOM     23  C   UNL     1       5.652   6.793   1.649  1.00  0.00     0.029 A 
ATOM     24  C   UNL     1       6.503   7.132   2.784  1.00  0.00     0.049 A 
ATOM     25  H   UNL     1       6.829   6.013   4.510  1.00  0.00     0.167 HD
ATOM     26  C   UNL     1       7.631   3.198   7.887  1.00  0.00     0.037 A 
ATOM     27  C   UNL     1       7.237   8.251   2.916  1.00  0.00     0.037 A 
ATOM     28  C   UNL     1       8.389   4.388   8.160  1.00  0.00     0.049 A 
ATOM     29  C   UNL     1       8.050   8.411   4.173  1.00  0.00     0.074 A 
ATOM     30  C   UNL     1       9.176   4.685   9.255  1.00  0.00     0.029 A 
ATOM     31  N   UNL     1       8.447   5.486   7.310  1.00  0.00    -0.354 N 
ATOM     32  N   UNL     1       8.222   7.561   5.159  1.00  0.00    -0.248 NA
ATOM     33  C   UNL     1       8.756   9.685   4.345  1.00  0.00     0.031 C 
ATOM     34  C   UNL     1       9.678   5.980   9.086  1.00  0.00     0.029 A 
ATOM     35  C   UNL     1       9.246   6.470   7.861  1.00  0.00     0.049 A 
ATOM     36  H   UNL     1       7.987   5.553   6.442  1.00  0.00     0.167 HD
ATOM     37  C   UNL     1       9.074   8.186   6.058  1.00  0.00     0.074 A 
ATOM     38  C   UNL     1       9.395   9.481   5.488  1.00  0.00     0.031 C 
ATOM     39  C   UNL     1       9.549   7.739   7.247  1.00  0.00     0.037 A 
BRANCH  26  40
ATOM     40  C   UNL     1       7.636   2.064   8.868  1.00  0.00     0.057 A 
ATOM     41  C   UNL     1       8.246   0.833   8.592  1.00  0.00     0.134 A 
ATOM     42  C   UNL     1       6.959   2.189  10.088  1.00  0.00     0.134 A 
ATOM     43  F   UNL     1       8.881   0.635   7.427  1.00  0.00    -0.206 F 
ATOM     44  C   UNL     1       8.155  -0.241   9.480  1.00  0.00     0.040 A 
ATOM     45  C   UNL     1       6.882   1.130  10.994  1.00  0.00     0.040 A 
ATOM     46  F   UNL     1       6.343   3.337  10.410  1.00  0.00    -0.206 F 
ATOM     47  C   UNL     1       7.472  -0.093  10.686  1.00  0.00     0.006 A 
ENDBRANCH  26  40
BRANCH  27  48
ATOM     48  C   UNL     1       7.209   9.305   1.869  1.00  0.00     0.057 A 
ATOM     49  C   UNL     1       8.351   9.639   1.133  1.00  0.00     0.134 A 
ATOM     50  C   UNL     1       6.036  10.021   1.589  1.00  0.00     0.134 A 
ATOM     51  F   UNL     1       9.511   9.007   1.363  1.00  0.00    -0.206 F 
ATOM     52  C   UNL     1       8.335  10.655   0.173  1.00  0.00     0.040 A 
ATOM     53  C   UNL     1       5.998  11.018   0.614  1.00  0.00     0.040 A 
ATOM     54  F   UNL     1       4.904   9.754   2.257  1.00  0.00    -0.206 F 
ATOM     55  C   UNL     1       7.153  11.344  -0.093  1.00  0.00     0.006 A 
ENDBRANCH  27  48
BRANCH  39  56
ATOM     56  C   UNL     1      10.498   8.641   7.974  1.00  0.00     0.057 A 
ATOM     57  C   UNL     1      10.065   9.803   8.622  1.00  0.00     0.134 A 
ATOM     58  C   UNL     1      11.858   8.315   8.055  1.00  0.00     0.134 A 
ATOM     59  F   UNL     1       8.777  10.173   8.568  1.00  0.00    -0.206 F 
ATOM     60  C   UNL     1      10.958  10.626   9.308  1.00  0.00     0.040 A 
ATOM     61  C   UNL     1      12.755   9.115   8.761  1.00  0.00     0.040 A 
ATOM     62  F   UNL     1      12.331   7.208   7.463  1.00  0.00    -0.206 F 
ATOM     63  C   UNL     1      12.306  10.278   9.384  1.00  0.00     0.006 A 
ENDBRANCH  39  56
ENDBRANCH  13  14
ENDBRANCH   6   8
ENDBRANCH   5   6
ENDBRANCH   4   5
ENDBRANCH   3   4
ENDBRANCH   2   3
ENDBRANCH   1   2
BRANCH   1  64
ATOM     64  C   UNL     1       3.080   1.764  -3.356  1.00  0.00     0.261 C 
BRANCH  64  65
ATOM     65  O   UNL     1       3.665   0.904  -4.347  1.00  0.00    -0.460 OA
BRANCH  65  66
ATOM     66  C   UNL     1       5.013   0.747  -4.279  1.00  0.00     0.340 C 
ATOM     67  O   UNL     1       5.811   1.548  -3.821  1.00  0.00    -0.246 OA
BRANCH  66  68
ATOM     68  C   UNL     1       5.363  -0.644  -4.697  1.00  0.00     0.083 A 
ATOM     69  C   UNL     1       6.535  -1.184  -4.143  1.00  0.00     0.018 A 
ATOM     70  C   UNL     1       4.555  -1.422  -5.560  1.00  0.00     0.055 A 
ATOM     71  C   UNL     1       6.897  -2.503  -4.407  1.00  0.00     0.001 A 
ATOM     72  C   UNL     1       4.943  -2.746  -5.810  1.00  0.00     0.027 A 
ATOM     73  C   UNL     1       6.100  -3.283  -5.238  1.00  0.00     0.002 A 
BRANCH  70  74
ATOM     74  N   UNL     1       3.408  -0.866  -6.150  1.00  0.00    -0.323 N 
ATOM     75  H   UNL     1       3.022  -0.102  -5.664  1.00  0.00     0.170 HD
BRANCH  74  76
ATOM     76  C   UNL     1       2.732  -1.220  -7.303  1.00  0.00     0.233 A 
ATOM     77  N   UNL     1       2.203  -2.421  -7.446  1.00  0.00    -0.182 NA
ATOM     78  N   UNL     1       2.682  -0.256  -8.213  1.00  0.00    -0.176 NA
ATOM     79  C   UNL     1       1.567  -2.569  -8.594  1.00  0.00     0.228 A 
ATOM     80  C   UNL     1       2.107  -0.559  -9.364  1.00  0.00     0.233 A 
ATOM     81  Cl  UNL     1       0.808  -4.079  -8.845  1.00  0.00    -0.041 Cl
ATOM     82  N   UNL     1       1.485  -1.706  -9.590  1.00  0.00    -0.182 NA
BRANCH  80  83
ATOM     83  N   UNL     1       2.307   0.359 -10.392  1.00  0.00    -0.324 N 
ATOM     84  H   UNL     1       2.765   1.199 -10.157  1.00  0.00     0.170 HD
BRANCH  83  85
ATOM     85  C   UNL     1       1.920   0.200 -11.721  1.00  0.00     0.041 A 
ATOM     86  C   UNL     1       2.882   0.118 -12.730  1.00  0.00     0.028 A 
ATOM     87  C   UNL     1       0.584  -0.048 -12.038  1.00  0.00     0.028 A 
ATOM     88  C   UNL     1       2.516  -0.267 -14.023  1.00  0.00     0.028 A 
ATOM     89  C   UNL     1       0.210  -0.382 -13.335  1.00  0.00     0.028 A 
ATOM     90  C   UNL     1       1.177  -0.529 -14.334  1.00  0.00     0.044 A 
BRANCH  90  91
ATOM     91  N   UNL     1       0.806  -1.026 -15.617  1.00  0.00    -0.308 N 
ATOM     92  C   UNL     1       1.540  -2.202 -16.101  1.00  0.00     0.154 C 
ATOM     93  C   UNL     1      -0.410  -0.656 -16.204  1.00  0.00     0.253 C 
ATOM     94  C   UNL     1       1.260  -2.521 -17.562  1.00  0.00     0.183 C 
ATOM     95  C   UNL     1      -0.779  -1.403 -17.494  1.00  0.00     0.260 C 
ATOM     96  O   UNL     1      -1.127   0.267 -15.810  1.00  0.00    -0.272 OA
ATOM     97  O   UNL     1      -0.146  -2.645 -17.756  1.00  0.00    -0.370 OA
ENDBRANCH  90  91
ENDBRANCH  83  85
ENDBRANCH  80  83
ENDBRANCH  74  76
ENDBRANCH  70  74
ENDBRANCH  66  68
ENDBRANCH  65  66
ENDBRANCH  64  65
ENDBRANCH   1  64
TORSDOF 19
