REMARK SMILES CC(C)[C@@H](NC(=O)[C@H]1CC[C@@H](C(C)C)CC1)C(=O)OCCOCCOC(=O)c1ccc(-c2c3nc(c(-c4c(F)cccc4F)c4ccc([nH]4)c(-c4c(F)cccc4F)c4nc(c(-c5c(F)cccc5F)c5ccc2[nH]5)C=C4)C=C3)cc1
REMARK SMILES IDX 21 1 20 2 19 3 17 4 18 5 4 6 5 7 6 8 7 9 8 11 11 12 15 13
REMARK SMILES IDX 10 14 16 15 9 16 12 17 13 18 14 19 2 20 1 21 3 22 22 23
REMARK SMILES IDX 23 24 24 25 25 26 26 27 27 28 28 29 29 30 81 31 30 32 80 33
REMARK SMILES IDX 31 34 32 35 33 36 74 37 34 38 79 39 73 40 75 41 35 42 78 43
REMARK SMILES IDX 72 44 71 45 36 47 62 48 45 49 61 50 46 51 49 52 60 53 76 54
REMARK SMILES IDX 47 55 48 56 59 58 77 59 50 60 37 61 38 62 43 63 39 64 40 65
REMARK SMILES IDX 42 66 44 67 41 68 63 69 64 70 69 71 65 72 66 73 68 74 70 75
REMARK SMILES IDX 67 76 51 77 52 78 57 79 53 80 54 81 56 82 58 83 55 84
REMARK H PARENT 5 10 75 46 49 57
REMARK Flexibility Score: inf
ROOT
ATOM      1  C   UNL     1       2.019   4.689   2.443  1.00  0.00     0.202 C 
ENDROOT
BRANCH   1   2
ATOM      2  C   UNL     1       1.130   4.204   1.293  1.00  0.00     0.261 C 
BRANCH   2   3
ATOM      3  O   UNL     1       0.288   3.094   1.630  1.00  0.00    -0.462 OA
BRANCH   3   4
ATOM      4  C   UNL     1       0.692   1.899   1.108  1.00  0.00     0.328 C 
ATOM      5  O   UNL     1       1.710   1.752   0.441  1.00  0.00    -0.250 OA
BRANCH   4   6
ATOM      6  C   UNL     1      -0.280   0.742   1.435  1.00  0.00     0.194 C 
BRANCH   6   7
ATOM      7  N   UNL     1      -1.497   1.172   2.132  1.00  0.00    -0.342 N 
ATOM      8  C   UNL     1      -2.781   1.345   1.750  1.00  0.00     0.223 C 
ATOM      9  O   UNL     1      -3.549   1.712   2.650  1.00  0.00    -0.275 OA
ATOM     10  H   UNL     1      -1.345   1.380   3.082  1.00  0.00     0.164 HD
BRANCH   8  11
ATOM     11  C   UNL     1      -3.336   1.190   0.323  1.00  0.00     0.078 C 
ATOM     12  C   UNL     1      -1.515   1.201  -2.105  1.00  0.00    -0.009 C 
ATOM     13  C   UNL     1      -1.968  -0.137  -1.482  1.00  0.00     0.004 C 
ATOM     14  C   UNL     1      -1.813   2.453  -1.259  1.00  0.00     0.004 C 
ATOM     15  C   UNL     1      -3.104  -0.103  -0.453  1.00  0.00     0.014 C 
ATOM     16  C   UNL     1      -3.140   2.433  -0.532  1.00  0.00     0.014 C 
BRANCH  12  17
ATOM     17  C   UNL     1      -0.011   1.259  -2.571  1.00  0.00    -0.014 C 
ATOM     18  C   UNL     1       0.872   0.059  -2.222  1.00  0.00     0.007 C 
ATOM     19  C   UNL     1       0.087   1.504  -4.079  1.00  0.00     0.007 C 
ENDBRANCH  12  17
ENDBRANCH   8  11
ENDBRANCH   6   7
BRANCH   6  20
ATOM     20  C   UNL     1       0.378  -0.427   2.221  1.00  0.00     0.017 C 
ATOM     21  C   UNL     1      -0.525  -1.670   2.172  1.00  0.00     0.010 C 
ATOM     22  C   UNL     1       1.771  -0.838   1.731  1.00  0.00     0.010 C 
ENDBRANCH   6  20
ENDBRANCH   4   6
ENDBRANCH   3   4
ENDBRANCH   2   3
ENDBRANCH   1   2
BRANCH   1  23
ATOM     23  O   UNL     1       2.737   3.733   3.211  1.00  0.00    -0.374 OA
BRANCH  23  24
ATOM     24  C   UNL     1       2.020   2.789   3.999  1.00  0.00     0.202 C 
BRANCH  24  25
ATOM     25  C   UNL     1       1.080   3.282   5.106  1.00  0.00     0.261 C 
BRANCH  25  26
ATOM     26  O   UNL     1       0.069   4.200   4.657  1.00  0.00    -0.460 OA
BRANCH  26  27
ATOM     27  C   UNL     1       0.179   5.441   5.188  1.00  0.00     0.338 C 
ATOM     28  O   UNL     1       1.017   5.830   5.993  1.00  0.00    -0.246 OA
BRANCH  27  29
ATOM     29  C   UNL     1      -0.762   6.379   4.558  1.00  0.00     0.060 A 
ATOM     30  C   UNL     1      -0.226   7.530   3.965  1.00  0.00     0.016 A 
ATOM     31  C   UNL     1      -2.143   6.225   4.696  1.00  0.00     0.016 A 
ATOM     32  C   UNL     1      -1.066   8.566   3.570  1.00  0.00     0.010 A 
ATOM     33  C   UNL     1      -2.986   7.273   4.310  1.00  0.00     0.010 A 
ATOM     34  C   UNL     1      -2.446   8.465   3.792  1.00  0.00    -0.014 A 
BRANCH  34  35
ATOM     35  C   UNL     1      -3.285   9.677   3.650  1.00  0.00     0.031 A 
ATOM     36  C   UNL     1      -3.596  10.494   4.874  1.00  0.00     0.074 A 
ATOM     37  C   UNL     1      -3.720  10.075   2.443  1.00  0.00     0.049 A 
ATOM     38  N   UNL     1      -4.306  11.588   4.986  1.00  0.00    -0.248 NA
ATOM     39  C   UNL     1      -3.025  10.015   6.144  1.00  0.00     0.031 C 
ATOM     40  C   UNL     1      -3.444   9.393   1.180  1.00  0.00     0.029 A 
ATOM     41  N   UNL     1      -4.487  11.154   2.086  1.00  0.00    -0.354 N 
ATOM     42  C   UNL     1      -4.270  11.925   6.333  1.00  0.00     0.074 A 
ATOM     43  C   UNL     1      -3.491  10.907   7.005  1.00  0.00     0.031 C 
ATOM     44  C   UNL     1      -4.045  10.065   0.184  1.00  0.00     0.029 A 
ATOM     45  C   UNL     1      -4.766  11.207   0.744  1.00  0.00     0.049 A 
ATOM     46  H   UNL     1      -4.807  11.825   2.731  1.00  0.00     0.167 HD
ATOM     47  C   UNL     1      -4.829  12.991   6.953  1.00  0.00     0.037 A 
ATOM     48  C   UNL     1      -5.533  12.071   0.051  1.00  0.00     0.037 A 
ATOM     49  C   UNL     1      -5.606  14.001   6.285  1.00  0.00     0.049 A 
ATOM     50  C   UNL     1      -6.202  13.209   0.772  1.00  0.00     0.074 A 
ATOM     51  C   UNL     1      -6.203  15.128   6.822  1.00  0.00     0.029 A 
ATOM     52  N   UNL     1      -5.899  13.999   4.930  1.00  0.00    -0.354 N 
ATOM     53  N   UNL     1      -6.146  13.531   2.042  1.00  0.00    -0.248 NA
ATOM     54  C   UNL     1      -7.041  14.105  -0.037  1.00  0.00     0.031 C 
ATOM     55  C   UNL     1      -6.895  15.785   5.798  1.00  0.00     0.029 A 
ATOM     56  C   UNL     1      -6.690  15.091   4.616  1.00  0.00     0.049 A 
ATOM     57  H   UNL     1      -5.591  13.320   4.286  1.00  0.00     0.167 HD
ATOM     58  C   UNL     1      -6.919  14.676   2.180  1.00  0.00     0.074 A 
ATOM     59  C   UNL     1      -7.426  15.000   0.862  1.00  0.00     0.031 C 
ATOM     60  C   UNL     1      -7.184  15.398   3.297  1.00  0.00     0.037 A 
BRANCH  47  61
ATOM     61  C   UNL     1      -4.640  13.099   8.438  1.00  0.00     0.057 A 
ATOM     62  C   UNL     1      -3.407  13.451   9.003  1.00  0.00     0.134 A 
ATOM     63  C   UNL     1      -5.708  12.862   9.311  1.00  0.00     0.134 A 
ATOM     64  F   UNL     1      -2.340  13.677   8.222  1.00  0.00    -0.206 F 
ATOM     65  C   UNL     1      -3.238  13.540  10.386  1.00  0.00     0.040 A 
ATOM     66  C   UNL     1      -5.557  12.970  10.695  1.00  0.00     0.040 A 
ATOM     67  F   UNL     1      -6.915  12.523   8.835  1.00  0.00    -0.206 F 
ATOM     68  C   UNL     1      -4.317  13.303  11.236  1.00  0.00     0.006 A 
ENDBRANCH  47  61
BRANCH  48  69
ATOM     69  C   UNL     1      -5.717  11.884  -1.409  1.00  0.00     0.057 A 
ATOM     70  C   UNL     1      -5.140  12.762  -2.333  1.00  0.00     0.134 A 
ATOM     71  C   UNL     1      -6.475  10.820  -1.914  1.00  0.00     0.134 A 
ATOM     72  F   UNL     1      -4.422  13.812  -1.909  1.00  0.00    -0.206 F 
ATOM     73  C   UNL     1      -5.319  12.595  -3.708  1.00  0.00     0.040 A 
ATOM     74  C   UNL     1      -6.644  10.629  -3.286  1.00  0.00     0.040 A 
ATOM     75  F   UNL     1      -7.053   9.945  -1.079  1.00  0.00    -0.206 F 
ATOM     76  C   UNL     1      -6.067  11.522  -4.187  1.00  0.00     0.006 A 
ENDBRANCH  48  69
BRANCH  60  77
ATOM     77  C   UNL     1      -8.037  16.621   3.138  1.00  0.00     0.057 A 
ATOM     78  C   UNL     1      -9.419  16.535   2.928  1.00  0.00     0.134 A 
ATOM     79  C   UNL     1      -7.475  17.900   3.240  1.00  0.00     0.134 A 
ATOM     80  F   UNL     1     -10.016  15.340   2.810  1.00  0.00    -0.206 F 
ATOM     81  C   UNL     1     -10.209  17.679   2.806  1.00  0.00     0.040 A 
ATOM     82  C   UNL     1      -8.258  19.051   3.143  1.00  0.00     0.040 A 
ATOM     83  F   UNL     1      -6.159  18.051   3.449  1.00  0.00    -0.206 F 
ATOM     84  C   UNL     1      -9.629  18.942   2.920  1.00  0.00     0.006 A 
ENDBRANCH  60  77
ENDBRANCH  34  35
ENDBRANCH  27  29
ENDBRANCH  26  27
ENDBRANCH  25  26
ENDBRANCH  24  25
ENDBRANCH  23  24
ENDBRANCH   1  23
TORSDOF 18
