REMARK SMILES O=C(C[N@@H+](Cc1c(F)cccc1Cl)C1CC1)OCCOCCOC(=O)c1ccc(-c2c3nc(c(-c4c(F)cccc4F)c4ccc([nH]4)c(-c4c(F)cccc4F)c4nc(c(-c5c(F)cccc5F)c5ccc2[nH]5)C=C4)C=C3)cc1
REMARK SMILES IDX 19 1 18 2 17 3 2 4 1 5 3 6 4 7 5 9 6 10 7 11 12 12 8 13 9 14
REMARK SMILES IDX 11 15 13 16 10 17 14 18 15 19 16 20 20 21 21 22 22 23 23 24
REMARK SMILES IDX 24 25 25 26 26 27 27 28 79 29 28 30 78 31 29 32 30 33 31 34
REMARK SMILES IDX 72 35 32 36 77 37 71 38 73 39 33 40 76 41 70 42 69 43 34 45
REMARK SMILES IDX 60 46 43 47 59 48 44 49 47 50 58 51 74 52 45 53 46 54 57 56
REMARK SMILES IDX 75 57 48 58 35 59 36 60 41 61 37 62 38 63 40 64 42 65 39 66
REMARK SMILES IDX 61 67 62 68 67 69 63 70 64 71 66 72 68 73 65 74 49 75 50 76
REMARK SMILES IDX 55 77 51 78 52 79 54 80 56 81 53 82
REMARK H PARENT 4 8 73 44 47 55
REMARK Flexibility Score: inf
ROOT
ATOM      1  C   UNL     1       4.862   0.857  -0.667  1.00  0.00     0.202 C 
ENDROOT
BRANCH   1   2
ATOM      2  C   UNL     1       4.211  -0.492  -0.373  1.00  0.00     0.261 C 
BRANCH   2   3
ATOM      3  O   UNL     1       2.789  -0.515  -0.550  1.00  0.00    -0.459 OA
BRANCH   3   4
ATOM      4  C   UNL     1       1.891  -0.237   0.428  1.00  0.00     0.361 C 
ATOM      5  O   UNL     1       0.692  -0.187   0.145  1.00  0.00    -0.245 OA
BRANCH   4   6
ATOM      6  C   UNL     1       2.371   0.130   1.821  1.00  0.00     0.387 C 
BRANCH   6   7
ATOM      7  N   UNL     1       3.248  -0.869   2.446  1.00  0.00    -0.319 N 
ATOM      8  H   UNL     1       3.871  -1.179   1.700  1.00  0.00     0.349 HD
BRANCH   7   9
ATOM      9  C   UNL     1       4.138  -0.274   3.480  1.00  0.00     0.304 C 
BRANCH   9  10
ATOM     10  C   UNL     1       3.463   0.617   4.505  1.00  0.00     0.061 A 
ATOM     11  C   UNL     1       3.408   2.002   4.269  1.00  0.00     0.133 A 
ATOM     12  C   UNL     1       2.816   0.143   5.653  1.00  0.00     0.052 A 
ATOM     13  F   UNL     1       4.086   2.533   3.241  1.00  0.00    -0.206 F 
ATOM     14  C   UNL     1       2.646   2.862   5.057  1.00  0.00     0.040 A 
ATOM     15  C   UNL     1       2.012   0.993   6.424  1.00  0.00     0.021 A 
ATOM     16  Cl  UNL     1       3.030  -1.464   6.248  1.00  0.00    -0.084 Cl
ATOM     17  C   UNL     1       1.910   2.348   6.115  1.00  0.00     0.005 A 
ENDBRANCH   9  10
ENDBRANCH   7   9
BRANCH   7  18
ATOM     18  C   UNL     1       2.609  -2.140   2.816  1.00  0.00     0.185 C 
ATOM     19  C   UNL     1       1.629  -2.893   1.956  1.00  0.00     0.071 C 
ATOM     20  C   UNL     1       3.038  -3.381   2.072  1.00  0.00     0.071 C 
ENDBRANCH   7  18
ENDBRANCH   6   7
ENDBRANCH   4   6
ENDBRANCH   3   4
ENDBRANCH   2   3
ENDBRANCH   1   2
BRANCH   1  21
ATOM     21  O   UNL     1       4.344   2.026  -0.048  1.00  0.00    -0.374 OA
BRANCH  21  22
ATOM     22  C   UNL     1       3.141   2.602  -0.562  1.00  0.00     0.202 C 
BRANCH  22  23
ATOM     23  C   UNL     1       3.159   3.284  -1.933  1.00  0.00     0.261 C 
BRANCH  23  24
ATOM     24  O   UNL     1       3.477   2.386  -3.004  1.00  0.00    -0.460 OA
BRANCH  24  25
ATOM     25  C   UNL     1       4.725   2.523  -3.510  1.00  0.00     0.338 C 
ATOM     26  O   UNL     1       5.578   3.333  -3.183  1.00  0.00    -0.246 OA
BRANCH  25  27
ATOM     27  C   UNL     1       5.002   1.379  -4.394  1.00  0.00     0.060 A 
ATOM     28  C   UNL     1       6.130   0.590  -4.125  1.00  0.00     0.016 A 
ATOM     29  C   UNL     1       4.175   1.103  -5.482  1.00  0.00     0.016 A 
ATOM     30  C   UNL     1       6.453  -0.470  -4.966  1.00  0.00     0.010 A 
ATOM     31  C   UNL     1       4.512   0.056  -6.336  1.00  0.00     0.010 A 
ATOM     32  C   UNL     1       5.663  -0.716  -6.095  1.00  0.00    -0.014 A 
BRANCH  32  33
ATOM     33  C   UNL     1       6.101  -1.690  -7.115  1.00  0.00     0.031 A 
ATOM     34  C   UNL     1       6.752  -1.170  -8.363  1.00  0.00     0.074 A 
ATOM     35  C   UNL     1       5.871  -3.002  -6.945  1.00  0.00     0.049 A 
ATOM     36  N   UNL     1       7.063  -1.806  -9.461  1.00  0.00    -0.248 NA
ATOM     37  C   UNL     1       7.087   0.265  -8.381  1.00  0.00     0.031 C 
ATOM     38  C   UNL     1       5.276  -3.608  -5.755  1.00  0.00     0.029 A 
ATOM     39  N   UNL     1       6.077  -4.058  -7.795  1.00  0.00    -0.354 N 
ATOM     40  C   UNL     1       7.601  -0.847 -10.309  1.00  0.00     0.074 A 
ATOM     41  C   UNL     1       7.570   0.415  -9.605  1.00  0.00     0.031 C 
ATOM     42  C   UNL     1       5.127  -4.927  -5.967  1.00  0.00     0.029 A 
ATOM     43  C   UNL     1       5.572  -5.244  -7.321  1.00  0.00     0.049 A 
ATOM     44  H   UNL     1       6.541  -3.974  -8.660  1.00  0.00     0.167 HD
ATOM     45  C   UNL     1       8.069  -1.014 -11.567  1.00  0.00     0.037 A 
ATOM     46  C   UNL     1       5.438  -6.434  -7.938  1.00  0.00     0.037 A 
ATOM     47  C   UNL     1       8.103  -2.281 -12.245  1.00  0.00     0.049 A 
ATOM     48  C   UNL     1       5.911  -6.574  -9.361  1.00  0.00     0.074 A 
ATOM     49  C   UNL     1       8.616  -2.574 -13.496  1.00  0.00     0.029 A 
ATOM     50  N   UNL     1       7.587  -3.462 -11.734  1.00  0.00    -0.354 N 
ATOM     51  N   UNL     1       6.473  -5.679 -10.139  1.00  0.00    -0.248 NA
ATOM     52  C   UNL     1       5.727  -7.887  -9.997  1.00  0.00     0.031 C 
ATOM     53  C   UNL     1       8.349  -3.917 -13.770  1.00  0.00     0.029 A 
ATOM     54  C   UNL     1       7.727  -4.477 -12.664  1.00  0.00     0.049 A 
ATOM     55  H   UNL     1       7.182  -3.564 -10.842  1.00  0.00     0.167 HD
ATOM     56  C   UNL     1       6.729  -6.325 -11.343  1.00  0.00     0.074 A 
ATOM     57  C   UNL     1       6.280  -7.693 -11.186  1.00  0.00     0.031 C 
ATOM     58  C   UNL     1       7.280  -5.833 -12.479  1.00  0.00     0.037 A 
BRANCH  45  59
ATOM     59  C   UNL     1       8.551   0.196 -12.309  1.00  0.00     0.057 A 
ATOM     60  C   UNL     1       9.756   0.834 -11.995  1.00  0.00     0.134 A 
ATOM     61  C   UNL     1       7.829   0.682 -13.408  1.00  0.00     0.134 A 
ATOM     62  F   UNL     1      10.488   0.428 -10.946  1.00  0.00    -0.206 F 
ATOM     63  C   UNL     1      10.225   1.915 -12.744  1.00  0.00     0.040 A 
ATOM     64  C   UNL     1       8.299   1.745 -14.179  1.00  0.00     0.040 A 
ATOM     65  F   UNL     1       6.666   0.115 -13.763  1.00  0.00    -0.206 F 
ATOM     66  C   UNL     1       9.501   2.365 -13.847  1.00  0.00     0.006 A 
ENDBRANCH  45  59
BRANCH  46  67
ATOM     67  C   UNL     1       4.779  -7.571  -7.244  1.00  0.00     0.057 A 
ATOM     68  C   UNL     1       5.485  -8.736  -6.922  1.00  0.00     0.134 A 
ATOM     69  C   UNL     1       3.414  -7.539  -6.927  1.00  0.00     0.134 A 
ATOM     70  F   UNL     1       6.789  -8.838  -7.219  1.00  0.00    -0.206 F 
ATOM     71  C   UNL     1       4.854  -9.837  -6.340  1.00  0.00     0.040 A 
ATOM     72  C   UNL     1       2.778  -8.621  -6.317  1.00  0.00     0.040 A 
ATOM     73  F   UNL     1       2.678  -6.453  -7.206  1.00  0.00    -0.206 F 
ATOM     74  C   UNL     1       3.496  -9.780  -6.033  1.00  0.00     0.006 A 
ENDBRANCH  46  67
BRANCH  58  75
ATOM     75  C   UNL     1       7.454  -6.782 -13.629  1.00  0.00     0.057 A 
ATOM     76  C   UNL     1       6.365  -7.236 -14.382  1.00  0.00     0.134 A 
ATOM     77  C   UNL     1       8.734  -7.193 -14.025  1.00  0.00     0.134 A 
ATOM     78  F   UNL     1       5.113  -6.888 -14.046  1.00  0.00    -0.206 F 
ATOM     79  C   UNL     1       6.541  -8.080 -15.479  1.00  0.00     0.040 A 
ATOM     80  C   UNL     1       8.924  -8.011 -15.139  1.00  0.00     0.040 A 
ATOM     81  F   UNL     1       9.820  -6.784 -13.353  1.00  0.00    -0.206 F 
ATOM     82  C   UNL     1       7.824  -8.461 -15.866  1.00  0.00     0.006 A 
ENDBRANCH  58  75
ENDBRANCH  32  33
ENDBRANCH  25  27
ENDBRANCH  24  25
ENDBRANCH  23  24
ENDBRANCH  22  23
ENDBRANCH  21  22
ENDBRANCH   1  21
TORSDOF 18
