REMARK SMILES O=C(/C=C/N[C@@H](Cc1c[nH]c2ccccc12)C(=O)OCCOCCOC(=O)c1ccc(-c2c3nc(c(-c4c(F)cccc4F)c4ccc([nH]4)c(-c4c(F)cccc4F)c4nc(c(-c5c(F)cccc5F)c5ccc2[nH]5)C=C4)C=C3)cc1)c1ccccc1
REMARK SMILES IDX 21 1 20 2 19 3 17 4 18 5 6 6 5 7 4 9 3 10 2 11 1 12 82 13
REMARK SMILES IDX 83 14 87 15 84 16 86 17 85 18 7 19 8 20 9 21 16 22 10 23
REMARK SMILES IDX 11 24 15 25 12 27 14 28 13 29 22 30 23 31 24 32 25 33 26 34
REMARK SMILES IDX 27 35 28 36 29 37 81 38 30 39 80 40 31 41 32 42 33 43 74 44
REMARK SMILES IDX 34 45 79 46 73 47 75 48 35 49 78 50 72 51 71 52 36 54 62 55
REMARK SMILES IDX 45 56 61 57 46 58 49 59 60 60 76 61 47 62 48 63 59 65 77 66
REMARK SMILES IDX 50 67 37 68 38 69 43 70 39 71 40 72 42 73 44 74 41 75 63 76
REMARK SMILES IDX 64 77 69 78 65 79 66 80 68 81 70 82 67 83 51 84 52 85 57 86
REMARK SMILES IDX 53 87 54 88 56 89 58 90 55 91
REMARK H PARENT 5 8 10 26 75 53 49 64
REMARK Flexibility Score: inf
ROOT
ATOM      1  C   UNL     1       7.317  -0.584  -5.665  1.00  0.00     0.202 C 
ENDROOT
BRANCH   1   2
ATOM      2  C   UNL     1       8.291  -1.379  -4.795  1.00  0.00     0.261 C 
BRANCH   2   3
ATOM      3  O   UNL     1       7.589  -1.962  -3.682  1.00  0.00    -0.462 OA
BRANCH   3   4
ATOM      4  C   UNL     1       7.837  -1.491  -2.436  1.00  0.00     0.328 C 
ATOM      5  O   UNL     1       8.650  -0.611  -2.174  1.00  0.00    -0.250 OA
BRANCH   4   6
ATOM      6  C   UNL     1       6.975  -2.180  -1.370  1.00  0.00     0.194 C 
BRANCH   6   7
ATOM      7  N   UNL     1       5.533  -1.896  -1.453  1.00  0.00    -0.378 N 
ATOM      8  H   UNL     1       5.015  -2.458  -2.073  1.00  0.00     0.160 HD
BRANCH   7   9
ATOM      9  C   UNL     1       4.824  -0.940  -0.770  1.00  0.00     0.082 C 
ATOM     10  C   UNL     1       3.504  -0.746  -0.881  1.00  0.00     0.070 C 
BRANCH  10  11
ATOM     11  C   UNL     1       2.659   0.190  -0.090  1.00  0.00     0.187 C 
ATOM     12  O   UNL     1       1.443   0.195  -0.252  1.00  0.00    -0.289 OA
BRANCH  11  13
ATOM     13  C   UNL     1       3.262   1.039   0.955  1.00  0.00     0.022 A 
ATOM     14  C   UNL     1       4.312   1.916   0.667  1.00  0.00     0.012 A 
ATOM     15  C   UNL     1       2.748   0.952   2.252  1.00  0.00     0.012 A 
ATOM     16  C   UNL     1       4.893   2.655   1.697  1.00  0.00     0.001 A 
ATOM     17  C   UNL     1       3.327   1.700   3.277  1.00  0.00     0.001 A 
ATOM     18  C   UNL     1       4.407   2.539   3.000  1.00  0.00     0.000 A 
ENDBRANCH  11  13
ENDBRANCH  10  11
ENDBRANCH   7   9
ENDBRANCH   6   7
BRANCH   6  19
ATOM     19  C   UNL     1       7.254  -3.680  -1.266  1.00  0.00     0.074 C 
BRANCH  19  20
ATOM     20  C   UNL     1       6.848  -4.671  -2.337  1.00  0.00    -0.020 A 
ATOM     21  C   UNL     1       7.308  -5.979  -2.289  1.00  0.00     0.087 A 
ATOM     22  C   UNL     1       5.966  -4.608  -3.481  1.00  0.00     0.003 A 
ATOM     23  N   UNL     1       6.764  -6.688  -3.318  1.00  0.00    -0.361 N 
ATOM     24  C   UNL     1       5.921  -5.890  -4.045  1.00  0.00     0.046 A 
ATOM     25  C   UNL     1       5.178  -3.621  -4.112  1.00  0.00     0.010 A 
ATOM     26  H   UNL     1       6.950  -7.635  -3.511  1.00  0.00     0.166 HD
ATOM     27  C   UNL     1       5.124  -6.225  -5.148  1.00  0.00     0.026 A 
ATOM     28  C   UNL     1       4.347  -3.948  -5.183  1.00  0.00     0.001 A 
ATOM     29  C   UNL     1       4.311  -5.234  -5.689  1.00  0.00     0.002 A 
ENDBRANCH  19  20
ENDBRANCH   6  19
ENDBRANCH   4   6
ENDBRANCH   3   4
ENDBRANCH   2   3
ENDBRANCH   1   2
BRANCH   1  30
ATOM     30  O   UNL     1       7.036   0.705  -5.117  1.00  0.00    -0.374 OA
BRANCH  30  31
ATOM     31  C   UNL     1       5.938   0.744  -4.204  1.00  0.00     0.202 C 
BRANCH  31  32
ATOM     32  C   UNL     1       4.646   1.216  -4.872  1.00  0.00     0.261 C 
BRANCH  32  33
ATOM     33  O   UNL     1       4.114   0.185  -5.724  1.00  0.00    -0.460 OA
BRANCH  33  34
ATOM     34  C   UNL     1       4.392   0.306  -7.044  1.00  0.00     0.338 C 
ATOM     35  O   UNL     1       4.973   1.220  -7.604  1.00  0.00    -0.246 OA
BRANCH  34  36
ATOM     36  C   UNL     1       3.993  -0.942  -7.727  1.00  0.00     0.060 A 
ATOM     37  C   UNL     1       4.854  -1.487  -8.689  1.00  0.00     0.016 A 
ATOM     38  C   UNL     1       2.785  -1.575  -7.426  1.00  0.00     0.016 A 
ATOM     39  C   UNL     1       4.506  -2.663  -9.361  1.00  0.00     0.010 A 
ATOM     40  C   UNL     1       2.453  -2.764  -8.079  1.00  0.00     0.010 A 
ATOM     41  C   UNL     1       3.295  -3.303  -9.072  1.00  0.00    -0.014 A 
BRANCH  41  42
ATOM     42  C   UNL     1       2.779  -4.422  -9.903  1.00  0.00     0.031 A 
ATOM     43  C   UNL     1       1.584  -4.148 -10.777  1.00  0.00     0.074 A 
ATOM     44  C   UNL     1       3.298  -5.663  -9.857  1.00  0.00     0.049 A 
ATOM     45  N   UNL     1       0.811  -4.981 -11.423  1.00  0.00    -0.248 NA
ATOM     46  C   UNL     1       1.206  -2.732 -10.927  1.00  0.00     0.031 C 
ATOM     47  C   UNL     1       4.492  -6.068  -9.119  1.00  0.00     0.029 A 
ATOM     48  N   UNL     1       2.846  -6.832 -10.423  1.00  0.00    -0.354 N 
ATOM     49  C   UNL     1      -0.148  -4.192 -12.043  1.00  0.00     0.074 A 
ATOM     50  C   UNL     1       0.101  -2.824 -11.648  1.00  0.00     0.031 C 
ATOM     51  C   UNL     1       4.642  -7.401  -9.222  1.00  0.00     0.029 A 
ATOM     52  C   UNL     1       3.549  -7.944 -10.025  1.00  0.00     0.049 A 
ATOM     53  H   UNL     1       2.090  -6.869 -11.053  1.00  0.00     0.167 HD
ATOM     54  C   UNL     1      -1.132  -4.565 -12.894  1.00  0.00     0.037 A 
ATOM     55  C   UNL     1       3.318  -9.251 -10.261  1.00  0.00     0.037 A 
ATOM     56  C   UNL     1      -1.370  -5.917 -13.314  1.00  0.00     0.049 A 
ATOM     57  C   UNL     1       2.154  -9.659 -11.127  1.00  0.00     0.074 A 
ATOM     58  C   UNL     1      -2.332  -6.393 -14.186  1.00  0.00     0.029 A 
ATOM     59  N   UNL     1      -0.629  -7.009 -12.893  1.00  0.00    -0.354 N 
ATOM     60  N   UNL     1       1.262  -8.906 -11.723  1.00  0.00    -0.248 NA
ATOM     61  C   UNL     1       1.975 -11.100 -11.369  1.00  0.00     0.031 C 
ATOM     62  C   UNL     1      -2.189  -7.781 -14.274  1.00  0.00     0.029 A 
ATOM     63  C   UNL     1      -1.115  -8.161 -13.485  1.00  0.00     0.049 A 
ATOM     64  H   UNL     1       0.130  -6.971 -12.267  1.00  0.00     0.167 HD
ATOM     65  C   UNL     1       0.463  -9.771 -12.461  1.00  0.00     0.074 A 
ATOM     66  C   UNL     1       0.958 -11.109 -12.220  1.00  0.00     0.031 C 
ATOM     67  C   UNL     1      -0.578  -9.480 -13.278  1.00  0.00     0.037 A 
BRANCH  54  68
ATOM     68  C   UNL     1      -2.014  -3.478 -13.431  1.00  0.00     0.057 A 
ATOM     69  C   UNL     1      -1.543  -2.549 -14.368  1.00  0.00     0.134 A 
ATOM     70  C   UNL     1      -3.342  -3.357 -13.007  1.00  0.00     0.134 A 
ATOM     71  F   UNL     1      -0.273  -2.602 -14.797  1.00  0.00    -0.206 F 
ATOM     72  C   UNL     1      -2.354  -1.518 -14.842  1.00  0.00     0.040 A 
ATOM     73  C   UNL     1      -4.170  -2.346 -13.494  1.00  0.00     0.040 A 
ATOM     74  F   UNL     1      -3.853  -4.217 -12.112  1.00  0.00    -0.206 F 
ATOM     75  C   UNL     1      -3.674  -1.418 -14.408  1.00  0.00     0.006 A 
ENDBRANCH  54  68
BRANCH  55  76
ATOM     76  C   UNL     1       4.206 -10.290  -9.678  1.00  0.00     0.057 A 
ATOM     77  C   UNL     1       5.075 -11.030 -10.486  1.00  0.00     0.134 A 
ATOM     78  C   UNL     1       4.162 -10.608  -8.316  1.00  0.00     0.134 A 
ATOM     79  F   UNL     1       5.142 -10.787 -11.804  1.00  0.00    -0.206 F 
ATOM     80  C   UNL     1       5.850 -12.069  -9.968  1.00  0.00     0.040 A 
ATOM     81  C   UNL     1       4.945 -11.633  -7.780  1.00  0.00     0.040 A 
ATOM     82  F   UNL     1       3.352  -9.934  -7.487  1.00  0.00    -0.206 F 
ATOM     83  C   UNL     1       5.785 -12.373  -8.610  1.00  0.00     0.006 A 
ENDBRANCH  55  76
BRANCH  67  84
ATOM     84  C   UNL     1      -1.196 -10.604 -14.054  1.00  0.00     0.057 A 
ATOM     85  C   UNL     1      -2.057 -11.533 -13.463  1.00  0.00     0.134 A 
ATOM     86  C   UNL     1      -0.985 -10.699 -15.437  1.00  0.00     0.134 A 
ATOM     87  F   UNL     1      -2.290 -11.501 -12.143  1.00  0.00    -0.206 F 
ATOM     88  C   UNL     1      -2.685 -12.525 -14.220  1.00  0.00     0.040 A 
ATOM     89  C   UNL     1      -1.623 -11.672 -16.206  1.00  0.00     0.040 A 
ATOM     90  F   UNL     1      -0.175  -9.832 -16.064  1.00  0.00    -0.206 F 
ATOM     91  C   UNL     1      -2.477 -12.589 -15.597  1.00  0.00     0.006 A 
ENDBRANCH  67  84
ENDBRANCH  41  42
ENDBRANCH  34  36
ENDBRANCH  33  34
ENDBRANCH  32  33
ENDBRANCH  31  32
ENDBRANCH  30  31
ENDBRANCH   1  30
TORSDOF 20
