REMARK SMILES CC1(C)S[C@H](c2ccc(-c3cccc([N+](=O)[O-])c3)o2)[NH2+][C@@H]1C(=O)OCCOCCOC(=O)c1ccc(-c2c3nc(c(-c4c(F)cccc4F)c4ccc([nH]4)c(-c4c(F)cccc4F)c4nc(c(-c5c(F)cccc5F)c5ccc2[nH]5)C=C4)C=C3)cc1
REMARK SMILES IDX 26 1 25 2 24 3 22 4 23 5 21 6 1 7 2 8 3 9 4 10 5 11 20 12
REMARK SMILES IDX 6 15 7 16 19 17 8 18 9 19 10 20 11 21 18 22 12 23 14 24
REMARK SMILES IDX 13 25 15 26 16 27 17 28 27 29 28 30 29 31 30 32 31 33 32 34
REMARK SMILES IDX 33 35 34 36 86 37 35 38 85 39 36 40 37 41 38 42 79 43 39 44
REMARK SMILES IDX 84 45 78 46 80 47 40 48 83 49 77 50 76 51 41 53 67 54 50 55
REMARK SMILES IDX 66 56 51 57 54 58 65 59 81 60 52 61 53 62 64 64 82 65 55 66
REMARK SMILES IDX 42 67 43 68 48 69 44 70 45 71 47 72 49 73 46 74 68 75 69 76
REMARK SMILES IDX 74 77 70 78 71 79 73 80 75 81 72 82 56 83 57 84 62 85 58 86
REMARK SMILES IDX 59 87 61 88 63 89 60 90
REMARK H PARENT 20 13 20 14 80 52 54 63
REMARK Flexibility Score: inf
ROOT
ATOM      1  C   UNL     1       0.534   2.256  -5.043  1.00  0.00     0.202 C 
ENDROOT
BRANCH   1   2
ATOM      2  C   UNL     1      -0.592   1.499  -4.335  1.00  0.00     0.261 C 
BRANCH   2   3
ATOM      3  O   UNL     1      -0.629   1.647  -2.919  1.00  0.00    -0.459 OA
BRANCH   3   4
ATOM      4  C   UNL     1      -0.177   0.559  -2.220  1.00  0.00     0.366 C 
ATOM      5  O   UNL     1       0.250  -0.466  -2.732  1.00  0.00    -0.245 OA
BRANCH   4   6
ATOM      6  C   UNL     1      -0.279   0.842  -0.709  1.00  0.00     0.310 C 
ATOM      7  C   UNL     1       0.737   0.510   1.603  1.00  0.00     0.030 C 
ATOM      8  C   UNL     1       0.491  -0.126   0.218  1.00  0.00     0.079 C 
ATOM      9  C   UNL     1       1.844  -0.614  -0.313  1.00  0.00     0.030 C 
ATOM     10  S   UNL     1      -0.692  -1.497   0.445  1.00  0.00    -0.078 SA
ATOM     11  C   UNL     1      -2.139  -0.540  -0.140  1.00  0.00     0.311 C 
ATOM     12  N   UNL     1      -1.713   0.858  -0.297  1.00  0.00    -0.316 N 
ATOM     13  H   UNL     1      -1.815   1.356   0.588  1.00  0.00     0.348 HD
ATOM     14  H   UNL     1      -2.284   1.334  -0.996  1.00  0.00     0.348 HD
BRANCH  11  15
ATOM     15  C   UNL     1      -2.783  -1.165  -1.350  1.00  0.00     0.172 A 
ATOM     16  C   UNL     1      -3.187  -2.467  -1.592  1.00  0.00     0.054 A 
ATOM     17  O   UNL     1      -3.136  -0.378  -2.427  1.00  0.00    -0.454 OA
ATOM     18  C   UNL     1      -3.811  -2.482  -2.857  1.00  0.00     0.051 A 
ATOM     19  C   UNL     1      -3.755  -1.192  -3.337  1.00  0.00     0.134 A 
BRANCH  19  20
ATOM     20  C   UNL     1      -4.216  -0.598  -4.583  1.00  0.00     0.024 A 
ATOM     21  C   UNL     1      -3.300  -0.243  -5.580  1.00  0.00     0.012 A 
ATOM     22  C   UNL     1      -5.582  -0.512  -4.870  1.00  0.00     0.097 A 
ATOM     23  C   UNL     1      -3.719   0.268  -6.812  1.00  0.00     0.008 A 
ATOM     24  C   UNL     1      -6.003  -0.070  -6.136  1.00  0.00     0.270 A 
ATOM     25  C   UNL     1      -5.077   0.358  -7.096  1.00  0.00     0.085 A 
BRANCH  24  26
ATOM     26  N   UNL     1      -7.423  -0.143  -6.493  1.00  0.00     0.062 N 
ATOM     27  O   UNL     1      -7.758   0.240  -7.622  1.00  0.00    -0.258 OA
ATOM     28  O   UNL     1      -8.204  -0.609  -5.649  1.00  0.00    -0.258 OA
ENDBRANCH  24  26
ENDBRANCH  19  20
ENDBRANCH  11  15
ENDBRANCH   4   6
ENDBRANCH   3   4
ENDBRANCH   2   3
ENDBRANCH   1   2
BRANCH   1  29
ATOM     29  O   UNL     1       1.740   2.478  -4.329  1.00  0.00    -0.374 OA
BRANCH  29  30
ATOM     30  C   UNL     1       1.701   3.328  -3.184  1.00  0.00     0.202 C 
BRANCH  30  31
ATOM     31  C   UNL     1       1.053   4.713  -3.324  1.00  0.00     0.261 C 
BRANCH  31  32
ATOM     32  O   UNL     1      -0.371   4.667  -3.541  1.00  0.00    -0.460 OA
BRANCH  32  33
ATOM     33  C   UNL     1      -0.800   5.321  -4.649  1.00  0.00     0.338 C 
ATOM     34  O   UNL     1      -0.106   5.910  -5.469  1.00  0.00    -0.246 OA
BRANCH  33  35
ATOM     35  C   UNL     1      -2.246   5.156  -4.855  1.00  0.00     0.060 A 
ATOM     36  C   UNL     1      -2.679   4.553  -6.043  1.00  0.00     0.016 A 
ATOM     37  C   UNL     1      -3.163   5.770  -4.000  1.00  0.00     0.016 A 
ATOM     38  C   UNL     1      -4.025   4.610  -6.407  1.00  0.00     0.010 A 
ATOM     39  C   UNL     1      -4.511   5.841  -4.371  1.00  0.00     0.010 A 
ATOM     40  C   UNL     1      -4.939   5.300  -5.596  1.00  0.00    -0.014 A 
BRANCH  40  41
ATOM     41  C   UNL     1      -6.304   5.571  -6.111  1.00  0.00     0.031 A 
ATOM     42  C   UNL     1      -6.572   6.847  -6.860  1.00  0.00     0.074 A 
ATOM     43  C   UNL     1      -7.296   4.684  -5.928  1.00  0.00     0.049 A 
ATOM     44  N   UNL     1      -7.678   7.260  -7.425  1.00  0.00    -0.248 NA
ATOM     45  C   UNL     1      -5.450   7.792  -6.967  1.00  0.00     0.031 C 
ATOM     46  C   UNL     1      -7.176   3.435  -5.182  1.00  0.00     0.029 A 
ATOM     47  N   UNL     1      -8.598   4.698  -6.364  1.00  0.00    -0.354 N 
ATOM     48  C   UNL     1      -7.398   8.526  -7.923  1.00  0.00     0.074 A 
ATOM     49  C   UNL     1      -6.015   8.809  -7.602  1.00  0.00     0.031 C 
ATOM     50  C   UNL     1      -8.351   2.786  -5.243  1.00  0.00     0.029 A 
ATOM     51  C   UNL     1      -9.293   3.557  -6.049  1.00  0.00     0.049 A 
ATOM     52  H   UNL     1      -8.994   5.454  -6.856  1.00  0.00     0.167 HD
ATOM     53  C   UNL     1      -8.224   9.383  -8.571  1.00  0.00     0.037 A 
ATOM     54  C   UNL     1     -10.537   3.171  -6.395  1.00  0.00     0.037 A 
ATOM     55  C   UNL     1      -9.600   9.107  -8.891  1.00  0.00     0.049 A 
ATOM     56  C   UNL     1     -11.409   4.107  -7.190  1.00  0.00     0.074 A 
ATOM     57  C   UNL     1     -10.516   9.920  -9.537  1.00  0.00     0.029 A 
ATOM     58  N   UNL     1     -10.259   7.926  -8.587  1.00  0.00    -0.354 N 
ATOM     59  N   UNL     1     -11.128   5.295  -7.669  1.00  0.00    -0.248 NA
ATOM     60  C   UNL     1     -12.783   3.659  -7.465  1.00  0.00     0.031 C 
ATOM     61  C   UNL     1     -11.740   9.243  -9.595  1.00  0.00     0.029 A 
ATOM     62  C   UNL     1     -11.573   7.993  -9.021  1.00  0.00     0.049 A 
ATOM     63  H   UNL     1      -9.853   7.154  -8.131  1.00  0.00     0.167 HD
ATOM     64  C   UNL     1     -12.290   5.739  -8.289  1.00  0.00     0.074 A 
ATOM     65  C   UNL     1     -13.264   4.675  -8.168  1.00  0.00     0.031 C 
ATOM     66  C   UNL     1     -12.536   6.932  -8.883  1.00  0.00     0.037 A 
BRANCH  53  67
ATOM     67  C   UNL     1      -7.667  10.727  -8.934  1.00  0.00     0.057 A 
ATOM     68  C   UNL     1      -6.765  10.895  -9.991  1.00  0.00     0.134 A 
ATOM     69  C   UNL     1      -8.054  11.870  -8.222  1.00  0.00     0.134 A 
ATOM     70  F   UNL     1      -6.342   9.837 -10.700  1.00  0.00    -0.206 F 
ATOM     71  C   UNL     1      -6.251  12.152 -10.315  1.00  0.00     0.040 A 
ATOM     72  C   UNL     1      -7.564  13.134  -8.551  1.00  0.00     0.040 A 
ATOM     73  F   UNL     1      -8.916  11.775  -7.199  1.00  0.00    -0.206 F 
ATOM     74  C   UNL     1      -6.654  13.277  -9.597  1.00  0.00     0.006 A 
ENDBRANCH  53  67
BRANCH  54  75
ATOM     75  C   UNL     1     -11.030   1.815  -6.041  1.00  0.00     0.057 A 
ATOM     76  C   UNL     1     -11.250   0.856  -7.039  1.00  0.00     0.134 A 
ATOM     77  C   UNL     1     -11.313   1.447  -4.722  1.00  0.00     0.134 A 
ATOM     78  F   UNL     1     -11.033   1.162  -8.328  1.00  0.00    -0.206 F 
ATOM     79  C   UNL     1     -11.743  -0.414  -6.740  1.00  0.00     0.040 A 
ATOM     80  C   UNL     1     -11.785   0.172  -4.405  1.00  0.00     0.040 A 
ATOM     81  F   UNL     1     -11.128   2.321  -3.721  1.00  0.00    -0.206 F 
ATOM     82  C   UNL     1     -12.006  -0.761  -5.417  1.00  0.00     0.006 A 
ENDBRANCH  54  75
BRANCH  66  83
ATOM     83  C   UNL     1     -13.916   7.154  -9.427  1.00  0.00     0.057 A 
ATOM     84  C   UNL     1     -15.008   7.381  -8.578  1.00  0.00     0.134 A 
ATOM     85  C   UNL     1     -14.152   7.179 -10.806  1.00  0.00     0.134 A 
ATOM     86  F   UNL     1     -14.849   7.362  -7.246  1.00  0.00    -0.206 F 
ATOM     87  C   UNL     1     -16.290   7.603  -9.082  1.00  0.00     0.040 A 
ATOM     88  C   UNL     1     -15.426   7.420 -11.323  1.00  0.00     0.040 A 
ATOM     89  F   UNL     1     -13.149   6.978 -11.673  1.00  0.00    -0.206 F 
ATOM     90  C   UNL     1     -16.501   7.628 -10.460  1.00  0.00     0.006 A 
ENDBRANCH  66  83
ENDBRANCH  40  41
ENDBRANCH  33  35
ENDBRANCH  32  33
ENDBRANCH  31  32
ENDBRANCH  30  31
ENDBRANCH  29  30
ENDBRANCH   1  29
TORSDOF 17
