REMARK SMILES O=C(OCCOCCOC(=O)c1ccccc1-c1ccccc1C(=O)N1CC[NH+](Cc2ccc3c(c2)OCO3)CC1)c1ccc(-c2c3nc(c(-c4c(F)cccc4F)c4ccc([nH]4)c(-c4c(F)cccc4F)c4nc(c(-c5c(F)cccc5F)c5ccc2[nH]5)C=C4)C=C3)cc1
REMARK SMILES IDX 7 1 6 2 5 3 4 4 3 5 2 6 1 7 42 8 43 9 95 10 44 11 94 12
REMARK SMILES IDX 45 13 46 14 47 15 88 16 48 17 93 18 87 19 89 20 49 21 92 22
REMARK SMILES IDX 86 23 85 24 50 26 76 27 59 28 75 29 60 30 63 31 74 32 90 33
REMARK SMILES IDX 61 34 62 35 73 37 91 38 64 39 51 40 52 41 57 42 53 43 54 44
REMARK SMILES IDX 56 45 58 46 55 47 77 48 78 49 83 50 79 51 80 52 82 53 84 54
REMARK SMILES IDX 81 55 65 56 66 57 71 58 67 59 68 60 70 61 72 62 69 63 8 64
REMARK SMILES IDX 9 65 10 66 11 67 12 68 13 69 17 70 14 71 16 72 15 73 18 74
REMARK SMILES IDX 19 75 23 76 20 77 22 78 21 79 24 80 25 81 26 82 27 83 41 84
REMARK SMILES IDX 28 85 40 86 29 87 30 89 31 90 32 91 36 92 33 93 35 94 34 95
REMARK SMILES IDX 37 96 39 97 38 98
REMARK H PARENT 89 25 63 36 29 88
REMARK Flexibility Score: inf
ROOT
ATOM      1  C   UNL     1       1.401   0.938  -0.935  1.00  0.00     0.202 C 
ENDROOT
BRANCH   1   2
ATOM      2  O   UNL     1       2.752   0.678  -0.548  1.00  0.00    -0.374 OA
BRANCH   2   3
ATOM      3  C   UNL     1       3.382  -0.417  -1.217  1.00  0.00     0.202 C 
BRANCH   3   4
ATOM      4  C   UNL     1       3.460  -1.665  -0.338  1.00  0.00     0.261 C 
BRANCH   4   5
ATOM      5  O   UNL     1       2.189  -1.935   0.274  1.00  0.00    -0.460 OA
BRANCH   5   6
ATOM      6  C   UNL     1       1.689  -1.268   1.346  1.00  0.00     0.338 C 
ATOM      7  O   UNL     1       0.476  -1.248   1.540  1.00  0.00    -0.246 OA
BRANCH   6   8
ATOM      8  C   UNL     1       2.587  -0.715   2.400  1.00  0.00     0.060 A 
ATOM      9  C   UNL     1       3.725   0.062   2.163  1.00  0.00     0.016 A 
ATOM     10  C   UNL     1       2.209  -0.963   3.728  1.00  0.00     0.016 A 
ATOM     11  C   UNL     1       4.531   0.490   3.204  1.00  0.00     0.010 A 
ATOM     12  C   UNL     1       2.989  -0.495   4.785  1.00  0.00     0.010 A 
ATOM     13  C   UNL     1       4.170   0.206   4.517  1.00  0.00    -0.014 A 
BRANCH  13  14
ATOM     14  C   UNL     1       5.117   0.550   5.586  1.00  0.00     0.031 A 
ATOM     15  C   UNL     1       5.920  -0.553   6.197  1.00  0.00     0.074 A 
ATOM     16  C   UNL     1       5.324   1.839   5.902  1.00  0.00     0.049 A 
ATOM     17  N   UNL     1       6.708  -0.526   7.234  1.00  0.00    -0.248 NA
ATOM     18  C   UNL     1       5.824  -1.870   5.541  1.00  0.00     0.031 C 
ATOM     19  C   UNL     1       4.686   2.981   5.244  1.00  0.00     0.029 A 
ATOM     20  N   UNL     1       6.149   2.406   6.833  1.00  0.00    -0.354 N 
ATOM     21  C   UNL     1       7.161  -1.829   7.389  1.00  0.00     0.074 A 
ATOM     22  C   UNL     1       6.581  -2.619   6.327  1.00  0.00     0.031 C 
ATOM     23  C   UNL     1       5.163   4.116   5.778  1.00  0.00     0.029 A 
ATOM     24  C   UNL     1       6.071   3.776   6.867  1.00  0.00     0.049 A 
ATOM     25  H   UNL     1       6.741   1.883   7.421  1.00  0.00     0.167 HD
ATOM     26  C   UNL     1       7.971  -2.313   8.357  1.00  0.00     0.037 A 
ATOM     27  C   UNL     1       6.641   4.644   7.722  1.00  0.00     0.037 A 
ATOM     28  C   UNL     1       8.531  -1.486   9.390  1.00  0.00     0.049 A 
ATOM     29  C   UNL     1       7.487   4.077   8.828  1.00  0.00     0.074 A 
ATOM     30  C   UNL     1       9.286  -1.851  10.488  1.00  0.00     0.029 A 
ATOM     31  N   UNL     1       8.396  -0.103   9.432  1.00  0.00    -0.354 N 
ATOM     32  N   UNL     1       7.812   2.826   9.059  1.00  0.00    -0.248 NA
ATOM     33  C   UNL     1       8.019   5.030   9.809  1.00  0.00     0.031 C 
ATOM     34  C   UNL     1       9.586  -0.688  11.209  1.00  0.00     0.029 A 
ATOM     35  C   UNL     1       9.049   0.404  10.539  1.00  0.00     0.049 A 
ATOM     36  H   UNL     1       7.906   0.436   8.771  1.00  0.00     0.167 HD
ATOM     37  C   UNL     1       8.583   2.837  10.211  1.00  0.00     0.074 A 
ATOM     38  C   UNL     1       8.700   4.226  10.615  1.00  0.00     0.031 C 
ATOM     39  C   UNL     1       9.135   1.800  10.889  1.00  0.00     0.037 A 
BRANCH  26  40
ATOM     40  C   UNL     1       8.198  -3.793   8.370  1.00  0.00     0.057 A 
ATOM     41  C   UNL     1       9.021  -4.434   7.435  1.00  0.00     0.134 A 
ATOM     42  C   UNL     1       7.523  -4.600   9.295  1.00  0.00     0.134 A 
ATOM     43  F   UNL     1       9.667  -3.723   6.498  1.00  0.00    -0.206 F 
ATOM     44  C   UNL     1       9.143  -5.825   7.402  1.00  0.00     0.040 A 
ATOM     45  C   UNL     1       7.652  -5.990   9.285  1.00  0.00     0.040 A 
ATOM     46  F   UNL     1       6.708  -4.052  10.208  1.00  0.00    -0.206 F 
ATOM     47  C   UNL     1       8.457  -6.607   8.330  1.00  0.00     0.006 A 
ENDBRANCH  26  40
BRANCH  27  48
ATOM     48  C   UNL     1       6.371   6.099   7.604  1.00  0.00     0.057 A 
ATOM     49  C   UNL     1       7.381   7.003   7.261  1.00  0.00     0.134 A 
ATOM     50  C   UNL     1       5.088   6.622   7.819  1.00  0.00     0.134 A 
ATOM     51  F   UNL     1       8.635   6.571   7.063  1.00  0.00    -0.206 F 
ATOM     52  C   UNL     1       7.129   8.372   7.140  1.00  0.00     0.040 A 
ATOM     53  C   UNL     1       4.815   7.984   7.675  1.00  0.00     0.040 A 
ATOM     54  F   UNL     1       4.072   5.812   8.151  1.00  0.00    -0.206 F 
ATOM     55  C   UNL     1       5.840   8.865   7.339  1.00  0.00     0.006 A 
ENDBRANCH  27  48
BRANCH  39  56
ATOM     56  C   UNL     1       9.919   2.147  12.113  1.00  0.00     0.057 A 
ATOM     57  C   UNL     1       9.286   2.482  13.316  1.00  0.00     0.134 A 
ATOM     58  C   UNL     1      11.318   2.102  12.097  1.00  0.00     0.134 A 
ATOM     59  F   UNL     1       7.948   2.553  13.383  1.00  0.00    -0.206 F 
ATOM     60  C   UNL     1      10.022   2.776  14.462  1.00  0.00     0.040 A 
ATOM     61  C   UNL     1      12.063   2.375  13.242  1.00  0.00     0.040 A 
ATOM     62  F   UNL     1      11.976   1.781  10.973  1.00  0.00    -0.206 F 
ATOM     63  C   UNL     1      11.415   2.716  14.428  1.00  0.00     0.006 A 
ENDBRANCH  39  56
ENDBRANCH  13  14
ENDBRANCH   6   8
ENDBRANCH   5   6
ENDBRANCH   4   5
ENDBRANCH   3   4
ENDBRANCH   2   3
ENDBRANCH   1   2
BRANCH   1  64
ATOM     64  C   UNL     1       1.291   2.042  -1.989  1.00  0.00     0.261 C 
BRANCH  64  65
ATOM     65  O   UNL     1       1.909   1.663  -3.234  1.00  0.00    -0.460 OA
BRANCH  65  66
ATOM     66  C   UNL     1       3.238   1.916  -3.232  1.00  0.00     0.338 C 
ATOM     67  O   UNL     1       3.889   2.316  -2.289  1.00  0.00    -0.246 OA
BRANCH  66  68
ATOM     68  C   UNL     1       3.840   1.689  -4.550  1.00  0.00     0.067 A 
ATOM     69  C   UNL     1       4.397   0.444  -4.850  1.00  0.00     0.016 A 
ATOM     70  C   UNL     1       3.935   2.777  -5.436  1.00  0.00    -0.003 A 
ATOM     71  C   UNL     1       5.037   0.260  -6.074  1.00  0.00     0.001 A 
ATOM     72  C   UNL     1       4.568   2.566  -6.670  1.00  0.00     0.009 A 
ATOM     73  C   UNL     1       5.120   1.318  -6.982  1.00  0.00     0.001 A 
BRANCH  70  74
ATOM     74  C   UNL     1       3.242   4.034  -5.125  1.00  0.00    -0.005 A 
ATOM     75  C   UNL     1       1.931   4.132  -5.662  1.00  0.00     0.009 A 
ATOM     76  C   UNL     1       3.681   5.024  -4.215  1.00  0.00     0.047 A 
ATOM     77  C   UNL     1       1.044   5.130  -5.272  1.00  0.00     0.001 A 
ATOM     78  C   UNL     1       2.757   6.030  -3.842  1.00  0.00     0.014 A 
ATOM     79  C   UNL     1       1.454   6.074  -4.346  1.00  0.00     0.001 A 
BRANCH  76  80
ATOM     80  C   UNL     1       5.018   5.120  -3.511  1.00  0.00     0.254 C 
ATOM     81  O   UNL     1       5.293   6.148  -2.888  1.00  0.00    -0.269 OA
ATOM     82  N   UNL     1       5.884   4.029  -3.486  1.00  0.00    -0.327 N 
ATOM     83  C   UNL     1       6.322   3.620  -2.152  1.00  0.00     0.181 C 
ATOM     84  C   UNL     1       6.991   4.003  -4.431  1.00  0.00     0.181 C 
ATOM     85  C   UNL     1       6.938   2.204  -2.168  1.00  0.00     0.284 C 
ATOM     86  C   UNL     1       7.773   2.663  -4.418  1.00  0.00     0.284 C 
ATOM     87  N   UNL     1       8.046   2.012  -3.123  1.00  0.00    -0.328 N 
ATOM     88  H   UNL     1       8.071   1.015  -3.333  1.00  0.00     0.348 HD
BRANCH  87  89
ATOM     89  C   UNL     1       9.398   2.185  -2.570  1.00  0.00     0.299 C 
BRANCH  89  90
ATOM     90  C   UNL     1       9.633   3.499  -1.863  1.00  0.00     0.010 A 
ATOM     91  C   UNL     1       9.970   4.653  -2.606  1.00  0.00     0.013 A 
ATOM     92  C   UNL     1       9.293   3.614  -0.502  1.00  0.00     0.060 A 
ATOM     93  C   UNL     1       9.810   5.926  -2.053  1.00  0.00     0.051 A 
ATOM     94  C   UNL     1       9.076   4.879  -0.012  1.00  0.00     0.166 A 
ATOM     95  C   UNL     1       9.302   6.002  -0.775  1.00  0.00     0.165 A 
ATOM     96  O   UNL     1       8.468   5.171   1.171  1.00  0.00    -0.454 OA
ATOM     97  O   UNL     1       8.865   7.133  -0.155  1.00  0.00    -0.454 OA
ATOM     98  C   UNL     1       8.102   6.543   0.920  1.00  0.00     0.468 C 
ENDBRANCH  89  90
ENDBRANCH  87  89
ENDBRANCH  76  80
ENDBRANCH  70  74
ENDBRANCH  66  68
ENDBRANCH  65  66
ENDBRANCH  64  65
ENDBRANCH   1  64
TORSDOF 18
