REMARK SMILES O=C(OCCOCCOC(=O)[C@@]1([C@@H]2CCO[C@@]3(CCOC3)C2)CCOC1)c1ccc(-c2c3nc(c(-c4c(F)cccc4F)c4ccc([nH]4)c(-c4c(F)cccc4F)c4nc(c(-c5c(F)cccc5F)c5ccc2[nH]5)C=C4)C=C3)cc1
REMARK SMILES IDX 5 1 4 2 3 3 2 4 1 5 27 6 28 7 80 8 29 9 79 10 30 11 31 12
REMARK SMILES IDX 32 13 73 14 33 15 78 16 72 17 74 18 34 19 77 20 71 21 70 22
REMARK SMILES IDX 35 24 61 25 44 26 60 27 45 28 48 29 59 30 75 31 46 32 47 33
REMARK SMILES IDX 58 35 76 36 49 37 36 38 37 39 42 40 38 41 39 42 41 43 43 44
REMARK SMILES IDX 40 45 62 46 63 47 68 48 64 49 65 50 67 51 69 52 66 53 50 54
REMARK SMILES IDX 51 55 56 56 52 57 53 58 55 59 57 60 54 61 6 62 7 63 8 64
REMARK SMILES IDX 9 65 10 66 11 67 12 68 23 69 26 70 24 71 25 72 13 73 14 74
REMARK SMILES IDX 22 75 15 76 17 77 16 78 18 79 21 80 19 81 20 82
REMARK H PARENT 74 23 48 34
REMARK Flexibility Score: inf
ROOT
ATOM      1  C   UNL     1       2.885  -1.215  -5.503  1.00  0.00     0.202 C 
ENDROOT
BRANCH   1   2
ATOM      2  C   UNL     1       2.363  -2.554  -6.085  1.00  0.00     0.261 C 
BRANCH   2   3
ATOM      3  O   UNL     1       3.290  -3.253  -6.944  1.00  0.00    -0.460 OA
BRANCH   3   4
ATOM      4  C   UNL     1       3.290  -3.272  -8.307  1.00  0.00     0.338 C 
ATOM      5  O   UNL     1       4.028  -4.036  -8.919  1.00  0.00    -0.246 OA
BRANCH   4   6
ATOM      6  C   UNL     1       2.403  -2.359  -9.073  1.00  0.00     0.060 A 
ATOM      7  C   UNL     1       2.037  -1.131  -8.557  1.00  0.00     0.016 A 
ATOM      8  C   UNL     1       1.941  -2.684 -10.346  1.00  0.00     0.016 A 
ATOM      9  C   UNL     1       1.099  -0.322  -9.114  1.00  0.00     0.010 A 
ATOM     10  C   UNL     1       1.083  -1.798 -11.016  1.00  0.00     0.010 A 
ATOM     11  C   UNL     1       0.640  -0.631 -10.372  1.00  0.00    -0.014 A 
BRANCH  11  12
ATOM     12  C   UNL     1      -0.429   0.250 -10.840  1.00  0.00     0.031 A 
ATOM     13  C   UNL     1      -1.812  -0.305 -10.837  1.00  0.00     0.074 A 
ATOM     14  C   UNL     1      -0.171   1.564 -10.985  1.00  0.00     0.049 A 
ATOM     15  N   UNL     1      -2.924   0.262 -11.202  1.00  0.00    -0.248 NA
ATOM     16  C   UNL     1      -1.966  -1.685 -10.340  1.00  0.00     0.031 C 
ATOM     17  C   UNL     1       1.135   2.208 -10.766  1.00  0.00     0.029 A 
ATOM     18  N   UNL     1      -1.000   2.605 -11.284  1.00  0.00    -0.354 N 
ATOM     19  C   UNL     1      -3.897  -0.713 -11.045  1.00  0.00     0.074 A 
ATOM     20  C   UNL     1      -3.252  -1.905 -10.551  1.00  0.00     0.031 C 
ATOM     21  C   UNL     1       1.006   3.534 -10.920  1.00  0.00     0.029 A 
ATOM     22  C   UNL     1      -0.356   3.817 -11.340  1.00  0.00     0.049 A 
ATOM     23  H   UNL     1      -1.966   2.498 -11.443  1.00  0.00     0.167 HD
ATOM     24  C   UNL     1      -5.215  -0.604 -11.316  1.00  0.00     0.037 A 
ATOM     25  C   UNL     1      -0.825   5.010 -11.742  1.00  0.00     0.037 A 
ATOM     26  C   UNL     1      -5.803   0.614 -11.798  1.00  0.00     0.049 A 
ATOM     27  C   UNL     1      -2.264   5.064 -12.170  1.00  0.00     0.074 A 
ATOM     28  C   UNL     1      -7.107   0.854 -12.176  1.00  0.00     0.029 A 
ATOM     29  N   UNL     1      -5.103   1.804 -11.971  1.00  0.00    -0.354 N 
ATOM     30  N   UNL     1      -3.175   4.118 -12.130  1.00  0.00    -0.248 NA
ATOM     31  C   UNL     1      -2.741   6.341 -12.707  1.00  0.00     0.031 C 
ATOM     32  C   UNL     1      -7.178   2.167 -12.652  1.00  0.00     0.029 A 
ATOM     33  C   UNL     1      -5.942   2.775 -12.480  1.00  0.00     0.049 A 
ATOM     34  H   UNL     1      -4.149   1.934 -11.761  1.00  0.00     0.167 HD
ATOM     35  C   UNL     1      -4.345   4.696 -12.596  1.00  0.00     0.074 A 
ATOM     36  C   UNL     1      -4.024   6.078 -12.902  1.00  0.00     0.031 C 
ATOM     37  C   UNL     1      -5.575   4.144 -12.754  1.00  0.00     0.037 A 
BRANCH  24  38
ATOM     38  C   UNL     1      -6.033  -1.854 -11.211  1.00  0.00     0.057 A 
ATOM     39  C   UNL     1      -6.301  -2.489  -9.992  1.00  0.00     0.134 A 
ATOM     40  C   UNL     1      -6.502  -2.472 -12.377  1.00  0.00     0.134 A 
ATOM     41  F   UNL     1      -5.842  -1.976  -8.840  1.00  0.00    -0.206 F 
ATOM     42  C   UNL     1      -6.977  -3.711  -9.939  1.00  0.00     0.040 A 
ATOM     43  C   UNL     1      -7.208  -3.674 -12.335  1.00  0.00     0.040 A 
ATOM     44  F   UNL     1      -6.261  -1.929 -13.580  1.00  0.00    -0.206 F 
ATOM     45  C   UNL     1      -7.437  -4.303 -11.114  1.00  0.00     0.006 A 
ENDBRANCH  24  38
BRANCH  25  46
ATOM     46  C   UNL     1       0.066   6.196 -11.822  1.00  0.00     0.057 A 
ATOM     47  C   UNL     1      -0.178   7.344 -11.059  1.00  0.00     0.134 A 
ATOM     48  C   UNL     1       1.165   6.230 -12.692  1.00  0.00     0.134 A 
ATOM     49  F   UNL     1      -1.219   7.383 -10.215  1.00  0.00    -0.206 F 
ATOM     50  C   UNL     1       0.612   8.489 -11.183  1.00  0.00     0.040 A 
ATOM     51  C   UNL     1       1.983   7.356 -12.802  1.00  0.00     0.040 A 
ATOM     52  F   UNL     1       1.465   5.165 -13.450  1.00  0.00    -0.206 F 
ATOM     53  C   UNL     1       1.698   8.496 -12.056  1.00  0.00     0.006 A 
ENDBRANCH  25  46
BRANCH  37  54
ATOM     54  C   UNL     1      -6.671   5.064 -13.202  1.00  0.00     0.057 A 
ATOM     55  C   UNL     1      -6.715   5.609 -14.490  1.00  0.00     0.134 A 
ATOM     56  C   UNL     1      -7.720   5.376 -12.326  1.00  0.00     0.134 A 
ATOM     57  F   UNL     1      -5.735   5.356 -15.371  1.00  0.00    -0.206 F 
ATOM     58  C   UNL     1      -7.744   6.466 -14.879  1.00  0.00     0.040 A 
ATOM     59  C   UNL     1      -8.776   6.195 -12.718  1.00  0.00     0.040 A 
ATOM     60  F   UNL     1      -7.744   4.872 -11.082  1.00  0.00    -0.206 F 
ATOM     61  C   UNL     1      -8.782   6.753 -13.994  1.00  0.00     0.006 A 
ENDBRANCH  37  54
ENDBRANCH  11  12
ENDBRANCH   4   6
ENDBRANCH   3   4
ENDBRANCH   2   3
ENDBRANCH   1   2
BRANCH   1  62
ATOM     62  O   UNL     1       3.708  -0.327  -6.262  1.00  0.00    -0.374 OA
BRANCH  62  63
ATOM     63  C   UNL     1       4.931  -0.817  -6.813  1.00  0.00     0.202 C 
BRANCH  63  64
ATOM     64  C   UNL     1       6.107  -0.105  -6.176  1.00  0.00     0.261 C 
BRANCH  64  65
ATOM     65  O   UNL     1       6.196  -0.622  -4.840  1.00  0.00    -0.463 OA
BRANCH  65  66
ATOM     66  C   UNL     1       5.562   0.082  -3.861  1.00  0.00     0.314 C 
ATOM     67  O   UNL     1       5.147   1.219  -4.039  1.00  0.00    -0.252 OA
BRANCH  66  68
ATOM     68  C   UNL     1       5.420  -0.764  -2.518  1.00  0.00     0.096 C 
ATOM     69  C   UNL     1       4.714  -2.101  -2.849  1.00  0.00     0.050 C 
ATOM     70  C   UNL     1       6.854  -1.333  -2.351  1.00  0.00     0.179 C 
ATOM     71  C   UNL     1       5.414  -3.151  -2.022  1.00  0.00     0.161 C 
ATOM     72  O   UNL     1       6.747  -2.679  -1.828  1.00  0.00    -0.380 OA
BRANCH  68  73
ATOM     73  C   UNL     1       4.657   0.397  -1.293  1.00  0.00     0.014 C 
ATOM     74  C   UNL     1       4.237   0.644   0.836  1.00  0.00     0.033 C 
ATOM     75  C   UNL     1       3.418   0.807  -2.140  1.00  0.00     0.043 C 
ATOM     76  C   UNL     1       2.684   1.067   1.170  1.00  0.00     0.161 C 
ATOM     77  C   UNL     1       3.265   0.874  -0.758  1.00  0.00     0.094 C 
ATOM     78  O   UNL     1       2.116   1.256  -0.099  1.00  0.00    -0.372 OA
ATOM     79  C   UNL     1       3.797  -0.979  -0.198  1.00  0.00     0.066 C 
ATOM     80  C   UNL     1       4.721   2.180  -0.357  1.00  0.00     0.195 C 
ATOM     81  C   UNL     1       5.672  -0.690   0.248  1.00  0.00     0.163 C 
ATOM     82  O   UNL     1       6.127   1.062   0.080  1.00  0.00    -0.378 OA
ENDBRANCH  68  73
ENDBRANCH  66  68
ENDBRANCH  65  66
ENDBRANCH  64  65
ENDBRANCH  63  64
ENDBRANCH  62  63
ENDBRANCH   1  62
TORSDOF 15
