REMARK SMILES CS(=O)(=O)Nc1ccc(-c2cc(Cl)cc3c2O[C@@H](C(F)(F)F)C(C(=O)OCCOCCOC(=O)c2ccc(-c4c5nc(c(-c6c(F)cccc6F)c6ccc([nH]6)c(-c6c(F)cccc6F)c6nc(c(-c7c(F)cccc7F)c7ccc4[nH]7)C=C6)C=C5)cc2)=C3)cc1
REMARK SMILES IDX 28 1 27 2 26 3 24 4 25 5 23 6 10 7 11 8 16 9 12 10 15 11
REMARK SMILES IDX 17 12 13 13 14 14 89 15 18 16 9 17 6 18 7 19 91 20 8 21
REMARK SMILES IDX 90 22 5 23 2 25 1 26 3 27 4 28 19 29 20 30 21 31 22 32 29 33
REMARK SMILES IDX 30 34 31 35 32 36 33 37 34 38 35 39 36 40 88 41 37 42 87 43
REMARK SMILES IDX 38 44 39 45 40 46 81 47 41 48 86 49 80 50 82 51 42 52 85 53
REMARK SMILES IDX 79 54 78 55 43 57 69 58 52 59 68 60 53 61 56 62 67 63 83 64
REMARK SMILES IDX 54 65 55 66 66 68 84 69 57 70 44 71 45 72 50 73 46 74 47 75
REMARK SMILES IDX 49 76 51 77 48 78 70 79 71 80 76 81 72 82 73 83 75 84 77 85
REMARK SMILES IDX 74 86 58 87 59 88 64 89 60 90 61 91 63 92 65 93 62 94
REMARK H PARENT 5 24 82 56 56 67
REMARK Flexibility Score: inf
ROOT
ATOM      1  C   UNL     1       6.226 -10.872  -1.924  1.00  0.00     0.202 C 
ENDROOT
BRANCH   1   2
ATOM      2  C   UNL     1       7.371 -10.067  -2.559  1.00  0.00     0.261 C 
BRANCH   2   3
ATOM      3  O   UNL     1       7.754  -8.921  -1.784  1.00  0.00    -0.460 OA
BRANCH   3   4
ATOM      4  C   UNL     1       8.154  -7.843  -2.486  1.00  0.00     0.338 C 
ATOM      5  O   UNL     1       8.340  -7.816  -3.694  1.00  0.00    -0.246 OA
BRANCH   4   6
ATOM      6  C   UNL     1       8.190  -6.613  -1.658  1.00  0.00     0.087 C 
ATOM      7  C   UNL     1       4.886  -5.870   0.756  1.00  0.00     0.026 A 
ATOM      8  C   UNL     1       3.878  -6.674   0.173  1.00  0.00     0.033 A 
ATOM      9  C   UNL     1       6.102  -5.846   0.039  1.00  0.00     0.135 A 
ATOM     10  C   UNL     1       3.938  -7.035  -1.173  1.00  0.00     0.042 A 
ATOM     11  C   UNL     1       6.069  -5.971  -1.361  1.00  0.00     0.019 A 
ATOM     12  O   UNL     1       7.266  -6.356   0.672  1.00  0.00    -0.475 OA
ATOM     13  Cl  UNL     1       2.650  -7.932  -1.870  1.00  0.00    -0.084 Cl
ATOM     14  C   UNL     1       4.984  -6.593  -1.969  1.00  0.00     0.032 A 
ATOM     15  C   UNL     1       7.308  -5.714  -2.127  1.00  0.00     0.027 C 
ATOM     16  C   UNL     1       8.480  -6.503  -0.175  1.00  0.00     0.316 C 
BRANCH   7  17
ATOM     17  C   UNL     1       4.310  -4.680   1.503  1.00  0.00    -0.014 A 
ATOM     18  C   UNL     1       2.497  -2.547   2.178  1.00  0.00     0.048 A 
ATOM     19  C   UNL     1       2.359  -3.822   2.732  1.00  0.00     0.027 A 
ATOM     20  C   UNL     1       3.617  -2.301   1.390  1.00  0.00     0.027 A 
ATOM     21  C   UNL     1       3.259  -4.859   2.424  1.00  0.00     0.011 A 
ATOM     22  C   UNL     1       4.511  -3.354   1.059  1.00  0.00     0.011 A 
BRANCH  18  23
ATOM     23  N   UNL     1       1.374  -1.678   2.325  1.00  0.00    -0.284 N 
ATOM     24  H   UNL     1       0.606  -2.055   2.811  1.00  0.00     0.180 HD
BRANCH  23  25
ATOM     25  S   UNL     1       1.189  -0.118   1.787  1.00  0.00     0.229 S 
ATOM     26  C   UNL     1       1.140  -0.267   0.010  1.00  0.00     0.183 C 
ATOM     27  O   UNL     1       2.339   0.669   2.166  1.00  0.00    -0.207 OA
ATOM     28  O   UNL     1      -0.145   0.258   2.214  1.00  0.00    -0.207 OA
ENDBRANCH  23  25
ENDBRANCH  18  23
ENDBRANCH   7  17
BRANCH  16  29
ATOM     29  C   UNL     1       9.571  -7.465   0.349  1.00  0.00     0.430 C 
ATOM     30  F   UNL     1      10.773  -7.112  -0.187  1.00  0.00    -0.167 F 
ATOM     31  F   UNL     1       9.714  -7.380   1.692  1.00  0.00    -0.167 F 
ATOM     32  F   UNL     1       9.383  -8.764   0.052  1.00  0.00    -0.167 F 
ENDBRANCH  16  29
ENDBRANCH   4   6
ENDBRANCH   3   4
ENDBRANCH   2   3
ENDBRANCH   1   2
BRANCH   1  33
ATOM     33  O   UNL     1       5.401 -10.235  -0.958  1.00  0.00    -0.374 OA
BRANCH  33  34
ATOM     34  C   UNL     1       5.988  -9.856   0.285  1.00  0.00     0.202 C 
BRANCH  34  35
ATOM     35  C   UNL     1       6.451 -10.957   1.243  1.00  0.00     0.261 C 
BRANCH  35  36
ATOM     36  O   UNL     1       7.455 -11.820   0.686  1.00  0.00    -0.460 OA
BRANCH  36  37
ATOM     37  C   UNL     1       7.067 -13.106   0.523  1.00  0.00     0.338 C 
ATOM     38  O   UNL     1       5.981 -13.601   0.794  1.00  0.00    -0.246 OA
BRANCH  37  39
ATOM     39  C   UNL     1       8.110 -13.851  -0.193  1.00  0.00     0.060 A 
ATOM     40  C   UNL     1       7.793 -14.395  -1.444  1.00  0.00     0.016 A 
ATOM     41  C   UNL     1       9.352 -14.090   0.398  1.00  0.00     0.016 A 
ATOM     42  C   UNL     1       8.714 -15.203  -2.103  1.00  0.00     0.010 A 
ATOM     43  C   UNL     1      10.271 -14.908  -0.261  1.00  0.00     0.010 A 
ATOM     44  C   UNL     1       9.947 -15.488  -1.501  1.00  0.00    -0.014 A 
BRANCH  44  45
ATOM     45  C   UNL     1      10.863 -16.468  -2.127  1.00  0.00     0.031 A 
ATOM     46  C   UNL     1      10.951 -17.858  -1.567  1.00  0.00     0.074 A 
ATOM     47  C   UNL     1      11.614 -16.111  -3.182  1.00  0.00     0.049 A 
ATOM     48  N   UNL     1      11.727 -18.849  -1.925  1.00  0.00    -0.248 NA
ATOM     49  C   UNL     1      10.049 -18.168  -0.448  1.00  0.00     0.031 C 
ATOM     50  C   UNL     1      11.597 -14.796  -3.818  1.00  0.00     0.029 A 
ATOM     51  N   UNL     1      12.550 -16.820  -3.889  1.00  0.00    -0.354 N 
ATOM     52  C   UNL     1      11.418 -19.896  -1.067  1.00  0.00     0.074 A 
ATOM     53  C   UNL     1      10.406 -19.409  -0.153  1.00  0.00     0.031 C 
ATOM     54  C   UNL     1      12.501 -14.783  -4.811  1.00  0.00     0.029 A 
ATOM     55  C   UNL     1      13.181 -16.076  -4.853  1.00  0.00     0.049 A 
ATOM     56  H   UNL     1      12.749 -17.770  -3.721  1.00  0.00     0.167 HD
ATOM     57  C   UNL     1      11.931 -21.150  -1.047  1.00  0.00     0.037 A 
ATOM     58  C   UNL     1      14.214 -16.391  -5.657  1.00  0.00     0.037 A 
ATOM     59  C   UNL     1      12.944 -21.620  -1.958  1.00  0.00     0.049 A 
ATOM     60  C   UNL     1      14.809 -17.770  -5.585  1.00  0.00     0.074 A 
ATOM     61  C   UNL     1      13.497 -22.884  -2.056  1.00  0.00     0.029 A 
ATOM     62  N   UNL     1      13.573 -20.834  -2.914  1.00  0.00    -0.354 N 
ATOM     63  N   UNL     1      14.477 -18.773  -4.808  1.00  0.00    -0.248 NA
ATOM     64  C   UNL     1      15.918 -18.063  -6.502  1.00  0.00     0.031 C 
ATOM     65  C   UNL     1      14.507 -22.845  -3.024  1.00  0.00     0.029 A 
ATOM     66  C   UNL     1      14.540 -21.574  -3.576  1.00  0.00     0.049 A 
ATOM     67  H   UNL     1      13.363 -19.889  -3.095  1.00  0.00     0.167 HD
ATOM     68  C   UNL     1      15.324 -19.820  -5.149  1.00  0.00     0.074 A 
ATOM     69  C   UNL     1      16.173 -19.333  -6.219  1.00  0.00     0.031 C 
ATOM     70  C   UNL     1      15.392 -21.070  -4.626  1.00  0.00     0.037 A 
BRANCH  57  71
ATOM     71  C   UNL     1      11.433 -22.079   0.025  1.00  0.00     0.057 A 
ATOM     72  C   UNL     1      10.119 -22.566   0.043  1.00  0.00     0.134 A 
ATOM     73  C   UNL     1      12.284 -22.486   1.061  1.00  0.00     0.134 A 
ATOM     74  F   UNL     1       9.247 -22.208  -0.911  1.00  0.00    -0.206 F 
ATOM     75  C   UNL     1       9.657 -23.386   1.075  1.00  0.00     0.040 A 
ATOM     76  C   UNL     1      11.843 -23.332   2.080  1.00  0.00     0.040 A 
ATOM     77  F   UNL     1      13.557 -22.066   1.103  1.00  0.00    -0.206 F 
ATOM     78  C   UNL     1      10.522 -23.774   2.096  1.00  0.00     0.006 A 
ENDBRANCH  57  71
BRANCH  58  79
ATOM     79  C   UNL     1      14.755 -15.362  -6.578  1.00  0.00     0.057 A 
ATOM     80  C   UNL     1      14.561 -15.447  -7.960  1.00  0.00     0.134 A 
ATOM     81  C   UNL     1      15.444 -14.244  -6.090  1.00  0.00     0.134 A 
ATOM     82  F   UNL     1      13.927 -16.504  -8.489  1.00  0.00    -0.206 F 
ATOM     83  C   UNL     1      15.031 -14.457  -8.825  1.00  0.00     0.040 A 
ATOM     84  C   UNL     1      15.897 -13.235  -6.939  1.00  0.00     0.040 A 
ATOM     85  F   UNL     1      15.657 -14.103  -4.773  1.00  0.00    -0.206 F 
ATOM     86  C   UNL     1      15.692 -13.341  -8.313  1.00  0.00     0.006 A 
ENDBRANCH  58  79
BRANCH  70  87
ATOM     87  C   UNL     1      16.415 -22.003  -5.209  1.00  0.00     0.057 A 
ATOM     88  C   UNL     1      17.787 -21.832  -4.982  1.00  0.00     0.134 A 
ATOM     89  C   UNL     1      16.021 -23.110  -5.973  1.00  0.00     0.134 A 
ATOM     90  F   UNL     1      18.234 -20.786  -4.270  1.00  0.00    -0.206 F 
ATOM     91  C   UNL     1      18.731 -22.714  -5.513  1.00  0.00     0.040 A 
ATOM     92  C   UNL     1      16.953 -24.015  -6.483  1.00  0.00     0.040 A 
ATOM     93  F   UNL     1      14.723 -23.339  -6.221  1.00  0.00    -0.206 F 
ATOM     94  C   UNL     1      18.313 -23.815  -6.259  1.00  0.00     0.006 A 
ENDBRANCH  70  87
ENDBRANCH  44  45
ENDBRANCH  37  39
ENDBRANCH  36  37
ENDBRANCH  35  36
ENDBRANCH  34  35
ENDBRANCH  33  34
ENDBRANCH   1  33
TORSDOF 18
