REMARK SMILES CN(CC1CCC1)C(=O)N(CC(=O)OCCOCCOC(=O)c1ccc(-c2c3nc(c(-c4c(F)cccc4F)c4ccc([nH]4)c(-c4c(F)cccc4F)c4nc(c(-c5c(F)cccc5F)c5ccc2[nH]5)C=C4)C=C3)cc1)C(C)(C)C
REMARK SMILES IDX 15 1 14 2 12 3 13 4 11 5 10 6 8 7 9 8 2 9 1 10 3 11 4 12
REMARK SMILES IDX 5 13 7 14 6 15 77 16 78 17 79 18 80 19 16 20 17 21 18 22
REMARK SMILES IDX 19 23 20 24 21 25 22 26 23 27 24 28 76 29 25 30 75 31 26 32
REMARK SMILES IDX 27 33 28 34 69 35 29 36 74 37 68 38 70 39 30 40 73 41 67 42
REMARK SMILES IDX 66 43 31 45 57 46 40 47 56 48 41 49 44 50 55 51 71 52 42 53
REMARK SMILES IDX 43 54 54 56 72 57 45 58 32 59 33 60 38 61 34 62 35 63 37 64
REMARK SMILES IDX 39 65 36 66 58 67 59 68 64 69 60 70 61 71 63 72 65 73 62 74
REMARK SMILES IDX 46 75 47 76 52 77 48 78 49 79 51 80 53 81 50 82
REMARK H PARENT 70 44 44 55
REMARK Flexibility Score: inf
ROOT
ATOM      1  C   UNL     1      -3.323   5.032   1.816  1.00  0.00     0.261 C 
ENDROOT
BRANCH   1   2
ATOM      2  O   UNL     1      -1.942   4.573   1.827  1.00  0.00    -0.462 OA
BRANCH   2   3
ATOM      3  C   UNL     1      -1.225   4.934   0.723  1.00  0.00     0.325 C 
ATOM      4  O   UNL     1      -1.680   5.644  -0.173  1.00  0.00    -0.250 OA
BRANCH   3   5
ATOM      5  C   UNL     1       0.248   4.478   0.696  1.00  0.00     0.244 C 
BRANCH   5   6
ATOM      6  N   UNL     1       0.760   3.464   1.630  1.00  0.00    -0.309 N 
BRANCH   6   7
ATOM      7  C   UNL     1       0.893   2.102   1.366  1.00  0.00     0.320 C 
ATOM      8  O   UNL     1       1.437   1.374   2.208  1.00  0.00    -0.248 OA
BRANCH   7   9
ATOM      9  N   UNL     1       0.526   1.494   0.179  1.00  0.00    -0.327 N 
ATOM     10  C   UNL     1       1.121   0.161  -0.000  1.00  0.00     0.148 C 
BRANCH   9  11
ATOM     11  C   UNL     1      -0.404   1.869  -0.883  1.00  0.00     0.124 C 
BRANCH  11  12
ATOM     12  C   UNL     1      -1.710   1.075  -0.775  1.00  0.00     0.008 C 
ATOM     13  C   UNL     1      -2.166   0.269   0.475  1.00  0.00     0.005 C 
ATOM     14  C   UNL     1      -2.958   1.974  -0.560  1.00  0.00     0.005 C 
ATOM     15  C   UNL     1      -3.072   1.435   0.873  1.00  0.00     0.001 C 
ENDBRANCH  11  12
ENDBRANCH   9  11
ENDBRANCH   7   9
ENDBRANCH   6   7
BRANCH   6  16
ATOM     16  C   UNL     1       1.418   3.972   2.912  1.00  0.00     0.037 C 
ATOM     17  C   UNL     1       0.833   3.261   4.155  1.00  0.00     0.034 C 
ATOM     18  C   UNL     1       2.952   3.762   2.845  1.00  0.00     0.034 C 
ATOM     19  C   UNL     1       1.248   5.493   3.161  1.00  0.00     0.034 C 
ENDBRANCH   6  16
ENDBRANCH   5   6
ENDBRANCH   3   5
ENDBRANCH   2   3
ENDBRANCH   1   2
BRANCH   1  20
ATOM     20  C   UNL     1      -3.962   5.056   3.213  1.00  0.00     0.202 C 
BRANCH  20  21
ATOM     21  O   UNL     1      -3.673   6.213   4.006  1.00  0.00    -0.374 OA
BRANCH  21  22
ATOM     22  C   UNL     1      -2.303   6.432   4.316  1.00  0.00     0.202 C 
BRANCH  22  23
ATOM     23  C   UNL     1      -1.755   5.634   5.505  1.00  0.00     0.261 C 
BRANCH  23  24
ATOM     24  O   UNL     1      -2.110   4.242   5.465  1.00  0.00    -0.460 OA
BRANCH  24  25
ATOM     25  C   UNL     1      -3.039   3.884   6.378  1.00  0.00     0.338 C 
ATOM     26  O   UNL     1      -3.515   4.590   7.261  1.00  0.00    -0.246 OA
BRANCH  25  27
ATOM     27  C   UNL     1      -3.534   2.514   6.154  1.00  0.00     0.060 A 
ATOM     28  C   UNL     1      -4.923   2.341   6.166  1.00  0.00     0.016 A 
ATOM     29  C   UNL     1      -2.682   1.406   6.124  1.00  0.00     0.016 A 
ATOM     30  C   UNL     1      -5.465   1.064   6.263  1.00  0.00     0.010 A 
ATOM     31  C   UNL     1      -3.231   0.118   6.221  1.00  0.00     0.010 A 
ATOM     32  C   UNL     1      -4.621  -0.051   6.360  1.00  0.00    -0.014 A 
BRANCH  32  33
ATOM     33  C   UNL     1      -5.207  -1.333   6.828  1.00  0.00     0.031 A 
ATOM     34  C   UNL     1      -5.123  -1.680   8.293  1.00  0.00     0.074 A 
ATOM     35  C   UNL     1      -5.895  -2.128   5.991  1.00  0.00     0.049 A 
ATOM     36  N   UNL     1      -5.658  -2.683   8.943  1.00  0.00    -0.248 NA
ATOM     37  C   UNL     1      -4.337  -0.768   9.139  1.00  0.00     0.031 C 
ATOM     38  C   UNL     1      -6.077  -1.893   4.561  1.00  0.00     0.029 A 
ATOM     39  N   UNL     1      -6.585  -3.290   6.235  1.00  0.00    -0.354 N 
ATOM     40  C   UNL     1      -5.275  -2.522  10.269  1.00  0.00     0.074 A 
ATOM     41  C   UNL     1      -4.434  -1.346  10.327  1.00  0.00     0.031 C 
ATOM     42  C   UNL     1      -6.837  -2.879   4.053  1.00  0.00     0.029 A 
ATOM     43  C   UNL     1      -7.185  -3.817   5.119  1.00  0.00     0.049 A 
ATOM     44  H   UNL     1      -6.643  -3.706   7.126  1.00  0.00     0.167 HD
ATOM     45  C   UNL     1      -5.605  -3.272  11.347  1.00  0.00     0.037 A 
ATOM     46  C   UNL     1      -7.935  -4.927   4.976  1.00  0.00     0.037 A 
ATOM     47  C   UNL     1      -6.444  -4.440  11.299  1.00  0.00     0.049 A 
ATOM     48  C   UNL     1      -8.262  -5.766   6.182  1.00  0.00     0.074 A 
ATOM     49  C   UNL     1      -6.843  -5.261  12.340  1.00  0.00     0.029 A 
ATOM     50  N   UNL     1      -7.008  -4.955  10.143  1.00  0.00    -0.354 N 
ATOM     51  N   UNL     1      -7.923  -5.583   7.435  1.00  0.00    -0.248 NA
ATOM     52  C   UNL     1      -9.090  -6.960   5.954  1.00  0.00     0.031 C 
ATOM     53  C   UNL     1      -7.623  -6.294  11.807  1.00  0.00     0.029 A 
ATOM     54  C   UNL     1      -7.740  -6.093  10.441  1.00  0.00     0.049 A 
ATOM     55  H   UNL     1      -6.905  -4.570   9.243  1.00  0.00     0.167 HD
ATOM     56  C   UNL     1      -8.517  -6.618   8.147  1.00  0.00     0.074 A 
ATOM     57  C   UNL     1      -9.245  -7.422   7.187  1.00  0.00     0.031 C 
ATOM     58  C   UNL     1      -8.467  -6.878   9.476  1.00  0.00     0.037 A 
BRANCH  45  59
ATOM     59  C   UNL     1      -5.035  -2.856  12.671  1.00  0.00     0.057 A 
ATOM     60  C   UNL     1      -5.504  -1.726  13.354  1.00  0.00     0.134 A 
ATOM     61  C   UNL     1      -4.014  -3.599  13.275  1.00  0.00     0.134 A 
ATOM     62  F   UNL     1      -6.472  -0.964  12.823  1.00  0.00    -0.206 F 
ATOM     63  C   UNL     1      -4.958  -1.335  14.578  1.00  0.00     0.040 A 
ATOM     64  C   UNL     1      -3.475  -3.231  14.509  1.00  0.00     0.040 A 
ATOM     65  F   UNL     1      -3.523  -4.694  12.676  1.00  0.00    -0.206 F 
ATOM     66  C   UNL     1      -3.943  -2.092  15.161  1.00  0.00     0.006 A 
ENDBRANCH  45  59
BRANCH  46  67
ATOM     67  C   UNL     1      -8.446  -5.300   3.635  1.00  0.00     0.057 A 
ATOM     68  C   UNL     1      -9.802  -5.177   3.312  1.00  0.00     0.134 A 
ATOM     69  C   UNL     1      -7.587  -5.790   2.644  1.00  0.00     0.134 A 
ATOM     70  F   UNL     1     -10.676  -4.735   4.228  1.00  0.00    -0.206 F 
ATOM     71  C   UNL     1     -10.288  -5.537   2.055  1.00  0.00     0.040 A 
ATOM     72  C   UNL     1      -8.056  -6.134   1.375  1.00  0.00     0.040 A 
ATOM     73  F   UNL     1      -6.277  -5.930   2.892  1.00  0.00    -0.206 F 
ATOM     74  C   UNL     1      -9.413  -6.011   1.080  1.00  0.00     0.006 A 
ENDBRANCH  46  67
BRANCH  58  75
ATOM     75  C   UNL     1      -9.246  -8.057   9.977  1.00  0.00     0.057 A 
ATOM     76  C   UNL     1      -8.816  -9.372   9.762  1.00  0.00     0.134 A 
ATOM     77  C   UNL     1     -10.421  -7.872  10.718  1.00  0.00     0.134 A 
ATOM     78  F   UNL     1      -7.705  -9.617   9.051  1.00  0.00    -0.206 F 
ATOM     79  C   UNL     1      -9.540 -10.463  10.247  1.00  0.00     0.040 A 
ATOM     80  C   UNL     1     -11.140  -8.954  11.226  1.00  0.00     0.040 A 
ATOM     81  F   UNL     1     -10.881  -6.637  10.967  1.00  0.00    -0.206 F 
ATOM     82  C   UNL     1     -10.703 -10.255  10.987  1.00  0.00     0.006 A 
ENDBRANCH  58  75
ENDBRANCH  32  33
ENDBRANCH  25  27
ENDBRANCH  24  25
ENDBRANCH  23  24
ENDBRANCH  22  23
ENDBRANCH  21  22
ENDBRANCH  20  21
ENDBRANCH   1  20
TORSDOF 20
