REMARK SMILES CN1C(=O)[C@@H]2CC=CC[C@]2(C(=O)OCCOCCOC(=O)c2ccc(-c3c4nc(c(-c5c(F)cccc5F)c5ccc([nH]5)c(-c5c(F)cccc5F)c5nc(c(-c6c(F)cccc6F)c6ccc3[nH]6)C=C5)C=C4)cc2)[C@H]1c1ccccc1
REMARK SMILES IDX 17 1 16 2 15 3 14 4 13 5 11 6 12 7 10 8 1 9 2 10 3 11 76 12
REMARK SMILES IDX 4 13 5 14 6 15 9 16 7 17 8 18 77 19 78 20 82 21 79 22 81 23
REMARK SMILES IDX 80 24 18 25 19 26 20 27 21 28 22 29 23 30 75 31 24 32 74 33
REMARK SMILES IDX 25 34 26 35 27 36 68 37 28 38 73 39 67 40 69 41 29 42 72 43
REMARK SMILES IDX 66 44 65 45 30 47 56 48 39 49 55 50 40 51 43 52 54 53 70 54
REMARK SMILES IDX 41 55 42 56 53 58 71 59 44 60 31 61 32 62 37 63 33 64 34 65
REMARK SMILES IDX 36 66 38 67 35 68 57 69 58 70 63 71 59 72 60 73 62 74 64 75
REMARK SMILES IDX 61 76 45 77 46 78 51 79 47 80 48 81 50 82 52 83 49 84
REMARK H PARENT 69 46 43 57
REMARK Flexibility Score: inf
ROOT
ATOM      1  C   UNL     1       1.239   3.249  -6.589  1.00  0.00     0.202 C 
ENDROOT
BRANCH   1   2
ATOM      2  O   UNL     1      -0.072   3.233  -6.014  1.00  0.00    -0.374 OA
BRANCH   2   3
ATOM      3  C   UNL     1      -0.449   4.359  -5.217  1.00  0.00     0.202 C 
BRANCH   3   4
ATOM      4  C   UNL     1      -1.700   3.991  -4.392  1.00  0.00     0.261 C 
BRANCH   4   5
ATOM      5  O   UNL     1      -1.330   2.841  -3.613  1.00  0.00    -0.463 OA
BRANCH   5   6
ATOM      6  C   UNL     1      -2.039   1.661  -3.623  1.00  0.00     0.315 C 
ATOM      7  O   UNL     1      -3.207   1.529  -3.944  1.00  0.00    -0.251 OA
BRANCH   6   8
ATOM      8  C   UNL     1      -1.008   0.539  -3.379  1.00  0.00     0.108 C 
ATOM      9  C   UNL     1       1.209  -0.201  -0.382  1.00  0.00     0.147 C 
ATOM     10  N   UNL     1       0.255  -0.208  -1.475  1.00  0.00    -0.337 N 
ATOM     11  C   UNL     1      -0.440  -1.313  -1.901  1.00  0.00     0.227 C 
ATOM     12  C   UNL     1      -0.205   1.003  -2.096  1.00  0.00     0.133 C 
ATOM     13  O   UNL     1      -0.325  -2.434  -1.425  1.00  0.00    -0.275 OA
ATOM     14  C   UNL     1      -1.407  -0.919  -3.024  1.00  0.00     0.102 C 
ATOM     15  C   UNL     1      -1.292  -2.020  -4.104  1.00  0.00     0.041 C 
ATOM     16  C   UNL     1      -0.279   0.616  -4.739  1.00  0.00     0.049 C 
ATOM     17  C   UNL     1      -0.267  -1.800  -5.167  1.00  0.00    -0.030 C 
ATOM     18  C   UNL     1       0.218  -0.592  -5.437  1.00  0.00    -0.030 C 
BRANCH  12  19
ATOM     19  C   UNL     1      -1.054   1.797  -1.078  1.00  0.00    -0.024 A 
ATOM     20  C   UNL     1      -2.281   1.292  -0.608  1.00  0.00     0.006 A 
ATOM     21  C   UNL     1      -0.711   3.121  -0.758  1.00  0.00     0.006 A 
ATOM     22  C   UNL     1      -3.204   2.128   0.014  1.00  0.00     0.000 A 
ATOM     23  C   UNL     1      -1.633   3.951  -0.114  1.00  0.00     0.000 A 
ATOM     24  C   UNL     1      -2.891   3.464   0.237  1.00  0.00     0.000 A 
ENDBRANCH  12  19
ENDBRANCH   6   8
ENDBRANCH   5   6
ENDBRANCH   4   5
ENDBRANCH   3   4
ENDBRANCH   2   3
ENDBRANCH   1   2
BRANCH   1  25
ATOM     25  C   UNL     1       2.385   2.799  -5.653  1.00  0.00     0.261 C 
BRANCH  25  26
ATOM     26  O   UNL     1       2.585   3.692  -4.554  1.00  0.00    -0.460 OA
BRANCH  26  27
ATOM     27  C   UNL     1       3.148   4.856  -4.942  1.00  0.00     0.338 C 
ATOM     28  O   UNL     1       3.538   5.157  -6.055  1.00  0.00    -0.246 OA
BRANCH  27  29
ATOM     29  C   UNL     1       3.071   5.809  -3.837  1.00  0.00     0.060 A 
ATOM     30  C   UNL     1       2.360   6.988  -4.067  1.00  0.00     0.016 A 
ATOM     31  C   UNL     1       3.799   5.605  -2.663  1.00  0.00     0.016 A 
ATOM     32  C   UNL     1       2.464   8.028  -3.158  1.00  0.00     0.010 A 
ATOM     33  C   UNL     1       3.896   6.649  -1.747  1.00  0.00     0.010 A 
ATOM     34  C   UNL     1       3.287   7.884  -2.032  1.00  0.00    -0.014 A 
BRANCH  34  35
ATOM     35  C   UNL     1       3.681   9.101  -1.292  1.00  0.00     0.031 A 
ATOM     36  C   UNL     1       5.028   9.708  -1.575  1.00  0.00     0.074 A 
ATOM     37  C   UNL     1       2.817   9.693  -0.453  1.00  0.00     0.049 A 
ATOM     38  N   UNL     1       5.567  10.794  -1.088  1.00  0.00    -0.248 NA
ATOM     39  C   UNL     1       5.884   8.993  -2.538  1.00  0.00     0.031 C 
ATOM     40  C   UNL     1       1.475   9.205  -0.139  1.00  0.00     0.029 A 
ATOM     41  N   UNL     1       2.942  10.842   0.280  1.00  0.00    -0.354 N 
ATOM     42  C   UNL     1       6.822  10.889  -1.679  1.00  0.00     0.074 A 
ATOM     43  C   UNL     1       6.983   9.730  -2.526  1.00  0.00     0.031 C 
ATOM     44  C   UNL     1       0.895  10.057   0.723  1.00  0.00     0.029 A 
ATOM     45  C   UNL     1       1.835  11.131   1.037  1.00  0.00     0.049 A 
ATOM     46  H   UNL     1       3.748  11.407   0.266  1.00  0.00     0.167 HD
ATOM     47  C   UNL     1       7.748  11.866  -1.540  1.00  0.00     0.037 A 
ATOM     48  C   UNL     1       1.616  12.148   1.890  1.00  0.00     0.037 A 
ATOM     49  C   UNL     1       7.575  13.019  -0.696  1.00  0.00     0.049 A 
ATOM     50  C   UNL     1       2.683  13.195   2.065  1.00  0.00     0.074 A 
ATOM     51  C   UNL     1       8.444  14.073  -0.484  1.00  0.00     0.029 A 
ATOM     52  N   UNL     1       6.450  13.263   0.079  1.00  0.00    -0.354 N 
ATOM     53  N   UNL     1       3.856  13.289   1.486  1.00  0.00    -0.248 NA
ATOM     54  C   UNL     1       2.386  14.286   3.003  1.00  0.00     0.031 C 
ATOM     55  C   UNL     1       7.867  14.930   0.459  1.00  0.00     0.029 A 
ATOM     56  C   UNL     1       6.611  14.443   0.786  1.00  0.00     0.049 A 
ATOM     57  H   UNL     1       5.656  12.683   0.121  1.00  0.00     0.167 HD
ATOM     58  C   UNL     1       4.422  14.466   1.960  1.00  0.00     0.074 A 
ATOM     59  C   UNL     1       3.455  15.056   2.863  1.00  0.00     0.031 C 
ATOM     60  C   UNL     1       5.629  15.015   1.673  1.00  0.00     0.037 A 
BRANCH  47  61
ATOM     61  C   UNL     1       9.037  11.711  -2.296  1.00  0.00     0.057 A 
ATOM     62  C   UNL     1       9.099  11.826  -3.692  1.00  0.00     0.134 A 
ATOM     63  C   UNL     1      10.235  11.457  -1.617  1.00  0.00     0.134 A 
ATOM     64  F   UNL     1       7.986  12.050  -4.407  1.00  0.00    -0.206 F 
ATOM     65  C   UNL     1      10.301  11.668  -4.386  1.00  0.00     0.040 A 
ATOM     66  C   UNL     1      11.447  11.326  -2.297  1.00  0.00     0.040 A 
ATOM     67  F   UNL     1      10.248  11.335  -0.282  1.00  0.00    -0.206 F 
ATOM     68  C   UNL     1      11.481  11.424  -3.687  1.00  0.00     0.006 A 
ENDBRANCH  47  61
BRANCH  48  69
ATOM     69  C   UNL     1       0.334  12.229   2.634  1.00  0.00     0.057 A 
ATOM     70  C   UNL     1      -0.593  13.246   2.380  1.00  0.00     0.134 A 
ATOM     71  C   UNL     1       0.013  11.299   3.631  1.00  0.00     0.134 A 
ATOM     72  F   UNL     1      -0.335  14.176   1.448  1.00  0.00    -0.206 F 
ATOM     73  C   UNL     1      -1.780  13.351   3.105  1.00  0.00     0.040 A 
ATOM     74  C   UNL     1      -1.183  11.375   4.345  1.00  0.00     0.040 A 
ATOM     75  F   UNL     1       0.855  10.295   3.917  1.00  0.00    -0.206 F 
ATOM     76  C   UNL     1      -2.080  12.410   4.088  1.00  0.00     0.006 A 
ENDBRANCH  48  69
BRANCH  60  77
ATOM     77  C   UNL     1       5.943  16.343   2.300  1.00  0.00     0.057 A 
ATOM     78  C   UNL     1       6.191  16.480   3.672  1.00  0.00     0.134 A 
ATOM     79  C   UNL     1       6.017  17.499   1.511  1.00  0.00     0.134 A 
ATOM     80  F   UNL     1       6.127  15.415   4.485  1.00  0.00    -0.206 F 
ATOM     81  C   UNL     1       6.462  17.725   4.242  1.00  0.00     0.040 A 
ATOM     82  C   UNL     1       6.319  18.743   2.065  1.00  0.00     0.040 A 
ATOM     83  F   UNL     1       5.804  17.436   0.188  1.00  0.00    -0.206 F 
ATOM     84  C   UNL     1       6.532  18.860   3.436  1.00  0.00     0.006 A 
ENDBRANCH  60  77
ENDBRANCH  34  35
ENDBRANCH  27  29
ENDBRANCH  26  27
ENDBRANCH  25  26
ENDBRANCH   1  25
TORSDOF 15
