REMARK SMILES Cc1nccn1C1(C(=O)OCCOCCOC(=O)c2ccc(-c3c4nc(c(-c5c(F)cccc5F)c5ccc([nH]5)c(-c5c(F)cccc5F)c5nc(c(-c6c(F)cccc6F)c6ccc3[nH]6)C=C5)C=C4)cc2)CCN(C(=O)[C@@H]2C[C@H]2c2ccccc2)CC1
REMARK SMILES IDX 13 1 12 2 11 3 10 4 8 5 9 6 7 7 73 8 88 9 74 10 87 11 75 12
REMARK SMILES IDX 76 13 77 14 6 15 1 16 2 17 3 18 4 19 5 20 78 21 79 22 80 23
REMARK SMILES IDX 81 24 82 25 86 26 83 27 85 28 84 29 14 30 15 31 16 32 17 33
REMARK SMILES IDX 18 34 19 35 20 36 72 37 21 38 71 39 22 40 23 41 24 42 65 43
REMARK SMILES IDX 25 44 70 45 64 46 66 47 26 48 69 49 63 50 62 51 27 53 53 54
REMARK SMILES IDX 36 55 52 56 37 57 40 58 51 59 67 60 38 61 39 62 50 64 68 65
REMARK SMILES IDX 41 66 28 67 29 68 34 69 30 70 31 71 33 72 35 73 32 74 54 75
REMARK SMILES IDX 55 76 60 77 56 78 57 79 59 80 61 81 58 82 42 83 43 84 48 85
REMARK SMILES IDX 44 86 45 87 47 88 49 89 46 90
REMARK H PARENT 66 52 40 63
REMARK Flexibility Score: inf
ROOT
ATOM      1  O   UNL     1      -5.036  -3.611   1.651  1.00  0.00    -0.374 OA
ENDROOT
BRANCH   1   2
ATOM      2  C   UNL     1      -5.485  -2.428   2.307  1.00  0.00     0.202 C 
BRANCH   2   3
ATOM      3  C   UNL     1      -4.457  -1.465   2.905  1.00  0.00     0.261 C 
BRANCH   3   4
ATOM      4  O   UNL     1      -3.460  -1.023   1.962  1.00  0.00    -0.461 OA
BRANCH   4   5
ATOM      5  C   UNL     1      -2.199  -1.500   2.187  1.00  0.00     0.332 C 
ATOM      6  O   UNL     1      -1.924  -2.222   3.142  1.00  0.00    -0.249 OA
BRANCH   5   7
ATOM      7  C   UNL     1      -1.116  -0.939   1.202  1.00  0.00     0.146 C 
ATOM      8  C   UNL     1      -1.733  -0.250  -0.046  1.00  0.00     0.062 C 
ATOM      9  C   UNL     1      -0.562   0.146   2.159  1.00  0.00     0.062 C 
ATOM     10  C   UNL     1      -0.836   0.825  -0.671  1.00  0.00     0.122 C 
ATOM     11  C   UNL     1       0.428   0.994   1.442  1.00  0.00     0.122 C 
ATOM     12  N   UNL     1      -0.192   1.681   0.330  1.00  0.00    -0.342 N 
ATOM     13  C   UNL     1       0.004   3.027   0.025  1.00  0.00     0.226 C 
ATOM     14  O   UNL     1      -0.051   3.432  -1.134  1.00  0.00    -0.275 OA
BRANCH   7  15
ATOM     15  N   UNL     1      -0.162  -2.032   0.780  1.00  0.00    -0.318 N 
ATOM     16  C   UNL     1       2.048  -1.075  -0.437  1.00  0.00     0.087 C 
ATOM     17  C   UNL     1       1.098  -2.089   0.132  1.00  0.00     0.106 A 
ATOM     18  N   UNL     1       1.466  -3.347  -0.050  1.00  0.00    -0.242 NA
ATOM     19  C   UNL     1       0.466  -4.136   0.374  1.00  0.00     0.131 A 
ATOM     20  C   UNL     1      -0.546  -3.369   0.864  1.00  0.00     0.108 A 
ENDBRANCH   7  15
BRANCH  13  21
ATOM     21  C   UNL     1       0.140   4.060   1.105  1.00  0.00     0.087 C 
ATOM     22  C   UNL     1       1.393   4.222   1.929  1.00  0.00     0.023 C 
ATOM     23  C   UNL     1       0.114   3.771   2.579  1.00  0.00     0.032 C 
BRANCH  23  24
ATOM     24  C   UNL     1      -0.664   4.520   3.600  1.00  0.00    -0.044 A 
ATOM     25  C   UNL     1      -0.064   4.808   4.835  1.00  0.00     0.004 A 
ATOM     26  C   UNL     1      -2.064   4.561   3.510  1.00  0.00     0.004 A 
ATOM     27  C   UNL     1      -0.841   5.019   5.971  1.00  0.00     0.000 A 
ATOM     28  C   UNL     1      -2.843   4.774   4.645  1.00  0.00     0.000 A 
ATOM     29  C   UNL     1      -2.229   4.976   5.879  1.00  0.00     0.000 A 
ENDBRANCH  23  24
ENDBRANCH  13  21
ENDBRANCH   5   7
ENDBRANCH   4   5
ENDBRANCH   3   4
ENDBRANCH   2   3
ENDBRANCH   1   2
BRANCH   1  30
ATOM     30  C   UNL     1      -4.218  -3.540   0.490  1.00  0.00     0.202 C 
BRANCH  30  31
ATOM     31  C   UNL     1      -4.814  -3.049  -0.819  1.00  0.00     0.261 C 
BRANCH  31  32
ATOM     32  O   UNL     1      -5.308  -1.728  -0.679  1.00  0.00    -0.460 OA
BRANCH  32  33
ATOM     33  C   UNL     1      -6.645  -1.682  -0.470  1.00  0.00     0.338 C 
ATOM     34  O   UNL     1      -7.398  -2.619  -0.307  1.00  0.00    -0.246 OA
BRANCH  33  35
ATOM     35  C   UNL     1      -7.088  -0.286  -0.595  1.00  0.00     0.060 A 
ATOM     36  C   UNL     1      -8.467  -0.153  -0.736  1.00  0.00     0.016 A 
ATOM     37  C   UNL     1      -6.182   0.680  -1.059  1.00  0.00     0.016 A 
ATOM     38  C   UNL     1      -8.908   0.714  -1.698  1.00  0.00     0.010 A 
ATOM     39  C   UNL     1      -6.627   1.558  -2.011  1.00  0.00     0.010 A 
ATOM     40  C   UNL     1      -7.954   1.451  -2.409  1.00  0.00    -0.014 A 
BRANCH  40  41
ATOM     41  C   UNL     1      -8.402   2.133  -3.596  1.00  0.00     0.031 A 
ATOM     42  C   UNL     1      -9.192   3.333  -3.276  1.00  0.00     0.074 A 
ATOM     43  C   UNL     1      -8.090   1.709  -4.833  1.00  0.00     0.049 A 
ATOM     44  N   UNL     1     -10.469   3.479  -3.381  1.00  0.00    -0.248 NA
ATOM     45  C   UNL     1      -8.512   4.402  -2.533  1.00  0.00     0.031 C 
ATOM     46  C   UNL     1      -7.127   0.691  -5.262  1.00  0.00     0.029 A 
ATOM     47  N   UNL     1      -8.559   2.200  -6.008  1.00  0.00    -0.354 N 
ATOM     48  C   UNL     1     -10.735   4.747  -2.884  1.00  0.00     0.074 A 
ATOM     49  C   UNL     1      -9.545   5.174  -2.197  1.00  0.00     0.031 C 
ATOM     50  C   UNL     1      -6.917   0.813  -6.595  1.00  0.00     0.029 A 
ATOM     51  C   UNL     1      -7.830   1.810  -7.124  1.00  0.00     0.049 A 
ATOM     52  H   UNL     1      -9.350   2.784  -6.064  1.00  0.00     0.167 HD
ATOM     53  C   UNL     1     -11.835   5.441  -3.273  1.00  0.00     0.037 A 
ATOM     54  C   UNL     1      -7.945   2.385  -8.348  1.00  0.00     0.037 A 
ATOM     55  C   UNL     1     -12.798   4.580  -3.910  1.00  0.00     0.049 A 
ATOM     56  C   UNL     1      -9.267   3.079  -8.379  1.00  0.00     0.074 A 
ATOM     57  C   UNL     1     -13.575   3.520  -3.485  1.00  0.00     0.029 A 
ATOM     58  N   UNL     1     -12.772   4.503  -5.283  1.00  0.00    -0.354 N 
ATOM     59  N   UNL     1     -10.408   2.444  -8.353  1.00  0.00    -0.248 NA
ATOM     60  C   UNL     1      -9.313   4.460  -7.913  1.00  0.00     0.031 C 
ATOM     61  C   UNL     1     -13.575   2.601  -4.574  1.00  0.00     0.029 A 
ATOM     62  C   UNL     1     -12.857   3.176  -5.623  1.00  0.00     0.049 A 
ATOM     63  H   UNL     1     -12.705   5.261  -5.907  1.00  0.00     0.167 HD
ATOM     64  C   UNL     1     -11.215   3.186  -7.498  1.00  0.00     0.074 A 
ATOM     65  C   UNL     1     -10.500   4.446  -7.298  1.00  0.00     0.031 C 
ATOM     66  C   UNL     1     -12.232   2.606  -6.796  1.00  0.00     0.037 A 
BRANCH  53  67
ATOM     67  C   UNL     1     -11.882   6.938  -3.392  1.00  0.00     0.057 A 
ATOM     68  C   UNL     1     -13.115   7.566  -3.630  1.00  0.00     0.134 A 
ATOM     69  C   UNL     1     -10.746   7.758  -3.555  1.00  0.00     0.134 A 
ATOM     70  F   UNL     1     -14.267   6.889  -3.516  1.00  0.00    -0.206 F 
ATOM     71  C   UNL     1     -13.204   8.892  -4.069  1.00  0.00     0.040 A 
ATOM     72  C   UNL     1     -10.827   9.097  -3.938  1.00  0.00     0.040 A 
ATOM     73  F   UNL     1      -9.496   7.290  -3.455  1.00  0.00    -0.206 F 
ATOM     74  C   UNL     1     -12.057   9.660  -4.230  1.00  0.00     0.006 A 
ENDBRANCH  53  67
BRANCH  54  75
ATOM     75  C   UNL     1      -6.852   2.707  -9.294  1.00  0.00     0.057 A 
ATOM     76  C   UNL     1      -7.113   3.027 -10.634  1.00  0.00     0.134 A 
ATOM     77  C   UNL     1      -5.547   2.974  -8.841  1.00  0.00     0.134 A 
ATOM     78  F   UNL     1      -8.340   2.855 -11.146  1.00  0.00    -0.206 F 
ATOM     79  C   UNL     1      -6.137   3.590 -11.470  1.00  0.00     0.040 A 
ATOM     80  C   UNL     1      -4.564   3.532  -9.664  1.00  0.00     0.040 A 
ATOM     81  F   UNL     1      -5.208   2.786  -7.557  1.00  0.00    -0.206 F 
ATOM     82  C   UNL     1      -4.860   3.853 -10.982  1.00  0.00     0.006 A 
ENDBRANCH  54  75
BRANCH  66  83
ATOM     83  C   UNL     1     -12.574   1.173  -7.109  1.00  0.00     0.057 A 
ATOM     84  C   UNL     1     -11.708   0.094  -6.873  1.00  0.00     0.134 A 
ATOM     85  C   UNL     1     -13.881   0.859  -7.495  1.00  0.00     0.134 A 
ATOM     86  F   UNL     1     -10.471   0.291  -6.401  1.00  0.00    -0.206 F 
ATOM     87  C   UNL     1     -12.113  -1.234  -7.050  1.00  0.00     0.040 A 
ATOM     88  C   UNL     1     -14.309  -0.462  -7.643  1.00  0.00     0.040 A 
ATOM     89  F   UNL     1     -14.783   1.836  -7.677  1.00  0.00    -0.206 F 
ATOM     90  C   UNL     1     -13.422  -1.514  -7.430  1.00  0.00     0.006 A 
ENDBRANCH  66  83
ENDBRANCH  40  41
ENDBRANCH  33  35
ENDBRANCH  32  33
ENDBRANCH  31  32
ENDBRANCH  30  31
ENDBRANCH   1  30
TORSDOF 17
