REMARK SMILES O=C(OCCOCCOC(=O)c1ccc2c(c1)[C@@H]1C=CC[C@@H]1[C@H](c1ccncc1)N2)c1ccc(-c2c3nc(c(-c4c(F)cccc4F)c4ccc([nH]4)c(-c4c(F)cccc4F)c4nc(c(-c5c(F)cccc5F)c5ccc2[nH]5)C=C4)C=C3)cc1
REMARK SMILES IDX 5 1 4 2 3 3 2 4 1 5 31 6 32 7 84 8 33 9 83 10 34 11 35 12
REMARK SMILES IDX 36 13 77 14 37 15 82 16 76 17 78 18 38 19 81 20 75 21 74 22
REMARK SMILES IDX 39 24 65 25 48 26 64 27 49 28 52 29 63 30 79 31 50 32 51 33
REMARK SMILES IDX 62 35 80 36 53 37 40 38 41 39 46 40 42 41 43 42 45 43 47 44
REMARK SMILES IDX 44 45 66 46 67 47 72 48 68 49 69 50 71 51 73 52 70 53 54 54
REMARK SMILES IDX 55 55 60 56 56 57 57 58 59 59 61 60 58 61 6 62 7 63 8 64
REMARK SMILES IDX 9 65 10 66 11 67 12 68 13 69 17 70 14 71 16 72 15 73 18 74
REMARK SMILES IDX 30 75 19 76 22 77 23 78 20 80 21 81 24 82 25 83 29 84 26 85
REMARK SMILES IDX 28 86 27 87
REMARK H PARENT 78 23 52 34 30 79
REMARK Flexibility Score: inf
ROOT
ATOM      1  C   UNL     1       4.180   1.557   0.450  1.00  0.00     0.202 C 
ENDROOT
BRANCH   1   2
ATOM      2  C   UNL     1       3.872   1.012  -0.946  1.00  0.00     0.261 C 
BRANCH   2   3
ATOM      3  O   UNL     1       2.500   0.592  -1.025  1.00  0.00    -0.460 OA
BRANCH   3   4
ATOM      4  C   UNL     1       1.999  -0.664  -1.009  1.00  0.00     0.338 C 
ATOM      5  O   UNL     1       0.786  -0.812  -1.151  1.00  0.00    -0.246 OA
BRANCH   4   6
ATOM      6  C   UNL     1       2.830  -1.894  -0.831  1.00  0.00     0.060 A 
ATOM      7  C   UNL     1       4.044  -1.953  -0.144  1.00  0.00     0.016 A 
ATOM      8  C   UNL     1       2.287  -3.101  -1.307  1.00  0.00     0.016 A 
ATOM      9  C   UNL     1       4.727  -3.149   0.026  1.00  0.00     0.010 A 
ATOM     10  C   UNL     1       2.948  -4.317  -1.109  1.00  0.00     0.010 A 
ATOM     11  C   UNL     1       4.179  -4.337  -0.448  1.00  0.00    -0.014 A 
BRANCH  11  12
ATOM     12  C   UNL     1       4.971  -5.568  -0.299  1.00  0.00     0.031 A 
ATOM     13  C   UNL     1       5.715  -6.085  -1.488  1.00  0.00     0.074 A 
ATOM     14  C   UNL     1       5.112  -6.118   0.920  1.00  0.00     0.049 A 
ATOM     15  N   UNL     1       6.458  -7.152  -1.598  1.00  0.00    -0.248 NA
ATOM     16  C   UNL     1       5.624  -5.279  -2.717  1.00  0.00     0.031 C 
ATOM     17  C   UNL     1       4.513  -5.598   2.152  1.00  0.00     0.029 A 
ATOM     18  N   UNL     1       5.826  -7.210   1.331  1.00  0.00    -0.354 N 
ATOM     19  C   UNL     1       6.905  -7.159  -2.912  1.00  0.00     0.074 A 
ATOM     20  C   UNL     1       6.350  -5.994  -3.563  1.00  0.00     0.031 C 
ATOM     21  C   UNL     1       4.905  -6.361   3.185  1.00  0.00     0.029 A 
ATOM     22  C   UNL     1       5.725  -7.455   2.679  1.00  0.00     0.049 A 
ATOM     23  H   UNL     1       6.360  -7.767   0.719  1.00  0.00     0.167 HD
ATOM     24  C   UNL     1       7.703  -8.070  -3.515  1.00  0.00     0.037 A 
ATOM     25  C   UNL     1       6.221  -8.473   3.406  1.00  0.00     0.037 A 
ATOM     26  C   UNL     1       8.231  -9.224  -2.840  1.00  0.00     0.049 A 
ATOM     27  C   UNL     1       7.027  -9.522   2.691  1.00  0.00     0.074 A 
ATOM     28  C   UNL     1       8.986 -10.260  -3.354  1.00  0.00     0.029 A 
ATOM     29  N   UNL     1       8.051  -9.486  -1.487  1.00  0.00    -0.354 N 
ATOM     30  N   UNL     1       7.389  -9.566   1.429  1.00  0.00    -0.248 NA
ATOM     31  C   UNL     1       7.477 -10.670   3.487  1.00  0.00     0.031 C 
ATOM     32  C   UNL     1       9.231 -11.170  -2.319  1.00  0.00     0.029 A 
ATOM     33  C   UNL     1       8.668 -10.677  -1.150  1.00  0.00     0.049 A 
ATOM     34  H   UNL     1       7.557  -8.909  -0.861  1.00  0.00     0.167 HD
ATOM     35  C   UNL     1       8.119 -10.736   1.282  1.00  0.00     0.074 A 
ATOM     36  C   UNL     1       8.165 -11.362   2.590  1.00  0.00     0.031 C 
ATOM     37  C   UNL     1       8.694 -11.256   0.170  1.00  0.00     0.037 A 
BRANCH  24  38
ATOM     38  C   UNL     1       7.969  -7.876  -4.977  1.00  0.00     0.057 A 
ATOM     39  C   UNL     1       8.816  -6.867  -5.454  1.00  0.00     0.134 A 
ATOM     40  C   UNL     1       7.329  -8.684  -5.925  1.00  0.00     0.134 A 
ATOM     41  F   UNL     1       9.435  -6.038  -4.600  1.00  0.00    -0.206 F 
ATOM     42  C   UNL     1       8.995  -6.652  -6.823  1.00  0.00     0.040 A 
ATOM     43  C   UNL     1       7.516  -8.492  -7.295  1.00  0.00     0.040 A 
ATOM     44  F   UNL     1       6.497  -9.662  -5.535  1.00  0.00    -0.206 F 
ATOM     45  C   UNL     1       8.345  -7.468  -7.747  1.00  0.00     0.006 A 
ENDBRANCH  24  38
BRANCH  25  46
ATOM     46  C   UNL     1       5.930  -8.572   4.860  1.00  0.00     0.057 A 
ATOM     47  C   UNL     1       6.944  -8.467   5.819  1.00  0.00     0.134 A 
ATOM     48  C   UNL     1       4.626  -8.786   5.328  1.00  0.00     0.134 A 
ATOM     49  F   UNL     1       8.217  -8.284   5.438  1.00  0.00    -0.206 F 
ATOM     50  C   UNL     1       6.676  -8.584   7.185  1.00  0.00     0.040 A 
ATOM     51  C   UNL     1       4.340  -8.877   6.691  1.00  0.00     0.040 A 
ATOM     52  F   UNL     1       3.606  -8.897   4.465  1.00  0.00    -0.206 F 
ATOM     53  C   UNL     1       5.369  -8.784   7.625  1.00  0.00     0.006 A 
ENDBRANCH  25  46
BRANCH  37  54
ATOM     54  C   UNL     1       9.440 -12.544   0.336  1.00  0.00     0.057 A 
ATOM     55  C   UNL     1       8.774 -13.764   0.494  1.00  0.00     0.134 A 
ATOM     56  C   UNL     1      10.839 -12.564   0.287  1.00  0.00     0.134 A 
ATOM     57  F   UNL     1       7.434 -13.804   0.562  1.00  0.00    -0.206 F 
ATOM     58  C   UNL     1       9.476 -14.963   0.614  1.00  0.00     0.040 A 
ATOM     59  C   UNL     1      11.551 -13.759   0.381  1.00  0.00     0.040 A 
ATOM     60  F   UNL     1      11.532 -11.426   0.129  1.00  0.00    -0.206 F 
ATOM     61  C   UNL     1      10.869 -14.963   0.549  1.00  0.00     0.006 A 
ENDBRANCH  37  54
ENDBRANCH  11  12
ENDBRANCH   4   6
ENDBRANCH   3   4
ENDBRANCH   2   3
ENDBRANCH   1   2
BRANCH   1  62
ATOM     62  O   UNL     1       3.970   0.612   1.500  1.00  0.00    -0.374 OA
BRANCH  62  63
ATOM     63  C   UNL     1       2.651   0.578   2.057  1.00  0.00     0.202 C 
BRANCH  63  64
ATOM     64  C   UNL     1       2.755   0.535   3.585  1.00  0.00     0.261 C 
BRANCH  64  65
ATOM     65  O   UNL     1       3.353   1.762   4.027  1.00  0.00    -0.460 OA
BRANCH  65  66
ATOM     66  C   UNL     1       4.711   1.774   3.998  1.00  0.00     0.338 C 
ATOM     67  O   UNL     1       5.464   0.816   4.061  1.00  0.00    -0.246 OA
BRANCH  66  68
ATOM     68  C   UNL     1       5.136   3.145   3.643  1.00  0.00     0.060 A 
ATOM     69  C   UNL     1       6.214   3.311   2.772  1.00  0.00     0.018 A 
ATOM     70  C   UNL     1       4.424   4.257   4.093  1.00  0.00     0.022 A 
ATOM     71  C   UNL     1       6.573   4.592   2.349  1.00  0.00     0.027 A 
ATOM     72  C   UNL     1       4.790   5.547   3.682  1.00  0.00    -0.017 A 
ATOM     73  C   UNL     1       5.899   5.720   2.834  1.00  0.00     0.038 A 
ATOM     74  C   UNL     1       4.010   6.730   4.203  1.00  0.00     0.049 C 
ATOM     75  N   UNL     1       6.322   6.992   2.451  1.00  0.00    -0.378 N 
ATOM     76  C   UNL     1       2.571   6.742   3.762  1.00  0.00    -0.023 C 
ATOM     77  C   UNL     1       4.500   8.094   3.687  1.00  0.00     0.031 C 
ATOM     78  C   UNL     1       5.996   8.079   3.366  1.00  0.00     0.114 C 
ATOM     79  H   UNL     1       6.814   7.147   1.613  1.00  0.00     0.161 HD
ATOM     80  C   UNL     1       2.327   7.696   2.855  1.00  0.00    -0.030 C 
ATOM     81  C   UNL     1       3.565   8.464   2.523  1.00  0.00     0.034 C 
BRANCH  78  82
ATOM     82  C   UNL     1       6.502   9.431   2.893  1.00  0.00    -0.022 A 
ATOM     83  C   UNL     1       6.554  10.486   3.817  1.00  0.00     0.026 A 
ATOM     84  C   UNL     1       6.915   9.694   1.583  1.00  0.00     0.026 A 
ATOM     85  C   UNL     1       7.013  11.726   3.405  1.00  0.00     0.111 A 
ATOM     86  C   UNL     1       7.373  10.966   1.270  1.00  0.00     0.111 A 
ATOM     87  N   UNL     1       7.431  11.987   2.151  1.00  0.00    -0.265 NA
ENDBRANCH  78  82
ENDBRANCH  66  68
ENDBRANCH  65  66
ENDBRANCH  64  65
ENDBRANCH  63  64
ENDBRANCH  62  63
ENDBRANCH   1  62
TORSDOF 15
