REMARK SMILES CCOCCS(=O)(=O)NCC(=O)OCCOCCOC(=O)c1ccc(-c2c3nc(c(-c4c(F)cccc4F)c4ccc([nH]4)c(-c4c(F)cccc4F)c4nc(c(-c5c(F)cccc5F)c5ccc2[nH]5)C=C4)C=C3)cc1
REMARK SMILES IDX 14 1 13 2 11 3 12 4 10 5 9 6 6 8 7 9 8 10 5 11 4 12 3 13
REMARK SMILES IDX 2 14 1 15 15 16 16 17 17 18 18 19 19 20 20 21 21 22 22 23
REMARK SMILES IDX 23 24 75 25 24 26 74 27 25 28 26 29 27 30 68 31 28 32 73 33
REMARK SMILES IDX 67 34 69 35 29 36 72 37 66 38 65 39 30 41 56 42 39 43 55 44
REMARK SMILES IDX 40 45 43 46 54 47 70 48 41 49 42 50 53 52 71 53 44 54 31 55
REMARK SMILES IDX 32 56 37 57 33 58 34 59 36 60 38 61 35 62 57 63 58 64 63 65
REMARK SMILES IDX 59 66 60 67 62 68 64 69 61 70 45 71 46 72 51 73 47 74 48 75
REMARK SMILES IDX 50 76 52 77 49 78
REMARK H PARENT 9 7 69 40 43 51
REMARK Flexibility Score: inf
ROOT
ATOM      1  C   UNL     1       1.029  -0.976   1.998  1.00  0.00     0.261 C 
ENDROOT
BRANCH   1   2
ATOM      2  O   UNL     1       0.924   0.159   1.124  1.00  0.00    -0.462 OA
BRANCH   2   3
ATOM      3  C   UNL     1      -0.049   0.144   0.191  1.00  0.00     0.321 C 
ATOM      4  O   UNL     1      -0.792  -0.808  -0.025  1.00  0.00    -0.251 OA
BRANCH   3   5
ATOM      5  C   UNL     1      -0.247   1.484  -0.468  1.00  0.00     0.221 C 
BRANCH   5   6
ATOM      6  N   UNL     1       0.757   2.532  -0.629  1.00  0.00    -0.204 NA
ATOM      7  H   UNL     1       0.445   3.054  -1.447  1.00  0.00     0.141 HD
BRANCH   6   8
ATOM      8  S   UNL     1       2.396   2.407  -0.828  1.00  0.00     0.214 S 
ATOM      9  O   UNL     1       2.916   1.294  -0.073  1.00  0.00    -0.212 OA
ATOM     10  O   UNL     1       2.857   3.752  -0.549  1.00  0.00    -0.212 OA
BRANCH   8  11
ATOM     11  C   UNL     1       2.656   2.140  -2.584  1.00  0.00     0.182 C 
BRANCH  11  12
ATOM     12  C   UNL     1       3.262   0.790  -2.937  1.00  0.00     0.177 C 
BRANCH  12  13
ATOM     13  O   UNL     1       2.358  -0.098  -3.597  1.00  0.00    -0.381 OA
BRANCH  13  14
ATOM     14  C   UNL     1       1.393  -0.743  -2.777  1.00  0.00     0.156 C 
ATOM     15  C   UNL     1       1.993  -1.620  -1.693  1.00  0.00     0.035 C 
ENDBRANCH  13  14
ENDBRANCH  12  13
ENDBRANCH  11  12
ENDBRANCH   8  11
ENDBRANCH   6   8
ENDBRANCH   5   6
ENDBRANCH   3   5
ENDBRANCH   2   3
ENDBRANCH   1   2
BRANCH   1  16
ATOM     16  C   UNL     1       1.319  -0.481   3.413  1.00  0.00     0.202 C 
BRANCH  16  17
ATOM     17  O   UNL     1       0.276   0.247   4.065  1.00  0.00    -0.374 OA
BRANCH  17  18
ATOM     18  C   UNL     1      -0.213   1.434   3.448  1.00  0.00     0.202 C 
BRANCH  18  19
ATOM     19  C   UNL     1       0.671   2.692   3.463  1.00  0.00     0.261 C 
BRANCH  19  20
ATOM     20  O   UNL     1       2.022   2.499   3.023  1.00  0.00    -0.460 OA
BRANCH  20  21
ATOM     21  C   UNL     1       2.913   2.379   4.038  1.00  0.00     0.338 C 
ATOM     22  O   UNL     1       2.672   2.394   5.235  1.00  0.00    -0.246 OA
BRANCH  21  23
ATOM     23  C   UNL     1       4.270   2.105   3.534  1.00  0.00     0.060 A 
ATOM     24  C   UNL     1       4.904   0.941   3.986  1.00  0.00     0.016 A 
ATOM     25  C   UNL     1       4.973   3.057   2.795  1.00  0.00     0.016 A 
ATOM     26  C   UNL     1       6.265   0.756   3.758  1.00  0.00     0.010 A 
ATOM     27  C   UNL     1       6.342   2.872   2.573  1.00  0.00     0.010 A 
ATOM     28  C   UNL     1       7.003   1.744   3.094  1.00  0.00    -0.014 A 
BRANCH  28  29
ATOM     29  C   UNL     1       8.485   1.657   3.079  1.00  0.00     0.031 A 
ATOM     30  C   UNL     1       9.284   2.527   4.012  1.00  0.00     0.074 A 
ATOM     31  C   UNL     1       9.111   0.780   2.276  1.00  0.00     0.049 A 
ATOM     32  N   UNL     1      10.582   2.635   4.141  1.00  0.00    -0.248 NA
ATOM     33  C   UNL     1       8.516   3.391   4.923  1.00  0.00     0.031 C 
ATOM     34  C   UNL     1       8.447  -0.149   1.363  1.00  0.00     0.029 A 
ATOM     35  N   UNL     1      10.448   0.532   2.099  1.00  0.00    -0.354 N 
ATOM     36  C   UNL     1      10.787   3.582   5.138  1.00  0.00     0.074 A 
ATOM     37  C   UNL     1       9.480   4.043   5.556  1.00  0.00     0.031 C 
ATOM     38  C   UNL     1       9.383  -0.860   0.711  1.00  0.00     0.029 A 
ATOM     39  C   UNL     1      10.707  -0.410   1.134  1.00  0.00     0.049 A 
ATOM     40  H   UNL     1      11.155   0.985   2.614  1.00  0.00     0.167 HD
ATOM     41  C   UNL     1      11.956   4.019   5.663  1.00  0.00     0.037 A 
ATOM     42  C   UNL     1      11.880  -0.839   0.629  1.00  0.00     0.037 A 
ATOM     43  C   UNL     1      13.255   3.559   5.243  1.00  0.00     0.049 A 
ATOM     44  C   UNL     1      13.168  -0.279   1.173  1.00  0.00     0.074 A 
ATOM     45  C   UNL     1      14.499   3.932   5.723  1.00  0.00     0.029 A 
ATOM     46  N   UNL     1      13.477   2.630   4.237  1.00  0.00    -0.354 N 
ATOM     47  N   UNL     1      13.352   0.602   2.127  1.00  0.00    -0.248 NA
ATOM     48  C   UNL     1      14.413  -0.779   0.572  1.00  0.00     0.031 C 
ATOM     49  C   UNL     1      15.475   3.273   4.967  1.00  0.00     0.029 A 
ATOM     50  C   UNL     1      14.838   2.440   4.062  1.00  0.00     0.049 A 
ATOM     51  H   UNL     1      12.772   2.174   3.724  1.00  0.00     0.167 HD
ATOM     52  C   UNL     1      14.728   0.740   2.260  1.00  0.00     0.074 A 
ATOM     53  C   UNL     1      15.332  -0.160   1.300  1.00  0.00     0.031 C 
ATOM     54  C   UNL     1      15.429   1.537   3.104  1.00  0.00     0.037 A 
BRANCH  41  55
ATOM     55  C   UNL     1      11.886   5.072   6.734  1.00  0.00     0.057 A 
ATOM     56  C   UNL     1      11.397   4.797   8.018  1.00  0.00     0.134 A 
ATOM     57  C   UNL     1      12.346   6.372   6.486  1.00  0.00     0.134 A 
ATOM     58  F   UNL     1      10.931   3.575   8.320  1.00  0.00    -0.206 F 
ATOM     59  C   UNL     1      11.342   5.782   9.006  1.00  0.00     0.040 A 
ATOM     60  C   UNL     1      12.324   7.358   7.475  1.00  0.00     0.040 A 
ATOM     61  F   UNL     1      12.835   6.705   5.282  1.00  0.00    -0.206 F 
ATOM     62  C   UNL     1      11.813   7.065   8.737  1.00  0.00     0.006 A 
ENDBRANCH  41  55
BRANCH  42  63
ATOM     63  C   UNL     1      11.891  -1.838  -0.469  1.00  0.00     0.057 A 
ATOM     64  C   UNL     1      12.384  -3.133  -0.272  1.00  0.00     0.134 A 
ATOM     65  C   UNL     1      11.423  -1.515  -1.750  1.00  0.00     0.134 A 
ATOM     66  F   UNL     1      12.868  -3.496   0.925  1.00  0.00    -0.206 F 
ATOM     67  C   UNL     1      12.428  -4.064  -1.311  1.00  0.00     0.040 A 
ATOM     68  C   UNL     1      11.433  -2.446  -2.789  1.00  0.00     0.040 A 
ATOM     69  F   UNL     1      10.936  -0.292  -2.005  1.00  0.00    -0.206 F 
ATOM     70  C   UNL     1      11.945  -3.723  -2.573  1.00  0.00     0.006 A 
ENDBRANCH  42  63
BRANCH  54  71
ATOM     71  C   UNL     1      16.928   1.445   3.058  1.00  0.00     0.057 A 
ATOM     72  C   UNL     1      17.671   1.934   1.977  1.00  0.00     0.134 A 
ATOM     73  C   UNL     1      17.640   0.891   4.131  1.00  0.00     0.134 A 
ATOM     74  F   UNL     1      17.053   2.466   0.911  1.00  0.00    -0.206 F 
ATOM     75  C   UNL     1      19.065   1.852   1.952  1.00  0.00     0.040 A 
ATOM     76  C   UNL     1      19.034   0.833   4.132  1.00  0.00     0.040 A 
ATOM     77  F   UNL     1      16.993   0.413   5.205  1.00  0.00    -0.206 F 
ATOM     78  C   UNL     1      19.751   1.307   3.036  1.00  0.00     0.006 A 
ENDBRANCH  54  71
ENDBRANCH  28  29
ENDBRANCH  21  23
ENDBRANCH  20  21
ENDBRANCH  19  20
ENDBRANCH  18  19
ENDBRANCH  17  18
ENDBRANCH  16  17
ENDBRANCH   1  16
TORSDOF 20
