REMARK SMILES Cc1cnc(NC(=O)NC[C@H]2CC[C@H](C(=O)OCCOCCOC(=O)c3ccc(-c4c5nc(c(-c6c(F)cccc6F)c6ccc([nH]6)c(-c6c(F)cccc6F)c6nc(c(-c7c(F)cccc7F)c7ccc4[nH]7)C=C6)C=C5)cc3)O2)s1
REMARK SMILES IDX 19 1 18 2 17 3 15 4 16 5 14 6 11 7 12 8 80 9 13 10 10 11
REMARK SMILES IDX 9 12 6 13 7 14 8 16 5 18 1 19 2 20 3 21 81 22 4 23 20 24
REMARK SMILES IDX 21 25 22 26 23 27 24 28 25 29 26 30 27 31 79 32 28 33 78 34
REMARK SMILES IDX 29 35 30 36 31 37 72 38 32 39 77 40 71 41 73 42 33 43 76 44
REMARK SMILES IDX 70 45 69 46 34 48 60 49 43 50 59 51 44 52 47 53 58 54 74 55
REMARK SMILES IDX 45 56 46 57 57 59 75 60 48 61 35 62 36 63 41 64 37 65 38 66
REMARK SMILES IDX 40 67 42 68 39 69 61 70 62 71 67 72 63 73 64 74 66 75 68 76
REMARK SMILES IDX 65 77 49 78 50 79 55 80 51 81 52 82 54 83 56 84 53 85
REMARK H PARENT 6 15 9 17 73 47 47 58
REMARK Flexibility Score: inf
ROOT
ATOM      1  C   UNL     1      -4.269   3.046  -4.609  1.00  0.00     0.202 C 
ENDROOT
BRANCH   1   2
ATOM      2  C   UNL     1      -3.699   1.938  -3.719  1.00  0.00     0.261 C 
BRANCH   2   3
ATOM      3  O   UNL     1      -2.379   2.270  -3.253  1.00  0.00    -0.461 OA
BRANCH   3   4
ATOM      4  C   UNL     1      -1.369   1.450  -3.663  1.00  0.00     0.335 C 
ATOM      5  O   UNL     1      -1.526   0.434  -4.331  1.00  0.00    -0.249 OA
BRANCH   4   6
ATOM      6  C   UNL     1       0.005   1.935  -3.180  1.00  0.00     0.228 C 
ATOM      7  C   UNL     1       0.440   2.306  -0.915  1.00  0.00     0.138 C 
ATOM      8  C   UNL     1      -0.165   3.579  -1.492  1.00  0.00     0.037 C 
ATOM      9  O   UNL     1       0.340   1.300  -1.934  1.00  0.00    -0.361 OA
ATOM     10  C   UNL     1       0.136   3.437  -2.959  1.00  0.00     0.047 C 
BRANCH   7  11
ATOM     11  C   UNL     1       1.898   2.506  -0.458  1.00  0.00     0.149 C 
BRANCH  11  12
ATOM     12  N   UNL     1       2.922   1.866  -1.271  1.00  0.00    -0.335 N 
ATOM     13  N   UNL     1       4.329   3.454  -2.377  1.00  0.00    -0.284 N 
ATOM     14  C   UNL     1       3.954   2.214  -2.047  1.00  0.00     0.321 C 
ATOM     15  H   UNL     1       4.985   3.478  -3.110  1.00  0.00     0.174 HD
ATOM     16  O   UNL     1       4.547   1.283  -2.608  1.00  0.00    -0.248 OA
ATOM     17  H   UNL     1       2.827   0.886  -1.240  1.00  0.00     0.165 HD
BRANCH  13  18
ATOM     18  C   UNL     1       3.997   4.686  -1.918  1.00  0.00     0.190 A 
ATOM     19  C   UNL     1       2.272   7.221   0.341  1.00  0.00     0.058 C 
ATOM     20  C   UNL     1       3.090   6.488  -0.654  1.00  0.00     0.023 A 
ATOM     21  C   UNL     1       3.293   6.753  -1.994  1.00  0.00     0.128 A 
ATOM     22  S   UNL     1       3.955   5.058  -0.253  1.00  0.00    -0.102 S 
ATOM     23  N   UNL     1       3.872   5.725  -2.711  1.00  0.00    -0.228 NA
ENDBRANCH  13  18
ENDBRANCH  11  12
ENDBRANCH   7  11
ENDBRANCH   4   6
ENDBRANCH   3   4
ENDBRANCH   2   3
ENDBRANCH   1   2
BRANCH   1  24
ATOM     24  O   UNL     1      -3.644   3.221  -5.881  1.00  0.00    -0.374 OA
BRANCH  24  25
ATOM     25  C   UNL     1      -2.391   3.901  -5.909  1.00  0.00     0.202 C 
BRANCH  25  26
ATOM     26  C   UNL     1      -2.442   5.430  -5.782  1.00  0.00     0.261 C 
BRANCH  26  27
ATOM     27  O   UNL     1      -2.999   5.866  -4.527  1.00  0.00    -0.460 OA
BRANCH  27  28
ATOM     28  C   UNL     1      -4.187   6.505  -4.634  1.00  0.00     0.338 C 
ATOM     29  O   UNL     1      -4.770   6.823  -5.666  1.00  0.00    -0.246 OA
BRANCH  28  30
ATOM     30  C   UNL     1      -4.824   6.654  -3.315  1.00  0.00     0.060 A 
ATOM     31  C   UNL     1      -6.106   6.113  -3.159  1.00  0.00     0.016 A 
ATOM     32  C   UNL     1      -4.242   7.406  -2.291  1.00  0.00     0.016 A 
ATOM     33  C   UNL     1      -6.836   6.371  -2.001  1.00  0.00     0.010 A 
ATOM     34  C   UNL     1      -4.981   7.668  -1.129  1.00  0.00     0.010 A 
ATOM     35  C   UNL     1      -6.296   7.186  -0.996  1.00  0.00    -0.014 A 
BRANCH  35  36
ATOM     36  C   UNL     1      -7.178   7.636   0.110  1.00  0.00     0.031 A 
ATOM     37  C   UNL     1      -7.797   9.007   0.048  1.00  0.00     0.074 A 
ATOM     38  C   UNL     1      -7.489   6.805   1.121  1.00  0.00     0.049 A 
ATOM     39  N   UNL     1      -8.628   9.581   0.882  1.00  0.00    -0.248 NA
ATOM     40  C   UNL     1      -7.436   9.840  -1.109  1.00  0.00     0.031 C 
ATOM     41  C   UNL     1      -6.984   5.443   1.281  1.00  0.00     0.029 A 
ATOM     42  N   UNL     1      -8.313   6.989   2.204  1.00  0.00    -0.354 N 
ATOM     43  C   UNL     1      -8.898  10.834   0.345  1.00  0.00     0.074 A 
ATOM     44  C   UNL     1      -8.108  10.955  -0.862  1.00  0.00     0.031 C 
ATOM     45  C   UNL     1      -7.506   4.914   2.401  1.00  0.00     0.029 A 
ATOM     46  C   UNL     1      -8.365   5.905   3.046  1.00  0.00     0.049 A 
ATOM     47  H   UNL     1      -8.819   7.818   2.361  1.00  0.00     0.167 HD
ATOM     48  C   UNL     1      -9.741  11.790   0.803  1.00  0.00     0.037 A 
ATOM     49  C   UNL     1      -9.022   5.736   4.210  1.00  0.00     0.037 A 
ATOM     50  C   UNL     1     -10.524  11.678   2.006  1.00  0.00     0.049 A 
ATOM     51  C   UNL     1      -9.905   6.839   4.731  1.00  0.00     0.074 A 
ATOM     52  C   UNL     1     -11.399  12.599   2.555  1.00  0.00     0.029 A 
ATOM     53  N   UNL     1     -10.524  10.576   2.847  1.00  0.00    -0.354 N 
ATOM     54  N   UNL     1     -10.162   8.012   4.204  1.00  0.00    -0.248 NA
ATOM     55  C   UNL     1     -10.596   6.589   6.004  1.00  0.00     0.031 C 
ATOM     56  C   UNL     1     -11.901  12.070   3.749  1.00  0.00     0.029 A 
ATOM     57  C   UNL     1     -11.373  10.801   3.919  1.00  0.00     0.049 A 
ATOM     58  H   UNL     1     -10.000   9.756   2.703  1.00  0.00     0.167 HD
ATOM     59  C   UNL     1     -11.061   8.628   5.067  1.00  0.00     0.074 A 
ATOM     60  C   UNL     1     -11.319   7.692   6.141  1.00  0.00     0.031 C 
ATOM     61  C   UNL     1     -11.622   9.859   4.980  1.00  0.00     0.037 A 
BRANCH  48  62
ATOM     62  C   UNL     1      -9.854  13.052  -0.001  1.00  0.00     0.057 A 
ATOM     63  C   UNL     1     -10.528  13.083  -1.229  1.00  0.00     0.134 A 
ATOM     64  C   UNL     1      -9.319  14.256   0.473  1.00  0.00     0.134 A 
ATOM     65  F   UNL     1     -11.051  11.960  -1.746  1.00  0.00    -0.206 F 
ATOM     66  C   UNL     1     -10.651  14.263  -1.965  1.00  0.00     0.040 A 
ATOM     67  C   UNL     1      -9.456  15.447  -0.243  1.00  0.00     0.040 A 
ATOM     68  F   UNL     1      -8.665  14.297   1.643  1.00  0.00    -0.206 F 
ATOM     69  C   UNL     1     -10.119  15.451  -1.468  1.00  0.00     0.006 A 
ENDBRANCH  48  62
BRANCH  49  70
ATOM     70  C   UNL     1      -8.861   4.476   4.977  1.00  0.00     0.057 A 
ATOM     71  C   UNL     1      -9.915   3.567   5.122  1.00  0.00     0.134 A 
ATOM     72  C   UNL     1      -7.652   4.167   5.613  1.00  0.00     0.134 A 
ATOM     73  F   UNL     1     -11.105   3.819   4.556  1.00  0.00    -0.206 F 
ATOM     74  C   UNL     1      -9.781   2.408   5.889  1.00  0.00     0.040 A 
ATOM     75  C   UNL     1      -7.496   3.000   6.362  1.00  0.00     0.040 A 
ATOM     76  F   UNL     1      -6.603   4.997   5.512  1.00  0.00    -0.206 F 
ATOM     77  C   UNL     1      -8.566   2.121   6.508  1.00  0.00     0.006 A 
ENDBRANCH  49  70
BRANCH  61  78
ATOM     78  C   UNL     1     -12.588  10.252   6.060  1.00  0.00     0.057 A 
ATOM     79  C   UNL     1     -12.161  10.558   7.358  1.00  0.00     0.134 A 
ATOM     80  C   UNL     1     -13.959  10.348   5.790  1.00  0.00     0.134 A 
ATOM     81  F   UNL     1     -10.862  10.474   7.684  1.00  0.00    -0.206 F 
ATOM     82  C   UNL     1     -13.066  10.920   8.357  1.00  0.00     0.040 A 
ATOM     83  C   UNL     1     -14.871  10.733   6.774  1.00  0.00     0.040 A 
ATOM     84  F   UNL     1     -14.434  10.077   4.565  1.00  0.00    -0.206 F 
ATOM     85  C   UNL     1     -14.425  11.014   8.065  1.00  0.00     0.006 A 
ENDBRANCH  61  78
ENDBRANCH  35  36
ENDBRANCH  28  30
ENDBRANCH  27  28
ENDBRANCH  26  27
ENDBRANCH  25  26
ENDBRANCH  24  25
ENDBRANCH   1  24
TORSDOF 17
