REMARK SMILES CCCCCNC(=O)Oc1cccc(-c2ccc([C@@H](C)C(=O)OCCOCCOC(=O)c3ccc(-c4c5nc(c(-c6c(F)cccc6F)c6ccc([nH]6)c(-c6c(F)cccc6F)c6nc(c(-c7c(F)cccc7F)c7ccc4[nH]7)C=C6)C=C5)cc3)cc2F)c1
REMARK SMILES IDX 23 1 21 2 22 3 19 4 20 5 18 6 15 7 16 8 87 9 17 10 86 11
REMARK SMILES IDX 88 12 14 13 10 14 11 15 89 16 12 17 13 18 9 19 7 20 6 21
REMARK SMILES IDX 8 23 5 24 4 25 3 26 2 27 1 28 24 29 25 30 26 31 27 32 28 33
REMARK SMILES IDX 29 34 30 35 31 36 32 37 33 38 85 39 34 40 84 41 35 42 36 43
REMARK SMILES IDX 37 44 78 45 38 46 83 47 77 48 79 49 39 50 82 51 76 52 75 53
REMARK SMILES IDX 40 55 66 56 49 57 65 58 50 59 53 60 64 61 80 62 51 63 52 64
REMARK SMILES IDX 63 66 81 67 54 68 41 69 42 70 47 71 43 72 44 73 46 74 48 75
REMARK SMILES IDX 45 76 67 77 68 78 73 79 69 80 70 81 72 82 74 83 71 84 55 85
REMARK SMILES IDX 56 86 61 87 57 88 58 89 60 90 62 91 59 92
REMARK H PARENT 6 22 79 54 53 65
REMARK Flexibility Score: inf
ROOT
ATOM      1  O   UNL     1      -3.965  -7.176  12.581  1.00  0.00    -0.463 OA
ENDROOT
BRANCH   1   2
ATOM      2  C   UNL     1      -3.039  -6.653  13.425  1.00  0.00     0.313 C 
ATOM      3  O   UNL     1      -2.395  -7.308  14.240  1.00  0.00    -0.252 OA
BRANCH   2   4
ATOM      4  C   UNL     1      -2.885  -5.145  13.315  1.00  0.00     0.126 C 
ATOM      5  C   UNL     1      -3.675  -4.481  14.440  1.00  0.00     0.025 C 
BRANCH   4   6
ATOM      6  C   UNL     1      -3.162  -4.483  11.968  1.00  0.00    -0.031 A 
ATOM      7  C   UNL     1      -3.656  -2.941   9.610  1.00  0.00     0.018 A 
ATOM      8  C   UNL     1      -4.681  -3.670  10.239  1.00  0.00     0.012 A 
ATOM      9  C   UNL     1      -2.370  -3.062  10.151  1.00  0.00     0.131 A 
ATOM     10  C   UNL     1      -4.441  -4.425  11.399  1.00  0.00     0.005 A 
ATOM     11  C   UNL     1      -2.122  -3.815  11.303  1.00  0.00     0.044 A 
ATOM     12  F   UNL     1      -1.338  -2.399   9.605  1.00  0.00    -0.206 F 
BRANCH   7  13
ATOM     13  C   UNL     1      -3.946  -2.020   8.491  1.00  0.00    -0.012 A 
ATOM     14  C   UNL     1      -3.450  -1.074   6.307  1.00  0.00     0.133 A 
ATOM     15  C   UNL     1      -4.469  -0.135   6.446  1.00  0.00     0.047 A 
ATOM     16  C   UNL     1      -3.175  -2.003   7.316  1.00  0.00     0.056 A 
ATOM     17  C   UNL     1      -5.245  -0.140   7.599  1.00  0.00     0.004 A 
ATOM     18  C   UNL     1      -4.985  -1.073   8.608  1.00  0.00     0.009 A 
BRANCH  14  19
ATOM     19  O   UNL     1      -2.638  -0.950   5.167  1.00  0.00    -0.410 OA
BRANCH  19  20
ATOM     20  C   UNL     1      -2.466  -2.062   4.359  1.00  0.00     0.412 C 
ATOM     21  N   UNL     1      -1.690  -1.818   3.260  1.00  0.00    -0.321 N 
ATOM     22  H   UNL     1      -1.513  -2.584   2.668  1.00  0.00     0.167 HD
ATOM     23  O   UNL     1      -2.950  -3.176   4.552  1.00  0.00    -0.224 OA
BRANCH  21  24
ATOM     24  C   UNL     1      -1.102  -0.550   2.872  1.00  0.00     0.119 C 
BRANCH  24  25
ATOM     25  C   UNL     1       0.424  -0.614   2.810  1.00  0.00     0.021 C 
BRANCH  25  26
ATOM     26  C   UNL     1       0.993  -1.575   1.758  1.00  0.00     0.002 C 
BRANCH  26  27
ATOM     27  C   UNL     1       0.572  -1.304   0.312  1.00  0.00    -0.003 C 
ATOM     28  C   UNL     1       1.001   0.062  -0.202  1.00  0.00     0.004 C 
ENDBRANCH  26  27
ENDBRANCH  25  26
ENDBRANCH  24  25
ENDBRANCH  21  24
ENDBRANCH  19  20
ENDBRANCH  14  19
ENDBRANCH   7  13
ENDBRANCH   4   6
ENDBRANCH   2   4
ENDBRANCH   1   2
BRANCH   1  29
ATOM     29  C   UNL     1      -4.047  -8.612  12.552  1.00  0.00     0.261 C 
BRANCH  29  30
ATOM     30  C   UNL     1      -3.679  -9.158  11.171  1.00  0.00     0.202 C 
BRANCH  30  31
ATOM     31  O   UNL     1      -2.322  -8.986  10.767  1.00  0.00    -0.374 OA
BRANCH  31  32
ATOM     32  C   UNL     1      -1.923  -7.687  10.328  1.00  0.00     0.202 C 
BRANCH  32  33
ATOM     33  C   UNL     1      -2.360  -7.272   8.917  1.00  0.00     0.261 C 
BRANCH  33  34
ATOM     34  O   UNL     1      -3.787  -7.134   8.803  1.00  0.00    -0.460 OA
BRANCH  34  35
ATOM     35  C   UNL     1      -4.383  -8.066   8.019  1.00  0.00     0.338 C 
ATOM     36  O   UNL     1      -3.845  -8.948   7.375  1.00  0.00    -0.246 OA
BRANCH  35  37
ATOM     37  C   UNL     1      -5.848  -8.005   8.189  1.00  0.00     0.060 A 
ATOM     38  C   UNL     1      -6.506  -9.201   8.505  1.00  0.00     0.016 A 
ATOM     39  C   UNL     1      -6.574  -6.835   7.961  1.00  0.00     0.016 A 
ATOM     40  C   UNL     1      -7.897  -9.246   8.539  1.00  0.00     0.010 A 
ATOM     41  C   UNL     1      -7.974  -6.883   7.989  1.00  0.00     0.010 A 
ATOM     42  C   UNL     1      -8.641  -8.097   8.240  1.00  0.00    -0.014 A 
BRANCH  42  43
ATOM     43  C   UNL     1     -10.107  -8.214   8.041  1.00  0.00     0.031 A 
ATOM     44  C   UNL     1     -10.650  -8.301   6.641  1.00  0.00     0.074 A 
ATOM     45  C   UNL     1     -10.941  -8.294   9.092  1.00  0.00     0.049 A 
ATOM     46  N   UNL     1     -11.891  -8.398   6.236  1.00  0.00    -0.248 NA
ATOM     47  C   UNL     1      -9.661  -8.277   5.551  1.00  0.00     0.031 C 
ATOM     48  C   UNL     1     -10.537  -8.269  10.496  1.00  0.00     0.029 A 
ATOM     49  N   UNL     1     -12.308  -8.412   9.137  1.00  0.00    -0.354 N 
ATOM     50  C   UNL     1     -11.832  -8.441   4.848  1.00  0.00     0.074 A 
ATOM     51  C   UNL     1     -10.437  -8.330   4.479  1.00  0.00     0.031 C 
ATOM     52  C   UNL     1     -11.634  -8.360  11.267  1.00  0.00     0.029 A 
ATOM     53  C   UNL     1     -12.818  -8.421  10.411  1.00  0.00     0.049 A 
ATOM     54  H   UNL     1     -12.869  -8.483   8.331  1.00  0.00     0.167 HD
ATOM     55  C   UNL     1     -12.848  -8.572   3.962  1.00  0.00     0.037 A 
ATOM     56  C   UNL     1     -14.095  -8.455  10.837  1.00  0.00     0.037 A 
ATOM     57  C   UNL     1     -14.235  -8.685   4.326  1.00  0.00     0.049 A 
ATOM     58  C   UNL     1     -15.212  -8.527   9.829  1.00  0.00     0.074 A 
ATOM     59  C   UNL     1     -15.335  -8.839   3.500  1.00  0.00     0.029 A 
ATOM     60  N   UNL     1     -14.714  -8.651   5.627  1.00  0.00    -0.354 N 
ATOM     61  N   UNL     1     -15.144  -8.589   8.522  1.00  0.00    -0.248 NA
ATOM     62  C   UNL     1     -16.584  -8.535  10.359  1.00  0.00     0.031 C 
ATOM     63  C   UNL     1     -16.483  -8.850   4.298  1.00  0.00     0.029 A 
ATOM     64  C   UNL     1     -16.095  -8.754   5.624  1.00  0.00     0.049 A 
ATOM     65  H   UNL     1     -14.155  -8.566   6.433  1.00  0.00     0.167 HD
ATOM     66  C   UNL     1     -16.457  -8.672   8.075  1.00  0.00     0.074 A 
ATOM     67  C   UNL     1     -17.301  -8.663   9.251  1.00  0.00     0.031 C 
ATOM     68  C   UNL     1     -16.922  -8.750   6.804  1.00  0.00     0.037 A 
BRANCH  55  69
ATOM     69  C   UNL     1     -12.494  -8.574   2.503  1.00  0.00     0.057 A 
ATOM     70  C   UNL     1     -11.859  -9.666   1.897  1.00  0.00     0.134 A 
ATOM     71  C   UNL     1     -12.822  -7.483   1.689  1.00  0.00     0.134 A 
ATOM     72  F   UNL     1     -11.506 -10.737   2.624  1.00  0.00    -0.206 F 
ATOM     73  C   UNL     1     -11.544  -9.663   0.537  1.00  0.00     0.040 A 
ATOM     74  C   UNL     1     -12.535  -7.479   0.323  1.00  0.00     0.040 A 
ATOM     75  F   UNL     1     -13.436  -6.408   2.206  1.00  0.00    -0.206 F 
ATOM     76  C   UNL     1     -11.888  -8.569  -0.255  1.00  0.00     0.006 A 
ENDBRANCH  55  69
BRANCH  56  77
ATOM     77  C   UNL     1     -14.395  -8.408  12.290  1.00  0.00     0.057 A 
ATOM     78  C   UNL     1     -14.926  -9.516  12.960  1.00  0.00     0.134 A 
ATOM     79  C   UNL     1     -14.179  -7.244  13.039  1.00  0.00     0.134 A 
ATOM     80  F   UNL     1     -15.178 -10.651  12.292  1.00  0.00    -0.206 F 
ATOM     81  C   UNL     1     -15.247  -9.465  14.318  1.00  0.00     0.040 A 
ATOM     82  C   UNL     1     -14.472  -7.187  14.402  1.00  0.00     0.040 A 
ATOM     83  F   UNL     1     -13.673  -6.148  12.456  1.00  0.00    -0.206 F 
ATOM     84  C   UNL     1     -15.015  -8.298  15.044  1.00  0.00     0.006 A 
ENDBRANCH  56  77
BRANCH  68  85
ATOM     85  C   UNL     1     -18.407  -8.868   6.618  1.00  0.00     0.057 A 
ATOM     86  C   UNL     1     -19.268  -7.784   6.830  1.00  0.00     0.134 A 
ATOM     87  C   UNL     1     -18.978 -10.071   6.182  1.00  0.00     0.134 A 
ATOM     88  F   UNL     1     -18.787  -6.607   7.260  1.00  0.00    -0.206 F 
ATOM     89  C   UNL     1     -20.646  -7.898   6.634  1.00  0.00     0.040 A 
ATOM     90  C   UNL     1     -20.350 -10.190   5.958  1.00  0.00     0.040 A 
ATOM     91  F   UNL     1     -18.208 -11.146   5.951  1.00  0.00    -0.206 F 
ATOM     92  C   UNL     1     -21.189  -9.102   6.190  1.00  0.00     0.006 A 
ENDBRANCH  68  85
ENDBRANCH  42  43
ENDBRANCH  35  37
ENDBRANCH  34  35
ENDBRANCH  33  34
ENDBRANCH  32  33
ENDBRANCH  31  32
ENDBRANCH  30  31
ENDBRANCH  29  30
ENDBRANCH   1  29
TORSDOF 22
