REMARK SMILES C=C[C@@H]1[C@H](O)C[C@H]2[C@]3(CC[C@]4(C)[C@@H]([C@H](C)CCC=C(C)C)CC[C@]24C)C[C@]13CCC(=O)OCCOCCOC(=O)c1ccc(-c2c3nc(c(-c4c(F)cccc4F)c4ccc([nH]4)c(-c4c(F)cccc4F)c4nc(c(-c5c(F)cccc5F)c5ccc2[nH]5)C=C4)C=C3)cc1
REMARK SMILES IDX 33 1 32 2 30 3 31 4 29 5 28 6 27 7 3 8 4 9 6 10 8 11 26 12
REMARK SMILES IDX 7 13 9 14 24 15 10 16 11 17 23 18 25 19 13 20 12 21 22 22
REMARK SMILES IDX 2 23 1 24 5 25 14 27 15 28 16 29 17 30 18 31 19 32 20 33
REMARK SMILES IDX 21 34 34 35 35 36 36 37 37 38 38 39 39 40 40 41 41 42 42 43
REMARK SMILES IDX 94 44 43 45 93 46 44 47 45 48 46 49 87 50 47 51 92 52 86 53
REMARK SMILES IDX 88 54 48 55 91 56 85 57 84 58 49 60 75 61 58 62 74 63 59 64
REMARK SMILES IDX 62 65 73 66 89 67 60 68 61 69 72 71 90 72 63 73 50 74 51 75
REMARK SMILES IDX 56 76 52 77 53 78 55 79 57 80 54 81 76 82 77 83 82 84 78 85
REMARK SMILES IDX 79 86 81 87 83 88 80 89 64 90 65 91 70 92 66 93 67 94 69 95
REMARK SMILES IDX 71 96 68 97
REMARK H PARENT 5 26 88 59 62 70
REMARK Flexibility Score: inf
ROOT
ATOM      1  C   UNL     1      -0.112  -1.866   4.452  1.00  0.00     0.261 C 
ENDROOT
BRANCH   1   2
ATOM      2  O   UNL     1      -1.161  -1.892   3.460  1.00  0.00    -0.463 OA
BRANCH   2   3
ATOM      3  C   UNL     1      -2.433  -1.563   3.782  1.00  0.00     0.305 C 
ATOM      4  O   UNL     1      -2.868  -1.489   4.921  1.00  0.00    -0.252 OA
BRANCH   3   5
ATOM      5  C   UNL     1      -3.246  -1.228   2.532  1.00  0.00     0.123 C 
BRANCH   5   6
ATOM      6  C   UNL     1      -3.136   0.218   1.987  1.00  0.00     0.020 C 
BRANCH   6   7
ATOM      7  C   UNL     1      -2.105   0.505   0.865  1.00  0.00    -0.014 C 
ATOM      8  C   UNL     1      -0.866  -0.422   0.810  1.00  0.00     0.047 C 
ATOM      9  C   UNL     1      -1.054  -1.423  -0.332  1.00  0.00     0.122 C 
ATOM     10  C   UNL     1      -1.108  -0.648  -1.635  1.00  0.00     0.037 C 
ATOM     11  C   UNL     1      -2.720   1.063  -0.462  1.00  0.00    -0.019 C 
ATOM     12  C   UNL     1      -1.786   1.907   0.353  1.00  0.00     0.016 C 
ATOM     13  C   UNL     1      -2.409   0.164  -1.683  1.00  0.00     0.005 C 
ATOM     14  C   UNL     1      -4.079   1.756  -0.554  1.00  0.00     0.008 C 
ATOM     15  C   UNL     1      -2.660   0.860  -3.071  1.00  0.00    -0.023 C 
ATOM     16  C   UNL     1      -4.222   2.491  -1.887  1.00  0.00     0.008 C 
ATOM     17  C   UNL     1      -4.083   1.557  -3.105  1.00  0.00    -0.024 C 
ATOM     18  C   UNL     1      -2.853  -0.222  -4.163  1.00  0.00     0.008 C 
ATOM     19  C   UNL     1      -1.475   1.779  -3.416  1.00  0.00     0.012 C 
ATOM     20  C   UNL     1      -5.003   0.294  -3.055  1.00  0.00    -0.002 C 
ATOM     21  C   UNL     1      -4.315   2.371  -4.400  1.00  0.00     0.012 C 
ATOM     22  C   UNL     1      -4.295  -0.719  -3.994  1.00  0.00     0.005 C 
BRANCH   8  23
ATOM     23  C   UNL     1       0.461   0.301   0.879  1.00  0.00    -0.028 C 
ATOM     24  C   UNL     1       1.556   0.088   0.146  1.00  0.00     0.004 C 
ENDBRANCH   8  23
BRANCH   9  25
ATOM     25  O   UNL     1      -0.046  -2.429  -0.382  1.00  0.00    -0.392 OA
ATOM     26  H   UNL     1       0.818  -2.014  -0.535  1.00  0.00     0.210 HD
ENDBRANCH   9  25
BRANCH  20  27
ATOM     27  C   UNL     1      -6.543   0.299  -3.221  1.00  0.00    -0.010 C 
ATOM     28  C   UNL     1      -7.250   1.565  -2.741  1.00  0.00     0.008 C 
BRANCH  27  29
ATOM     29  C   UNL     1      -7.079  -0.914  -2.391  1.00  0.00     0.008 C 
BRANCH  29  30
ATOM     30  C   UNL     1      -8.543  -1.291  -2.595  1.00  0.00     0.027 C 
BRANCH  30  31
ATOM     31  C   UNL     1      -8.739  -1.909  -3.947  1.00  0.00    -0.028 C 
ATOM     32  C   UNL     1      -9.003  -3.206  -4.195  1.00  0.00    -0.080 C 
ATOM     33  C   UNL     1      -9.089  -3.712  -5.606  1.00  0.00     0.039 C 
ATOM     34  C   UNL     1      -9.201  -4.232  -3.115  1.00  0.00     0.039 C 
ENDBRANCH  30  31
ENDBRANCH  29  30
ENDBRANCH  27  29
ENDBRANCH  20  27
ENDBRANCH   6   7
ENDBRANCH   5   6
ENDBRANCH   3   5
ENDBRANCH   2   3
ENDBRANCH   1   2
BRANCH   1  35
ATOM     35  C   UNL     1       0.516  -0.469   4.622  1.00  0.00     0.202 C 
BRANCH  35  36
ATOM     36  O   UNL     1      -0.187   0.392   5.524  1.00  0.00    -0.374 OA
BRANCH  36  37
ATOM     37  C   UNL     1      -1.269   1.102   4.926  1.00  0.00     0.202 C 
BRANCH  37  38
ATOM     38  C   UNL     1      -1.005   2.589   4.702  1.00  0.00     0.261 C 
BRANCH  38  39
ATOM     39  O   UNL     1      -0.054   2.774   3.636  1.00  0.00    -0.460 OA
BRANCH  39  40
ATOM     40  C   UNL     1       1.222   2.973   4.039  1.00  0.00     0.338 C 
ATOM     41  O   UNL     1       1.621   3.091   5.187  1.00  0.00    -0.246 OA
BRANCH  40  42
ATOM     42  C   UNL     1       2.138   2.912   2.881  1.00  0.00     0.060 A 
ATOM     43  C   UNL     1       3.327   2.189   3.038  1.00  0.00     0.016 A 
ATOM     44  C   UNL     1       1.862   3.551   1.667  1.00  0.00     0.016 A 
ATOM     45  C   UNL     1       4.265   2.136   2.004  1.00  0.00     0.010 A 
ATOM     46  C   UNL     1       2.795   3.479   0.623  1.00  0.00     0.010 A 
ATOM     47  C   UNL     1       4.020   2.797   0.794  1.00  0.00    -0.014 A 
BRANCH  47  48
ATOM     48  C   UNL     1       5.090   2.898  -0.236  1.00  0.00     0.031 A 
ATOM     49  C   UNL     1       5.781   4.225  -0.409  1.00  0.00     0.074 A 
ATOM     50  C   UNL     1       5.466   1.851  -1.000  1.00  0.00     0.049 A 
ATOM     51  N   UNL     1       6.735   4.562  -1.238  1.00  0.00    -0.248 NA
ATOM     52  C   UNL     1       5.351   5.314   0.485  1.00  0.00     0.031 C 
ATOM     53  C   UNL     1       4.949   0.490  -0.905  1.00  0.00     0.029 A 
ATOM     54  N   UNL     1       6.368   1.780  -2.037  1.00  0.00    -0.354 N 
ATOM     55  C   UNL     1       7.026   5.890  -0.957  1.00  0.00     0.074 A 
ATOM     56  C   UNL     1       6.111   6.318   0.077  1.00  0.00     0.031 C 
ATOM     57  C   UNL     1       5.464  -0.258  -1.895  1.00  0.00     0.029 A 
ATOM     58  C   UNL     1       6.388   0.559  -2.672  1.00  0.00     0.049 A 
ATOM     59  H   UNL     1       6.946   2.532  -2.300  1.00  0.00     0.167 HD
ATOM     60  C   UNL     1       7.991   6.674  -1.488  1.00  0.00     0.037 A 
ATOM     61  C   UNL     1       7.077   0.136  -3.750  1.00  0.00     0.037 A 
ATOM     62  C   UNL     1       8.915   6.247  -2.504  1.00  0.00     0.049 A 
ATOM     63  C   UNL     1       8.092   1.053  -4.374  1.00  0.00     0.074 A 
ATOM     64  C   UNL     1       9.964   6.956  -3.062  1.00  0.00     0.029 A 
ATOM     65  N   UNL     1       8.892   5.008  -3.123  1.00  0.00    -0.354 N 
ATOM     66  N   UNL     1       8.414   2.278  -4.039  1.00  0.00    -0.248 NA
ATOM     67  C   UNL     1       8.871   0.516  -5.500  1.00  0.00     0.031 C 
ATOM     68  C   UNL     1      10.536   6.169  -4.065  1.00  0.00     0.029 A 
ATOM     69  C   UNL     1       9.884   4.947  -4.088  1.00  0.00     0.049 A 
ATOM     70  H   UNL     1       8.264   4.280  -2.910  1.00  0.00     0.167 HD
ATOM     71  C   UNL     1       9.459   2.640  -4.878  1.00  0.00     0.074 A 
ATOM     72  C   UNL     1       9.724   1.502  -5.733  1.00  0.00     0.031 C 
ATOM     73  C   UNL     1      10.143   3.809  -4.929  1.00  0.00     0.037 A 
BRANCH  60  74
ATOM     74  C   UNL     1       8.098   8.082  -0.985  1.00  0.00     0.057 A 
ATOM     75  C   UNL     1       8.592   8.376   0.293  1.00  0.00     0.134 A 
ATOM     76  C   UNL     1       7.758   9.158  -1.813  1.00  0.00     0.134 A 
ATOM     77  F   UNL     1       8.918   7.389   1.141  1.00  0.00    -0.206 F 
ATOM     78  C   UNL     1       8.734   9.693   0.732  1.00  0.00     0.040 A 
ATOM     79  C   UNL     1       7.922  10.479  -1.395  1.00  0.00     0.040 A 
ATOM     80  F   UNL     1       7.280   8.942  -3.048  1.00  0.00    -0.206 F 
ATOM     81  C   UNL     1       8.409  10.749  -0.118  1.00  0.00     0.006 A 
ENDBRANCH  60  74
BRANCH  61  82
ATOM     82  C   UNL     1       6.854  -1.227  -4.301  1.00  0.00     0.057 A 
ATOM     83  C   UNL     1       7.837  -2.221  -4.224  1.00  0.00     0.134 A 
ATOM     84  C   UNL     1       5.664  -1.552  -4.966  1.00  0.00     0.134 A 
ATOM     85  F   UNL     1       9.007  -1.967  -3.619  1.00  0.00    -0.206 F 
ATOM     86  C   UNL     1       7.662  -3.473  -4.818  1.00  0.00     0.040 A 
ATOM     87  C   UNL     1       5.465  -2.809  -5.540  1.00  0.00     0.040 A 
ATOM     88  F   UNL     1       4.680  -0.647  -5.073  1.00  0.00    -0.206 F 
ATOM     89  C   UNL     1       6.471  -3.770  -5.478  1.00  0.00     0.006 A 
ENDBRANCH  61  82
BRANCH  73  90
ATOM     90  C   UNL     1      11.270   3.906  -5.917  1.00  0.00     0.057 A 
ATOM     91  C   UNL     1      11.042   3.971  -7.297  1.00  0.00     0.134 A 
ATOM     92  C   UNL     1      12.598   3.976  -5.476  1.00  0.00     0.134 A 
ATOM     93  F   UNL     1       9.794   3.898  -7.785  1.00  0.00    -0.206 F 
ATOM     94  C   UNL     1      12.097   4.075  -8.205  1.00  0.00     0.040 A 
ATOM     95  C   UNL     1      13.658   4.112  -6.372  1.00  0.00     0.040 A 
ATOM     96  F   UNL     1      12.885   3.931  -4.166  1.00  0.00    -0.206 F 
ATOM     97  C   UNL     1      13.409   4.153  -7.742  1.00  0.00     0.006 A 
ENDBRANCH  73  90
ENDBRANCH  47  48
ENDBRANCH  40  42
ENDBRANCH  39  40
ENDBRANCH  38  39
ENDBRANCH  37  38
ENDBRANCH  36  37
ENDBRANCH  35  36
ENDBRANCH   1  35
TORSDOF 22
