REMARK SMILES Cn1c(=O)c(=O)n(C)c2cc(S(=O)(=O)N3CCC[C@H]3C(=O)OCCOCCOC(=O)c3ccc(-c4c5nc(c(-c6c(F)cccc6F)c6ccc([nH]6)c(-c6c(F)cccc6F)c6nc(c(-c7c(F)cccc7F)c7ccc4[nH]7)C=C6)C=C5)cc3)ccc21
REMARK SMILES IDX 25 1 24 2 23 3 22 4 20 5 21 6 19 7 15 8 16 9 17 10 18 11
REMARK SMILES IDX 12 12 13 13 14 14 11 15 1 16 2 17 3 18 87 19 4 20 5 21 9 22
REMARK SMILES IDX 86 23 6 24 7 25 10 26 85 27 8 28 26 29 27 30 28 31 29 32
REMARK SMILES IDX 30 33 31 34 32 35 84 36 33 37 83 38 34 39 35 40 36 41 77 42
REMARK SMILES IDX 37 43 82 44 76 45 78 46 38 47 81 48 75 49 74 50 39 52 65 53
REMARK SMILES IDX 48 54 64 55 49 56 52 57 63 58 79 59 50 60 51 61 62 63 80 64
REMARK SMILES IDX 53 65 40 66 41 67 46 68 42 69 43 70 45 71 47 72 44 73 66 74
REMARK SMILES IDX 67 75 72 76 68 77 69 78 71 79 73 80 70 81 54 82 55 83 60 84
REMARK SMILES IDX 56 85 57 86 59 87 61 88 58 89
REMARK H PARENT 78 51 52 62
REMARK Flexibility Score: inf
ROOT
ATOM      1  O   UNL     1       0.085  10.168   4.090  1.00  0.00    -0.374 OA
ENDROOT
BRANCH   1   2
ATOM      2  C   UNL     1       1.471   9.832   4.059  1.00  0.00     0.202 C 
BRANCH   2   3
ATOM      3  C   UNL     1       1.888   8.614   4.890  1.00  0.00     0.261 C 
BRANCH   3   4
ATOM      4  O   UNL     1       1.572   7.393   4.196  1.00  0.00    -0.462 OA
BRANCH   4   5
ATOM      5  C   UNL     1       0.625   6.595   4.774  1.00  0.00     0.324 C 
ATOM      6  O   UNL     1       0.103   6.808   5.859  1.00  0.00    -0.250 OA
BRANCH   5   7
ATOM      7  C   UNL     1       0.297   5.425   3.846  1.00  0.00     0.183 C 
ATOM      8  N   UNL     1      -0.932   4.739   4.285  1.00  0.00    -0.184 NA
ATOM      9  C   UNL     1      -2.086   5.155   3.500  1.00  0.00     0.103 C 
ATOM     10  C   UNL     1      -1.500   5.553   2.156  1.00  0.00     0.019 C 
ATOM     11  C   UNL     1      -0.024   5.865   2.406  1.00  0.00     0.034 C 
BRANCH   8  12
ATOM     12  S   UNL     1      -0.879   3.328   5.164  1.00  0.00     0.243 S 
ATOM     13  O   UNL     1      -2.217   3.042   5.635  1.00  0.00    -0.207 OA
ATOM     14  O   UNL     1       0.257   3.396   6.054  1.00  0.00    -0.207 OA
BRANCH  12  15
ATOM     15  C   UNL     1      -0.482   2.036   3.999  1.00  0.00     0.084 A 
ATOM     16  C   UNL     1       1.076  -0.780   0.030  1.00  0.00     0.154 C 
ATOM     17  N   UNL     1       0.636  -1.093   1.383  1.00  0.00    -0.305 N 
ATOM     18  C   UNL     1       0.625  -2.429   1.774  1.00  0.00     0.316 A 
ATOM     19  C   UNL     1       0.251  -0.057   2.270  1.00  0.00     0.068 A 
ATOM     20  O   UNL     1       0.961  -3.351   1.035  1.00  0.00    -0.263 OA
ATOM     21  C   UNL     1       0.172  -2.754   3.204  1.00  0.00     0.316 A 
ATOM     22  C   UNL     1      -0.171  -0.347   3.582  1.00  0.00     0.069 A 
ATOM     23  C   UNL     1       0.292   1.277   1.849  1.00  0.00     0.030 A 
ATOM     24  O   UNL     1       0.162  -3.930   3.560  1.00  0.00    -0.263 OA
ATOM     25  N   UNL     1      -0.203  -1.695   4.031  1.00  0.00    -0.305 N 
ATOM     26  C   UNL     1      -0.542   0.710   4.437  1.00  0.00     0.050 A 
ATOM     27  C   UNL     1      -0.073   2.308   2.704  1.00  0.00     0.024 A 
ATOM     28  C   UNL     1      -0.621  -2.007   5.389  1.00  0.00     0.154 C 
ENDBRANCH  12  15
ENDBRANCH   8  12
ENDBRANCH   5   7
ENDBRANCH   4   5
ENDBRANCH   3   4
ENDBRANCH   2   3
ENDBRANCH   1   2
BRANCH   1  29
ATOM     29  C   UNL     1      -0.812   9.380   3.312  1.00  0.00     0.202 C 
BRANCH  29  30
ATOM     30  C   UNL     1      -0.822   9.666   1.803  1.00  0.00     0.261 C 
BRANCH  30  31
ATOM     31  O   UNL     1       0.423   9.312   1.170  1.00  0.00    -0.460 OA
BRANCH  31  32
ATOM     32  C   UNL     1       1.115  10.356   0.646  1.00  0.00     0.338 C 
ATOM     33  O   UNL     1       0.755  11.518   0.576  1.00  0.00    -0.246 OA
BRANCH  32  34
ATOM     34  C   UNL     1       2.491   9.934   0.314  1.00  0.00     0.060 A 
ATOM     35  C   UNL     1       2.756   8.866  -0.546  1.00  0.00     0.016 A 
ATOM     36  C   UNL     1       3.542  10.694   0.843  1.00  0.00     0.016 A 
ATOM     37  C   UNL     1       4.082   8.584  -0.903  1.00  0.00     0.010 A 
ATOM     38  C   UNL     1       4.860  10.408   0.492  1.00  0.00     0.010 A 
ATOM     39  C   UNL     1       5.140   9.365  -0.402  1.00  0.00    -0.014 A 
BRANCH  39  40
ATOM     40  C   UNL     1       6.525   9.188  -0.905  1.00  0.00     0.031 A 
ATOM     41  C   UNL     1       7.579   8.508  -0.082  1.00  0.00     0.074 A 
ATOM     42  C   UNL     1       6.848   9.713  -2.102  1.00  0.00     0.049 A 
ATOM     43  N   UNL     1       8.824   8.246  -0.393  1.00  0.00    -0.248 NA
ATOM     44  C   UNL     1       7.189   8.076   1.266  1.00  0.00     0.031 C 
ATOM     45  C   UNL     1       5.931  10.450  -2.973  1.00  0.00     0.029 A 
ATOM     46  N   UNL     1       8.037   9.718  -2.787  1.00  0.00    -0.354 N 
ATOM     47  C   UNL     1       9.364   7.599   0.710  1.00  0.00     0.074 A 
ATOM     48  C   UNL     1       8.322   7.553   1.718  1.00  0.00     0.031 C 
ATOM     49  C   UNL     1       6.588  10.825  -4.082  1.00  0.00     0.029 A 
ATOM     50  C   UNL     1       7.972  10.370  -3.993  1.00  0.00     0.049 A 
ATOM     51  H   UNL     1       8.858   9.294  -2.446  1.00  0.00     0.167 HD
ATOM     52  C   UNL     1      10.605   7.076   0.862  1.00  0.00     0.037 A 
ATOM     53  C   UNL     1       8.921  10.577  -4.925  1.00  0.00     0.037 A 
ATOM     54  C   UNL     1      11.652   7.149  -0.127  1.00  0.00     0.049 A 
ATOM     55  C   UNL     1      10.303  10.031  -4.710  1.00  0.00     0.074 A 
ATOM     56  C   UNL     1      12.923   6.600  -0.084  1.00  0.00     0.029 A 
ATOM     57  N   UNL     1      11.558   7.835  -1.328  1.00  0.00    -0.354 N 
ATOM     58  N   UNL     1      10.768   9.325  -3.708  1.00  0.00    -0.248 NA
ATOM     59  C   UNL     1      11.291  10.305  -5.763  1.00  0.00     0.031 C 
ATOM     60  C   UNL     1      13.612   6.992  -1.238  1.00  0.00     0.029 A 
ATOM     61  C   UNL     1      12.757   7.751  -2.020  1.00  0.00     0.049 A 
ATOM     62  H   UNL     1      10.757   8.313  -1.644  1.00  0.00     0.167 HD
ATOM     63  C   UNL     1      12.093   9.052  -4.020  1.00  0.00     0.074 A 
ATOM     64  C   UNL     1      12.353   9.653  -5.311  1.00  0.00     0.031 C 
ATOM     65  C   UNL     1      13.011   8.361  -3.300  1.00  0.00     0.037 A 
BRANCH  52  66
ATOM     66  C   UNL     1      10.898   6.367   2.152  1.00  0.00     0.057 A 
ATOM     67  C   UNL     1      11.776   6.916   3.095  1.00  0.00     0.134 A 
ATOM     68  C   UNL     1      10.337   5.116   2.443  1.00  0.00     0.134 A 
ATOM     69  F   UNL     1      12.354   8.107   2.876  1.00  0.00    -0.206 F 
ATOM     70  C   UNL     1      12.082   6.248   4.282  1.00  0.00     0.040 A 
ATOM     71  C   UNL     1      10.618   4.449   3.636  1.00  0.00     0.040 A 
ATOM     72  F   UNL     1       9.482   4.539   1.585  1.00  0.00    -0.206 F 
ATOM     73  C   UNL     1      11.497   5.013   4.558  1.00  0.00     0.006 A 
ENDBRANCH  52  66
BRANCH  53  74
ATOM     74  C   UNL     1       8.589  11.311  -6.170  1.00  0.00     0.057 A 
ATOM     75  C   UNL     1       8.372  12.693  -6.169  1.00  0.00     0.134 A 
ATOM     76  C   UNL     1       8.497  10.639  -7.394  1.00  0.00     0.134 A 
ATOM     77  F   UNL     1       8.443  13.389  -5.025  1.00  0.00    -0.206 F 
ATOM     78  C   UNL     1       8.073  13.383  -7.344  1.00  0.00     0.040 A 
ATOM     79  C   UNL     1       8.219  11.320  -8.580  1.00  0.00     0.040 A 
ATOM     80  F   UNL     1       8.713   9.317  -7.456  1.00  0.00    -0.206 F 
ATOM     81  C   UNL     1       8.003  12.696  -8.556  1.00  0.00     0.006 A 
ENDBRANCH  53  74
BRANCH  65  82
ATOM     82  C   UNL     1      14.375   8.209  -3.908  1.00  0.00     0.057 A 
ATOM     83  C   UNL     1      14.798   6.975  -4.417  1.00  0.00     0.134 A 
ATOM     84  C   UNL     1      15.270   9.284  -3.989  1.00  0.00     0.134 A 
ATOM     85  F   UNL     1      13.991   5.905  -4.367  1.00  0.00    -0.206 F 
ATOM     86  C   UNL     1      16.062   6.816  -4.988  1.00  0.00     0.040 A 
ATOM     87  C   UNL     1      16.527   9.143  -4.580  1.00  0.00     0.040 A 
ATOM     88  F   UNL     1      14.918  10.497  -3.537  1.00  0.00    -0.206 F 
ATOM     89  C   UNL     1      16.928   7.904  -5.077  1.00  0.00     0.006 A 
ENDBRANCH  65  82
ENDBRANCH  39  40
ENDBRANCH  32  34
ENDBRANCH  31  32
ENDBRANCH  30  31
ENDBRANCH  29  30
ENDBRANCH   1  29
TORSDOF 16
