REMARK SMILES CC(C)N(CCCC(=O)OCCOCCOC(=O)c1ccc(-c2c3nc(c(-c4c(F)cccc4F)c4ccc([nH]4)c(-c4c(F)cccc4F)c4nc(c(-c5c(F)cccc5F)c5ccc2[nH]5)C=C4)C=C3)cc1)c1cc(Cl)c(Cl)cc1[N+](=O)[O-]
REMARK SMILES IDX 11 1 10 2 8 3 9 4 7 5 6 6 5 7 4 8 2 9 1 10 3 11 73 12 74 13
REMARK SMILES IDX 80 14 75 15 79 16 76 17 77 18 78 19 81 20 82 21 83 22 12 23
REMARK SMILES IDX 13 24 14 25 15 26 16 27 17 28 18 29 19 30 20 31 72 32 21 33
REMARK SMILES IDX 71 34 22 35 23 36 24 37 65 38 25 39 70 40 64 41 66 42 26 43
REMARK SMILES IDX 69 44 63 45 62 46 27 48 53 49 36 50 52 51 37 52 40 53 51 54
REMARK SMILES IDX 67 55 38 56 39 57 50 59 68 60 41 61 28 62 29 63 34 64 30 65
REMARK SMILES IDX 31 66 33 67 35 68 32 69 54 70 55 71 60 72 56 73 57 74 59 75
REMARK SMILES IDX 61 76 58 77 42 78 43 79 48 80 44 81 45 82 47 83 49 84 46 85
REMARK H PARENT 66 47 40 58
REMARK Flexibility Score: inf
ROOT
ATOM      1  C   UNL     1      -5.458   0.179   0.687  1.00  0.00     0.261 C 
ENDROOT
BRANCH   1   2
ATOM      2  O   UNL     1      -4.421   1.005   0.134  1.00  0.00    -0.463 OA
BRANCH   2   3
ATOM      3  C   UNL     1      -4.487   1.291  -1.183  1.00  0.00     0.305 C 
ATOM      4  O   UNL     1      -5.213   0.721  -1.986  1.00  0.00    -0.252 OA
BRANCH   3   5
ATOM      5  C   UNL     1      -3.650   2.504  -1.535  1.00  0.00     0.124 C 
BRANCH   5   6
ATOM      6  C   UNL     1      -2.518   2.931  -0.590  1.00  0.00     0.033 C 
BRANCH   6   7
ATOM      7  C   UNL     1      -1.627   1.861   0.053  1.00  0.00     0.117 C 
BRANCH   7   8
ATOM      8  N   UNL     1      -0.763   1.162  -0.909  1.00  0.00    -0.364 N 
BRANCH   8   9
ATOM      9  C   UNL     1       0.668   1.533  -0.953  1.00  0.00     0.076 C 
ATOM     10  C   UNL     1       1.543   0.496  -0.255  1.00  0.00     0.030 C 
ATOM     11  C   UNL     1       1.156   1.809  -2.371  1.00  0.00     0.030 C 
ENDBRANCH   8   9
BRANCH   8  12
ATOM     12  C   UNL     1      -1.286   0.072  -1.587  1.00  0.00     0.117 A 
ATOM     13  C   UNL     1      -1.715   0.263  -2.912  1.00  0.00     0.055 A 
ATOM     14  C   UNL     1      -1.521  -1.204  -1.044  1.00  0.00     0.294 A 
ATOM     15  C   UNL     1      -2.427  -0.715  -3.620  1.00  0.00     0.062 A 
ATOM     16  C   UNL     1      -2.195  -2.216  -1.750  1.00  0.00     0.110 A 
ATOM     17  Cl  UNL     1      -3.005  -0.301  -5.194  1.00  0.00    -0.083 Cl
ATOM     18  C   UNL     1      -2.674  -1.956  -3.032  1.00  0.00     0.066 A 
ATOM     19  Cl  UNL     1      -3.554  -3.206  -3.832  1.00  0.00    -0.082 Cl
BRANCH  14  20
ATOM     20  N   UNL     1      -1.033  -1.574   0.270  1.00  0.00     0.065 N 
ATOM     21  O   UNL     1      -0.103  -2.393   0.303  1.00  0.00    -0.258 OA
ATOM     22  O   UNL     1      -1.633  -1.128   1.256  1.00  0.00    -0.258 OA
ENDBRANCH  14  20
ENDBRANCH   8  12
ENDBRANCH   7   8
ENDBRANCH   6   7
ENDBRANCH   5   6
ENDBRANCH   3   5
ENDBRANCH   2   3
ENDBRANCH   1   2
BRANCH   1  23
ATOM     23  C   UNL     1      -5.848   0.773   2.041  1.00  0.00     0.202 C 
BRANCH  23  24
ATOM     24  O   UNL     1      -6.603   1.989   1.965  1.00  0.00    -0.374 OA
BRANCH  24  25
ATOM     25  C   UNL     1      -5.908   3.172   1.573  1.00  0.00     0.202 C 
BRANCH  25  26
ATOM     26  C   UNL     1      -5.160   3.908   2.689  1.00  0.00     0.261 C 
BRANCH  26  27
ATOM     27  O   UNL     1      -4.156   3.083   3.303  1.00  0.00    -0.460 OA
BRANCH  27  28
ATOM     28  C   UNL     1      -4.466   2.689   4.563  1.00  0.00     0.338 C 
ATOM     29  O   UNL     1      -5.418   3.048   5.235  1.00  0.00    -0.246 OA
BRANCH  28  30
ATOM     30  C   UNL     1      -3.564   1.611   5.010  1.00  0.00     0.060 A 
ATOM     31  C   UNL     1      -4.167   0.475   5.558  1.00  0.00     0.016 A 
ATOM     32  C   UNL     1      -2.172   1.738   4.989  1.00  0.00     0.016 A 
ATOM     33  C   UNL     1      -3.385  -0.511   6.149  1.00  0.00     0.010 A 
ATOM     34  C   UNL     1      -1.385   0.744   5.588  1.00  0.00     0.010 A 
ATOM     35  C   UNL     1      -1.992  -0.362   6.208  1.00  0.00    -0.014 A 
BRANCH  35  36
ATOM     36  C   UNL     1      -1.222  -1.309   7.050  1.00  0.00     0.031 A 
ATOM     37  C   UNL     1      -0.862  -0.920   8.457  1.00  0.00     0.074 A 
ATOM     38  C   UNL     1      -0.939  -2.544   6.599  1.00  0.00     0.049 A 
ATOM     39  N   UNL     1      -0.310  -1.638   9.402  1.00  0.00    -0.248 NA
ATOM     40  C   UNL     1      -1.169   0.463   8.855  1.00  0.00     0.031 C 
ATOM     41  C   UNL     1      -1.247  -3.045   5.261  1.00  0.00     0.029 A 
ATOM     42  N   UNL     1      -0.344  -3.606   7.232  1.00  0.00    -0.354 N 
ATOM     43  C   UNL     1      -0.214  -0.801  10.507  1.00  0.00     0.074 A 
ATOM     44  C   UNL     1      -0.727   0.491  10.104  1.00  0.00     0.031 C 
ATOM     45  C   UNL     1      -0.851  -4.327   5.177  1.00  0.00     0.029 A 
ATOM     46  C   UNL     1      -0.254  -4.729   6.449  1.00  0.00     0.049 A 
ATOM     47  H   UNL     1      -0.014  -3.566   8.159  1.00  0.00     0.167 HD
ATOM     48  C   UNL     1       0.245  -1.086  11.749  1.00  0.00     0.037 A 
ATOM     49  C   UNL     1       0.251  -5.946   6.731  1.00  0.00     0.037 A 
ATOM     50  C   UNL     1       0.759  -2.369  12.153  1.00  0.00     0.049 A 
ATOM     51  C   UNL     1       0.787  -6.227   8.108  1.00  0.00     0.074 A 
ATOM     52  C   UNL     1       1.233  -2.758  13.394  1.00  0.00     0.029 A 
ATOM     53  N   UNL     1       0.871  -3.471  11.319  1.00  0.00    -0.354 N 
ATOM     54  N   UNL     1       0.836  -5.440   9.155  1.00  0.00    -0.248 NA
ATOM     55  C   UNL     1       1.329  -7.574   8.344  1.00  0.00     0.031 C 
ATOM     56  C   UNL     1       1.668  -4.085  13.301  1.00  0.00     0.029 A 
ATOM     57  C   UNL     1       1.426  -4.534  12.013  1.00  0.00     0.049 A 
ATOM     58  H   UNL     1       0.597  -3.494  10.374  1.00  0.00     0.167 HD
ATOM     59  C   UNL     1       1.397  -6.197  10.176  1.00  0.00     0.074 A 
ATOM     60  C   UNL     1       1.649  -7.514   9.628  1.00  0.00     0.031 C 
ATOM     61  C   UNL     1       1.680  -5.836  11.452  1.00  0.00     0.037 A 
BRANCH  48  62
ATOM     62  C   UNL     1       0.225   0.022  12.760  1.00  0.00     0.057 A 
ATOM     63  C   UNL     1      -0.970   0.465  13.343  1.00  0.00     0.134 A 
ATOM     64  C   UNL     1       1.414   0.634  13.174  1.00  0.00     0.134 A 
ATOM     65  F   UNL     1      -2.144  -0.070  12.977  1.00  0.00    -0.206 F 
ATOM     66  C   UNL     1      -0.982   1.492  14.289  1.00  0.00     0.040 A 
ATOM     67  C   UNL     1       1.416   1.646  14.135  1.00  0.00     0.040 A 
ATOM     68  F   UNL     1       2.592   0.255  12.657  1.00  0.00    -0.206 F 
ATOM     69  C   UNL     1       0.215   2.081  14.692  1.00  0.00     0.006 A 
ENDBRANCH  48  62
BRANCH  49  70
ATOM     70  C   UNL     1       0.265  -7.000   5.687  1.00  0.00     0.057 A 
ATOM     71  C   UNL     1      -0.572  -8.118   5.771  1.00  0.00     0.134 A 
ATOM     72  C   UNL     1       1.131  -6.920   4.591  1.00  0.00     0.134 A 
ATOM     73  F   UNL     1      -1.406  -8.262   6.811  1.00  0.00    -0.206 F 
ATOM     74  C   UNL     1      -0.537  -9.129   4.808  1.00  0.00     0.040 A 
ATOM     75  C   UNL     1       1.160  -7.911   3.610  1.00  0.00     0.040 A 
ATOM     76  F   UNL     1       1.960  -5.875   4.459  1.00  0.00    -0.206 F 
ATOM     77  C   UNL     1       0.328  -9.024   3.721  1.00  0.00     0.006 A 
ENDBRANCH  49  70
BRANCH  61  78
ATOM     78  C   UNL     1       2.281  -6.886  12.340  1.00  0.00     0.057 A 
ATOM     79  C   UNL     1       3.606  -7.313  12.183  1.00  0.00     0.134 A 
ATOM     80  C   UNL     1       1.531  -7.469  13.368  1.00  0.00     0.134 A 
ATOM     81  F   UNL     1       4.374  -6.802  11.208  1.00  0.00    -0.206 F 
ATOM     82  C   UNL     1       4.154  -8.305  12.998  1.00  0.00     0.040 A 
ATOM     83  C   UNL     1       2.075  -8.445  14.205  1.00  0.00     0.040 A 
ATOM     84  F   UNL     1       0.259  -7.099  13.579  1.00  0.00    -0.206 F 
ATOM     85  C   UNL     1       3.388  -8.872  14.015  1.00  0.00     0.006 A 
ENDBRANCH  61  78
ENDBRANCH  35  36
ENDBRANCH  28  30
ENDBRANCH  27  28
ENDBRANCH  26  27
ENDBRANCH  25  26
ENDBRANCH  24  25
ENDBRANCH  23  24
ENDBRANCH   1  23
TORSDOF 20
