REMARK SMILES Cc1nc(Nc2ccc(F)cc2)nc(OCC(=O)OCCOCCOC(=O)c2ccc(-c3c4nc(c(-c5c(F)cccc5F)c5ccc([nH]5)c(-c5c(F)cccc5F)c5nc(c(-c6c(F)cccc6F)c6ccc3[nH]6)C=C5)C=C4)cc2)c1CCO
REMARK SMILES IDX 20 1 19 2 17 3 18 4 16 5 15 6 14 7 1 8 2 9 3 10 82 11 4 12
REMARK SMILES IDX 13 13 83 14 84 15 85 16 5 18 6 20 7 21 12 22 8 23 11 24 9 25
REMARK SMILES IDX 10 26 21 27 22 28 23 29 24 30 25 31 26 32 27 33 28 34 29 35
REMARK SMILES IDX 81 36 30 37 80 38 31 39 32 40 33 41 74 42 34 43 79 44 73 45
REMARK SMILES IDX 75 46 35 47 78 48 72 49 71 50 36 52 62 53 45 54 61 55 46 56
REMARK SMILES IDX 49 57 60 58 76 59 47 60 48 61 59 63 77 64 50 65 37 66 38 67
REMARK SMILES IDX 43 68 39 69 40 70 42 71 44 72 41 73 63 74 64 75 69 76 65 77
REMARK SMILES IDX 66 78 68 79 70 80 67 81 51 82 52 83 57 84 53 85 54 86 56 87
REMARK SMILES IDX 58 88 55 89
REMARK H PARENT 85 17 5 19 75 51 49 62
REMARK Flexibility Score: inf
ROOT
ATOM      1  C   UNL     1       0.196  -4.478   3.396  1.00  0.00     0.261 C 
ENDROOT
BRANCH   1   2
ATOM      2  O   UNL     1       0.948  -3.761   2.390  1.00  0.00    -0.461 OA
BRANCH   2   3
ATOM      3  C   UNL     1       1.019  -4.375   1.177  1.00  0.00     0.344 C 
ATOM      4  O   UNL     1       0.490  -5.450   0.910  1.00  0.00    -0.248 OA
BRANCH   3   5
ATOM      5  C   UNL     1       1.876  -3.619   0.155  1.00  0.00     0.353 C 
BRANCH   5   6
ATOM      6  O   UNL     1       1.988  -2.223   0.109  1.00  0.00    -0.465 OA
BRANCH   6   7
ATOM      7  C   UNL     1       1.073  -1.323  -0.313  1.00  0.00     0.222 A 
ATOM      8  C   UNL     1      -2.458  -0.245  -1.089  1.00  0.00     0.067 C 
ATOM      9  C   UNL     1      -0.975  -0.322  -0.858  1.00  0.00     0.050 A 
ATOM     10  N   UNL     1      -0.440   0.894  -0.642  1.00  0.00    -0.218 NA
ATOM     11  C   UNL     1      -0.226  -1.503  -0.784  1.00  0.00     0.038 A 
ATOM     12  C   UNL     1       0.852   0.983  -0.343  1.00  0.00     0.230 A 
ATOM     13  N   UNL     1       1.614  -0.091  -0.163  1.00  0.00    -0.177 NA
BRANCH  11  14
ATOM     14  C   UNL     1      -0.829  -2.807  -1.234  1.00  0.00     0.071 C 
BRANCH  14  15
ATOM     15  C   UNL     1      -0.565  -3.118  -2.708  1.00  0.00     0.161 C 
BRANCH  15  16
ATOM     16  O   UNL     1       0.820  -3.303  -2.968  1.00  0.00    -0.396 OA
ATOM     17  H   UNL     1       1.300  -2.488  -2.752  1.00  0.00     0.210 HD
ENDBRANCH  15  16
ENDBRANCH  14  15
ENDBRANCH  11  14
BRANCH  12  18
ATOM     18  N   UNL     1       1.449   2.237  -0.251  1.00  0.00    -0.324 N 
ATOM     19  H   UNL     1       2.433   2.251  -0.235  1.00  0.00     0.170 HD
BRANCH  18  20
ATOM     20  C   UNL     1       0.812   3.479  -0.177  1.00  0.00     0.041 A 
ATOM     21  C   UNL     1      -0.152   3.734   0.810  1.00  0.00     0.029 A 
ATOM     22  C   UNL     1       1.074   4.467  -1.135  1.00  0.00     0.029 A 
ATOM     23  C   UNL     1      -0.838   4.949   0.846  1.00  0.00     0.041 A 
ATOM     24  C   UNL     1       0.366   5.673  -1.120  1.00  0.00     0.041 A 
ATOM     25  C   UNL     1      -0.581   5.903  -0.129  1.00  0.00     0.123 A 
ATOM     26  F   UNL     1      -1.262   7.057  -0.119  1.00  0.00    -0.207 F 
ENDBRANCH  18  20
ENDBRANCH  12  18
ENDBRANCH   6   7
ENDBRANCH   5   6
ENDBRANCH   3   5
ENDBRANCH   2   3
ENDBRANCH   1   2
BRANCH   1  27
ATOM     27  C   UNL     1      -0.806  -3.585   4.136  1.00  0.00     0.202 C 
BRANCH  27  28
ATOM     28  O   UNL     1      -1.950  -3.157   3.393  1.00  0.00    -0.374 OA
BRANCH  28  29
ATOM     29  C   UNL     1      -1.718  -2.294   2.284  1.00  0.00     0.202 C 
BRANCH  29  30
ATOM     30  C   UNL     1      -1.408  -0.833   2.614  1.00  0.00     0.261 C 
BRANCH  30  31
ATOM     31  O   UNL     1      -0.288  -0.699   3.487  1.00  0.00    -0.460 OA
BRANCH  31  32
ATOM     32  C   UNL     1      -0.567  -0.055   4.636  1.00  0.00     0.338 C 
ATOM     33  O   UNL     1      -1.605   0.516   4.954  1.00  0.00    -0.246 OA
BRANCH  32  34
ATOM     34  C   UNL     1       0.523  -0.291   5.578  1.00  0.00     0.060 A 
ATOM     35  C   UNL     1       0.208  -0.971   6.759  1.00  0.00     0.016 A 
ATOM     36  C   UNL     1       1.810   0.194   5.332  1.00  0.00     0.016 A 
ATOM     37  C   UNL     1       1.175  -1.115   7.740  1.00  0.00     0.010 A 
ATOM     38  C   UNL     1       2.779   0.057   6.324  1.00  0.00     0.010 A 
ATOM     39  C   UNL     1       2.446  -0.557   7.543  1.00  0.00    -0.014 A 
BRANCH  39  40
ATOM     40  C   UNL     1       3.351  -0.464   8.703  1.00  0.00     0.031 A 
ATOM     41  C   UNL     1       3.357   0.808   9.498  1.00  0.00     0.074 A 
ATOM     42  C   UNL     1       4.072  -1.532   9.078  1.00  0.00     0.049 A 
ATOM     43  N   UNL     1       4.013   1.097  10.590  1.00  0.00    -0.248 NA
ATOM     44  C   UNL     1       2.501   1.900   9.001  1.00  0.00     0.031 C 
ATOM     45  C   UNL     1       4.083  -2.823   8.390  1.00  0.00     0.029 A 
ATOM     46  N   UNL     1       4.916  -1.707  10.141  1.00  0.00    -0.354 N 
ATOM     47  C   UNL     1       3.640   2.395  10.916  1.00  0.00     0.074 A 
ATOM     48  C   UNL     1       2.734   2.855   9.889  1.00  0.00     0.031 C 
ATOM     49  C   UNL     1       4.887  -3.665   9.059  1.00  0.00     0.029 A 
ATOM     50  C   UNL     1       5.463  -2.963  10.204  1.00  0.00     0.049 A 
ATOM     51  H   UNL     1       5.112  -0.999  10.797  1.00  0.00     0.167 HD
ATOM     52  C   UNL     1       4.013   3.127  11.990  1.00  0.00     0.037 A 
ATOM     53  C   UNL     1       6.334  -3.480  11.091  1.00  0.00     0.037 A 
ATOM     54  C   UNL     1       4.922   2.652  12.997  1.00  0.00     0.049 A 
ATOM     55  C   UNL     1       6.794  -2.619  12.235  1.00  0.00     0.074 A 
ATOM     56  C   UNL     1       5.385   3.310  14.121  1.00  0.00     0.029 A 
ATOM     57  N   UNL     1       5.510   1.394  12.993  1.00  0.00    -0.354 N 
ATOM     58  N   UNL     1       6.438  -1.392  12.539  1.00  0.00    -0.248 NA
ATOM     59  C   UNL     1       7.772  -3.207  13.159  1.00  0.00     0.031 C 
ATOM     60  C   UNL     1       6.287   2.466  14.774  1.00  0.00     0.029 A 
ATOM     61  C   UNL     1       6.348   1.263  14.085  1.00  0.00     0.049 A 
ATOM     62  H   UNL     1       5.353   0.699  12.314  1.00  0.00     0.167 HD
ATOM     63  C   UNL     1       7.131  -1.068  13.696  1.00  0.00     0.074 A 
ATOM     64  C   UNL     1       7.920  -2.232  14.047  1.00  0.00     0.031 C 
ATOM     65  C   UNL     1       7.119   0.088  14.406  1.00  0.00     0.037 A 
BRANCH  52  66
ATOM     66  C   UNL     1       3.452   4.511  12.117  1.00  0.00     0.057 A 
ATOM     67  C   UNL     1       4.269   5.634  11.931  1.00  0.00     0.134 A 
ATOM     68  C   UNL     1       2.112   4.737  12.457  1.00  0.00     0.134 A 
ATOM     69  F   UNL     1       5.561   5.489  11.602  1.00  0.00    -0.206 F 
ATOM     70  C   UNL     1       3.775   6.930  12.089  1.00  0.00     0.040 A 
ATOM     71  C   UNL     1       1.601   6.029  12.594  1.00  0.00     0.040 A 
ATOM     72  F   UNL     1       1.272   3.705  12.629  1.00  0.00    -0.206 F 
ATOM     73  C   UNL     1       2.436   7.130  12.419  1.00  0.00     0.006 A 
ENDBRANCH  52  66
BRANCH  53  74
ATOM     74  C   UNL     1       6.802  -4.879  10.931  1.00  0.00     0.057 A 
ATOM     75  C   UNL     1       7.630  -5.252   9.865  1.00  0.00     0.134 A 
ATOM     76  C   UNL     1       6.400  -5.885  11.816  1.00  0.00     0.134 A 
ATOM     77  F   UNL     1       8.046  -4.336   8.978  1.00  0.00    -0.206 F 
ATOM     78  C   UNL     1       8.024  -6.577   9.672  1.00  0.00     0.040 A 
ATOM     79  C   UNL     1       6.804  -7.210  11.649  1.00  0.00     0.040 A 
ATOM     80  F   UNL     1       5.619  -5.588  12.866  1.00  0.00    -0.206 F 
ATOM     81  C   UNL     1       7.612  -7.561  10.568  1.00  0.00     0.006 A 
ENDBRANCH  53  74
BRANCH  65  82
ATOM     82  C   UNL     1       7.970   0.148  15.638  1.00  0.00     0.057 A 
ATOM     83  C   UNL     1       7.382   0.165  16.909  1.00  0.00     0.134 A 
ATOM     84  C   UNL     1       9.361   0.282  15.562  1.00  0.00     0.134 A 
ATOM     85  F   UNL     1       6.051   0.054  17.046  1.00  0.00    -0.206 F 
ATOM     86  C   UNL     1       8.148   0.328  18.063  1.00  0.00     0.040 A 
ATOM     87  C   UNL     1      10.140   0.420  16.711  1.00  0.00     0.040 A 
ATOM     88  F   UNL     1       9.982   0.265  14.373  1.00  0.00    -0.206 F 
ATOM     89  C   UNL     1       9.532   0.455  17.965  1.00  0.00     0.006 A 
ENDBRANCH  65  82
ENDBRANCH  39  40
ENDBRANCH  32  34
ENDBRANCH  31  32
ENDBRANCH  30  31
ENDBRANCH  29  30
ENDBRANCH  28  29
ENDBRANCH  27  28
ENDBRANCH   1  27
TORSDOF 21
