REMARK SMILES CC[C@]1(C(=O)OCCOCCOC(=O)c2ccc(-c3c4nc(c(-c5c(F)cccc5F)c5ccc([nH]5)c(-c5c(F)cccc5F)c5nc(c(-c6c(F)cccc6F)c6ccc3[nH]6)C=C5)C=C4)cc2)CC[N@@H+](Cc2nc(C)ccc2O)C1
REMARK SMILES IDX 8 1 7 2 6 3 4 4 5 5 3 6 69 7 81 8 70 9 71 10 2 12 1 13 72 14
REMARK SMILES IDX 73 15 74 16 79 17 75 18 78 19 76 20 77 21 80 22 9 24 10 25
REMARK SMILES IDX 11 26 12 27 13 28 14 29 15 30 16 31 68 32 17 33 67 34 18 35
REMARK SMILES IDX 19 36 20 37 61 38 21 39 66 40 60 41 62 42 22 43 65 44 59 45
REMARK SMILES IDX 58 46 23 48 49 49 32 50 48 51 33 52 36 53 47 54 63 55 34 56
REMARK SMILES IDX 35 57 46 59 64 60 37 61 24 62 25 63 30 64 26 65 27 66 29 67
REMARK SMILES IDX 31 68 28 69 50 70 51 71 56 72 52 73 53 74 55 75 57 76 54 77
REMARK SMILES IDX 38 78 39 79 44 80 40 81 41 82 43 83 45 84 42 85
REMARK H PARENT 71 11 80 23 62 47 36 58
REMARK Flexibility Score: inf
ROOT
ATOM      1  C   UNL     1       5.204   1.817  -2.436  1.00  0.00     0.202 C 
ENDROOT
BRANCH   1   2
ATOM      2  C   UNL     1       4.574   0.445  -2.210  1.00  0.00     0.261 C 
BRANCH   2   3
ATOM      3  O   UNL     1       3.170   0.535  -2.514  1.00  0.00    -0.463 OA
BRANCH   3   4
ATOM      4  C   UNL     1       2.315   0.035  -1.588  1.00  0.00     0.318 C 
ATOM      5  O   UNL     1       2.679  -0.688  -0.669  1.00  0.00    -0.251 OA
BRANCH   4   6
ATOM      6  C   UNL     1       0.855   0.429  -1.844  1.00  0.00     0.122 C 
ATOM      7  C   UNL     1       0.633   1.616  -2.807  1.00  0.00     0.086 C 
ATOM      8  C   UNL     1       0.175  -0.732  -2.595  1.00  0.00     0.281 C 
ATOM      9  C   UNL     1      -0.683   1.286  -3.493  1.00  0.00     0.264 C 
ATOM     10  N   UNL     1      -0.656  -0.165  -3.672  1.00  0.00    -0.329 N 
ATOM     11  H   UNL     1      -1.601  -0.539  -3.596  1.00  0.00     0.348 HD
BRANCH   6  12
ATOM     12  C   UNL     1       0.152   0.807  -0.505  1.00  0.00     0.021 C 
ATOM     13  C   UNL     1       0.166  -0.229   0.613  1.00  0.00     0.005 C 
ENDBRANCH   6  12
BRANCH  10  14
ATOM     14  C   UNL     1      -0.254  -0.587  -5.037  1.00  0.00     0.323 C 
BRANCH  14  15
ATOM     15  C   UNL     1       0.940   0.101  -5.681  1.00  0.00     0.136 A 
ATOM     16  N   UNL     1       0.672   1.240  -6.387  1.00  0.00    -0.248 NA
ATOM     17  C   UNL     1       2.242  -0.364  -5.506  1.00  0.00     0.142 A 
ATOM     18  C   UNL     1       1.703   1.926  -6.925  1.00  0.00     0.038 A 
ATOM     19  C   UNL     1       3.293   0.350  -6.063  1.00  0.00     0.050 A 
ATOM     20  C   UNL     1       1.375   3.157  -7.716  1.00  0.00     0.067 C 
ATOM     21  C   UNL     1       3.016   1.498  -6.796  1.00  0.00     0.027 A 
BRANCH  17  22
ATOM     22  O   UNL     1       2.496  -1.496  -4.793  1.00  0.00    -0.506 OA
ATOM     23  H   UNL     1       1.788  -1.981  -4.416  1.00  0.00     0.293 HD
ENDBRANCH  17  22
ENDBRANCH  14  15
ENDBRANCH  10  14
ENDBRANCH   4   6
ENDBRANCH   3   4
ENDBRANCH   2   3
ENDBRANCH   1   2
BRANCH   1  24
ATOM     24  O   UNL     1       4.838   2.779  -1.442  1.00  0.00    -0.374 OA
BRANCH  24  25
ATOM     25  C   UNL     1       3.594   3.444  -1.663  1.00  0.00     0.202 C 
BRANCH  25  26
ATOM     26  C   UNL     1       3.702   4.745  -2.462  1.00  0.00     0.261 C 
BRANCH  26  27
ATOM     27  O   UNL     1       4.136   4.502  -3.812  1.00  0.00    -0.460 OA
BRANCH  27  28
ATOM     28  C   UNL     1       5.461   4.684  -4.029  1.00  0.00     0.338 C 
ATOM     29  O   UNL     1       6.295   5.102  -3.245  1.00  0.00    -0.246 OA
BRANCH  28  30
ATOM     30  C   UNL     1       5.807   4.130  -5.352  1.00  0.00     0.060 A 
ATOM     31  C   UNL     1       6.886   3.241  -5.436  1.00  0.00     0.016 A 
ATOM     32  C   UNL     1       5.098   4.490  -6.498  1.00  0.00     0.016 A 
ATOM     33  C   UNL     1       7.270   2.719  -6.672  1.00  0.00     0.010 A 
ATOM     34  C   UNL     1       5.482   3.962  -7.734  1.00  0.00     0.010 A 
ATOM     35  C   UNL     1       6.582   3.087  -7.836  1.00  0.00    -0.014 A 
BRANCH  35  36
ATOM     36  C   UNL     1       7.093   2.690  -9.176  1.00  0.00     0.031 A 
ATOM     37  C   UNL     1       7.654   3.761 -10.074  1.00  0.00     0.074 A 
ATOM     38  C   UNL     1       7.064   1.412  -9.602  1.00  0.00     0.049 A 
ATOM     39  N   UNL     1       8.065   3.679 -11.313  1.00  0.00    -0.248 NA
ATOM     40  C   UNL     1       7.735   5.115  -9.502  1.00  0.00     0.031 C 
ATOM     41  C   UNL     1       6.558   0.271  -8.842  1.00  0.00     0.029 A 
ATOM     42  N   UNL     1       7.470   0.863 -10.795  1.00  0.00    -0.354 N 
ATOM     43  C   UNL     1       8.415   4.973 -11.677  1.00  0.00     0.074 A 
ATOM     44  C   UNL     1       8.123   5.827 -10.548  1.00  0.00     0.031 C 
ATOM     45  C   UNL     1       6.691  -0.844  -9.582  1.00  0.00     0.029 A 
ATOM     46  C   UNL     1       7.264  -0.494 -10.881  1.00  0.00     0.049 A 
ATOM     47  H   UNL     1       7.871   1.392 -11.521  1.00  0.00     0.167 HD
ATOM     48  C   UNL     1       8.957   5.413 -12.836  1.00  0.00     0.037 A 
ATOM     49  C   UNL     1       7.503  -1.351 -11.894  1.00  0.00     0.037 A 
ATOM     50  C   UNL     1       9.304   4.564 -13.942  1.00  0.00     0.049 A 
ATOM     51  C   UNL     1       8.095  -0.836 -13.182  1.00  0.00     0.074 A 
ATOM     52  C   UNL     1       9.908   4.912 -15.137  1.00  0.00     0.029 A 
ATOM     53  N   UNL     1       9.087   3.196 -13.983  1.00  0.00    -0.354 N 
ATOM     54  N   UNL     1       8.455   0.384 -13.499  1.00  0.00    -0.248 NA
ATOM     55  C   UNL     1       8.315  -1.821 -14.254  1.00  0.00     0.031 C 
ATOM     56  C   UNL     1      10.025   3.757 -15.918  1.00  0.00     0.029 A 
ATOM     57  C   UNL     1       9.532   2.686 -15.190  1.00  0.00     0.049 A 
ATOM     58  H   UNL     1       8.678   2.667 -13.261  1.00  0.00     0.167 HD
ATOM     59  C   UNL     1       8.969   0.308 -14.789  1.00  0.00     0.074 A 
ATOM     60  C   UNL     1       8.886  -1.079 -15.193  1.00  0.00     0.031 C 
ATOM     61  C   UNL     1       9.464   1.299 -15.570  1.00  0.00     0.037 A 
BRANCH  48  62
ATOM     62  C   UNL     1       9.203   6.887 -12.959  1.00  0.00     0.057 A 
ATOM     63  C   UNL     1      10.208   7.534 -12.226  1.00  0.00     0.134 A 
ATOM     64  C   UNL     1       8.425   7.669 -13.822  1.00  0.00     0.134 A 
ATOM     65  F   UNL     1      10.974   6.844 -11.368  1.00  0.00    -0.206 F 
ATOM     66  C   UNL     1      10.406   8.912 -12.321  1.00  0.00     0.040 A 
ATOM     67  C   UNL     1       8.634   9.043 -13.947  1.00  0.00     0.040 A 
ATOM     68  F   UNL     1       7.449   7.111 -14.554  1.00  0.00    -0.206 F 
ATOM     69  C   UNL     1       9.621   9.669 -13.188  1.00  0.00     0.006 A 
ENDBRANCH  48  62
BRANCH  49  70
ATOM     70  C   UNL     1       7.189  -2.797 -11.748  1.00  0.00     0.057 A 
ATOM     71  C   UNL     1       8.210  -3.755 -11.688  1.00  0.00     0.134 A 
ATOM     72  C   UNL     1       5.869  -3.260 -11.717  1.00  0.00     0.134 A 
ATOM     73  F   UNL     1       9.495  -3.375 -11.740  1.00  0.00    -0.206 F 
ATOM     74  C   UNL     1       7.929  -5.121 -11.626  1.00  0.00     0.040 A 
ATOM     75  C   UNL     1       5.574  -4.623 -11.631  1.00  0.00     0.040 A 
ATOM     76  F   UNL     1       4.847  -2.395 -11.772  1.00  0.00    -0.206 F 
ATOM     77  C   UNL     1       6.607  -5.558 -11.595  1.00  0.00     0.006 A 
ENDBRANCH  49  70
BRANCH  61  78
ATOM     78  C   UNL     1       9.997   0.922 -16.921  1.00  0.00     0.057 A 
ATOM     79  C   UNL     1       9.149   0.583 -17.982  1.00  0.00     0.134 A 
ATOM     80  C   UNL     1      11.373   0.967 -17.181  1.00  0.00     0.134 A 
ATOM     81  F   UNL     1       7.822   0.512 -17.796  1.00  0.00    -0.206 F 
ATOM     82  C   UNL     1       9.651   0.289 -19.251  1.00  0.00     0.040 A 
ATOM     83  C   UNL     1      11.885   0.699 -18.451  1.00  0.00     0.040 A 
ATOM     84  F   UNL     1      12.239   1.295 -16.210  1.00  0.00    -0.206 F 
ATOM     85  C   UNL     1      11.023   0.356 -19.490  1.00  0.00     0.006 A 
ENDBRANCH  61  78
ENDBRANCH  35  36
ENDBRANCH  28  30
ENDBRANCH  27  28
ENDBRANCH  26  27
ENDBRANCH  25  26
ENDBRANCH  24  25
ENDBRANCH   1  24
TORSDOF 18
