REMARK SMILES Cc1nc(-c2ccccn2)cc(N2CCC[C@H](C(=O)OCCOCCOC(=O)c3ccc(-c4c5nc(c(-c6c(F)cccc6F)c6ccc([nH]6)c(-c6c(F)cccc6F)c6nc(c(-c7c(F)cccc7F)c7ccc4[nH]7)C=C6)C=C5)cc3)C2)n1
REMARK SMILES IDX 23 1 22 2 21 3 20 4 18 5 19 6 17 7 13 8 14 9 83 10 15 11
REMARK SMILES IDX 16 12 12 13 1 14 2 15 3 16 84 17 4 18 11 19 5 20 6 21 10 22
REMARK SMILES IDX 7 23 9 24 8 25 24 26 25 27 26 28 27 29 28 30 29 31 30 32
REMARK SMILES IDX 82 33 31 34 81 35 32 36 33 37 34 38 75 39 35 40 80 41 74 42
REMARK SMILES IDX 76 43 36 44 79 45 73 46 72 47 37 49 63 50 46 51 62 52 47 53
REMARK SMILES IDX 50 54 61 55 77 56 48 57 49 58 60 60 78 61 51 62 38 63 39 64
REMARK SMILES IDX 44 65 40 66 41 67 43 68 45 69 42 70 64 71 65 72 70 73 66 74
REMARK SMILES IDX 67 75 69 76 71 77 68 78 52 79 53 80 58 81 54 82 55 83 57 84
REMARK SMILES IDX 59 85 56 86
REMARK H PARENT 76 48 50 59
REMARK Flexibility Score: inf
ROOT
ATOM      1  O   UNL     1       6.641   2.264   3.047  1.00  0.00    -0.374 OA
ENDROOT
BRANCH   1   2
ATOM      2  C   UNL     1       5.891   1.107   2.679  1.00  0.00     0.202 C 
BRANCH   2   3
ATOM      3  C   UNL     1       4.371   1.250   2.773  1.00  0.00     0.261 C 
BRANCH   3   4
ATOM      4  O   UNL     1       3.861   2.086   1.717  1.00  0.00    -0.463 OA
BRANCH   4   5
ATOM      5  C   UNL     1       3.087   3.137   2.098  1.00  0.00     0.310 C 
ATOM      6  O   UNL     1       2.795   3.400   3.260  1.00  0.00    -0.252 OA
BRANCH   5   7
ATOM      7  C   UNL     1       2.563   3.957   0.931  1.00  0.00     0.118 C 
ATOM      8  N   UNL     1       1.558   2.219  -0.412  1.00  0.00    -0.356 N 
ATOM      9  C   UNL     1       2.311   2.490  -1.623  1.00  0.00     0.118 C 
ATOM     10  C   UNL     1       1.247   3.341   0.459  1.00  0.00     0.133 C 
ATOM     11  C   UNL     1       3.673   3.048  -1.223  1.00  0.00     0.022 C 
ATOM     12  C   UNL     1       3.549   4.207  -0.226  1.00  0.00     0.019 C 
BRANCH   8  13
ATOM     13  C   UNL     1       0.861   1.044  -0.264  1.00  0.00     0.132 A 
ATOM     14  C   UNL     1      -2.600  -0.043   0.164  1.00  0.00     0.090 C 
ATOM     15  C   UNL     1      -1.107  -0.073   0.095  1.00  0.00     0.128 A 
ATOM     16  N   UNL     1      -0.508  -1.268   0.212  1.00  0.00    -0.231 NA
ATOM     17  N   UNL     1      -0.468   1.092  -0.102  1.00  0.00    -0.216 NA
ATOM     18  C   UNL     1       0.837  -1.293   0.091  1.00  0.00     0.094 A 
ATOM     19  C   UNL     1       1.554  -0.147  -0.193  1.00  0.00     0.077 A 
BRANCH  18  20
ATOM     20  C   UNL     1       1.506  -2.586   0.343  1.00  0.00     0.089 A 
ATOM     21  C   UNL     1       2.657  -2.675   1.133  1.00  0.00     0.030 A 
ATOM     22  N   UNL     1       0.950  -3.688  -0.222  1.00  0.00    -0.255 NA
ATOM     23  C   UNL     1       3.257  -3.916   1.338  1.00  0.00     0.004 A 
ATOM     24  C   UNL     1       1.541  -4.882   0.009  1.00  0.00     0.112 A 
ATOM     25  C   UNL     1       2.690  -5.043   0.761  1.00  0.00     0.020 A 
ENDBRANCH  18  20
ENDBRANCH   8  13
ENDBRANCH   5   7
ENDBRANCH   4   5
ENDBRANCH   3   4
ENDBRANCH   2   3
ENDBRANCH   1   2
BRANCH   1  26
ATOM     26  C   UNL     1       6.652   3.350   2.124  1.00  0.00     0.202 C 
BRANCH  26  27
ATOM     27  C   UNL     1       7.628   3.214   0.949  1.00  0.00     0.261 C 
BRANCH  27  28
ATOM     28  O   UNL     1       7.277   2.141   0.054  1.00  0.00    -0.460 OA
BRANCH  28  29
ATOM     29  C   UNL     1       8.112   1.077   0.091  1.00  0.00     0.338 C 
ATOM     30  O   UNL     1       9.123   0.951   0.771  1.00  0.00    -0.246 OA
BRANCH  29  31
ATOM     31  C   UNL     1       7.579  -0.034  -0.718  1.00  0.00     0.060 A 
ATOM     32  C   UNL     1       7.494  -1.296  -0.114  1.00  0.00     0.016 A 
ATOM     33  C   UNL     1       7.279   0.124  -2.073  1.00  0.00     0.016 A 
ATOM     34  C   UNL     1       7.160  -2.414  -0.877  1.00  0.00     0.010 A 
ATOM     35  C   UNL     1       6.956  -1.002  -2.839  1.00  0.00     0.010 A 
ATOM     36  C   UNL     1       6.932  -2.280  -2.253  1.00  0.00    -0.014 A 
BRANCH  36  37
ATOM     37  C   UNL     1       6.803  -3.494  -3.095  1.00  0.00     0.031 A 
ATOM     38  C   UNL     1       8.007  -4.019  -3.824  1.00  0.00     0.074 A 
ATOM     39  C   UNL     1       5.623  -4.126  -3.209  1.00  0.00     0.049 A 
ATOM     40  N   UNL     1       8.106  -5.050  -4.624  1.00  0.00    -0.248 NA
ATOM     41  C   UNL     1       9.261  -3.272  -3.643  1.00  0.00     0.031 C 
ATOM     42  C   UNL     1       4.380  -3.700  -2.574  1.00  0.00     0.029 A 
ATOM     43  N   UNL     1       5.279  -5.258  -3.905  1.00  0.00    -0.354 N 
ATOM     44  C   UNL     1       9.420  -5.053  -5.074  1.00  0.00     0.074 A 
ATOM     45  C   UNL     1      10.081  -3.925  -4.453  1.00  0.00     0.031 C 
ATOM     46  C   UNL     1       3.410  -4.571  -2.900  1.00  0.00     0.029 A 
ATOM     47  C   UNL     1       3.962  -5.617  -3.755  1.00  0.00     0.049 A 
ATOM     48  H   UNL     1       5.916  -5.765  -4.459  1.00  0.00     0.167 HD
ATOM     49  C   UNL     1      10.015  -5.910  -5.938  1.00  0.00     0.037 A 
ATOM     50  C   UNL     1       3.283  -6.673  -4.242  1.00  0.00     0.037 A 
ATOM     51  C   UNL     1       9.361  -7.037  -6.549  1.00  0.00     0.049 A 
ATOM     52  C   UNL     1       3.984  -7.646  -5.151  1.00  0.00     0.074 A 
ATOM     53  C   UNL     1       9.886  -7.964  -7.433  1.00  0.00     0.029 A 
ATOM     54  N   UNL     1       8.037  -7.390  -6.341  1.00  0.00    -0.354 N 
ATOM     55  N   UNL     1       5.231  -7.650  -5.553  1.00  0.00    -0.248 NA
ATOM     56  C   UNL     1       3.176  -8.752  -5.688  1.00  0.00     0.031 C 
ATOM     57  C   UNL     1       8.870  -8.858  -7.786  1.00  0.00     0.029 A 
ATOM     58  C   UNL     1       7.724  -8.514  -7.088  1.00  0.00     0.049 A 
ATOM     59  H   UNL     1       7.411  -6.912  -5.749  1.00  0.00     0.167 HD
ATOM     60  C   UNL     1       5.357  -8.750  -6.391  1.00  0.00     0.074 A 
ATOM     61  C   UNL     1       4.070  -9.414  -6.410  1.00  0.00     0.031 C 
ATOM     62  C   UNL     1       6.438  -9.163  -7.097  1.00  0.00     0.037 A 
BRANCH  49  63
ATOM     63  C   UNL     1      11.442  -5.631  -6.307  1.00  0.00     0.057 A 
ATOM     64  C   UNL     1      12.498  -5.863  -5.418  1.00  0.00     0.134 A 
ATOM     65  C   UNL     1      11.762  -5.143  -7.580  1.00  0.00     0.134 A 
ATOM     66  F   UNL     1      12.257  -6.314  -4.178  1.00  0.00    -0.206 F 
ATOM     67  C   UNL     1      13.822  -5.600  -5.776  1.00  0.00     0.040 A 
ATOM     68  C   UNL     1      13.082  -4.898  -7.958  1.00  0.00     0.040 A 
ATOM     69  F   UNL     1      10.796  -4.901  -8.479  1.00  0.00    -0.206 F 
ATOM     70  C   UNL     1      14.117  -5.122  -7.052  1.00  0.00     0.006 A 
ENDBRANCH  49  63
BRANCH  50  71
ATOM     71  C   UNL     1       1.868  -6.893  -3.849  1.00  0.00     0.057 A 
ATOM     72  C   UNL     1       1.519  -7.957  -3.009  1.00  0.00     0.134 A 
ATOM     73  C   UNL     1       0.838  -6.057  -4.293  1.00  0.00     0.134 A 
ATOM     74  F   UNL     1       2.461  -8.803  -2.564  1.00  0.00    -0.206 F 
ATOM     75  C   UNL     1       0.196  -8.191  -2.633  1.00  0.00     0.040 A 
ATOM     76  C   UNL     1      -0.486  -6.261  -3.901  1.00  0.00     0.040 A 
ATOM     77  F   UNL     1       1.107  -5.023  -5.103  1.00  0.00    -0.206 F 
ATOM     78  C   UNL     1      -0.811  -7.335  -3.074  1.00  0.00     0.006 A 
ENDBRANCH  50  71
BRANCH  62  79
ATOM     79  C   UNL     1       6.278 -10.389  -7.947  1.00  0.00     0.057 A 
ATOM     80  C   UNL     1       5.555 -10.361  -9.146  1.00  0.00     0.134 A 
ATOM     81  C   UNL     1       6.891 -11.595  -7.588  1.00  0.00     0.134 A 
ATOM     82  F   UNL     1       4.936  -9.238  -9.541  1.00  0.00    -0.206 F 
ATOM     83  C   UNL     1       5.432 -11.496  -9.950  1.00  0.00     0.040 A 
ATOM     84  C   UNL     1       6.794 -12.730  -8.394  1.00  0.00     0.040 A 
ATOM     85  F   UNL     1       7.606 -11.686  -6.456  1.00  0.00    -0.206 F 
ATOM     86  C   UNL     1       6.058 -12.684  -9.577  1.00  0.00     0.006 A 
ENDBRANCH  62  79
ENDBRANCH  36  37
ENDBRANCH  29  31
ENDBRANCH  28  29
ENDBRANCH  27  28
ENDBRANCH  26  27
ENDBRANCH   1  26
TORSDOF 16
