REMARK SMILES Cc1ccc(C[C@@H](Cc2cc(F)cc(Br)c2)C(=O)OCCOCCOC(=O)c2ccc(-c3c4nc(c(-c5c(F)cccc5F)c5ccc([nH]5)c(-c5c(F)cccc5F)c5nc(c(-c6c(F)cccc6F)c6ccc3[nH]6)C=C5)C=C4)cc2)cc1
REMARK SMILES IDX 22 1 21 2 20 3 19 4 17 5 18 6 7 7 6 8 5 9 1 10 2 11 3 12
REMARK SMILES IDX 83 13 4 14 82 15 8 16 9 17 10 18 16 19 11 20 14 21 12 22
REMARK SMILES IDX 13 23 15 24 23 25 24 26 25 27 26 28 27 29 28 30 29 31 81 32
REMARK SMILES IDX 30 33 80 34 31 35 32 36 33 37 74 38 34 39 79 40 73 41 75 42
REMARK SMILES IDX 35 43 78 44 72 45 71 46 36 48 62 49 45 50 61 51 46 52 49 53
REMARK SMILES IDX 60 54 76 55 47 56 48 57 59 59 77 60 50 61 37 62 38 63 43 64
REMARK SMILES IDX 39 65 40 66 42 67 44 68 41 69 63 70 64 71 69 72 65 73 66 74
REMARK SMILES IDX 68 75 70 76 67 77 51 78 52 79 57 80 53 81 54 82 56 83 58 84
REMARK SMILES IDX 55 85
REMARK H PARENT 75 47 49 58
REMARK Flexibility Score: inf
ROOT
ATOM      1  O   UNL     1      -6.242   1.903  -0.469  1.00  0.00    -0.374 OA
ENDROOT
BRANCH   1   2
ATOM      2  C   UNL     1      -5.872   1.335   0.772  1.00  0.00     0.202 C 
BRANCH   2   3
ATOM      3  C   UNL     1      -5.859  -0.139   0.507  1.00  0.00     0.261 C 
BRANCH   3   4
ATOM      4  O   UNL     1      -4.800  -0.474  -0.405  1.00  0.00    -0.463 OA
BRANCH   4   5
ATOM      5  C   UNL     1      -4.602  -0.185  -1.728  1.00  0.00     0.309 C 
ATOM      6  O   UNL     1      -5.437   0.214  -2.536  1.00  0.00    -0.252 OA
BRANCH   5   7
ATOM      7  C   UNL     1      -3.115  -0.416  -2.038  1.00  0.00     0.108 C 
BRANCH   7   8
ATOM      8  C   UNL     1      -2.486  -0.124  -0.629  1.00  0.00     0.051 C 
BRANCH   8   9
ATOM      9  C   UNL     1      -1.021  -0.057  -0.447  1.00  0.00    -0.047 A 
ATOM     10  C   UNL     1       3.182   0.120   0.128  1.00  0.00     0.044 C 
ATOM     11  C   UNL     1       1.696   0.077   0.013  1.00  0.00    -0.051 A 
ATOM     12  C   UNL     1       1.052  -1.162   0.051  1.00  0.00     0.004 A 
ATOM     13  C   UNL     1       0.962   1.252  -0.190  1.00  0.00     0.004 A 
ATOM     14  C   UNL     1      -0.309  -1.226  -0.161  1.00  0.00     0.004 A 
ATOM     15  C   UNL     1      -0.398   1.186  -0.428  1.00  0.00     0.004 A 
ENDBRANCH   8   9
ENDBRANCH   7   8
BRANCH   7  16
ATOM     16  C   UNL     1      -2.517  -1.748  -2.614  1.00  0.00     0.051 C 
BRANCH  16  17
ATOM     17  C   UNL     1      -3.057  -2.976  -3.325  1.00  0.00    -0.043 A 
ATOM     18  C   UNL     1      -2.254  -4.143  -3.218  1.00  0.00     0.043 A 
ATOM     19  C   UNL     1      -4.352  -3.142  -3.756  1.00  0.00     0.019 A 
ATOM     20  C   UNL     1      -2.815  -5.413  -3.185  1.00  0.00     0.124 A 
ATOM     21  C   UNL     1      -4.905  -4.411  -3.545  1.00  0.00     0.021 A 
ATOM     22  F   UNL     1      -2.066  -6.486  -2.910  1.00  0.00    -0.207 F 
ATOM     23  C   UNL     1      -4.167  -5.541  -3.237  1.00  0.00     0.055 A 
ATOM     24  Br  UNL     1      -6.715  -4.558  -3.168  1.00  0.00    -0.051 Br
ENDBRANCH  16  17
ENDBRANCH   7  16
ENDBRANCH   5   7
ENDBRANCH   4   5
ENDBRANCH   3   4
ENDBRANCH   2   3
ENDBRANCH   1   2
BRANCH   1  25
ATOM     25  C   UNL     1      -6.011   3.286  -0.607  1.00  0.00     0.202 C 
BRANCH  25  26
ATOM     26  C   UNL     1      -6.929   4.091   0.314  1.00  0.00     0.261 C 
BRANCH  26  27
ATOM     27  O   UNL     1      -8.309   3.842  -0.038  1.00  0.00    -0.460 OA
BRANCH  27  28
ATOM     28  C   UNL     1      -8.949   2.882   0.688  1.00  0.00     0.338 C 
ATOM     29  O   UNL     1      -8.956   2.804   1.906  1.00  0.00    -0.246 OA
BRANCH  28  30
ATOM     30  C   UNL     1      -9.381   1.765  -0.209  1.00  0.00     0.060 A 
ATOM     31  C   UNL     1      -9.778   0.542   0.358  1.00  0.00     0.016 A 
ATOM     32  C   UNL     1      -9.001   1.815  -1.547  1.00  0.00     0.016 A 
ATOM     33  C   UNL     1      -9.578  -0.651  -0.347  1.00  0.00     0.010 A 
ATOM     34  C   UNL     1      -8.663   0.634  -2.174  1.00  0.00     0.010 A 
ATOM     35  C   UNL     1      -8.883  -0.612  -1.562  1.00  0.00    -0.014 A 
BRANCH  35  36
ATOM     36  C   UNL     1      -8.090  -1.736  -2.142  1.00  0.00     0.031 A 
ATOM     37  C   UNL     1      -8.138  -1.866  -3.707  1.00  0.00     0.074 A 
ATOM     38  C   UNL     1      -7.274  -2.330  -1.215  1.00  0.00     0.049 A 
ATOM     39  N   UNL     1      -7.385  -2.504  -4.560  1.00  0.00    -0.248 NA
ATOM     40  C   UNL     1      -9.322  -1.340  -4.399  1.00  0.00     0.031 C 
ATOM     41  C   UNL     1      -5.877  -2.728  -1.239  1.00  0.00     0.029 A 
ATOM     42  N   UNL     1      -7.690  -3.018  -0.064  1.00  0.00    -0.354 N 
ATOM     43  C   UNL     1      -8.070  -2.736  -5.745  1.00  0.00     0.074 A 
ATOM     44  C   UNL     1      -9.198  -1.830  -5.636  1.00  0.00     0.031 C 
ATOM     45  C   UNL     1      -5.596  -3.761  -0.443  1.00  0.00     0.029 A 
ATOM     46  C   UNL     1      -6.862  -4.137   0.109  1.00  0.00     0.049 A 
ATOM     47  H   UNL     1      -8.437  -2.760   0.523  1.00  0.00     0.167 HD
ATOM     48  C   UNL     1      -7.930  -3.817  -6.607  1.00  0.00     0.037 A 
ATOM     49  C   UNL     1      -6.900  -5.214   0.906  1.00  0.00     0.037 A 
ATOM     50  C   UNL     1      -7.355  -5.112  -6.077  1.00  0.00     0.049 A 
ATOM     51  C   UNL     1      -7.019  -6.459  -0.018  1.00  0.00     0.074 A 
ATOM     52  C   UNL     1      -6.116  -5.738  -6.188  1.00  0.00     0.029 A 
ATOM     53  N   UNL     1      -8.082  -5.995  -5.203  1.00  0.00    -0.354 N 
ATOM     54  N   UNL     1      -6.856  -6.442  -1.333  1.00  0.00    -0.248 NA
ATOM     55  C   UNL     1      -7.340  -7.816   0.401  1.00  0.00     0.031 C 
ATOM     56  C   UNL     1      -6.058  -6.880  -5.314  1.00  0.00     0.029 A 
ATOM     57  C   UNL     1      -7.213  -6.928  -4.526  1.00  0.00     0.049 A 
ATOM     58  H   UNL     1      -9.059  -5.966  -5.081  1.00  0.00     0.167 HD
ATOM     59  C   UNL     1      -7.298  -7.599  -1.969  1.00  0.00     0.074 A 
ATOM     60  C   UNL     1      -7.441  -8.465  -0.783  1.00  0.00     0.031 C 
ATOM     61  C   UNL     1      -7.618  -7.810  -3.338  1.00  0.00     0.037 A 
BRANCH  48  62
ATOM     62  C   UNL     1      -7.990  -3.516  -8.141  1.00  0.00     0.057 A 
ATOM     63  C   UNL     1      -7.066  -4.101  -9.040  1.00  0.00     0.134 A 
ATOM     64  C   UNL     1      -8.849  -2.599  -8.785  1.00  0.00     0.134 A 
ATOM     65  F   UNL     1      -6.194  -5.038  -8.660  1.00  0.00    -0.206 F 
ATOM     66  C   UNL     1      -6.962  -3.760 -10.403  1.00  0.00     0.040 A 
ATOM     67  C   UNL     1      -8.733  -2.220 -10.138  1.00  0.00     0.040 A 
ATOM     68  F   UNL     1      -9.902  -2.053  -8.178  1.00  0.00    -0.206 F 
ATOM     69  C   UNL     1      -7.781  -2.795 -10.956  1.00  0.00     0.006 A 
ENDBRANCH  48  62
BRANCH  49  70
ATOM     70  C   UNL     1      -7.127  -4.721   2.312  1.00  0.00     0.057 A 
ATOM     71  C   UNL     1      -5.982  -4.104   2.901  1.00  0.00     0.134 A 
ATOM     72  C   UNL     1      -8.348  -4.087   2.616  1.00  0.00     0.134 A 
ATOM     73  F   UNL     1      -4.759  -4.613   2.676  1.00  0.00    -0.206 F 
ATOM     74  C   UNL     1      -6.026  -2.838   3.523  1.00  0.00     0.040 A 
ATOM     75  C   UNL     1      -8.397  -2.808   3.224  1.00  0.00     0.040 A 
ATOM     76  F   UNL     1      -9.485  -4.545   2.075  1.00  0.00    -0.206 F 
ATOM     77  C   UNL     1      -7.233  -2.159   3.632  1.00  0.00     0.006 A 
ENDBRANCH  49  70
BRANCH  61  78
ATOM     78  C   UNL     1      -8.393  -9.046  -3.777  1.00  0.00     0.057 A 
ATOM     79  C   UNL     1      -9.324  -9.711  -2.969  1.00  0.00     0.134 A 
ATOM     80  C   UNL     1      -8.335  -9.510  -5.114  1.00  0.00     0.134 A 
ATOM     81  F   UNL     1      -9.648  -9.265  -1.749  1.00  0.00    -0.206 F 
ATOM     82  C   UNL     1     -10.028 -10.836  -3.406  1.00  0.00     0.040 A 
ATOM     83  C   UNL     1      -9.102 -10.574  -5.586  1.00  0.00     0.040 A 
ATOM     84  F   UNL     1      -7.562  -8.940  -6.048  1.00  0.00    -0.206 F 
ATOM     85  C   UNL     1      -9.924 -11.268  -4.720  1.00  0.00     0.006 A 
ENDBRANCH  61  78
ENDBRANCH  35  36
ENDBRANCH  28  30
ENDBRANCH  27  28
ENDBRANCH  26  27
ENDBRANCH  25  26
ENDBRANCH   1  25
TORSDOF 18
