REMARK SMILES C[C@@H]1CCCN(C(=O)CSc2nnc3c4ccccc4n(CC(=O)OCCOCCOC(=O)c4ccc(-c5c6nc(c(-c7c(F)cccc7F)c7ccc([nH]7)c(-c7c(F)cccc7F)c7nc(c(-c8c(F)cccc8F)c8ccc5[nH]8)C=C7)C=C6)cc4)c3n2)C1
REMARK SMILES IDX 26 1 25 2 23 3 24 4 22 5 21 6 11 7 12 8 89 9 13 10 88 11
REMARK SMILES IDX 14 12 15 13 20 14 16 15 19 16 17 17 18 18 10 19 9 20 7 21
REMARK SMILES IDX 8 22 6 23 1 24 2 25 3 26 90 27 4 28 5 29 27 30 28 31 29 32
REMARK SMILES IDX 30 33 31 34 32 35 33 36 34 37 35 38 87 39 36 40 86 41 37 42
REMARK SMILES IDX 38 43 39 44 80 45 40 46 85 47 79 48 81 49 41 50 84 51 78 52
REMARK SMILES IDX 77 53 42 55 68 56 51 57 67 58 52 59 55 60 66 61 82 62 53 63
REMARK SMILES IDX 54 64 65 66 83 67 56 68 43 69 44 70 49 71 45 72 46 73 48 74
REMARK SMILES IDX 50 75 47 76 69 77 70 78 75 79 71 80 72 81 74 82 76 83 73 84
REMARK SMILES IDX 57 85 58 86 63 87 59 88 60 89 62 90 64 91 61 92
REMARK H PARENT 81 54 55 65
REMARK Flexibility Score: inf
ROOT
ATOM      1  C   UNL     1       5.327   2.962   7.375  1.00  0.00     0.261 C 
ENDROOT
BRANCH   1   2
ATOM      2  O   UNL     1       4.586   3.465   6.245  1.00  0.00    -0.462 OA
BRANCH   2   3
ATOM      3  C   UNL     1       3.301   3.030   6.172  1.00  0.00     0.326 C 
ATOM      4  O   UNL     1       2.807   2.224   6.960  1.00  0.00    -0.250 OA
BRANCH   3   5
ATOM      5  C   UNL     1       2.462   3.605   5.061  1.00  0.00     0.246 C 
BRANCH   5   6
ATOM      6  N   UNL     1       3.012   4.683   4.249  1.00  0.00    -0.313 N 
ATOM      7  C   UNL     1       4.119   3.502   1.093  1.00  0.00     0.211 A 
ATOM      8  N   UNL     1       4.466   4.687   0.526  1.00  0.00    -0.122 NA
ATOM      9  N   UNL     1       3.648   3.313   2.346  1.00  0.00    -0.201 NA
ATOM     10  N   UNL     1       4.345   5.826   1.206  1.00  0.00    -0.144 NA
ATOM     11  C   UNL     1       3.518   4.489   2.987  1.00  0.00     0.165 A 
ATOM     12  C   UNL     1       3.846   5.727   2.464  1.00  0.00     0.138 A 
ATOM     13  C   UNL     1       3.519   6.712   3.427  1.00  0.00     0.030 A 
ATOM     14  C   UNL     1       2.877   6.047   4.484  1.00  0.00     0.053 A 
ATOM     15  C   UNL     1       3.650   8.116   3.474  1.00  0.00     0.013 A 
ATOM     16  C   UNL     1       2.255   6.766   5.521  1.00  0.00     0.027 A 
ATOM     17  C   UNL     1       3.115   8.824   4.553  1.00  0.00     0.001 A 
ATOM     18  C   UNL     1       2.404   8.159   5.547  1.00  0.00     0.002 A 
BRANCH   7  19
ATOM     19  S   UNL     1       4.475   2.024   0.181  1.00  0.00    -0.074 SA
BRANCH  19  20
ATOM     20  C   UNL     1       3.264   2.178  -1.162  1.00  0.00     0.178 C 
BRANCH  20  21
ATOM     21  C   UNL     1       1.822   2.274  -0.684  1.00  0.00     0.233 C 
ATOM     22  O   UNL     1       1.228   3.351  -0.796  1.00  0.00    -0.274 OA
BRANCH  21  23
ATOM     23  N   UNL     1       1.179   1.133  -0.208  1.00  0.00    -0.342 N 
ATOM     24  C   UNL     1      -2.493   0.096   0.099  1.00  0.00     0.009 C 
ATOM     25  C   UNL     1      -1.031   0.015  -0.332  1.00  0.00     0.005 C 
ATOM     26  C   UNL     1      -0.388  -1.282   0.173  1.00  0.00     0.007 C 
ATOM     27  C   UNL     1      -0.236   1.230   0.165  1.00  0.00     0.122 C 
ATOM     28  C   UNL     1       1.075  -1.348  -0.251  1.00  0.00     0.022 C 
ATOM     29  C   UNL     1       1.848  -0.108   0.184  1.00  0.00     0.119 C 
ENDBRANCH  21  23
ENDBRANCH  20  21
ENDBRANCH  19  20
ENDBRANCH   7  19
ENDBRANCH   5   6
ENDBRANCH   3   5
ENDBRANCH   2   3
ENDBRANCH   1   2
BRANCH   1  30
ATOM     30  C   UNL     1       5.708   4.027   8.416  1.00  0.00     0.202 C 
BRANCH  30  31
ATOM     31  O   UNL     1       4.754   4.981   8.853  1.00  0.00    -0.374 OA
BRANCH  31  32
ATOM     32  C   UNL     1       4.304   5.927   7.891  1.00  0.00     0.202 C 
BRANCH  32  33
ATOM     33  C   UNL     1       5.310   6.905   7.253  1.00  0.00     0.261 C 
BRANCH  33  34
ATOM     34  O   UNL     1       6.398   6.250   6.601  1.00  0.00    -0.460 OA
BRANCH  34  35
ATOM     35  C   UNL     1       7.614   6.824   6.806  1.00  0.00     0.338 C 
ATOM     36  O   UNL     1       7.855   7.976   7.132  1.00  0.00    -0.246 OA
BRANCH  35  37
ATOM     37  C   UNL     1       8.518   5.682   7.014  1.00  0.00     0.060 A 
ATOM     38  C   UNL     1       8.514   4.619   6.105  1.00  0.00     0.016 A 
ATOM     39  C   UNL     1       8.996   5.529   8.325  1.00  0.00     0.016 A 
ATOM     40  C   UNL     1       8.863   3.358   6.565  1.00  0.00     0.010 A 
ATOM     41  C   UNL     1       9.307   4.260   8.787  1.00  0.00     0.010 A 
ATOM     42  C   UNL     1       9.183   3.170   7.923  1.00  0.00    -0.014 A 
BRANCH  42  43
ATOM     43  C   UNL     1       9.660   1.852   8.340  1.00  0.00     0.031 A 
ATOM     44  C   UNL     1      10.994   1.584   7.739  1.00  0.00     0.074 A 
ATOM     45  C   UNL     1       9.089   1.035   9.251  1.00  0.00     0.049 A 
ATOM     46  N   UNL     1      11.289   0.714   6.831  1.00  0.00    -0.248 NA
ATOM     47  C   UNL     1      12.065   2.561   8.008  1.00  0.00     0.031 C 
ATOM     48  C   UNL     1       7.923   1.280  10.096  1.00  0.00     0.029 A 
ATOM     49  N   UNL     1       9.502  -0.196   9.680  1.00  0.00    -0.354 N 
ATOM     50  C   UNL     1      12.646   0.900   6.577  1.00  0.00     0.074 A 
ATOM     51  C   UNL     1      12.995   2.175   7.136  1.00  0.00     0.031 C 
ATOM     52  C   UNL     1       7.856   0.350  11.076  1.00  0.00     0.029 A 
ATOM     53  C   UNL     1       8.905  -0.626  10.867  1.00  0.00     0.049 A 
ATOM     54  H   UNL     1      10.165  -0.735   9.191  1.00  0.00     0.167 HD
ATOM     55  C   UNL     1      13.434  -0.142   6.203  1.00  0.00     0.037 A 
ATOM     56  C   UNL     1       9.295  -1.673  11.644  1.00  0.00     0.037 A 
ATOM     57  C   UNL     1      12.640  -1.227   5.684  1.00  0.00     0.049 A 
ATOM     58  C   UNL     1      10.155  -2.547  10.810  1.00  0.00     0.074 A 
ATOM     59  C   UNL     1      11.769  -1.383   4.624  1.00  0.00     0.029 A 
ATOM     60  N   UNL     1      12.400  -2.286   6.524  1.00  0.00    -0.354 N 
ATOM     61  N   UNL     1       9.702  -3.253   9.812  1.00  0.00    -0.248 NA
ATOM     62  C   UNL     1      11.576  -2.239  10.770  1.00  0.00     0.031 C 
ATOM     63  C   UNL     1      10.742  -2.244   5.111  1.00  0.00     0.029 A 
ATOM     64  C   UNL     1      11.078  -2.620   6.411  1.00  0.00     0.049 A 
ATOM     65  H   UNL     1      13.062  -2.727   7.104  1.00  0.00     0.167 HD
ATOM     66  C   UNL     1      10.652  -3.092   8.815  1.00  0.00     0.074 A 
ATOM     67  C   UNL     1      11.814  -2.506   9.482  1.00  0.00     0.031 C 
ATOM     68  C   UNL     1      10.305  -3.170   7.497  1.00  0.00     0.037 A 
BRANCH  55  69
ATOM     69  C   UNL     1      14.835  -0.355   6.737  1.00  0.00     0.057 A 
ATOM     70  C   UNL     1      15.360   0.255   7.898  1.00  0.00     0.134 A 
ATOM     71  C   UNL     1      15.566  -1.460   6.268  1.00  0.00     0.134 A 
ATOM     72  F   UNL     1      14.782   1.295   8.505  1.00  0.00    -0.206 F 
ATOM     73  C   UNL     1      16.476  -0.239   8.576  1.00  0.00     0.040 A 
ATOM     74  C   UNL     1      16.655  -1.991   6.968  1.00  0.00     0.040 A 
ATOM     75  F   UNL     1      15.182  -2.121   5.165  1.00  0.00    -0.206 F 
ATOM     76  C   UNL     1      17.102  -1.391   8.137  1.00  0.00     0.006 A 
ENDBRANCH  55  69
BRANCH  56  77
ATOM     77  C   UNL     1       9.244  -1.806  13.121  1.00  0.00     0.057 A 
ATOM     78  C   UNL     1       9.338  -0.679  13.957  1.00  0.00     0.134 A 
ATOM     79  C   UNL     1       9.383  -3.050  13.758  1.00  0.00     0.134 A 
ATOM     80  F   UNL     1       9.309   0.560  13.448  1.00  0.00    -0.206 F 
ATOM     81  C   UNL     1       9.561  -0.779  15.335  1.00  0.00     0.040 A 
ATOM     82  C   UNL     1       9.610  -3.164  15.138  1.00  0.00     0.040 A 
ATOM     83  F   UNL     1       9.363  -4.186  13.044  1.00  0.00    -0.206 F 
ATOM     84  C   UNL     1       9.709  -2.025  15.931  1.00  0.00     0.006 A 
ENDBRANCH  56  77
BRANCH  68  85
ATOM     85  C   UNL     1       8.928  -3.670   7.165  1.00  0.00     0.057 A 
ATOM     86  C   UNL     1       8.809  -4.795   6.343  1.00  0.00     0.134 A 
ATOM     87  C   UNL     1       7.741  -3.004   7.508  1.00  0.00     0.134 A 
ATOM     88  F   UNL     1       9.907  -5.448   5.930  1.00  0.00    -0.206 F 
ATOM     89  C   UNL     1       7.570  -5.247   5.887  1.00  0.00     0.040 A 
ATOM     90  C   UNL     1       6.490  -3.466   7.085  1.00  0.00     0.040 A 
ATOM     91  F   UNL     1       7.764  -1.862   8.209  1.00  0.00    -0.206 F 
ATOM     92  C   UNL     1       6.404  -4.589   6.267  1.00  0.00     0.006 A 
ENDBRANCH  68  85
ENDBRANCH  42  43
ENDBRANCH  35  37
ENDBRANCH  34  35
ENDBRANCH  33  34
ENDBRANCH  32  33
ENDBRANCH  31  32
ENDBRANCH  30  31
ENDBRANCH   1  30
TORSDOF 19
