REMARK SMILES CN(c1ccc(C(=O)OCCOCCOC(=O)c2ccc(-c3c4nc(c(-c5c(F)cccc5F)c5ccc([nH]5)c(-c5c(F)cccc5F)c5nc(c(-c6c(F)cccc6F)c6ccc3[nH]6)C=C5)C=C4)cc2)c(F)c1F)[C@H]1C[C@H]2CC[C@@H](C1)[NH2+]2
REMARK SMILES IDX 12 1 11 2 10 3 9 4 7 5 8 6 6 7 3 8 4 9 74 10 5 11 72 12
REMARK SMILES IDX 75 13 73 14 2 15 1 16 76 17 77 18 82 19 78 20 81 21 79 22
REMARK SMILES IDX 83 23 80 24 13 27 14 28 15 29 16 30 17 31 18 32 19 33 71 34
REMARK SMILES IDX 20 35 70 36 21 37 22 38 23 39 64 40 24 41 69 42 63 43 65 44
REMARK SMILES IDX 25 45 68 46 62 47 61 48 26 50 52 51 35 52 51 53 36 54 39 55
REMARK SMILES IDX 50 56 66 57 37 58 38 59 49 61 67 62 40 63 27 64 28 65 33 66
REMARK SMILES IDX 29 67 30 68 32 69 34 70 31 71 53 72 54 73 59 74 55 75 56 76
REMARK SMILES IDX 58 77 60 78 57 79 41 80 42 81 47 82 43 83 44 84 46 85 48 86
REMARK SMILES IDX 45 87
REMARK H PARENT 83 25 83 26 65 49 39 60
REMARK Flexibility Score: inf
ROOT
ATOM      1  O   UNL     1      -4.035   4.333  -5.489  1.00  0.00    -0.374 OA
ENDROOT
BRANCH   1   2
ATOM      2  C   UNL     1      -4.140   5.684  -5.039  1.00  0.00     0.202 C 
BRANCH   2   3
ATOM      3  C   UNL     1      -4.395   5.882  -3.542  1.00  0.00     0.261 C 
BRANCH   3   4
ATOM      4  O   UNL     1      -3.303   5.366  -2.765  1.00  0.00    -0.460 OA
BRANCH   4   5
ATOM      5  C   UNL     1      -3.635   4.366  -1.918  1.00  0.00     0.341 C 
ATOM      6  O   UNL     1      -4.757   3.972  -1.645  1.00  0.00    -0.246 OA
BRANCH   5   7
ATOM      7  C   UNL     1      -2.435   3.634  -1.491  1.00  0.00     0.099 A 
ATOM      8  C   UNL     1      -0.343   2.101  -0.409  1.00  0.00     0.076 A 
ATOM      9  C   UNL     1      -1.438   1.480  -1.028  1.00  0.00     0.030 A 
ATOM     10  C   UNL     1      -0.266   3.508  -0.465  1.00  0.00     0.182 A 
ATOM     11  C   UNL     1      -2.488   2.236  -1.544  1.00  0.00     0.021 A 
ATOM     12  C   UNL     1      -1.304   4.270  -0.999  1.00  0.00     0.175 A 
ATOM     13  F   UNL     1       0.795   4.144   0.058  1.00  0.00    -0.201 F 
ATOM     14  F   UNL     1      -1.224   5.608  -0.964  1.00  0.00    -0.203 F 
BRANCH   8  15
ATOM     15  N   UNL     1       0.536   1.285   0.325  1.00  0.00    -0.369 N 
ATOM     16  C   UNL     1       1.524   0.611  -0.516  1.00  0.00     0.144 C 
BRANCH  15  17
ATOM     17  C   UNL     1       0.904   1.721   1.705  1.00  0.00     0.093 C 
ATOM     18  C   UNL     1      -0.333   2.160   2.541  1.00  0.00     0.090 C 
ATOM     19  C   UNL     1       1.691   0.653   2.501  1.00  0.00     0.090 C 
ATOM     20  C   UNL     1      -1.030   1.015   3.293  1.00  0.00     0.184 C 
ATOM     21  C   UNL     1       0.807  -0.350   3.262  1.00  0.00     0.184 C 
ATOM     22  C   UNL     1      -1.445  -0.160   2.413  1.00  0.00     0.071 C 
ATOM     23  N   UNL     1      -0.061   0.380   4.194  1.00  0.00    -0.341 N 
ATOM     24  C   UNL     1      -0.217  -1.071   2.389  1.00  0.00     0.071 C 
ATOM     25  H   UNL     1      -0.524  -0.257   4.843  1.00  0.00     0.346 HD
ATOM     26  H   UNL     1       0.441   1.043   4.783  1.00  0.00     0.346 HD
ENDBRANCH  15  17
ENDBRANCH   8  15
ENDBRANCH   5   7
ENDBRANCH   4   5
ENDBRANCH   3   4
ENDBRANCH   2   3
ENDBRANCH   1   2
BRANCH   1  27
ATOM     27  C   UNL     1      -2.804   3.651  -5.249  1.00  0.00     0.202 C 
BRANCH  27  28
ATOM     28  C   UNL     1      -1.626   4.004  -6.165  1.00  0.00     0.261 C 
BRANCH  28  29
ATOM     29  O   UNL     1      -1.182   5.360  -5.985  1.00  0.00    -0.460 OA
BRANCH  29  30
ATOM     30  C   UNL     1      -1.422   6.178  -7.039  1.00  0.00     0.338 C 
ATOM     31  O   UNL     1      -1.884   5.872  -8.124  1.00  0.00    -0.246 OA
BRANCH  30  32
ATOM     32  C   UNL     1      -1.206   7.583  -6.643  1.00  0.00     0.060 A 
ATOM     33  C   UNL     1      -2.257   8.483  -6.859  1.00  0.00     0.016 A 
ATOM     34  C   UNL     1       0.020   8.028  -6.144  1.00  0.00     0.016 A 
ATOM     35  C   UNL     1      -2.071   9.842  -6.621  1.00  0.00     0.010 A 
ATOM     36  C   UNL     1       0.208   9.395  -5.915  1.00  0.00     0.010 A 
ATOM     37  C   UNL     1      -0.826  10.311  -6.184  1.00  0.00    -0.014 A 
BRANCH  37  38
ATOM     38  C   UNL     1      -0.569  11.771  -6.142  1.00  0.00     0.031 A 
ATOM     39  C   UNL     1       0.171  12.417  -7.280  1.00  0.00     0.074 A 
ATOM     40  C   UNL     1      -1.015  12.517  -5.116  1.00  0.00     0.049 A 
ATOM     41  N   UNL     1       0.526  13.666  -7.436  1.00  0.00    -0.248 NA
ATOM     42  C   UNL     1       0.562  11.535  -8.392  1.00  0.00     0.031 C 
ATOM     43  C   UNL     1      -1.774  12.014  -3.973  1.00  0.00     0.029 A 
ATOM     44  N   UNL     1      -0.885  13.861  -4.871  1.00  0.00    -0.354 N 
ATOM     45  C   UNL     1       1.185  13.721  -8.658  1.00  0.00     0.074 A 
ATOM     46  C   UNL     1       1.207  12.375  -9.188  1.00  0.00     0.031 C 
ATOM     47  C   UNL     1      -2.035  13.036  -3.141  1.00  0.00     0.029 A 
ATOM     48  C   UNL     1      -1.437  14.257  -3.678  1.00  0.00     0.049 A 
ATOM     49  H   UNL     1      -0.439  14.481  -5.492  1.00  0.00     0.167 HD
ATOM     50  C   UNL     1       1.716  14.798  -9.285  1.00  0.00     0.037 A 
ATOM     51  C   UNL     1      -1.438  15.463  -3.079  1.00  0.00     0.037 A 
ATOM     52  C   UNL     1       1.693  16.137  -8.758  1.00  0.00     0.049 A 
ATOM     53  C   UNL     1      -0.777  16.630  -3.763  1.00  0.00     0.074 A 
ATOM     54  C   UNL     1       2.184  17.297  -9.330  1.00  0.00     0.029 A 
ATOM     55  N   UNL     1       1.157  16.492  -7.530  1.00  0.00    -0.354 N 
ATOM     56  N   UNL     1      -0.182  16.677  -4.931  1.00  0.00    -0.248 NA
ATOM     57  C   UNL     1      -0.789  17.913  -3.045  1.00  0.00     0.031 C 
ATOM     58  C   UNL     1       1.986  18.347  -8.427  1.00  0.00     0.029 A 
ATOM     59  C   UNL     1       1.329  17.849  -7.314  1.00  0.00     0.049 A 
ATOM     60  H   UNL     1       0.718  15.871  -6.904  1.00  0.00     0.167 HD
ATOM     61  C   UNL     1       0.228  17.994  -5.098  1.00  0.00     0.074 A 
ATOM     62  C   UNL     1      -0.199  18.718  -3.918  1.00  0.00     0.031 C 
ATOM     63  C   UNL     1       0.896  18.555  -6.135  1.00  0.00     0.037 A 
BRANCH  50  64
ATOM     64  C   UNL     1       2.388  14.566 -10.606  1.00  0.00     0.057 A 
ATOM     65  C   UNL     1       1.659  14.279 -11.767  1.00  0.00     0.134 A 
ATOM     66  C   UNL     1       3.780  14.662 -10.724  1.00  0.00     0.134 A 
ATOM     67  F   UNL     1       0.324  14.159 -11.719  1.00  0.00    -0.206 F 
ATOM     68  C   UNL     1       2.292  14.077 -12.995  1.00  0.00     0.040 A 
ATOM     69  C   UNL     1       4.423  14.487 -11.951  1.00  0.00     0.040 A 
ATOM     70  F   UNL     1       4.538  14.938  -9.652  1.00  0.00    -0.206 F 
ATOM     71  C   UNL     1       3.678  14.188 -13.090  1.00  0.00     0.006 A 
ENDBRANCH  50  64
BRANCH  51  72
ATOM     72  C   UNL     1      -2.072  15.631  -1.748  1.00  0.00     0.057 A 
ATOM     73  C   UNL     1      -3.243  16.381  -1.591  1.00  0.00     0.134 A 
ATOM     74  C   UNL     1      -1.509  15.066  -0.597  1.00  0.00     0.134 A 
ATOM     75  F   UNL     1      -3.815  16.969  -2.652  1.00  0.00    -0.206 F 
ATOM     76  C   UNL     1      -3.822  16.578  -0.336  1.00  0.00     0.040 A 
ATOM     77  C   UNL     1      -2.091  15.233   0.660  1.00  0.00     0.040 A 
ATOM     78  F   UNL     1      -0.386  14.337  -0.681  1.00  0.00    -0.206 F 
ATOM     79  C   UNL     1      -3.248  15.997   0.794  1.00  0.00     0.006 A 
ENDBRANCH  51  72
BRANCH  63  80
ATOM     80  C   UNL     1       1.183  20.027  -6.055  1.00  0.00     0.057 A 
ATOM     81  C   UNL     1       2.155  20.544  -5.189  1.00  0.00     0.134 A 
ATOM     82  C   UNL     1       0.506  20.932  -6.883  1.00  0.00     0.134 A 
ATOM     83  F   UNL     1       2.830  19.732  -4.362  1.00  0.00    -0.206 F 
ATOM     84  C   UNL     1       2.428  21.912  -5.135  1.00  0.00     0.040 A 
ATOM     85  C   UNL     1       0.788  22.298  -6.856  1.00  0.00     0.040 A 
ATOM     86  F   UNL     1      -0.431  20.501  -7.741  1.00  0.00    -0.206 F 
ATOM     87  C   UNL     1       1.749  22.792  -5.976  1.00  0.00     0.006 A 
ENDBRANCH  63  80
ENDBRANCH  37  38
ENDBRANCH  30  32
ENDBRANCH  29  30
ENDBRANCH  28  29
ENDBRANCH  27  28
ENDBRANCH   1  27
TORSDOF 16
