REMARK SMILES CCc1ccc2c(CC(=O)OCCOCCOC(=O)c3ccc(-c4c5nc(c(-c6c(F)cccc6F)c6ccc([nH]6)c(-c6c(F)cccc6F)c6nc(c(-c7c(F)cccc7F)c7ccc4[nH]7)C=C6)C=C5)cc3)c(C(=O)c3cc(C)ccn3)[nH]c2c1
REMARK SMILES IDX 13 1 12 2 11 3 9 4 10 5 8 6 7 7 3 8 4 9 86 10 5 11 85 12
REMARK SMILES IDX 6 13 84 14 74 15 2 17 1 18 75 19 76 20 77 21 78 22 83 23
REMARK SMILES IDX 79 24 82 25 80 26 81 27 14 28 15 29 16 30 17 31 18 32 19 33
REMARK SMILES IDX 20 34 21 35 73 36 22 37 72 38 23 39 24 40 25 41 66 42 26 43
REMARK SMILES IDX 71 44 65 45 67 46 27 47 70 48 64 49 63 50 28 52 54 53 37 54
REMARK SMILES IDX 53 55 38 56 41 57 52 58 68 59 39 60 40 61 51 63 69 64 42 65
REMARK SMILES IDX 29 66 30 67 35 68 31 69 32 70 34 71 36 72 33 73 55 74 56 75
REMARK SMILES IDX 61 76 57 77 58 78 60 79 62 80 59 81 43 82 44 83 49 84 45 85
REMARK SMILES IDX 46 86 48 87 50 88 47 89
REMARK H PARENT 84 16 67 51 41 62
REMARK Flexibility Score: inf
ROOT
ATOM      1  C   UNL     1       0.271  -8.047   6.201  1.00  0.00     0.202 C 
ENDROOT
BRANCH   1   2
ATOM      2  C   UNL     1       1.222  -6.862   5.971  1.00  0.00     0.261 C 
BRANCH   2   3
ATOM      3  O   UNL     1       1.536  -6.626   4.583  1.00  0.00    -0.463 OA
BRANCH   3   4
ATOM      4  C   UNL     1       2.849  -6.357   4.330  1.00  0.00     0.310 C 
ATOM      5  O   UNL     1       3.690  -6.173   5.208  1.00  0.00    -0.252 OA
BRANCH   4   6
ATOM      6  C   UNL     1       3.249  -6.425   2.870  1.00  0.00     0.161 C 
BRANCH   6   7
ATOM      7  C   UNL     1       2.219  -6.064   1.834  1.00  0.00     0.000 A 
ATOM      8  C   UNL     1       0.903  -2.369   0.228  1.00  0.00    -0.046 A 
ATOM      9  C   UNL     1       1.755  -2.291   1.335  1.00  0.00     0.004 A 
ATOM     10  C   UNL     1       0.469  -3.634  -0.212  1.00  0.00     0.030 A 
ATOM     11  C   UNL     1       2.217  -3.445   1.986  1.00  0.00     0.011 A 
ATOM     12  C   UNL     1       0.962  -4.776   0.434  1.00  0.00     0.046 A 
ATOM     13  C   UNL     1       1.840  -4.716   1.508  1.00  0.00     0.004 A 
ATOM     14  N   UNL     1       0.738  -6.105   0.175  1.00  0.00    -0.352 N 
ATOM     15  C   UNL     1       1.604  -6.903   0.895  1.00  0.00     0.093 A 
ATOM     16  H   UNL     1       0.050  -6.444  -0.443  1.00  0.00     0.167 HD
BRANCH   8  17
ATOM     17  C   UNL     1       0.443  -1.159  -0.558  1.00  0.00     0.032 C 
ATOM     18  C   UNL     1       0.905   0.208  -0.069  1.00  0.00     0.009 C 
ENDBRANCH   8  17
BRANCH  15  19
ATOM     19  C   UNL     1       1.798  -8.335   0.655  1.00  0.00     0.227 C 
ATOM     20  O   UNL     1       2.681  -8.999   1.194  1.00  0.00    -0.285 OA
BRANCH  19  21
ATOM     21  C   UNL     1       0.857  -9.053  -0.259  1.00  0.00     0.113 A 
ATOM     22  C   UNL     1       0.930  -8.909  -1.637  1.00  0.00     0.036 A 
ATOM     23  N   UNL     1      -0.079  -9.812   0.363  1.00  0.00    -0.253 NA
ATOM     24  C   UNL     1      -0.028  -9.569  -2.415  1.00  0.00    -0.047 A 
ATOM     25  C   UNL     1      -0.993 -10.433  -0.402  1.00  0.00     0.112 A 
ATOM     26  C   UNL     1      -0.025  -9.480  -3.911  1.00  0.00     0.044 C 
ATOM     27  C   UNL     1      -1.010 -10.338  -1.780  1.00  0.00     0.023 A 
ENDBRANCH  19  21
ENDBRANCH  15  19
ENDBRANCH   6   7
ENDBRANCH   4   6
ENDBRANCH   3   4
ENDBRANCH   2   3
ENDBRANCH   1   2
BRANCH   1  28
ATOM     28  O   UNL     1       0.641  -9.309   5.646  1.00  0.00    -0.374 OA
BRANCH  28  29
ATOM     29  C   UNL     1       0.783  -9.380   4.230  1.00  0.00     0.202 C 
BRANCH  29  30
ATOM     30  C   UNL     1      -0.476  -9.147   3.392  1.00  0.00     0.261 C 
BRANCH  30  31
ATOM     31  O   UNL     1      -1.293  -8.057   3.819  1.00  0.00    -0.460 OA
BRANCH  31  32
ATOM     32  C   UNL     1      -2.618  -8.288   3.750  1.00  0.00     0.338 C 
ATOM     33  O   UNL     1      -3.205  -9.260   3.296  1.00  0.00    -0.246 OA
BRANCH  32  34
ATOM     34  C   UNL     1      -3.307  -7.170   4.392  1.00  0.00     0.060 A 
ATOM     35  C   UNL     1      -3.721  -7.315   5.718  1.00  0.00     0.016 A 
ATOM     36  C   UNL     1      -3.617  -6.027   3.651  1.00  0.00     0.016 A 
ATOM     37  C   UNL     1      -4.502  -6.321   6.298  1.00  0.00     0.010 A 
ATOM     38  C   UNL     1      -4.393  -5.029   4.239  1.00  0.00     0.010 A 
ATOM     39  C   UNL     1      -4.869  -5.191   5.550  1.00  0.00    -0.014 A 
BRANCH  39  40
ATOM     40  C   UNL     1      -5.849  -4.240   6.117  1.00  0.00     0.031 A 
ATOM     41  C   UNL     1      -7.289  -4.338   5.703  1.00  0.00     0.074 A 
ATOM     42  C   UNL     1      -5.452  -3.333   7.026  1.00  0.00     0.049 A 
ATOM     43  N   UNL     1      -8.318  -3.644   6.117  1.00  0.00    -0.248 NA
ATOM     44  C   UNL     1      -7.616  -5.350   4.685  1.00  0.00     0.031 C 
ATOM     45  C   UNL     1      -4.079  -3.159   7.497  1.00  0.00     0.029 A 
ATOM     46  N   UNL     1      -6.169  -2.392   7.717  1.00  0.00    -0.354 N 
ATOM     47  C   UNL     1      -9.411  -4.137   5.415  1.00  0.00     0.074 A 
ATOM     48  C   UNL     1      -8.918  -5.163   4.524  1.00  0.00     0.031 C 
ATOM     49  C   UNL     1      -4.053  -2.170   8.406  1.00  0.00     0.029 A 
ATOM     50  C   UNL     1      -5.402  -1.633   8.565  1.00  0.00     0.049 A 
ATOM     51  H   UNL     1      -7.141  -2.272   7.615  1.00  0.00     0.167 HD
ATOM     52  C   UNL     1     -10.711  -3.773   5.519  1.00  0.00     0.037 A 
ATOM     53  C   UNL     1      -5.754  -0.615   9.372  1.00  0.00     0.037 A 
ATOM     54  C   UNL     1     -11.191  -2.752   6.413  1.00  0.00     0.049 A 
ATOM     55  C   UNL     1      -7.201  -0.213   9.448  1.00  0.00     0.074 A 
ATOM     56  C   UNL     1     -12.491  -2.328   6.621  1.00  0.00     0.029 A 
ATOM     57  N   UNL     1     -10.382  -1.991   7.244  1.00  0.00    -0.354 N 
ATOM     58  N   UNL     1      -8.234  -0.720   8.819  1.00  0.00    -0.248 NA
ATOM     59  C   UNL     1      -7.533   0.897  10.351  1.00  0.00     0.031 C 
ATOM     60  C   UNL     1     -12.464  -1.278   7.546  1.00  0.00     0.029 A 
ATOM     61  C   UNL     1     -11.152  -1.080   7.947  1.00  0.00     0.049 A 
ATOM     62  H   UNL     1      -9.405  -2.084   7.322  1.00  0.00     0.167 HD
ATOM     63  C   UNL     1      -9.339  -0.006   9.262  1.00  0.00     0.074 A 
ATOM     64  C   UNL     1      -8.852   0.956  10.230  1.00  0.00     0.031 C 
ATOM     65  C   UNL     1     -10.640  -0.129   8.901  1.00  0.00     0.037 A 
BRANCH  52  66
ATOM     66  C   UNL     1     -11.700  -4.471   4.634  1.00  0.00     0.057 A 
ATOM     67  C   UNL     1     -12.088  -5.798   4.861  1.00  0.00     0.134 A 
ATOM     68  C   UNL     1     -12.300  -3.797   3.563  1.00  0.00     0.134 A 
ATOM     69  F   UNL     1     -11.540  -6.505   5.861  1.00  0.00    -0.206 F 
ATOM     70  C   UNL     1     -13.024  -6.435   4.044  1.00  0.00     0.040 A 
ATOM     71  C   UNL     1     -13.254  -4.416   2.753  1.00  0.00     0.040 A 
ATOM     72  F   UNL     1     -11.976  -2.524   3.292  1.00  0.00    -0.206 F 
ATOM     73  C   UNL     1     -13.616  -5.741   2.990  1.00  0.00     0.006 A 
ENDBRANCH  52  66
BRANCH  53  74
ATOM     74  C   UNL     1      -4.721   0.089  10.172  1.00  0.00     0.057 A 
ATOM     75  C   UNL     1      -4.671  -0.028  11.565  1.00  0.00     0.134 A 
ATOM     76  C   UNL     1      -3.762   0.905   9.558  1.00  0.00     0.134 A 
ATOM     77  F   UNL     1      -5.574  -0.778  12.212  1.00  0.00    -0.206 F 
ATOM     78  C   UNL     1      -3.716   0.654  12.322  1.00  0.00     0.040 A 
ATOM     79  C   UNL     1      -2.787   1.573  10.299  1.00  0.00     0.040 A 
ATOM     80  F   UNL     1      -3.755   1.056   8.225  1.00  0.00    -0.206 F 
ATOM     81  C   UNL     1      -2.766   1.453  11.687  1.00  0.00     0.006 A 
ENDBRANCH  53  74
BRANCH  65  82
ATOM     82  C   UNL     1     -11.620   0.790   9.567  1.00  0.00     0.057 A 
ATOM     83  C   UNL     1     -11.684   2.152   9.247  1.00  0.00     0.134 A 
ATOM     84  C   UNL     1     -12.525   0.303  10.518  1.00  0.00     0.134 A 
ATOM     85  F   UNL     1     -10.836   2.681   8.353  1.00  0.00    -0.206 F 
ATOM     86  C   UNL     1     -12.598   3.003   9.869  1.00  0.00     0.040 A 
ATOM     87  C   UNL     1     -13.460   1.139  11.128  1.00  0.00     0.040 A 
ATOM     88  F   UNL     1     -12.521  -0.994  10.861  1.00  0.00    -0.206 F 
ATOM     89  C   UNL     1     -13.493   2.495  10.809  1.00  0.00     0.006 A 
ENDBRANCH  65  82
ENDBRANCH  39  40
ENDBRANCH  32  34
ENDBRANCH  31  32
ENDBRANCH  30  31
ENDBRANCH  29  30
ENDBRANCH  28  29
ENDBRANCH   1  28
TORSDOF 18
