REMARK SMILES C[NH2+][C@]1(C(=O)OCCOCCOC(=O)c2ccc(-c3c4nc(c(-c5c(F)cccc5F)c5ccc([nH]5)c(-c5c(F)cccc5F)c5nc(c(-c6c(F)cccc6F)c6ccc3[nH]6)C=C5)C=C4)cc2)CCC[C@@H](Sc2nccs2)C1
REMARK SMILES IDX 9 1 8 2 7 3 6 4 4 5 5 6 3 7 69 8 79 9 70 10 72 11 71 12 2 13
REMARK SMILES IDX 1 14 73 17 74 18 75 19 78 20 76 21 77 22 10 23 11 24 12 25
REMARK SMILES IDX 13 26 14 27 15 28 16 29 68 30 17 31 67 32 18 33 19 34 20 35
REMARK SMILES IDX 61 36 21 37 66 38 60 39 62 40 22 41 65 42 59 43 58 44 23 46
REMARK SMILES IDX 49 47 32 48 48 49 33 50 36 51 47 52 63 53 34 54 35 55 46 57
REMARK SMILES IDX 64 58 37 59 24 60 25 61 30 62 26 63 27 64 29 65 31 66 28 67
REMARK SMILES IDX 50 68 51 69 56 70 52 71 53 72 55 73 57 74 54 75 38 76 39 77
REMARK SMILES IDX 44 78 40 79 41 80 43 81 45 82 42 83
REMARK H PARENT 2 15 2 16 62 45 36 56
REMARK Flexibility Score: inf
ROOT
ATOM      1  O   UNL     1       2.872   0.390  -0.924  1.00  0.00    -0.374 OA
ENDROOT
BRANCH   1   2
ATOM      2  C   UNL     1       3.326   0.514   0.421  1.00  0.00     0.202 C 
BRANCH   2   3
ATOM      3  C   UNL     1       2.608   1.540   1.300  1.00  0.00     0.261 C 
BRANCH   3   4
ATOM      4  O   UNL     1       1.200   1.280   1.373  1.00  0.00    -0.459 OA
BRANCH   4   5
ATOM      5  C   UNL     1       0.401   2.239   0.827  1.00  0.00     0.368 C 
ATOM      6  O   UNL     1       0.809   3.329   0.435  1.00  0.00    -0.245 OA
BRANCH   5   7
ATOM      7  C   UNL     1      -1.101   1.811   0.750  1.00  0.00     0.195 C 
ATOM      8  C   UNL     1      -1.367   0.460   1.470  1.00  0.00     0.081 C 
ATOM      9  C   UNL     1      -1.870   2.928   1.490  1.00  0.00     0.096 C 
ATOM     10  C   UNL     1      -2.855   0.142   1.640  1.00  0.00     0.008 C 
ATOM     11  C   UNL     1      -3.343   2.621   1.772  1.00  0.00     0.061 C 
ATOM     12  C   UNL     1      -3.566   1.248   2.413  1.00  0.00     0.015 C 
BRANCH   7  13
ATOM     13  N   UNL     1      -1.542   1.617  -0.667  1.00  0.00    -0.335 N 
ATOM     14  C   UNL     1      -1.157   2.668  -1.601  1.00  0.00     0.331 C 
ATOM     15  H   UNL     1      -1.143   0.739  -1.001  1.00  0.00     0.347 HD
ATOM     16  H   UNL     1      -2.561   1.627  -0.643  1.00  0.00     0.347 HD
ENDBRANCH   7  13
BRANCH  11  17
ATOM     17  S   UNL     1      -4.156   3.951   2.744  1.00  0.00    -0.092 SA
BRANCH  17  18
ATOM     18  C   UNL     1      -3.372   3.833   4.307  1.00  0.00     0.150 A 
ATOM     19  N   UNL     1      -2.065   3.879   4.435  1.00  0.00    -0.238 NA
ATOM     20  S   UNL     1      -4.250   3.661   5.770  1.00  0.00    -0.116 S 
ATOM     21  C   UNL     1      -1.717   3.750   5.763  1.00  0.00     0.124 A 
ATOM     22  C   UNL     1      -2.771   3.613   6.638  1.00  0.00     0.087 A 
ENDBRANCH  17  18
ENDBRANCH  11  17
ENDBRANCH   5   7
ENDBRANCH   4   5
ENDBRANCH   3   4
ENDBRANCH   2   3
ENDBRANCH   1   2
BRANCH   1  23
ATOM     23  C   UNL     1       1.646  -0.310  -1.149  1.00  0.00     0.202 C 
BRANCH  23  24
ATOM     24  C   UNL     1       1.679  -1.833  -0.978  1.00  0.00     0.261 C 
BRANCH  24  25
ATOM     25  O   UNL     1       1.885  -2.224   0.394  1.00  0.00    -0.460 OA
BRANCH  25  26
ATOM     26  C   UNL     1       3.024  -2.917   0.623  1.00  0.00     0.338 C 
ATOM     27  O   UNL     1       3.833  -3.314  -0.206  1.00  0.00    -0.246 OA
BRANCH  26  28
ATOM     28  C   UNL     1       3.288  -3.003   2.070  1.00  0.00     0.060 A 
ATOM     29  C   UNL     1       4.521  -2.523   2.531  1.00  0.00     0.016 A 
ATOM     30  C   UNL     1       2.397  -3.630   2.943  1.00  0.00     0.016 A 
ATOM     31  C   UNL     1       4.892  -2.717   3.859  1.00  0.00     0.010 A 
ATOM     32  C   UNL     1       2.777  -3.835   4.275  1.00  0.00     0.010 A 
ATOM     33  C   UNL     1       4.042  -3.414   4.727  1.00  0.00    -0.014 A 
BRANCH  33  34
ATOM     34  C   UNL     1       4.550  -3.840   6.053  1.00  0.00     0.031 A 
ATOM     35  C   UNL     1       5.094  -5.233   6.209  1.00  0.00     0.074 A 
ATOM     36  C   UNL     1       4.569  -2.987   7.091  1.00  0.00     0.049 A 
ATOM     37  N   UNL     1       5.577  -5.821   7.274  1.00  0.00    -0.248 NA
ATOM     38  C   UNL     1       5.094  -6.076   5.003  1.00  0.00     0.031 C 
ATOM     39  C   UNL     1       4.111  -1.600   7.054  1.00  0.00     0.029 A 
ATOM     40  N   UNL     1       4.992  -3.170   8.384  1.00  0.00    -0.354 N 
ATOM     41  C   UNL     1       5.938  -7.100   6.867  1.00  0.00     0.074 A 
ATOM     42  C   UNL     1       5.591  -7.213   5.466  1.00  0.00     0.031 C 
ATOM     43  C   UNL     1       4.267  -1.058   8.275  1.00  0.00     0.029 A 
ATOM     44  C   UNL     1       4.812  -2.067   9.181  1.00  0.00     0.049 A 
ATOM     45  H   UNL     1       5.386  -4.011   8.708  1.00  0.00     0.167 HD
ATOM     46  C   UNL     1       6.516  -8.087   7.591  1.00  0.00     0.037 A 
ATOM     47  C   UNL     1       5.044  -1.900  10.498  1.00  0.00     0.037 A 
ATOM     48  C   UNL     1       6.860  -7.977   8.983  1.00  0.00     0.049 A 
ATOM     49  C   UNL     1       5.622  -3.036  11.299  1.00  0.00     0.074 A 
ATOM     50  C   UNL     1       7.458  -8.919   9.802  1.00  0.00     0.029 A 
ATOM     51  N   UNL     1       6.630  -6.855   9.765  1.00  0.00    -0.354 N 
ATOM     52  N   UNL     1       5.976  -4.233  10.900  1.00  0.00    -0.248 NA
ATOM     53  C   UNL     1       5.835  -2.795  12.734  1.00  0.00     0.031 C 
ATOM     54  C   UNL     1       7.553  -8.381  11.090  1.00  0.00     0.029 A 
ATOM     55  C   UNL     1       7.054  -7.089  11.062  1.00  0.00     0.049 A 
ATOM     56  H   UNL     1       6.226  -6.016   9.445  1.00  0.00     0.167 HD
ATOM     57  C   UNL     1       6.476  -4.878  12.025  1.00  0.00     0.074 A 
ATOM     58  C   UNL     1       6.388  -3.936  13.121  1.00  0.00     0.031 C 
ATOM     59  C   UNL     1       6.964  -6.138  12.140  1.00  0.00     0.037 A 
BRANCH  46  60
ATOM     60  C   UNL     1       6.792  -9.383   6.890  1.00  0.00     0.057 A 
ATOM     61  C   UNL     1       7.830  -9.512   5.958  1.00  0.00     0.134 A 
ATOM     62  C   UNL     1       6.027 -10.523   7.169  1.00  0.00     0.134 A 
ATOM     63  F   UNL     1       8.589  -8.454   5.635  1.00  0.00    -0.206 F 
ATOM     64  C   UNL     1       8.084 -10.724   5.313  1.00  0.00     0.040 A 
ATOM     65  C   UNL     1       6.287 -11.745   6.547  1.00  0.00     0.040 A 
ATOM     66  F   UNL     1       5.020 -10.467   8.053  1.00  0.00    -0.206 F 
ATOM     67  C   UNL     1       7.315 -11.847   5.612  1.00  0.00     0.006 A 
ENDBRANCH  46  60
BRANCH  47  68
ATOM     68  C   UNL     1       4.717  -0.608  11.149  1.00  0.00     0.057 A 
ATOM     69  C   UNL     1       5.722   0.251  11.606  1.00  0.00     0.134 A 
ATOM     70  C   UNL     1       3.389  -0.212  11.349  1.00  0.00     0.134 A 
ATOM     71  F   UNL     1       7.013  -0.085  11.464  1.00  0.00    -0.206 F 
ATOM     72  C   UNL     1       5.420   1.452  12.251  1.00  0.00     0.040 A 
ATOM     73  C   UNL     1       3.072   0.996  11.972  1.00  0.00     0.040 A 
ATOM     74  F   UNL     1       2.380  -0.992  10.934  1.00  0.00    -0.206 F 
ATOM     75  C   UNL     1       4.090   1.829  12.431  1.00  0.00     0.006 A 
ENDBRANCH  47  68
BRANCH  59  76
ATOM     76  C   UNL     1       7.469  -6.559  13.489  1.00  0.00     0.057 A 
ATOM     77  C   UNL     1       6.597  -6.856  14.543  1.00  0.00     0.134 A 
ATOM     78  C   UNL     1       8.842  -6.710  13.720  1.00  0.00     0.134 A 
ATOM     79  F   UNL     1       5.271  -6.719  14.388  1.00  0.00    -0.206 F 
ATOM     80  C   UNL     1       7.074  -7.271  15.788  1.00  0.00     0.040 A 
ATOM     81  C   UNL     1       9.330  -7.146  14.953  1.00  0.00     0.040 A 
ATOM     82  F   UNL     1       9.729  -6.450  12.749  1.00  0.00    -0.206 F 
ATOM     83  C   UNL     1       8.444  -7.423  15.993  1.00  0.00     0.006 A 
ENDBRANCH  59  76
ENDBRANCH  33  34
ENDBRANCH  26  28
ENDBRANCH  25  26
ENDBRANCH  24  25
ENDBRANCH  23  24
ENDBRANCH   1  23
TORSDOF 17
