REMARK SMILES O=C(CCS(=O)(=O)c1ccc2[nH]c(=O)oc2c1)OCCOCCOC(=O)c1ccc(-c2c3nc(c(-c4c(F)cccc4F)c4ccc([nH]4)c(-c4c(F)cccc4F)c4nc(c(-c5c(F)cccc5F)c5ccc2[nH]5)C=C4)C=C3)cc1
REMARK SMILES IDX 20 1 19 2 18 3 2 4 1 5 3 6 4 7 5 8 6 9 7 10 8 11 9 12 17 13
REMARK SMILES IDX 10 14 16 15 11 16 15 17 12 18 13 19 14 21 21 22 22 23 23 24
REMARK SMILES IDX 24 25 25 26 26 27 27 28 28 29 80 30 29 31 79 32 30 33 31 34
REMARK SMILES IDX 32 35 73 36 33 37 78 38 72 39 74 40 34 41 77 42 71 43 70 44
REMARK SMILES IDX 35 46 61 47 44 48 60 49 45 50 48 51 59 52 75 53 46 54 47 55
REMARK SMILES IDX 58 57 76 58 49 59 36 60 37 61 42 62 38 63 39 64 41 65 43 66
REMARK SMILES IDX 40 67 62 68 63 69 68 70 64 71 65 72 67 73 69 74 66 75 50 76
REMARK SMILES IDX 51 77 56 78 52 79 53 80 55 81 57 82 54 83
REMARK H PARENT 12 20 74 45 48 56
REMARK Flexibility Score: inf
ROOT
ATOM      1  C   UNL     1       5.040  -2.035   0.405  1.00  0.00     0.202 C 
ENDROOT
BRANCH   1   2
ATOM      2  C   UNL     1       4.507  -0.628   0.666  1.00  0.00     0.261 C 
BRANCH   2   3
ATOM      3  O   UNL     1       3.131  -0.437   0.325  1.00  0.00    -0.463 OA
BRANCH   3   4
ATOM      4  C   UNL     1       2.651  -0.080  -0.876  1.00  0.00     0.306 C 
ATOM      5  O   UNL     1       1.441   0.065  -1.034  1.00  0.00    -0.252 OA
BRANCH   4   6
ATOM      6  C   UNL     1       3.604   0.279  -1.962  1.00  0.00     0.139 C 
BRANCH   6   7
ATOM      7  C   UNL     1       3.550   1.777  -2.215  1.00  0.00     0.154 C 
BRANCH   7   8
ATOM      8  S   UNL     1       4.610   2.802  -1.240  1.00  0.00     0.179 S 
ATOM      9  O   UNL     1       5.779   2.028  -0.868  1.00  0.00    -0.224 OA
ATOM     10  O   UNL     1       4.782   4.016  -2.021  1.00  0.00    -0.224 OA
BRANCH   8  11
ATOM     11  C   UNL     1       3.881   3.352   0.301  1.00  0.00     0.071 A 
ATOM     12  C   UNL     1       4.364   4.586   0.809  1.00  0.00     0.023 A 
ATOM     13  C   UNL     1       2.961   2.615   1.048  1.00  0.00     0.069 A 
ATOM     14  C   UNL     1       3.971   5.069   2.065  1.00  0.00     0.031 A 
ATOM     15  C   UNL     1       2.631   3.084   2.306  1.00  0.00     0.157 A 
ATOM     16  C   UNL     1       3.123   4.274   2.791  1.00  0.00     0.087 A 
ATOM     17  O   UNL     1       1.813   2.437   3.222  1.00  0.00    -0.408 OA
ATOM     18  N   UNL     1       2.610   4.418   4.047  1.00  0.00    -0.287 N 
ATOM     19  C   UNL     1       1.837   3.313   4.315  1.00  0.00     0.417 A 
ATOM     20  H   UNL     1       2.765   5.178   4.653  1.00  0.00     0.173 HD
ATOM     21  O   UNL     1       1.248   3.109   5.368  1.00  0.00    -0.224 OA
ENDBRANCH   8  11
ENDBRANCH   7   8
ENDBRANCH   6   7
ENDBRANCH   4   6
ENDBRANCH   3   4
ENDBRANCH   2   3
ENDBRANCH   1   2
BRANCH   1  22
ATOM     22  O   UNL     1       4.145  -3.053  -0.011  1.00  0.00    -0.374 OA
BRANCH  22  23
ATOM     23  C   UNL     1       2.874  -3.213   0.610  1.00  0.00     0.202 C 
BRANCH  23  24
ATOM     24  C   UNL     1       2.777  -3.357   2.133  1.00  0.00     0.261 C 
BRANCH  24  25
ATOM     25  O   UNL     1       3.243  -2.224   2.889  1.00  0.00    -0.460 OA
BRANCH  25  26
ATOM     26  C   UNL     1       4.371  -2.450   3.602  1.00  0.00     0.338 C 
ATOM     27  O   UNL     1       5.072  -3.448   3.572  1.00  0.00    -0.246 OA
BRANCH  26  28
ATOM     28  C   UNL     1       4.754  -1.275   4.405  1.00  0.00     0.060 A 
ATOM     29  C   UNL     1       6.023  -0.722   4.192  1.00  0.00     0.016 A 
ATOM     30  C   UNL     1       3.981  -0.880   5.498  1.00  0.00     0.016 A 
ATOM     31  C   UNL     1       6.565   0.157   5.128  1.00  0.00     0.010 A 
ATOM     32  C   UNL     1       4.529  -0.002   6.439  1.00  0.00     0.010 A 
ATOM     33  C   UNL     1       5.849   0.464   6.292  1.00  0.00    -0.014 A 
BRANCH  33  34
ATOM     34  C   UNL     1       6.561   1.078   7.442  1.00  0.00     0.031 A 
ATOM     35  C   UNL     1       7.018   0.189   8.572  1.00  0.00     0.074 A 
ATOM     36  C   UNL     1       6.839   2.393   7.465  1.00  0.00     0.049 A 
ATOM     37  N   UNL     1       7.647   0.502   9.678  1.00  0.00    -0.248 NA
ATOM     38  C   UNL     1       6.723  -1.246   8.437  1.00  0.00     0.031 C 
ATOM     39  C   UNL     1       6.495   3.348   6.415  1.00  0.00     0.029 A 
ATOM     40  N   UNL     1       7.480   3.148   8.415  1.00  0.00    -0.354 N 
ATOM     41  C   UNL     1       7.805  -0.692  10.374  1.00  0.00     0.074 A 
ATOM     42  C   UNL     1       7.182  -1.729   9.581  1.00  0.00     0.031 C 
ATOM     43  C   UNL     1       6.927   4.568   6.780  1.00  0.00     0.029 A 
ATOM     44  C   UNL     1       7.549   4.482   8.101  1.00  0.00     0.049 A 
ATOM     45  H   UNL     1       7.854   2.769   9.243  1.00  0.00     0.167 HD
ATOM     46  C   UNL     1       8.419  -0.908  11.563  1.00  0.00     0.037 A 
ATOM     47  C   UNL     1       8.045   5.516   8.807  1.00  0.00     0.037 A 
ATOM     48  C   UNL     1       9.045   0.125  12.347  1.00  0.00     0.049 A 
ATOM     49  C   UNL     1       8.668   5.261  10.156  1.00  0.00     0.074 A 
ATOM     50  C   UNL     1       9.720   0.006  13.550  1.00  0.00     0.029 A 
ATOM     51  N   UNL     1       9.062   1.470  12.011  1.00  0.00    -0.354 N 
ATOM     52  N   UNL     1       8.842   4.125  10.789  1.00  0.00    -0.248 NA
ATOM     53  C   UNL     1       9.172   6.434  10.883  1.00  0.00     0.031 C 
ATOM     54  C   UNL     1      10.094   1.288  13.970  1.00  0.00     0.029 A 
ATOM     55  C   UNL     1       9.711   2.197  12.997  1.00  0.00     0.049 A 
ATOM     56  H   UNL     1       8.671   1.853  11.192  1.00  0.00     0.167 HD
ATOM     57  C   UNL     1       9.510   4.443  11.967  1.00  0.00     0.074 A 
ATOM     58  C   UNL     1       9.718   5.876  11.954  1.00  0.00     0.031 C 
ATOM     59  C   UNL     1       9.921   3.622  12.966  1.00  0.00     0.037 A 
BRANCH  46  60
ATOM     60  C   UNL     1       8.412  -2.310  12.105  1.00  0.00     0.057 A 
ATOM     61  C   UNL     1       9.154  -3.343  11.518  1.00  0.00     0.134 A 
ATOM     62  C   UNL     1       7.668  -2.624  13.251  1.00  0.00     0.134 A 
ATOM     63  F   UNL     1       9.881  -3.116  10.414  1.00  0.00    -0.206 F 
ATOM     64  C   UNL     1       9.132  -4.643  12.032  1.00  0.00     0.040 A 
ATOM     65  C   UNL     1       7.662  -3.911  13.791  1.00  0.00     0.040 A 
ATOM     66  F   UNL     1       6.939  -1.682  13.869  1.00  0.00    -0.206 F 
ATOM     67  C   UNL     1       8.389  -4.927  13.176  1.00  0.00     0.006 A 
ENDBRANCH  46  60
BRANCH  47  68
ATOM     68  C   UNL     1       7.983   6.894   8.255  1.00  0.00     0.057 A 
ATOM     69  C   UNL     1       9.147   7.579   7.887  1.00  0.00     0.134 A 
ATOM     70  C   UNL     1       6.765   7.569   8.107  1.00  0.00     0.134 A 
ATOM     71  F   UNL     1      10.346   6.994   8.026  1.00  0.00    -0.206 F 
ATOM     72  C   UNL     1       9.106   8.891   7.412  1.00  0.00     0.040 A 
ATOM     73  C   UNL     1       6.707   8.871   7.609  1.00  0.00     0.040 A 
ATOM     74  F   UNL     1       5.612   6.968   8.435  1.00  0.00    -0.206 F 
ATOM     75  C   UNL     1       7.881   9.539   7.268  1.00  0.00     0.006 A 
ENDBRANCH  47  68
BRANCH  59  76
ATOM     76  C   UNL     1      10.687   4.246  14.100  1.00  0.00     0.057 A 
ATOM     77  C   UNL     1      10.082   5.100  15.032  1.00  0.00     0.134 A 
ATOM     78  C   UNL     1      12.049   3.966  14.273  1.00  0.00     0.134 A 
ATOM     79  F   UNL     1       8.784   5.418  14.920  1.00  0.00    -0.206 F 
ATOM     80  C   UNL     1      10.812   5.681  16.071  1.00  0.00     0.040 A 
ATOM     81  C   UNL     1      12.782   4.514  15.327  1.00  0.00     0.040 A 
ATOM     82  F   UNL     1      12.690   3.146  13.426  1.00  0.00    -0.206 F 
ATOM     83  C   UNL     1      12.165   5.383  16.224  1.00  0.00     0.006 A 
ENDBRANCH  59  76
ENDBRANCH  33  34
ENDBRANCH  26  28
ENDBRANCH  25  26
ENDBRANCH  24  25
ENDBRANCH  23  24
ENDBRANCH  22  23
ENDBRANCH   1  22
TORSDOF 17
