REMARK SMILES C[C@]1(CNC(=O)N[C@H](C(=O)OCCOCCOC(=O)c2ccc(-c3c4nc(c(-c5c(F)cccc5F)c5ccc([nH]5)c(-c5c(F)cccc5F)c5nc(c(-c6c(F)cccc6F)c6ccc3[nH]6)C=C5)C=C4)cc2)C2CCCCC2)CCCO1
REMARK SMILES IDX 13 1 12 2 11 3 9 4 10 5 8 6 7 7 4 8 5 9 6 11 3 13 2 14 1 15
REMARK SMILES IDX 80 16 83 17 81 18 82 19 74 20 75 21 79 22 76 23 78 24 77 25
REMARK SMILES IDX 14 26 15 27 16 28 17 29 18 30 19 31 20 32 21 33 73 34 22 35
REMARK SMILES IDX 72 36 23 37 24 38 25 39 66 40 26 41 71 42 65 43 67 44 27 45
REMARK SMILES IDX 70 46 64 47 63 48 28 50 54 51 37 52 53 53 38 54 41 55 52 56
REMARK SMILES IDX 68 57 39 58 40 59 51 61 69 62 42 63 29 64 30 65 35 66 31 67
REMARK SMILES IDX 32 68 34 69 36 70 33 71 55 72 56 73 61 74 57 75 58 76 60 77
REMARK SMILES IDX 62 78 59 79 43 80 44 81 49 82 45 83 46 84 48 85 50 86 47 87
REMARK H PARENT 4 10 7 12 67 49 41 60
REMARK Flexibility Score: inf
ROOT
ATOM      1  C   UNL     1      -3.579  -5.321  -7.892  1.00  0.00     0.202 C 
ENDROOT
BRANCH   1   2
ATOM      2  C   UNL     1      -2.320  -4.444  -7.845  1.00  0.00     0.261 C 
BRANCH   2   3
ATOM      3  O   UNL     1      -1.766  -4.345  -6.531  1.00  0.00    -0.462 OA
BRANCH   3   4
ATOM      4  C   UNL     1      -2.015  -3.155  -5.911  1.00  0.00     0.329 C 
ATOM      5  O   UNL     1      -2.404  -2.149  -6.490  1.00  0.00    -0.250 OA
BRANCH   4   6
ATOM      6  C   UNL     1      -1.666  -3.225  -4.409  1.00  0.00     0.197 C 
BRANCH   6   7
ATOM      7  N   UNL     1      -0.265  -2.767  -4.273  1.00  0.00    -0.324 N 
ATOM      8  N   UNL     1       0.401  -2.629  -1.998  1.00  0.00    -0.335 N 
ATOM      9  C   UNL     1       0.633  -2.528  -3.312  1.00  0.00     0.315 C 
ATOM     10  H   UNL     1       1.149  -2.342  -1.425  1.00  0.00     0.165 HD
ATOM     11  O   UNL     1       1.759  -2.172  -3.669  1.00  0.00    -0.249 OA
ATOM     12  H   UNL     1       0.122  -2.581  -5.158  1.00  0.00     0.166 HD
BRANCH   8  13
ATOM     13  C   UNL     1      -0.760  -3.087  -1.284  1.00  0.00     0.152 C 
BRANCH  13  14
ATOM     14  C   UNL     1      -0.608  -3.655   0.135  1.00  0.00     0.083 C 
ATOM     15  C   UNL     1       0.703  -4.416   0.313  1.00  0.00     0.044 C 
ATOM     16  C   UNL     1      -0.846  -2.607   1.226  1.00  0.00     0.039 C 
ATOM     17  O   UNL     1      -1.677  -4.629   0.302  1.00  0.00    -0.373 OA
ATOM     18  C   UNL     1      -1.523  -3.405   2.315  1.00  0.00     0.031 C 
ATOM     19  C   UNL     1      -2.381  -4.361   1.520  1.00  0.00     0.161 C 
ENDBRANCH  13  14
ENDBRANCH   8  13
ENDBRANCH   6   7
BRANCH   6  20
ATOM     20  C   UNL     1      -2.743  -2.435  -3.618  1.00  0.00     0.023 C 
ATOM     21  C   UNL     1      -2.600  -0.911  -3.731  1.00  0.00     0.006 C 
ATOM     22  C   UNL     1      -4.192  -2.907  -3.834  1.00  0.00     0.006 C 
ATOM     23  C   UNL     1      -3.573  -0.193  -2.803  1.00  0.00     0.000 C 
ATOM     24  C   UNL     1      -5.141  -2.168  -2.885  1.00  0.00     0.000 C 
ATOM     25  C   UNL     1      -5.008  -0.655  -3.031  1.00  0.00     0.000 C 
ENDBRANCH   6  20
ENDBRANCH   4   6
ENDBRANCH   3   4
ENDBRANCH   2   3
ENDBRANCH   1   2
BRANCH   1  26
ATOM     26  O   UNL     1      -4.415  -5.382  -6.744  1.00  0.00    -0.374 OA
BRANCH  26  27
ATOM     27  C   UNL     1      -3.936  -6.029  -5.566  1.00  0.00     0.202 C 
BRANCH  27  28
ATOM     28  C   UNL     1      -3.485  -7.491  -5.615  1.00  0.00     0.261 C 
BRANCH  28  29
ATOM     29  O   UNL     1      -2.324  -7.680  -6.438  1.00  0.00    -0.460 OA
BRANCH  29  30
ATOM     30  C   UNL     1      -2.514  -8.475  -7.514  1.00  0.00     0.338 C 
ATOM     31  O   UNL     1      -3.540  -9.056  -7.847  1.00  0.00    -0.246 OA
BRANCH  30  32
ATOM     32  C   UNL     1      -1.332  -8.399  -8.378  1.00  0.00     0.060 A 
ATOM     33  C   UNL     1      -1.472  -7.837  -9.655  1.00  0.00     0.016 A 
ATOM     34  C   UNL     1      -0.121  -8.948  -7.960  1.00  0.00     0.016 A 
ATOM     35  C   UNL     1      -0.396  -7.842 -10.536  1.00  0.00     0.010 A 
ATOM     36  C   UNL     1       0.949  -8.972  -8.852  1.00  0.00     0.010 A 
ATOM     37  C   UNL     1       0.804  -8.447 -10.149  1.00  0.00    -0.014 A 
BRANCH  37  38
ATOM     38  C   UNL     1       1.864  -8.702 -11.146  1.00  0.00     0.031 A 
ATOM     39  C   UNL     1       1.969 -10.079 -11.732  1.00  0.00     0.074 A 
ATOM     40  C   UNL     1       2.734  -7.737 -11.486  1.00  0.00     0.049 A 
ATOM     41  N   UNL     1       2.913 -10.596 -12.472  1.00  0.00    -0.248 NA
ATOM     42  C   UNL     1       0.862 -11.002 -11.429  1.00  0.00     0.031 C 
ATOM     43  C   UNL     1       2.685  -6.353 -11.023  1.00  0.00     0.029 A 
ATOM     44  N   UNL     1       3.849  -7.792 -12.282  1.00  0.00    -0.354 N 
ATOM     45  C   UNL     1       2.528 -11.910 -12.703  1.00  0.00     0.074 A 
ATOM     46  C   UNL     1       1.274 -12.117 -12.012  1.00  0.00     0.031 C 
ATOM     47  C   UNL     1       3.747  -5.693 -11.517  1.00  0.00     0.029 A 
ATOM     48  C   UNL     1       4.570  -6.624 -12.287  1.00  0.00     0.049 A 
ATOM     49  H   UNL     1       4.107  -8.590 -12.798  1.00  0.00     0.167 HD
ATOM     50  C   UNL     1       3.170 -12.857 -13.425  1.00  0.00     0.037 A 
ATOM     51  C   UNL     1       5.780  -6.358 -12.815  1.00  0.00     0.037 A 
ATOM     52  C   UNL     1       4.417 -12.633 -14.104  1.00  0.00     0.049 A 
ATOM     53  C   UNL     1       6.517  -7.451 -13.545  1.00  0.00     0.074 A 
ATOM     54  C   UNL     1       5.149 -13.517 -14.876  1.00  0.00     0.029 A 
ATOM     55  N   UNL     1       5.121 -11.437 -14.083  1.00  0.00    -0.354 N 
ATOM     56  N   UNL     1       6.149  -8.690 -13.768  1.00  0.00    -0.248 NA
ATOM     57  C   UNL     1       7.838  -7.112 -14.092  1.00  0.00     0.031 C 
ATOM     58  C   UNL     1       6.324 -12.873 -15.275  1.00  0.00     0.029 A 
ATOM     59  C   UNL     1       6.292 -11.568 -14.808  1.00  0.00     0.049 A 
ATOM     60  H   UNL     1       4.831 -10.618 -13.621  1.00  0.00     0.167 HD
ATOM     61  C   UNL     1       7.170  -9.264 -14.516  1.00  0.00     0.074 A 
ATOM     62  C   UNL     1       8.175  -8.239 -14.704  1.00  0.00     0.031 C 
ATOM     63  C   UNL     1       7.264 -10.523 -15.008  1.00  0.00     0.037 A 
BRANCH  50  64
ATOM     64  C   UNL     1       2.554 -14.223 -13.484  1.00  0.00     0.057 A 
ATOM     65  C   UNL     1       1.371 -14.478 -14.191  1.00  0.00     0.134 A 
ATOM     66  C   UNL     1       3.171 -15.307 -12.846  1.00  0.00     0.134 A 
ATOM     67  F   UNL     1       0.721 -13.481 -14.810  1.00  0.00    -0.206 F 
ATOM     68  C   UNL     1       0.812 -15.756 -14.241  1.00  0.00     0.040 A 
ATOM     69  C   UNL     1       2.638 -16.595 -12.914  1.00  0.00     0.040 A 
ATOM     70  F   UNL     1       4.307 -15.134 -12.154  1.00  0.00    -0.206 F 
ATOM     71  C   UNL     1       1.451 -16.821 -13.608  1.00  0.00     0.006 A 
ENDBRANCH  50  64
BRANCH  51  72
ATOM     72  C   UNL     1       6.382  -5.011 -12.653  1.00  0.00     0.057 A 
ATOM     73  C   UNL     1       6.559  -4.161 -13.750  1.00  0.00     0.134 A 
ATOM     74  C   UNL     1       6.807  -4.545 -11.402  1.00  0.00     0.134 A 
ATOM     75  F   UNL     1       6.191  -4.558 -14.977  1.00  0.00    -0.206 F 
ATOM     76  C   UNL     1       7.152  -2.904 -13.614  1.00  0.00     0.040 A 
ATOM     77  C   UNL     1       7.376  -3.280 -11.247  1.00  0.00     0.040 A 
ATOM     78  F   UNL     1       6.663  -5.309 -10.309  1.00  0.00    -0.206 F 
ATOM     79  C   UNL     1       7.557  -2.459 -12.358  1.00  0.00     0.006 A 
ENDBRANCH  51  72
BRANCH  63  80
ATOM     80  C   UNL     1       8.455 -10.854 -15.860  1.00  0.00     0.057 A 
ATOM     81  C   UNL     1       9.730 -11.044 -15.317  1.00  0.00     0.134 A 
ATOM     82  C   UNL     1       8.296 -11.074 -17.235  1.00  0.00     0.134 A 
ATOM     83  F   UNL     1       9.951 -10.838 -14.009  1.00  0.00    -0.206 F 
ATOM     84  C   UNL     1      10.808 -11.435 -16.113  1.00  0.00     0.040 A 
ATOM     85  C   UNL     1       9.358 -11.492 -18.035  1.00  0.00     0.040 A 
ATOM     86  F   UNL     1       7.096 -10.919 -17.815  1.00  0.00    -0.206 F 
ATOM     87  C   UNL     1      10.620 -11.672 -17.474  1.00  0.00     0.006 A 
ENDBRANCH  63  80
ENDBRANCH  37  38
ENDBRANCH  30  32
ENDBRANCH  29  30
ENDBRANCH  28  29
ENDBRANCH  27  28
ENDBRANCH  26  27
ENDBRANCH   1  26
TORSDOF 18
