REMARK SMILES O=C(OCCOCCOC(=O)[C@H](c1c[nH]c2ccc(Cl)cc12)[NH+]1CCN(c2cccc(Cl)c2)CC1)c1ccc(-c2c3nc(c(-c4c(F)cccc4F)c4ccc([nH]4)c(-c4c(F)cccc4F)c4nc(c(-c5c(F)cccc5F)c5ccc2[nH]5)C=C4)C=C3)cc1
REMARK SMILES IDX 6 1 5 2 4 3 3 4 2 5 1 6 36 7 37 8 89 9 38 10 88 11 39 12
REMARK SMILES IDX 40 13 41 14 82 15 42 16 87 17 81 18 83 19 43 20 86 21 80 22
REMARK SMILES IDX 79 23 44 25 70 26 53 27 69 28 54 29 57 30 68 31 84 32 55 33
REMARK SMILES IDX 56 34 67 36 85 37 58 38 45 39 46 40 51 41 47 42 48 43 50 44
REMARK SMILES IDX 52 45 49 46 71 47 72 48 77 49 73 50 74 51 76 52 78 53 75 54
REMARK SMILES IDX 59 55 60 56 65 57 61 58 62 59 64 60 66 61 63 62 7 63 8 64
REMARK SMILES IDX 9 65 10 66 11 67 12 68 23 69 24 70 35 71 25 73 34 74 26 75
REMARK SMILES IDX 27 76 28 77 33 78 29 79 31 80 30 81 32 82 13 83 14 84 22 85
REMARK SMILES IDX 15 86 16 87 21 88 17 90 19 91 18 92 20 93
REMARK H PARENT 83 24 57 35 23 72 15 89
REMARK Flexibility Score: inf
ROOT
ATOM      1  O   UNL     1       5.065  -3.526  -0.797  1.00  0.00    -0.374 OA
ENDROOT
BRANCH   1   2
ATOM      2  C   UNL     1       5.768  -2.286  -0.738  1.00  0.00     0.202 C 
BRANCH   2   3
ATOM      3  C   UNL     1       6.366  -2.031   0.644  1.00  0.00     0.261 C 
BRANCH   3   4
ATOM      4  O   UNL     1       7.206  -3.125   1.038  1.00  0.00    -0.460 OA
BRANCH   4   5
ATOM      5  C   UNL     1       6.786  -4.323   1.510  1.00  0.00     0.338 C 
ATOM      6  O   UNL     1       7.553  -5.284   1.457  1.00  0.00    -0.246 OA
BRANCH   5   7
ATOM      7  C   UNL     1       5.463  -4.527   2.179  1.00  0.00     0.060 A 
ATOM      8  C   UNL     1       4.259  -3.920   1.812  1.00  0.00     0.016 A 
ATOM      9  C   UNL     1       5.433  -5.478   3.213  1.00  0.00     0.016 A 
ATOM     10  C   UNL     1       3.069  -4.219   2.441  1.00  0.00     0.010 A 
ATOM     11  C   UNL     1       4.240  -5.774   3.875  1.00  0.00     0.010 A 
ATOM     12  C   UNL     1       3.064  -5.122   3.494  1.00  0.00    -0.014 A 
BRANCH  12  13
ATOM     13  C   UNL     1       1.850  -5.136   4.312  1.00  0.00     0.031 A 
ATOM     14  C   UNL     1       1.859  -4.292   5.546  1.00  0.00     0.074 A 
ATOM     15  C   UNL     1       0.734  -5.705   3.830  1.00  0.00     0.049 A 
ATOM     16  N   UNL     1       0.935  -4.133   6.450  1.00  0.00    -0.248 NA
ATOM     17  C   UNL     1       3.079  -3.496   5.782  1.00  0.00     0.031 C 
ATOM     18  C   UNL     1       0.618  -6.365   2.527  1.00  0.00     0.029 A 
ATOM     19  N   UNL     1      -0.524  -5.771   4.355  1.00  0.00    -0.354 N 
ATOM     20  C   UNL     1       1.481  -3.263   7.385  1.00  0.00     0.074 A 
ATOM     21  C   UNL     1       2.808  -2.916   6.938  1.00  0.00     0.031 C 
ATOM     22  C   UNL     1      -0.654  -6.755   2.348  1.00  0.00     0.029 A 
ATOM     23  C   UNL     1      -1.414  -6.438   3.550  1.00  0.00     0.049 A 
ATOM     24  H   UNL     1      -0.769  -5.380   5.224  1.00  0.00     0.167 HD
ATOM     25  C   UNL     1       0.913  -2.819   8.528  1.00  0.00     0.037 A 
ATOM     26  C   UNL     1      -2.690  -6.778   3.800  1.00  0.00     0.037 A 
ATOM     27  C   UNL     1      -0.416  -3.194   8.922  1.00  0.00     0.049 A 
ATOM     28  C   UNL     1      -3.262  -6.372   5.130  1.00  0.00     0.074 A 
ATOM     29  C   UNL     1      -1.099  -2.892  10.083  1.00  0.00     0.029 A 
ATOM     30  N   UNL     1      -1.268  -3.967   8.138  1.00  0.00    -0.354 N 
ATOM     31  N   UNL     1      -2.715  -5.643   6.077  1.00  0.00    -0.248 NA
ATOM     32  C   UNL     1      -4.614  -6.846   5.439  1.00  0.00     0.031 C 
ATOM     33  C   UNL     1      -2.344  -3.530  10.024  1.00  0.00     0.029 A 
ATOM     34  C   UNL     1      -2.464  -4.172   8.798  1.00  0.00     0.049 A 
ATOM     35  H   UNL     1      -1.049  -4.317   7.244  1.00  0.00     0.167 HD
ATOM     36  C   UNL     1      -3.665  -5.544   7.083  1.00  0.00     0.074 A 
ATOM     37  C   UNL     1      -4.826  -6.283   6.620  1.00  0.00     0.031 C 
ATOM     38  C   UNL     1      -3.594  -4.905   8.278  1.00  0.00     0.037 A 
BRANCH  25  39
ATOM     39  C   UNL     1       1.782  -2.005   9.442  1.00  0.00     0.057 A 
ATOM     40  C   UNL     1       2.209  -0.707   9.128  1.00  0.00     0.134 A 
ATOM     41  C   UNL     1       2.277  -2.576  10.622  1.00  0.00     0.134 A 
ATOM     42  F   UNL     1       1.806  -0.114   7.994  1.00  0.00    -0.206 F 
ATOM     43  C   UNL     1       3.127  -0.026   9.932  1.00  0.00     0.040 A 
ATOM     44  C   UNL     1       3.172  -1.894  11.447  1.00  0.00     0.040 A 
ATOM     45  F   UNL     1       1.922  -3.820  10.977  1.00  0.00    -0.206 F 
ATOM     46  C   UNL     1       3.611  -0.620  11.096  1.00  0.00     0.006 A 
ENDBRANCH  25  39
BRANCH  26  47
ATOM     47  C   UNL     1      -3.470  -7.569   2.813  1.00  0.00     0.057 A 
ATOM     48  C   UNL     1      -4.609  -7.045   2.193  1.00  0.00     0.134 A 
ATOM     49  C   UNL     1      -3.099  -8.876   2.468  1.00  0.00     0.134 A 
ATOM     50  F   UNL     1      -5.030  -5.807   2.490  1.00  0.00    -0.206 F 
ATOM     51  C   UNL     1      -5.357  -7.793   1.280  1.00  0.00     0.040 A 
ATOM     52  C   UNL     1      -3.820  -9.625   1.537  1.00  0.00     0.040 A 
ATOM     53  F   UNL     1      -2.017  -9.443   3.023  1.00  0.00    -0.206 F 
ATOM     54  C   UNL     1      -4.959  -9.086   0.946  1.00  0.00     0.006 A 
ENDBRANCH  26  47
BRANCH  38  55
ATOM     55  C   UNL     1      -4.830  -4.929   9.124  1.00  0.00     0.057 A 
ATOM     56  C   UNL     1      -5.256  -6.086   9.787  1.00  0.00     0.134 A 
ATOM     57  C   UNL     1      -5.574  -3.758   9.309  1.00  0.00     0.134 A 
ATOM     58  F   UNL     1      -4.590  -7.241   9.638  1.00  0.00    -0.206 F 
ATOM     59  C   UNL     1      -6.399  -6.083  10.585  1.00  0.00     0.040 A 
ATOM     60  C   UNL     1      -6.699  -3.734  10.131  1.00  0.00     0.040 A 
ATOM     61  F   UNL     1      -5.208  -2.615   8.710  1.00  0.00    -0.206 F 
ATOM     62  C   UNL     1      -7.118  -4.902  10.765  1.00  0.00     0.006 A 
ENDBRANCH  38  55
ENDBRANCH  12  13
ENDBRANCH   5   7
ENDBRANCH   4   5
ENDBRANCH   3   4
ENDBRANCH   2   3
ENDBRANCH   1   2
BRANCH   1  63
ATOM     63  C   UNL     1       5.714  -4.627  -1.424  1.00  0.00     0.202 C 
BRANCH  63  64
ATOM     64  C   UNL     1       4.972  -4.942  -2.712  1.00  0.00     0.261 C 
BRANCH  64  65
ATOM     65  O   UNL     1       5.058  -3.789  -3.555  1.00  0.00    -0.459 OA
BRANCH  65  66
ATOM     66  C   UNL     1       4.119  -2.808  -3.331  1.00  0.00     0.370 C 
ATOM     67  O   UNL     1       3.105  -2.944  -2.650  1.00  0.00    -0.245 OA
BRANCH  66  68
ATOM     68  C   UNL     1       4.521  -1.566  -4.132  1.00  0.00     0.328 C 
BRANCH  68  69
ATOM     69  N   UNL     1       3.988  -1.572  -5.531  1.00  0.00    -0.316 N 
ATOM     70  C   UNL     1       3.830  -2.936  -6.127  1.00  0.00     0.284 C 
ATOM     71  C   UNL     1       2.727  -0.847  -5.760  1.00  0.00     0.284 C 
ATOM     72  H   UNL     1       4.734  -1.060  -6.001  1.00  0.00     0.349 HD
ATOM     73  C   UNL     1       2.539  -3.745  -5.753  1.00  0.00     0.178 C 
ATOM     74  C   UNL     1       1.468  -1.551  -5.229  1.00  0.00     0.178 C 
ATOM     75  N   UNL     1       1.350  -2.889  -5.818  1.00  0.00    -0.360 N 
BRANCH  75  76
ATOM     76  C   UNL     1       0.082  -3.439  -5.674  1.00  0.00     0.038 A 
ATOM     77  C   UNL     1      -0.894  -3.070  -6.611  1.00  0.00     0.026 A 
ATOM     78  C   UNL     1      -0.297  -4.255  -4.603  1.00  0.00     0.046 A 
ATOM     79  C   UNL     1      -2.210  -3.511  -6.504  1.00  0.00     0.004 A 
ATOM     80  C   UNL     1      -1.621  -4.693  -4.491  1.00  0.00     0.043 A 
ATOM     81  C   UNL     1      -2.576  -4.328  -5.439  1.00  0.00     0.020 A 
ATOM     82  Cl  UNL     1      -2.093  -5.677  -3.157  1.00  0.00    -0.084 Cl
ENDBRANCH  75  76
ENDBRANCH  68  69
BRANCH  68  83
ATOM     83  C   UNL     1       4.278  -0.268  -3.351  1.00  0.00     0.046 A 
ATOM     84  C   UNL     1       3.092   0.150  -2.763  1.00  0.00     0.094 A 
ATOM     85  C   UNL     1       5.255   0.727  -2.961  1.00  0.00     0.011 A 
ATOM     86  N   UNL     1       3.253   1.407  -2.256  1.00  0.00    -0.361 N 
ATOM     87  C   UNL     1       4.571   1.771  -2.329  1.00  0.00     0.046 A 
ATOM     88  C   UNL     1       6.660   0.837  -3.062  1.00  0.00     0.031 A 
ATOM     89  H   UNL     1       2.530   1.967  -1.894  1.00  0.00     0.166 HD
ATOM     90  C   UNL     1       5.190   2.937  -1.863  1.00  0.00     0.028 A 
ATOM     91  C   UNL     1       7.299   1.974  -2.544  1.00  0.00     0.041 A 
ATOM     92  C   UNL     1       6.577   3.018  -1.974  1.00  0.00     0.022 A 
ATOM     93  Cl  UNL     1       9.019   2.074  -2.590  1.00  0.00    -0.084 Cl
ENDBRANCH  68  83
ENDBRANCH  66  68
ENDBRANCH  65  66
ENDBRANCH  64  65
ENDBRANCH  63  64
ENDBRANCH   1  63
TORSDOF 17
