REMARK SMILES Cc1ncccc1C(=O)NCCOCC(=O)OCCOCCOC(=O)c1ccc(-c2c3nc(c(-c4c(F)cccc4F)c4ccc([nH]4)c(-c4c(F)cccc4F)c4nc(c(-c5c(F)cccc5F)c5ccc2[nH]5)C=C4)C=C3)cc1
REMARK SMILES IDX 18 1 17 2 15 3 16 4 14 5 13 6 12 7 11 8 10 9 8 10 9 11 7 13
REMARK SMILES IDX 1 14 2 15 3 16 4 17 6 18 5 19 19 20 20 21 21 22 22 23 23 24
REMARK SMILES IDX 24 25 25 26 26 27 27 28 79 29 28 30 78 31 29 32 30 33 31 34
REMARK SMILES IDX 72 35 32 36 77 37 71 38 73 39 33 40 76 41 70 42 69 43 34 45
REMARK SMILES IDX 60 46 43 47 59 48 44 49 47 50 58 51 74 52 45 53 46 54 57 56
REMARK SMILES IDX 75 57 48 58 35 59 36 60 41 61 37 62 38 63 40 64 42 65 39 66
REMARK SMILES IDX 61 67 62 68 67 69 63 70 64 71 66 72 68 73 65 74 49 75 50 76
REMARK SMILES IDX 55 77 51 78 52 79 54 80 56 81 53 82
REMARK H PARENT 10 12 73 44 47 55
REMARK Flexibility Score: inf
ROOT
ATOM      1  C   UNL     1       2.635  -4.606   4.516  1.00  0.00     0.261 C 
ENDROOT
BRANCH   1   2
ATOM      2  O   UNL     1       3.604  -4.321   3.481  1.00  0.00    -0.462 OA
BRANCH   2   3
ATOM      3  C   UNL     1       3.370  -4.888   2.267  1.00  0.00     0.332 C 
ATOM      4  O   UNL     1       2.399  -5.582   1.994  1.00  0.00    -0.250 OA
BRANCH   3   5
ATOM      5  C   UNL     1       4.517  -4.635   1.270  1.00  0.00     0.282 C 
BRANCH   5   6
ATOM      6  O   UNL     1       5.234  -3.434   1.073  1.00  0.00    -0.368 OA
BRANCH   6   7
ATOM      7  C   UNL     1       4.571  -2.212   1.355  1.00  0.00     0.182 C 
BRANCH   7   8
ATOM      8  C   UNL     1       3.637  -1.667   0.261  1.00  0.00     0.144 C 
BRANCH   8   9
ATOM      9  N   UNL     1       2.554  -2.532  -0.172  1.00  0.00    -0.350 N 
ATOM     10  C   UNL     1       1.256  -2.296  -0.551  1.00  0.00     0.253 C 
ATOM     11  O   UNL     1       0.638  -3.246  -1.036  1.00  0.00    -0.269 OA
ATOM     12  H   UNL     1       2.802  -3.485  -0.199  1.00  0.00     0.163 HD
BRANCH  10  13
ATOM     13  C   UNL     1       0.514  -1.027  -0.342  1.00  0.00     0.061 A 
ATOM     14  C   UNL     1       2.194   0.610  -1.373  1.00  0.00     0.067 C 
ATOM     15  C   UNL     1       0.914   0.266  -0.681  1.00  0.00     0.050 A 
ATOM     16  N   UNL     1       0.120   1.356  -0.457  1.00  0.00    -0.261 NA
ATOM     17  C   UNL     1      -1.130   1.160   0.014  1.00  0.00     0.111 A 
ATOM     18  C   UNL     1      -0.807  -1.184   0.125  1.00  0.00     0.017 A 
ATOM     19  C   UNL     1      -1.643  -0.086   0.299  1.00  0.00     0.021 A 
ENDBRANCH  10  13
ENDBRANCH   8   9
ENDBRANCH   7   8
ENDBRANCH   6   7
ENDBRANCH   5   6
ENDBRANCH   3   5
ENDBRANCH   2   3
ENDBRANCH   1   2
BRANCH   1  20
ATOM     20  C   UNL     1       2.108  -3.316   5.147  1.00  0.00     0.202 C 
BRANCH  20  21
ATOM     21  O   UNL     1       1.028  -2.693   4.447  1.00  0.00    -0.374 OA
BRANCH  21  22
ATOM     22  C   UNL     1       1.375  -1.966   3.273  1.00  0.00     0.202 C 
BRANCH  22  23
ATOM     23  C   UNL     1       1.803  -0.511   3.517  1.00  0.00     0.261 C 
BRANCH  23  24
ATOM     24  O   UNL     1       2.920  -0.428   4.420  1.00  0.00    -0.460 OA
BRANCH  24  25
ATOM     25  C   UNL     1       2.605   0.052   5.647  1.00  0.00     0.338 C 
ATOM     26  O   UNL     1       1.550   0.567   5.993  1.00  0.00    -0.246 OA
BRANCH  25  27
ATOM     27  C   UNL     1       3.659  -0.286   6.620  1.00  0.00     0.060 A 
ATOM     28  C   UNL     1       3.252  -0.930   7.796  1.00  0.00     0.016 A 
ATOM     29  C   UNL     1       4.996   0.073   6.436  1.00  0.00     0.016 A 
ATOM     30  C   UNL     1       4.168  -1.164   8.817  1.00  0.00     0.010 A 
ATOM     31  C   UNL     1       5.916  -0.157   7.468  1.00  0.00     0.010 A 
ATOM     32  C   UNL     1       5.496  -0.739   8.678  1.00  0.00    -0.014 A 
BRANCH  32  33
ATOM     33  C   UNL     1       6.381  -0.760   9.868  1.00  0.00     0.031 A 
ATOM     34  C   UNL     1       6.553   0.503  10.667  1.00  0.00     0.074 A 
ATOM     35  C   UNL     1       6.964  -1.901  10.277  1.00  0.00     0.049 A 
ATOM     36  N   UNL     1       7.242   0.707  11.761  1.00  0.00    -0.248 NA
ATOM     37  C   UNL     1       5.849   1.696  10.168  1.00  0.00     0.031 C 
ATOM     38  C   UNL     1       6.840  -3.197   9.614  1.00  0.00     0.029 A 
ATOM     39  N   UNL     1       7.772  -2.149  11.357  1.00  0.00    -0.354 N 
ATOM     40  C   UNL     1       7.053   2.046  12.081  1.00  0.00     0.074 A 
ATOM     41  C   UNL     1       6.215   2.615  11.049  1.00  0.00     0.031 C 
ATOM     42  C   UNL     1       7.550  -4.107  10.303  1.00  0.00     0.029 A 
ATOM     43  C   UNL     1       8.194  -3.453  11.440  1.00  0.00     0.049 A 
ATOM     44  H   UNL     1       8.026  -1.458  12.011  1.00  0.00     0.167 HD
ATOM     45  C   UNL     1       7.525   2.737  13.146  1.00  0.00     0.037 A 
ATOM     46  C   UNL     1       9.016  -4.046  12.328  1.00  0.00     0.037 A 
ATOM     47  C   UNL     1       8.358   2.173  14.175  1.00  0.00     0.049 A 
ATOM     48  C   UNL     1       9.584  -3.240  13.466  1.00  0.00     0.074 A 
ATOM     49  C   UNL     1       8.875   2.789  15.301  1.00  0.00     0.029 A 
ATOM     50  N   UNL     1       8.800   0.860  14.198  1.00  0.00    -0.354 N 
ATOM     51  N   UNL     1       9.378  -1.982  13.772  1.00  0.00    -0.248 NA
ATOM     52  C   UNL     1      10.496  -3.939  14.384  1.00  0.00     0.031 C 
ATOM     53  C   UNL     1       9.667   1.859  15.983  1.00  0.00     0.029 A 
ATOM     54  C   UNL     1       9.605   0.652  15.305  1.00  0.00     0.049 A 
ATOM     55  H   UNL     1       8.576   0.176  13.526  1.00  0.00     0.167 HD
ATOM     56  C   UNL     1      10.112  -1.745  14.928  1.00  0.00     0.074 A 
ATOM     57  C   UNL     1      10.759  -2.993  15.275  1.00  0.00     0.031 C 
ATOM     58  C   UNL     1      10.238  -0.598  15.639  1.00  0.00     0.037 A 
BRANCH  45  59
ATOM     59  C   UNL     1       7.165   4.190  13.237  1.00  0.00     0.057 A 
ATOM     60  C   UNL     1       5.872   4.611  13.575  1.00  0.00     0.134 A 
ATOM     61  C   UNL     1       8.128   5.179  13.008  1.00  0.00     0.134 A 
ATOM     62  F   UNL     1       4.899   3.713  13.791  1.00  0.00    -0.206 F 
ATOM     63  C   UNL     1       5.545   5.966  13.659  1.00  0.00     0.040 A 
ATOM     64  C   UNL     1       7.820   6.537  13.112  1.00  0.00     0.040 A 
ATOM     65  F   UNL     1       9.386   4.843  12.683  1.00  0.00    -0.206 F 
ATOM     66  C   UNL     1       6.523   6.933  13.433  1.00  0.00     0.006 A 
ENDBRANCH  45  59
BRANCH  46  67
ATOM     67  C   UNL     1       9.360  -5.483  12.177  1.00  0.00     0.057 A 
ATOM     68  C   UNL     1       8.894  -6.442  13.082  1.00  0.00     0.134 A 
ATOM     69  C   UNL     1      10.182  -5.925  11.133  1.00  0.00     0.134 A 
ATOM     70  F   UNL     1       8.123  -6.076  14.117  1.00  0.00    -0.206 F 
ATOM     71  C   UNL     1       9.244  -7.789  12.964  1.00  0.00     0.040 A 
ATOM     72  C   UNL     1      10.521  -7.271  10.990  1.00  0.00     0.040 A 
ATOM     73  F   UNL     1      10.662  -5.054  10.233  1.00  0.00    -0.206 F 
ATOM     74  C   UNL     1      10.056  -8.207  11.912  1.00  0.00     0.006 A 
ENDBRANCH  46  67
BRANCH  58  75
ATOM     75  C   UNL     1      11.082  -0.646  16.879  1.00  0.00     0.057 A 
ATOM     76  C   UNL     1      12.480  -0.708  16.818  1.00  0.00     0.134 A 
ATOM     77  C   UNL     1      10.491  -0.584  18.147  1.00  0.00     0.134 A 
ATOM     78  F   UNL     1      13.106  -0.781  15.633  1.00  0.00    -0.206 F 
ATOM     79  C   UNL     1      13.259  -0.729  17.976  1.00  0.00     0.040 A 
ATOM     80  C   UNL     1      11.261  -0.580  19.311  1.00  0.00     0.040 A 
ATOM     81  F   UNL     1       9.158  -0.513  18.274  1.00  0.00    -0.206 F 
ATOM     82  C   UNL     1      12.649  -0.658  19.227  1.00  0.00     0.006 A 
ENDBRANCH  58  75
ENDBRANCH  32  33
ENDBRANCH  25  27
ENDBRANCH  24  25
ENDBRANCH  23  24
ENDBRANCH  22  23
ENDBRANCH  21  22
ENDBRANCH  20  21
ENDBRANCH   1  20
TORSDOF 19
