REMARK SMILES C[C@@H](Oc1ccc(-c2ccccc2)cc1)C(=O)N1CCC[C@H](C(=O)OCCOCCOC(=O)c2ccc(-c3c4nc(c(-c5c(F)cccc5F)c5ccc([nH]5)c(-c5c(F)cccc5F)c5nc(c(-c6c(F)cccc6F)c6ccc3[nH]6)C=C5)C=C4)cc2)C1
REMARK SMILES IDX 26 1 25 2 23 3 24 4 22 5 18 6 19 7 88 8 20 9 21 10 16 11
REMARK SMILES IDX 17 12 2 13 1 14 3 15 4 16 5 17 15 18 6 19 14 20 7 21 8 22
REMARK SMILES IDX 9 23 13 24 10 25 12 26 11 27 27 28 28 29 29 30 30 31 31 32
REMARK SMILES IDX 32 33 33 34 34 35 35 36 87 37 36 38 86 39 37 40 38 41 39 42
REMARK SMILES IDX 80 43 40 44 85 45 79 46 81 47 41 48 84 49 78 50 77 51 42 53
REMARK SMILES IDX 68 54 51 55 67 56 52 57 55 58 66 59 82 60 53 61 54 62 65 64
REMARK SMILES IDX 83 65 56 66 43 67 44 68 49 69 45 70 46 71 48 72 50 73 47 74
REMARK SMILES IDX 69 75 70 76 75 77 71 78 72 79 74 80 76 81 73 82 57 83 58 84
REMARK SMILES IDX 63 85 59 86 60 87 62 88 64 89 61 90
REMARK H PARENT 81 52 55 63
REMARK Flexibility Score: inf
ROOT
ATOM      1  C   UNL     1      -2.613  -2.489  -0.075  1.00  0.00     0.261 C 
ENDROOT
BRANCH   1   2
ATOM      2  O   UNL     1      -2.757  -1.117  -0.485  1.00  0.00    -0.463 OA
BRANCH   2   3
ATOM      3  C   UNL     1      -1.974  -0.686  -1.503  1.00  0.00     0.310 C 
ATOM      4  O   UNL     1      -1.110  -1.358  -2.054  1.00  0.00    -0.252 OA
BRANCH   3   5
ATOM      5  C   UNL     1      -2.229   0.767  -1.870  1.00  0.00     0.119 C 
ATOM      6  N   UNL     1      -1.612   1.788   0.274  1.00  0.00    -0.339 N 
ATOM      7  C   UNL     1      -2.920   2.404   0.473  1.00  0.00     0.119 C 
ATOM      8  C   UNL     1      -1.219   1.638  -1.128  1.00  0.00     0.134 C 
ATOM      9  C   UNL     1      -4.019   1.610  -0.221  1.00  0.00     0.022 C 
ATOM     10  C   UNL     1      -3.663   1.284  -1.674  1.00  0.00     0.019 C 
BRANCH   6  11
ATOM     11  C   UNL     1      -0.891   1.342   1.377  1.00  0.00     0.263 C 
ATOM     12  O   UNL     1      -1.431   1.208   2.482  1.00  0.00    -0.271 OA
BRANCH  11  13
ATOM     13  C   UNL     1       0.609   1.018   1.231  1.00  0.00     0.259 C 
ATOM     14  C   UNL     1       0.839  -0.384   0.673  1.00  0.00     0.064 C 
BRANCH  13  15
ATOM     15  O   UNL     1       1.186   2.040   0.412  1.00  0.00    -0.481 OA
BRANCH  15  16
ATOM     16  C   UNL     1       2.510   2.252   0.644  1.00  0.00     0.120 A 
ATOM     17  C   UNL     1       2.901   3.277   1.498  1.00  0.00     0.047 A 
ATOM     18  C   UNL     1       3.445   1.563  -0.118  1.00  0.00     0.047 A 
ATOM     19  C   UNL     1       4.253   3.618   1.589  1.00  0.00     0.012 A 
ATOM     20  C   UNL     1       4.793   1.901  -0.018  1.00  0.00     0.012 A 
ATOM     21  C   UNL     1       5.219   2.949   0.817  1.00  0.00    -0.018 A 
BRANCH  21  22
ATOM     22  C   UNL     1       6.632   3.358   0.825  1.00  0.00    -0.018 A 
ATOM     23  C   UNL     1       7.358   3.479   2.019  1.00  0.00     0.009 A 
ATOM     24  C   UNL     1       7.297   3.631  -0.384  1.00  0.00     0.009 A 
ATOM     25  C   UNL     1       8.708   3.842   2.002  1.00  0.00     0.001 A 
ATOM     26  C   UNL     1       8.645   3.993  -0.403  1.00  0.00     0.001 A 
ATOM     27  C   UNL     1       9.351   4.095   0.792  1.00  0.00     0.000 A 
ENDBRANCH  21  22
ENDBRANCH  15  16
ENDBRANCH  13  15
ENDBRANCH  11  13
ENDBRANCH   6  11
ENDBRANCH   3   5
ENDBRANCH   2   3
ENDBRANCH   1   2
BRANCH   1  28
ATOM     28  C   UNL     1      -3.968  -3.199  -0.101  1.00  0.00     0.202 C 
BRANCH  28  29
ATOM     29  O   UNL     1      -4.478  -3.504  -1.401  1.00  0.00    -0.374 OA
BRANCH  29  30
ATOM     30  C   UNL     1      -4.973  -2.417  -2.180  1.00  0.00     0.202 C 
BRANCH  30  31
ATOM     31  C   UNL     1      -6.390  -1.940  -1.843  1.00  0.00     0.261 C 
BRANCH  31  32
ATOM     32  O   UNL     1      -6.506  -1.448  -0.495  1.00  0.00    -0.460 OA
BRANCH  32  33
ATOM     33  C   UNL     1      -7.252  -2.229   0.321  1.00  0.00     0.338 C 
ATOM     34  O   UNL     1      -7.885  -3.230   0.011  1.00  0.00    -0.246 OA
BRANCH  33  35
ATOM     35  C   UNL     1      -7.113  -1.810   1.727  1.00  0.00     0.060 A 
ATOM     36  C   UNL     1      -6.785  -2.803   2.659  1.00  0.00     0.016 A 
ATOM     37  C   UNL     1      -7.409  -0.512   2.150  1.00  0.00     0.016 A 
ATOM     38  C   UNL     1      -6.816  -2.519   4.021  1.00  0.00     0.010 A 
ATOM     39  C   UNL     1      -7.444  -0.230   3.523  1.00  0.00     0.010 A 
ATOM     40  C   UNL     1      -7.190  -1.244   4.465  1.00  0.00    -0.014 A 
BRANCH  40  41
ATOM     41  C   UNL     1      -7.461  -1.037   5.909  1.00  0.00     0.031 A 
ATOM     42  C   UNL     1      -8.882  -1.089   6.404  1.00  0.00     0.074 A 
ATOM     43  C   UNL     1      -6.452  -0.876   6.784  1.00  0.00     0.049 A 
ATOM     44  N   UNL     1      -9.341  -0.975   7.625  1.00  0.00    -0.248 NA
ATOM     45  C   UNL     1      -9.924  -1.300   5.387  1.00  0.00     0.031 C 
ATOM     46  C   UNL     1      -5.033  -0.841   6.439  1.00  0.00     0.029 A 
ATOM     47  N   UNL     1      -6.474  -0.717   8.147  1.00  0.00    -0.354 N 
ATOM     48  C   UNL     1     -10.721  -1.101   7.523  1.00  0.00     0.074 A 
ATOM     49  C   UNL     1     -11.028  -1.267   6.119  1.00  0.00     0.031 C 
ATOM     50  C   UNL     1      -4.316  -0.671   7.563  1.00  0.00     0.029 A 
ATOM     51  C   UNL     1      -5.227  -0.564   8.702  1.00  0.00     0.049 A 
ATOM     52  H   UNL     1      -7.304  -0.713   8.676  1.00  0.00     0.167 HD
ATOM     53  C   UNL     1     -11.649  -1.093   8.510  1.00  0.00     0.037 A 
ATOM     54  C   UNL     1      -4.865  -0.351   9.982  1.00  0.00     0.037 A 
ATOM     55  C   UNL     1     -11.349  -0.933   9.908  1.00  0.00     0.049 A 
ATOM     56  C   UNL     1      -5.919  -0.286  11.053  1.00  0.00     0.074 A 
ATOM     57  C   UNL     1     -12.222  -0.931  10.983  1.00  0.00     0.029 A 
ATOM     58  N   UNL     1     -10.077  -0.742  10.425  1.00  0.00    -0.354 N 
ATOM     59  N   UNL     1      -7.218  -0.435  10.948  1.00  0.00    -0.248 NA
ATOM     60  C   UNL     1      -5.455  -0.027  12.425  1.00  0.00     0.031 C 
ATOM     61  C   UNL     1     -11.482  -0.697  12.147  1.00  0.00     0.029 A 
ATOM     62  C   UNL     1     -10.144  -0.597  11.802  1.00  0.00     0.049 A 
ATOM     63  H   UNL     1      -9.249  -0.714   9.893  1.00  0.00     0.167 HD
ATOM     64  C   UNL     1      -7.721  -0.313  12.238  1.00  0.00     0.074 A 
ATOM     65  C   UNL     1      -6.588  -0.091  13.111  1.00  0.00     0.031 C 
ATOM     66  C   UNL     1      -9.008  -0.381  12.660  1.00  0.00     0.037 A 
BRANCH  53  67
ATOM     67  C   UNL     1     -13.086  -1.243   8.106  1.00  0.00     0.057 A 
ATOM     68  C   UNL     1     -13.608  -2.471   7.679  1.00  0.00     0.134 A 
ATOM     69  C   UNL     1     -13.964  -0.155   8.176  1.00  0.00     0.134 A 
ATOM     70  F   UNL     1     -12.815  -3.549   7.578  1.00  0.00    -0.206 F 
ATOM     71  C   UNL     1     -14.949  -2.606   7.316  1.00  0.00     0.040 A 
ATOM     72  C   UNL     1     -15.312  -0.283   7.837  1.00  0.00     0.040 A 
ATOM     73  F   UNL     1     -13.528   1.047   8.581  1.00  0.00    -0.206 F 
ATOM     74  C   UNL     1     -15.807  -1.511   7.401  1.00  0.00     0.006 A 
ENDBRANCH  53  67
BRANCH  54  75
ATOM     75  C   UNL     1      -3.432  -0.176  10.326  1.00  0.00     0.057 A 
ATOM     76  C   UNL     1      -2.735  -1.148  11.052  1.00  0.00     0.134 A 
ATOM     77  C   UNL     1      -2.732   0.978   9.953  1.00  0.00     0.134 A 
ATOM     78  F   UNL     1      -3.359  -2.263  11.460  1.00  0.00    -0.206 F 
ATOM     79  C   UNL     1      -1.397  -0.973  11.409  1.00  0.00     0.040 A 
ATOM     80  C   UNL     1      -1.388   1.156  10.283  1.00  0.00     0.040 A 
ATOM     81  F   UNL     1      -3.347   1.948   9.260  1.00  0.00    -0.206 F 
ATOM     82  C   UNL     1      -0.718   0.181  11.019  1.00  0.00     0.006 A 
ENDBRANCH  54  75
BRANCH  66  83
ATOM     83  C   UNL     1      -9.257  -0.243  14.133  1.00  0.00     0.057 A 
ATOM     84  C   UNL     1      -9.151   0.991  14.787  1.00  0.00     0.134 A 
ATOM     85  C   UNL     1      -9.642  -1.351  14.899  1.00  0.00     0.134 A 
ATOM     86  F   UNL     1      -8.775   2.088  14.113  1.00  0.00    -0.206 F 
ATOM     87  C   UNL     1      -9.400   1.114  16.156  1.00  0.00     0.040 A 
ATOM     88  C   UNL     1      -9.917  -1.236  16.262  1.00  0.00     0.040 A 
ATOM     89  F   UNL     1      -9.771  -2.560  14.331  1.00  0.00    -0.206 F 
ATOM     90  C   UNL     1      -9.790  -0.001  16.895  1.00  0.00     0.006 A 
ENDBRANCH  66  83
ENDBRANCH  40  41
ENDBRANCH  33  35
ENDBRANCH  32  33
ENDBRANCH  31  32
ENDBRANCH  30  31
ENDBRANCH  29  30
ENDBRANCH  28  29
ENDBRANCH   1  28
TORSDOF 19
