REMARK SMILES O=C(OCCOCCOC(=O)[C@@H]1C[C@H]1c1cccc(F)c1F)c1ccc(-c2c3nc(c(-c4c(F)cccc4F)c4ccc([nH]4)c(-c4c(F)cccc4F)c4nc(c(-c5c(F)cccc5F)c5ccc2[nH]5)C=C4)C=C3)cc1
REMARK SMILES IDX 5 1 4 2 3 3 2 4 1 5 23 6 24 7 76 8 25 9 75 10 26 11 27 12
REMARK SMILES IDX 28 13 69 14 29 15 74 16 68 17 70 18 30 19 73 20 67 21 66 22
REMARK SMILES IDX 31 24 57 25 40 26 56 27 41 28 44 29 55 30 71 31 42 32 43 33
REMARK SMILES IDX 54 35 72 36 45 37 32 38 33 39 38 40 34 41 35 42 37 43 39 44
REMARK SMILES IDX 36 45 58 46 59 47 64 48 60 49 61 50 63 51 65 52 62 53 46 54
REMARK SMILES IDX 47 55 52 56 48 57 49 58 51 59 53 60 50 61 6 62 7 63 8 64
REMARK SMILES IDX 9 65 10 66 11 67 12 68 13 69 14 70 15 71 16 72 21 73 17 74
REMARK SMILES IDX 19 75 22 76 18 77 20 78
REMARK H PARENT 70 23 44 34
REMARK Flexibility Score: inf
ROOT
ATOM      1  C   UNL     1       4.604  -1.438   0.429  1.00  0.00     0.202 C 
ENDROOT
BRANCH   1   2
ATOM      2  C   UNL     1       4.415  -0.134   1.214  1.00  0.00     0.261 C 
BRANCH   2   3
ATOM      3  O   UNL     1       3.028   0.233   1.259  1.00  0.00    -0.460 OA
BRANCH   3   4
ATOM      4  C   UNL     1       2.363   1.079   0.439  1.00  0.00     0.338 C 
ATOM      5  O   UNL     1       1.149   1.208   0.588  1.00  0.00    -0.246 OA
BRANCH   4   6
ATOM      6  C   UNL     1       3.018   1.863  -0.652  1.00  0.00     0.060 A 
ATOM      7  C   UNL     1       4.181   1.489  -1.332  1.00  0.00     0.016 A 
ATOM      8  C   UNL     1       2.342   3.013  -1.087  1.00  0.00     0.016 A 
ATOM      9  C   UNL     1       4.681   2.223  -2.389  1.00  0.00     0.010 A 
ATOM     10  C   UNL     1       2.831   3.762  -2.156  1.00  0.00     0.010 A 
ATOM     11  C   UNL     1       4.009   3.365  -2.795  1.00  0.00    -0.014 A 
BRANCH  11  12
ATOM     12  C   UNL     1       4.672   4.220  -3.779  1.00  0.00     0.031 A 
ATOM     13  C   UNL     1       5.401   5.412  -3.264  1.00  0.00     0.074 A 
ATOM     14  C   UNL     1       4.690   3.857  -5.070  1.00  0.00     0.049 A 
ATOM     15  N   UNL     1       5.942   6.398  -3.918  1.00  0.00    -0.248 NA
ATOM     16  C   UNL     1       5.539   5.502  -1.799  1.00  0.00     0.031 C 
ATOM     17  C   UNL     1       4.129   2.615  -5.606  1.00  0.00     0.029 A 
ATOM     18  N   UNL     1       5.199   4.500  -6.162  1.00  0.00    -0.354 N 
ATOM     19  C   UNL     1       6.442   7.251  -2.946  1.00  0.00     0.074 A 
ATOM     20  C   UNL     1       6.146   6.668  -1.659  1.00  0.00     0.031 C 
ATOM     21  C   UNL     1       4.302   2.600  -6.937  1.00  0.00     0.029 A 
ATOM     22  C   UNL     1       4.915   3.861  -7.342  1.00  0.00     0.049 A 
ATOM     23  H   UNL     1       5.717   5.335  -6.107  1.00  0.00     0.167 HD
ATOM     24  C   UNL     1       7.072   8.432  -3.134  1.00  0.00     0.037 A 
ATOM     25  C   UNL     1       5.077   4.295  -8.604  1.00  0.00     0.037 A 
ATOM     26  C   UNL     1       7.322   8.969  -4.443  1.00  0.00     0.049 A 
ATOM     27  C   UNL     1       5.684   5.657  -8.797  1.00  0.00     0.074 A 
ATOM     28  C   UNL     1       7.901  10.171  -4.793  1.00  0.00     0.029 A 
ATOM     29  N   UNL     1       6.985   8.319  -5.628  1.00  0.00    -0.354 N 
ATOM     30  N   UNL     1       6.098   6.510  -7.886  1.00  0.00    -0.248 NA
ATOM     31  C   UNL     1       5.837   6.129 -10.176  1.00  0.00     0.031 C 
ATOM     32  C   UNL     1       7.857  10.275  -6.188  1.00  0.00     0.029 A 
ATOM     33  C   UNL     1       7.320   9.106  -6.711  1.00  0.00     0.049 A 
ATOM     34  H   UNL     1       6.569   7.428  -5.684  1.00  0.00     0.167 HD
ATOM     35  C   UNL     1       6.588   7.606  -8.579  1.00  0.00     0.074 A 
ATOM     36  C   UNL     1       6.415   7.309  -9.989  1.00  0.00     0.031 C 
ATOM     37  C   UNL     1       7.139   8.750  -8.100  1.00  0.00     0.037 A 
BRANCH  24  38
ATOM     38  C   UNL     1       7.401   9.225  -1.905  1.00  0.00     0.057 A 
ATOM     39  C   UNL     1       8.349   8.802  -0.962  1.00  0.00     0.134 A 
ATOM     40  C   UNL     1       6.682  10.392  -1.612  1.00  0.00     0.134 A 
ATOM     41  F   UNL     1       9.050   7.675  -1.161  1.00  0.00    -0.206 F 
ATOM     42  C   UNL     1       8.532   9.479   0.246  1.00  0.00     0.040 A 
ATOM     43  C   UNL     1       6.880  11.095  -0.423  1.00  0.00     0.040 A 
ATOM     44  F   UNL     1       5.753  10.851  -2.463  1.00  0.00    -0.206 F 
ATOM     45  C   UNL     1       7.795  10.630   0.518  1.00  0.00     0.006 A 
ENDBRANCH  24  38
BRANCH  25  46
ATOM     46  C   UNL     1       4.606   3.459  -9.735  1.00  0.00     0.057 A 
ATOM     47  C   UNL     1       5.502   2.859 -10.625  1.00  0.00     0.134 A 
ATOM     48  C   UNL     1       3.241   3.194  -9.922  1.00  0.00     0.134 A 
ATOM     49  F   UNL     1       6.819   3.080 -10.508  1.00  0.00    -0.206 F 
ATOM     50  C   UNL     1       5.061   2.029 -11.659  1.00  0.00     0.040 A 
ATOM     51  C   UNL     1       2.788   2.347 -10.934  1.00  0.00     0.040 A 
ATOM     52  F   UNL     1       2.328   3.731  -9.099  1.00  0.00    -0.206 F 
ATOM     53  C   UNL     1       3.700   1.763 -11.809  1.00  0.00     0.006 A 
ENDBRANCH  25  46
BRANCH  37  54
ATOM     54  C   UNL     1       7.648   9.736  -9.106  1.00  0.00     0.057 A 
ATOM     55  C   UNL     1       6.788  10.553  -9.846  1.00  0.00     0.134 A 
ATOM     56  C   UNL     1       9.027   9.941  -9.244  1.00  0.00     0.134 A 
ATOM     57  F   UNL     1       5.459  10.396  -9.763  1.00  0.00    -0.206 F 
ATOM     58  C   UNL     1       7.284  11.545 -10.692  1.00  0.00     0.040 A 
ATOM     59  C   UNL     1       9.534  10.947 -10.063  1.00  0.00     0.040 A 
ATOM     60  F   UNL     1       9.900   9.193  -8.551  1.00  0.00    -0.206 F 
ATOM     61  C   UNL     1       8.660  11.753 -10.790  1.00  0.00     0.006 A 
ENDBRANCH  37  54
ENDBRANCH  11  12
ENDBRANCH   4   6
ENDBRANCH   3   4
ENDBRANCH   2   3
ENDBRANCH   1   2
BRANCH   1  62
ATOM     62  O   UNL     1       4.154  -1.424  -0.930  1.00  0.00    -0.374 OA
BRANCH  62  63
ATOM     63  C   UNL     1       2.752  -1.634  -1.149  1.00  0.00     0.202 C 
BRANCH  63  64
ATOM     64  C   UNL     1       2.542  -2.783  -2.136  1.00  0.00     0.261 C 
BRANCH  64  65
ATOM     65  O   UNL     1       2.981  -3.985  -1.498  1.00  0.00    -0.463 OA
BRANCH  65  66
ATOM     66  C   UNL     1       4.321  -4.183  -1.569  1.00  0.00     0.309 C 
ATOM     67  O   UNL     1       5.066  -3.870  -2.487  1.00  0.00    -0.252 OA
BRANCH  66  68
ATOM     68  C   UNL     1       4.795  -4.750  -0.297  1.00  0.00     0.107 C 
ATOM     69  C   UNL     1       6.220  -5.125  -0.026  1.00  0.00     0.025 C 
ATOM     70  C   UNL     1       5.188  -6.204  -0.262  1.00  0.00     0.037 C 
BRANCH  70  71
ATOM     71  C   UNL     1       4.626  -7.041   0.858  1.00  0.00    -0.005 A 
ATOM     72  C   UNL     1       3.263  -6.967   1.216  1.00  0.00     0.007 A 
ATOM     73  C   UNL     1       5.423  -7.954   1.557  1.00  0.00     0.162 A 
ATOM     74  C   UNL     1       2.724  -7.772   2.222  1.00  0.00     0.004 A 
ATOM     75  C   UNL     1       4.886  -8.766   2.551  1.00  0.00     0.159 A 
ATOM     76  F   UNL     1       6.727  -8.054   1.256  1.00  0.00    -0.203 F 
ATOM     77  C   UNL     1       3.539  -8.683   2.886  1.00  0.00     0.042 A 
ATOM     78  F   UNL     1       5.667  -9.646   3.191  1.00  0.00    -0.204 F 
ENDBRANCH  70  71
ENDBRANCH  66  68
ENDBRANCH  65  66
ENDBRANCH  64  65
ENDBRANCH  63  64
ENDBRANCH  62  63
ENDBRANCH   1  62
TORSDOF 15
