REMARK SMILES COc1cc([C@@H]2CC(=O)Nc3c(C(=O)OCCOCCOC(=O)c4ccc(-c5c6nc(c(-c7c(F)cccc7F)c7ccc([nH]7)c(-c7c(F)cccc7F)c7nc(c(-c8c(F)cccc8F)c8ccc5[nH]8)C=C7)C=C6)cc4)cn(-c4ccc(F)cc4)c32)c(OC)c2c1OCO2
REMARK SMILES IDX 18 1 17 2 16 3 15 4 13 5 14 6 12 7 6 8 7 9 87 10 8 11 11 12
REMARK SMILES IDX 79 13 9 14 10 15 78 16 5 18 3 19 4 20 92 21 91 22 93 23
REMARK SMILES IDX 88 24 95 25 94 26 2 27 1 28 89 29 90 30 80 31 81 32 86 33
REMARK SMILES IDX 82 34 85 35 83 36 84 37 19 38 20 39 21 40 22 41 23 42 24 43
REMARK SMILES IDX 25 44 77 45 26 46 76 47 27 48 28 49 29 50 70 51 30 52 75 53
REMARK SMILES IDX 69 54 71 55 31 56 74 57 68 58 67 59 32 61 58 62 41 63 57 64
REMARK SMILES IDX 42 65 45 66 56 67 72 68 43 69 44 70 55 72 73 73 46 74 33 75
REMARK SMILES IDX 34 76 39 77 35 78 36 79 38 80 40 81 37 82 59 83 60 84 65 85
REMARK SMILES IDX 61 86 62 87 64 88 66 89 63 90 47 91 48 92 53 93 49 94 50 95
REMARK SMILES IDX 52 96 54 97 51 98
REMARK H PARENT 10 17 71 60 45 71
REMARK Flexibility Score: inf
ROOT
ATOM      1  O   UNL     1      -1.443  10.460  -6.477  1.00  0.00    -0.374 OA
ENDROOT
BRANCH   1   2
ATOM      2  C   UNL     1      -0.360  10.205  -7.369  1.00  0.00     0.202 C 
BRANCH   2   3
ATOM      3  C   UNL     1       0.831   9.387  -6.860  1.00  0.00     0.261 C 
BRANCH   3   4
ATOM      4  O   UNL     1       0.477   8.039  -6.517  1.00  0.00    -0.460 OA
BRANCH   4   5
ATOM      5  C   UNL     1       0.315   7.825  -5.176  1.00  0.00     0.341 C 
ATOM      6  O   UNL     1       0.546   8.646  -4.305  1.00  0.00    -0.246 OA
BRANCH   5   7
ATOM      7  C   UNL     1      -0.292   6.535  -4.891  1.00  0.00     0.102 A 
ATOM      8  C   UNL     1      -0.570   2.858  -5.036  1.00  0.00     0.082 C 
ATOM      9  C   UNL     1      -0.388   2.642  -6.550  1.00  0.00     0.115 C 
ATOM     10  C   UNL     1      -0.716   4.326  -4.763  1.00  0.00     0.055 A 
ATOM     11  C   UNL     1       0.430   3.710  -7.269  1.00  0.00     0.225 C 
ATOM     12  C   UNL     1      -0.212   5.310  -5.583  1.00  0.00     0.078 A 
ATOM     13  N   UNL     1      -1.350   4.940  -3.703  1.00  0.00    -0.317 N 
ATOM     14  O   UNL     1       1.034   3.461  -8.314  1.00  0.00    -0.275 OA
ATOM     15  N   UNL     1       0.377   4.996  -6.786  1.00  0.00    -0.324 N 
ATOM     16  C   UNL     1      -1.113   6.292  -3.796  1.00  0.00     0.109 A 
ATOM     17  H   UNL     1       0.775   5.720  -7.322  1.00  0.00     0.170 HD
BRANCH   8  18
ATOM     18  C   UNL     1       0.545   2.195  -4.208  1.00  0.00     0.012 A 
ATOM     19  C   UNL     1       1.083   0.560  -2.451  1.00  0.00     0.165 A 
ATOM     20  C   UNL     1       0.179   1.115  -3.360  1.00  0.00     0.059 A 
ATOM     21  C   UNL     1       2.389   1.004  -2.490  1.00  0.00     0.211 A 
ATOM     22  C   UNL     1       2.783   2.014  -3.345  1.00  0.00     0.211 A 
ATOM     23  O   UNL     1       3.425   0.533  -1.740  1.00  0.00    -0.449 OA
ATOM     24  C   UNL     1       1.889   2.644  -4.200  1.00  0.00     0.168 A 
ATOM     25  O   UNL     1       4.112   2.292  -3.206  1.00  0.00    -0.449 OA
ATOM     26  C   UNL     1       4.524   1.285  -2.271  1.00  0.00     0.468 C 
BRANCH  19  27
ATOM     27  O   UNL     1       0.600  -0.394  -1.603  1.00  0.00    -0.493 OA
ATOM     28  C   UNL     1       0.950  -0.159  -0.238  1.00  0.00     0.278 C 
ENDBRANCH  19  27
BRANCH  24  29
ATOM     29  O   UNL     1       2.187   3.678  -5.030  1.00  0.00    -0.492 OA
ATOM     30  C   UNL     1       3.520   4.150  -5.130  1.00  0.00     0.278 C 
ENDBRANCH  24  29
ENDBRANCH   8  18
BRANCH  13  31
ATOM     31  C   UNL     1      -2.086   4.328  -2.669  1.00  0.00     0.046 A 
ATOM     32  C   UNL     1      -1.445   3.423  -1.821  1.00  0.00     0.029 A 
ATOM     33  C   UNL     1      -3.449   4.605  -2.522  1.00  0.00     0.029 A 
ATOM     34  C   UNL     1      -2.188   2.702  -0.890  1.00  0.00     0.041 A 
ATOM     35  C   UNL     1      -4.187   3.884  -1.579  1.00  0.00     0.041 A 
ATOM     36  C   UNL     1      -3.555   2.925  -0.789  1.00  0.00     0.123 A 
ATOM     37  F   UNL     1      -4.274   2.208   0.084  1.00  0.00    -0.207 F 
ENDBRANCH  13  31
ENDBRANCH   5   7
ENDBRANCH   4   5
ENDBRANCH   3   4
ENDBRANCH   2   3
ENDBRANCH   1   2
BRANCH   1  38
ATOM     38  C   UNL     1      -2.327   9.413  -6.101  1.00  0.00     0.202 C 
BRANCH  38  39
ATOM     39  C   UNL     1      -3.242   8.803  -7.149  1.00  0.00     0.261 C 
BRANCH  39  40
ATOM     40  O   UNL     1      -2.536   8.250  -8.251  1.00  0.00    -0.460 OA
BRANCH  40  41
ATOM     41  C   UNL     1      -2.618   9.002  -9.373  1.00  0.00     0.338 C 
ATOM     42  O   UNL     1      -2.866  10.192  -9.445  1.00  0.00    -0.246 OA
BRANCH  41  43
ATOM     43  C   UNL     1      -2.566   8.110 -10.537  1.00  0.00     0.060 A 
ATOM     44  C   UNL     1      -2.736   8.707 -11.785  1.00  0.00     0.016 A 
ATOM     45  C   UNL     1      -2.650   6.720 -10.364  1.00  0.00     0.016 A 
ATOM     46  C   UNL     1      -3.219   7.930 -12.814  1.00  0.00     0.010 A 
ATOM     47  C   UNL     1      -3.129   5.945 -11.395  1.00  0.00     0.010 A 
ATOM     48  C   UNL     1      -3.499   6.573 -12.577  1.00  0.00    -0.014 A 
BRANCH  48  49
ATOM     49  C   UNL     1      -4.006   5.776 -13.678  1.00  0.00     0.031 A 
ATOM     50  C   UNL     1      -2.982   5.656 -14.739  1.00  0.00     0.074 A 
ATOM     51  C   UNL     1      -5.223   5.194 -13.704  1.00  0.00     0.049 A 
ATOM     52  N   UNL     1      -2.965   6.311 -15.848  1.00  0.00    -0.248 NA
ATOM     53  C   UNL     1      -1.723   4.953 -14.440  1.00  0.00     0.031 C 
ATOM     54  C   UNL     1      -6.213   5.088 -12.628  1.00  0.00     0.029 A 
ATOM     55  N   UNL     1      -5.821   4.513 -14.726  1.00  0.00    -0.354 N 
ATOM     56  C   UNL     1      -1.806   5.913 -16.502  1.00  0.00     0.074 A 
ATOM     57  C   UNL     1      -0.995   5.248 -15.520  1.00  0.00     0.031 C 
ATOM     58  C   UNL     1      -7.178   4.202 -12.981  1.00  0.00     0.029 A 
ATOM     59  C   UNL     1      -6.964   3.798 -14.360  1.00  0.00     0.049 A 
ATOM     60  H   UNL     1      -5.474   4.526 -15.648  1.00  0.00     0.167 HD
ATOM     61  C   UNL     1      -1.767   5.914 -17.861  1.00  0.00     0.037 A 
ATOM     62  C   UNL     1      -7.663   2.940 -15.151  1.00  0.00     0.037 A 
ATOM     63  C   UNL     1      -2.869   6.679 -18.393  1.00  0.00     0.049 A 
ATOM     64  C   UNL     1      -7.349   3.303 -16.550  1.00  0.00     0.074 A 
ATOM     65  C   UNL     1      -3.223   8.009 -18.449  1.00  0.00     0.029 A 
ATOM     66  N   UNL     1      -4.012   5.947 -18.581  1.00  0.00    -0.354 N 
ATOM     67  N   UNL     1      -7.743   4.413 -17.105  1.00  0.00    -0.248 NA
ATOM     68  C   UNL     1      -6.236   2.634 -17.203  1.00  0.00     0.031 C 
ATOM     69  C   UNL     1      -4.649   8.030 -18.386  1.00  0.00     0.029 A 
ATOM     70  C   UNL     1      -5.121   6.717 -18.373  1.00  0.00     0.049 A 
ATOM     71  H   UNL     1      -4.032   4.995 -18.832  1.00  0.00     0.167 HD
ATOM     72  C   UNL     1      -6.663   4.815 -17.872  1.00  0.00     0.074 A 
ATOM     73  C   UNL     1      -5.833   3.618 -18.011  1.00  0.00     0.031 C 
ATOM     74  C   UNL     1      -6.409   6.145 -18.048  1.00  0.00     0.037 A 
BRANCH  61  75
ATOM     75  C   UNL     1      -1.102   4.832 -18.680  1.00  0.00     0.057 A 
ATOM     76  C   UNL     1      -1.061   4.971 -20.079  1.00  0.00     0.134 A 
ATOM     77  C   UNL     1      -0.802   3.541 -18.198  1.00  0.00     0.134 A 
ATOM     78  F   UNL     1      -1.355   6.143 -20.662  1.00  0.00    -0.206 F 
ATOM     79  C   UNL     1      -0.804   3.891 -20.933  1.00  0.00     0.040 A 
ATOM     80  C   UNL     1      -0.497   2.468 -19.040  1.00  0.00     0.040 A 
ATOM     81  F   UNL     1      -0.893   3.214 -16.904  1.00  0.00    -0.206 F 
ATOM     82  C   UNL     1      -0.525   2.633 -20.414  1.00  0.00     0.006 A 
ENDBRANCH  61  75
BRANCH  62  83
ATOM     83  C   UNL     1      -8.345   1.661 -14.836  1.00  0.00     0.057 A 
ATOM     84  C   UNL     1      -9.248   1.067 -15.738  1.00  0.00     0.134 A 
ATOM     85  C   UNL     1      -7.872   0.830 -13.809  1.00  0.00     0.134 A 
ATOM     86  F   UNL     1      -9.724   1.761 -16.781  1.00  0.00    -0.206 F 
ATOM     87  C   UNL     1      -9.626  -0.282 -15.644  1.00  0.00     0.040 A 
ATOM     88  C   UNL     1      -8.239  -0.519 -13.706  1.00  0.00     0.040 A 
ATOM     89  F   UNL     1      -6.957   1.274 -12.936  1.00  0.00    -0.206 F 
ATOM     90  C   UNL     1      -9.107  -1.084 -14.634  1.00  0.00     0.006 A 
ENDBRANCH  62  83
BRANCH  74  91
ATOM     91  C   UNL     1      -7.526   7.102 -17.737  1.00  0.00     0.057 A 
ATOM     92  C   UNL     1      -8.046   7.346 -16.456  1.00  0.00     0.134 A 
ATOM     93  C   UNL     1      -8.025   7.885 -18.783  1.00  0.00     0.134 A 
ATOM     94  F   UNL     1      -7.576   6.702 -15.380  1.00  0.00    -0.206 F 
ATOM     95  C   UNL     1      -9.046   8.302 -16.240  1.00  0.00     0.040 A 
ATOM     96  C   UNL     1      -8.996   8.864 -18.576  1.00  0.00     0.040 A 
ATOM     97  F   UNL     1      -7.540   7.735 -20.026  1.00  0.00    -0.206 F 
ATOM     98  C   UNL     1      -9.518   9.068 -17.302  1.00  0.00     0.006 A 
ENDBRANCH  74  91
ENDBRANCH  48  49
ENDBRANCH  41  43
ENDBRANCH  40  41
ENDBRANCH  39  40
ENDBRANCH  38  39
ENDBRANCH   1  38
TORSDOF 18
