REMARK SMILES O=C(OCCOCCOC(=O)c1cccc(NC(=S)N/N=C\c2c[nH]c3ccccc23)c1)c1ccc(-c2c3nc(c(-c4c(F)cccc4F)c4ccc([nH]4)c(-c4c(F)cccc4F)c4nc(c(-c5c(F)cccc5F)c5ccc2[nH]5)C=C4)C=C3)cc1
REMARK SMILES IDX 7 1 6 2 5 3 4 4 3 5 2 6 1 7 33 8 34 9 86 10 35 11 85 12
REMARK SMILES IDX 36 13 37 14 38 15 79 16 39 17 84 18 78 19 80 20 40 21 83 22
REMARK SMILES IDX 77 23 76 24 41 26 67 27 50 28 66 29 51 30 54 31 65 32 81 33
REMARK SMILES IDX 52 34 53 35 64 37 82 38 55 39 42 40 43 41 48 42 44 43 45 44
REMARK SMILES IDX 47 45 49 46 46 47 68 48 69 49 74 50 70 51 71 52 73 53 75 54
REMARK SMILES IDX 72 55 56 56 57 57 62 58 58 59 59 60 61 61 63 62 60 63 8 64
REMARK SMILES IDX 9 65 10 66 11 67 12 68 13 69 32 70 14 71 16 72 15 73 17 74
REMARK SMILES IDX 18 76 19 77 20 78 21 80 22 81 23 82 24 83 31 84 25 85 26 86
REMARK SMILES IDX 30 87 27 89 29 90 28 91
REMARK H PARENT 80 25 54 36 17 75 20 79 25 88
REMARK Flexibility Score: inf
ROOT
ATOM      1  C   UNL     1       2.659   1.906   1.164  1.00  0.00     0.202 C 
ENDROOT
BRANCH   1   2
ATOM      2  O   UNL     1       3.954   1.612   0.622  1.00  0.00    -0.374 OA
BRANCH   2   3
ATOM      3  C   UNL     1       4.051   1.620  -0.806  1.00  0.00     0.202 C 
BRANCH   3   4
ATOM      4  C   UNL     1       3.665   0.310  -1.494  1.00  0.00     0.261 C 
BRANCH   4   5
ATOM      5  O   UNL     1       2.322  -0.061  -1.145  1.00  0.00    -0.460 OA
BRANCH   5   6
ATOM      6  C   UNL     1       1.919  -1.086  -0.358  1.00  0.00     0.338 C 
ATOM      7  O   UNL     1       0.723  -1.364  -0.318  1.00  0.00    -0.246 OA
BRANCH   6   8
ATOM      8  C   UNL     1       2.853  -1.889   0.490  1.00  0.00     0.060 A 
ATOM      9  C   UNL     1       4.088  -1.439   0.953  1.00  0.00     0.016 A 
ATOM     10  C   UNL     1       2.408  -3.149   0.930  1.00  0.00     0.016 A 
ATOM     11  C   UNL     1       4.894  -2.224   1.760  1.00  0.00     0.010 A 
ATOM     12  C   UNL     1       3.187  -3.925   1.797  1.00  0.00     0.010 A 
ATOM     13  C   UNL     1       4.441  -3.462   2.204  1.00  0.00    -0.014 A 
BRANCH  13  14
ATOM     14  C   UNL     1       5.357  -4.241   3.055  1.00  0.00     0.031 A 
ATOM     15  C   UNL     1       6.102  -5.388   2.453  1.00  0.00     0.074 A 
ATOM     16  C   UNL     1       5.641  -3.781   4.288  1.00  0.00     0.049 A 
ATOM     17  N   UNL     1       7.001  -6.163   2.996  1.00  0.00    -0.248 NA
ATOM     18  C   UNL     1       5.816  -5.689   1.040  1.00  0.00     0.031 C 
ATOM     19  C   UNL     1       5.038  -2.593   4.902  1.00  0.00     0.029 A 
ATOM     20  N   UNL     1       6.541  -4.215   5.222  1.00  0.00    -0.354 N 
ATOM     21  C   UNL     1       7.384  -7.047   1.997  1.00  0.00     0.074 A 
ATOM     22  C   UNL     1       6.611  -6.725   0.818  1.00  0.00     0.031 C 
ATOM     23  C   UNL     1       5.617  -2.371   6.092  1.00  0.00     0.029 A 
ATOM     24  C   UNL     1       6.578  -3.435   6.353  1.00  0.00     0.049 A 
ATOM     25  H   UNL     1       7.108  -5.011   5.097  1.00  0.00     0.167 HD
ATOM     26  C   UNL     1       8.302  -8.037   2.067  1.00  0.00     0.037 A 
ATOM     27  C   UNL     1       7.295  -3.586   7.481  1.00  0.00     0.037 A 
ATOM     28  C   UNL     1       9.044  -8.344   3.260  1.00  0.00     0.049 A 
ATOM     29  C   UNL     1       8.235  -4.756   7.563  1.00  0.00     0.074 A 
ATOM     30  C   UNL     1       9.920  -9.387   3.493  1.00  0.00     0.029 A 
ATOM     31  N   UNL     1       8.993  -7.591   4.426  1.00  0.00    -0.354 N 
ATOM     32  N   UNL     1       8.529  -5.645   6.643  1.00  0.00    -0.248 NA
ATOM     33  C   UNL     1       8.931  -4.957   8.839  1.00  0.00     0.031 C 
ATOM     34  C   UNL     1      10.376  -9.282   4.813  1.00  0.00     0.029 A 
ATOM     35  C   UNL     1       9.816  -8.150   5.387  1.00  0.00     0.049 A 
ATOM     36  H   UNL     1       8.451  -6.778   4.550  1.00  0.00     0.167 HD
ATOM     37  C   UNL     1       9.443  -6.509   7.226  1.00  0.00     0.074 A 
ATOM     38  C   UNL     1       9.683  -6.014   8.568  1.00  0.00     0.031 C 
ATOM     39  C   UNL     1      10.023  -7.622   6.712  1.00  0.00     0.037 A 
BRANCH  26  40
ATOM     40  C   UNL     1       8.487  -8.878   0.841  1.00  0.00     0.057 A 
ATOM     41  C   UNL     1       9.160  -8.400  -0.291  1.00  0.00     0.134 A 
ATOM     42  C   UNL     1       7.953 -10.171   0.778  1.00  0.00     0.134 A 
ATOM     43  F   UNL     1       9.667  -7.158  -0.306  1.00  0.00    -0.206 F 
ATOM     44  C   UNL     1       9.277  -9.170  -1.450  1.00  0.00     0.040 A 
ATOM     45  C   UNL     1       8.080 -10.958  -0.368  1.00  0.00     0.040 A 
ATOM     46  F   UNL     1       7.288 -10.684   1.823  1.00  0.00    -0.206 F 
ATOM     47  C   UNL     1       8.738 -10.455  -1.489  1.00  0.00     0.006 A 
ENDBRANCH  26  40
BRANCH  27  48
ATOM     48  C   UNL     1       7.104  -2.661   8.630  1.00  0.00     0.057 A 
ATOM     49  C   UNL     1       8.139  -1.843   9.098  1.00  0.00     0.134 A 
ATOM     50  C   UNL     1       5.881  -2.598   9.312  1.00  0.00     0.134 A 
ATOM     51  F   UNL     1       9.342  -1.869   8.505  1.00  0.00    -0.206 F 
ATOM     52  C   UNL     1       7.972  -1.015  10.212  1.00  0.00     0.040 A 
ATOM     53  C   UNL     1       5.690  -1.753  10.406  1.00  0.00     0.040 A 
ATOM     54  F   UNL     1       4.846  -3.354   8.918  1.00  0.00    -0.206 F 
ATOM     55  C   UNL     1       6.742  -0.966  10.866  1.00  0.00     0.006 A 
ENDBRANCH  27  48
BRANCH  39  56
ATOM     56  C   UNL     1      10.973  -8.354   7.609  1.00  0.00     0.057 A 
ATOM     57  C   UNL     1      10.518  -9.117   8.692  1.00  0.00     0.134 A 
ATOM     58  C   UNL     1      12.351  -8.311   7.373  1.00  0.00     0.134 A 
ATOM     59  F   UNL     1       9.208  -9.182   8.975  1.00  0.00    -0.206 F 
ATOM     60  C   UNL     1      11.406  -9.792   9.527  1.00  0.00     0.040 A 
ATOM     61  C   UNL     1      13.248  -9.004   8.186  1.00  0.00     0.040 A 
ATOM     62  F   UNL     1      12.846  -7.603   6.347  1.00  0.00    -0.206 F 
ATOM     63  C   UNL     1      12.775  -9.741   9.271  1.00  0.00     0.006 A 
ENDBRANCH  39  56
ENDBRANCH  13  14
ENDBRANCH   6   8
ENDBRANCH   5   6
ENDBRANCH   4   5
ENDBRANCH   3   4
ENDBRANCH   2   3
ENDBRANCH   1   2
BRANCH   1  64
ATOM     64  C   UNL     1       2.818   2.788   2.411  1.00  0.00     0.261 C 
BRANCH  64  65
ATOM     65  O   UNL     1       3.355   4.053   1.993  1.00  0.00    -0.460 OA
BRANCH  65  66
ATOM     66  C   UNL     1       4.716   4.051   1.899  1.00  0.00     0.338 C 
ATOM     67  O   UNL     1       5.487   3.584   2.699  1.00  0.00    -0.246 OA
BRANCH  66  68
ATOM     68  C   UNL     1       5.090   4.524   0.536  1.00  0.00     0.062 A 
ATOM     69  C   UNL     1       6.339   4.147   0.027  1.00  0.00     0.016 A 
ATOM     70  C   UNL     1       4.182   5.205  -0.281  1.00  0.00     0.041 A 
ATOM     71  C   UNL     1       6.673   4.441  -1.295  1.00  0.00     0.003 A 
ATOM     72  C   UNL     1       4.556   5.568  -1.573  1.00  0.00     0.041 A 
ATOM     73  C   UNL     1       5.784   5.158  -2.090  1.00  0.00     0.026 A 
BRANCH  72  74
ATOM     74  N   UNL     1       3.664   6.318  -2.344  1.00  0.00    -0.331 N 
ATOM     75  H   UNL     1       2.713   6.082  -2.252  1.00  0.00     0.169 HD
BRANCH  74  76
ATOM     76  C   UNL     1       3.943   7.333  -3.205  1.00  0.00     0.191 C 
ATOM     77  S   UNL     1       2.770   7.762  -4.326  1.00  0.00    -0.039 S 
BRANCH  76  78
ATOM     78  N   UNL     1       5.073   8.098  -3.092  1.00  0.00    -0.254 N 
ATOM     79  H   UNL     1       5.214   8.763  -3.805  1.00  0.00     0.193 HD
BRANCH  78  80
ATOM     80  N   UNL     1       6.044   8.058  -2.106  1.00  0.00    -0.181 NA
ATOM     81  C   UNL     1       5.857   8.712  -0.986  1.00  0.00     0.143 C 
BRANCH  81  82
ATOM     82  C   UNL     1       4.624   9.402  -0.683  1.00  0.00     0.020 A 
ATOM     83  C   UNL     1       3.411   8.772  -0.489  1.00  0.00     0.093 A 
ATOM     84  C   UNL     1       4.304  10.783  -0.735  1.00  0.00     0.008 A 
ATOM     85  N   UNL     1       2.510   9.554  -1.160  1.00  0.00    -0.361 N 
ATOM     86  C   UNL     1       3.057  10.796  -1.360  1.00  0.00     0.046 A 
ATOM     87  C   UNL     1       4.943  12.011  -0.496  1.00  0.00     0.011 A 
ATOM     88  H   UNL     1       1.613   9.271  -1.452  1.00  0.00     0.166 HD
ATOM     89  C   UNL     1       2.555  11.907  -2.028  1.00  0.00     0.027 A 
ATOM     90  C   UNL     1       4.324  13.181  -0.956  1.00  0.00     0.001 A 
ATOM     91  C   UNL     1       3.203  13.117  -1.786  1.00  0.00     0.002 A 
ENDBRANCH  81  82
ENDBRANCH  78  80
ENDBRANCH  76  78
ENDBRANCH  74  76
ENDBRANCH  72  74
ENDBRANCH  66  68
ENDBRANCH  65  66
ENDBRANCH  64  65
ENDBRANCH   1  64
TORSDOF 19
