REMARK SMILES O=C(OCCOCCOC(=O)c1ccc2c(=O)[nH][nH]c(=O)c2c1)c1ccc(-c2c3nc(c(-c4c(F)cccc4F)c4ccc([nH]4)c(-c4c(F)cccc4F)c4nc(c(-c5c(F)cccc5F)c5ccc2[nH]5)C=C4)C=C3)cc1
REMARK SMILES IDX 5 1 4 2 3 3 2 4 1 5 24 6 25 7 77 8 26 9 76 10 27 11 28 12
REMARK SMILES IDX 29 13 70 14 30 15 75 16 69 17 71 18 31 19 74 20 68 21 67 22
REMARK SMILES IDX 32 24 58 25 41 26 57 27 42 28 45 29 56 30 72 31 43 32 44 33
REMARK SMILES IDX 55 35 73 36 46 37 33 38 34 39 39 40 35 41 36 42 38 43 40 44
REMARK SMILES IDX 37 45 59 46 60 47 65 48 61 49 62 50 64 51 66 52 63 53 47 54
REMARK SMILES IDX 48 55 53 56 49 57 50 58 52 59 54 60 51 61 6 62 7 63 8 64
REMARK SMILES IDX 9 65 10 66 11 67 12 68 13 69 23 70 14 71 22 72 15 73 20 74
REMARK SMILES IDX 16 75 19 76 21 77 17 78 18 79
REMARK H PARENT 71 23 45 34 19 80 18 81
REMARK Flexibility Score: inf
ROOT
ATOM      1  C   UNL     1       4.390  -0.304  -1.455  1.00  0.00     0.202 C 
ENDROOT
BRANCH   1   2
ATOM      2  C   UNL     1       4.287  -1.432  -0.432  1.00  0.00     0.261 C 
BRANCH   2   3
ATOM      3  O   UNL     1       2.978  -1.549   0.137  1.00  0.00    -0.460 OA
BRANCH   3   4
ATOM      4  C   UNL     1       2.396  -0.816   1.111  1.00  0.00     0.338 C 
ATOM      5  O   UNL     1       1.231  -1.093   1.402  1.00  0.00    -0.246 OA
BRANCH   4   6
ATOM      6  C   UNL     1       3.034   0.335   1.840  1.00  0.00     0.060 A 
ATOM      7  C   UNL     1       2.168   1.104   2.643  1.00  0.00     0.016 A 
ATOM      8  C   UNL     1       4.378   0.719   1.797  1.00  0.00     0.016 A 
ATOM      9  C   UNL     1       2.623   2.221   3.346  1.00  0.00     0.010 A 
ATOM     10  C   UNL     1       4.840   1.845   2.478  1.00  0.00     0.010 A 
ATOM     11  C   UNL     1       3.965   2.595   3.259  1.00  0.00    -0.014 A 
BRANCH  11  12
ATOM     12  C   UNL     1       4.501   3.678   4.096  1.00  0.00     0.031 A 
ATOM     13  C   UNL     1       4.699   5.052   3.548  1.00  0.00     0.074 A 
ATOM     14  C   UNL     1       4.861   3.357   5.350  1.00  0.00     0.049 A 
ATOM     15  N   UNL     1       5.050   6.142   4.178  1.00  0.00    -0.248 NA
ATOM     16  C   UNL     1       4.492   5.226   2.103  1.00  0.00     0.031 C 
ATOM     17  C   UNL     1       4.790   2.009   5.923  1.00  0.00     0.029 A 
ATOM     18  N   UNL     1       5.365   4.125   6.359  1.00  0.00    -0.354 N 
ATOM     19  C   UNL     1       5.059   7.145   3.219  1.00  0.00     0.074 A 
ATOM     20  C   UNL     1       4.750   6.519   1.950  1.00  0.00     0.031 C 
ATOM     21  C   UNL     1       5.232   2.048   7.188  1.00  0.00     0.029 A 
ATOM     22  C   UNL     1       5.604   3.419   7.511  1.00  0.00     0.049 A 
ATOM     23  H   UNL     1       5.540   5.090   6.270  1.00  0.00     0.167 HD
ATOM     24  C   UNL     1       5.282   8.469   3.400  1.00  0.00     0.037 A 
ATOM     25  C   UNL     1       6.051   3.848   8.702  1.00  0.00     0.037 A 
ATOM     26  C   UNL     1       5.654   9.045   4.670  1.00  0.00     0.049 A 
ATOM     27  C   UNL     1       6.282   5.319   8.880  1.00  0.00     0.074 A 
ATOM     28  C   UNL     1       5.896  10.369   4.990  1.00  0.00     0.029 A 
ATOM     29  N   UNL     1       5.860   8.311   5.833  1.00  0.00    -0.354 N 
ATOM     30  N   UNL     1       6.175   6.285   7.998  1.00  0.00    -0.248 NA
ATOM     31  C   UNL     1       6.656   5.764  10.225  1.00  0.00     0.031 C 
ATOM     32  C   UNL     1       6.284  10.430   6.335  1.00  0.00     0.029 A 
ATOM     33  C   UNL     1       6.237   9.151   6.868  1.00  0.00     0.049 A 
ATOM     34  H   UNL     1       5.753   7.335   5.910  1.00  0.00     0.167 HD
ATOM     35  C   UNL     1       6.451   7.457   8.683  1.00  0.00     0.074 A 
ATOM     36  C   UNL     1       6.695   7.079  10.063  1.00  0.00     0.031 C 
ATOM     37  C   UNL     1       6.501   8.733   8.223  1.00  0.00     0.037 A 
BRANCH  24  38
ATOM     38  C   UNL     1       5.114   9.367   2.207  1.00  0.00     0.057 A 
ATOM     39  C   UNL     1       6.203  10.035   1.634  1.00  0.00     0.134 A 
ATOM     40  C   UNL     1       3.852   9.593   1.636  1.00  0.00     0.134 A 
ATOM     41  F   UNL     1       7.439   9.874   2.128  1.00  0.00    -0.206 F 
ATOM     42  C   UNL     1       6.044  10.889   0.538  1.00  0.00     0.040 A 
ATOM     43  C   UNL     1       3.684  10.425   0.527  1.00  0.00     0.040 A 
ATOM     44  F   UNL     1       2.764   8.981   2.129  1.00  0.00    -0.206 F 
ATOM     45  C   UNL     1       4.783  11.081  -0.022  1.00  0.00     0.006 A 
ENDBRANCH  24  38
BRANCH  25  46
ATOM     46  C   UNL     1       6.228   2.885   9.814  1.00  0.00     0.057 A 
ATOM     47  C   UNL     1       7.253   1.931   9.794  1.00  0.00     0.134 A 
ATOM     48  C   UNL     1       5.359   2.876  10.910  1.00  0.00     0.134 A 
ATOM     49  F   UNL     1       8.105   1.873   8.759  1.00  0.00    -0.206 F 
ATOM     50  C   UNL     1       7.410   1.006  10.826  1.00  0.00     0.040 A 
ATOM     51  C   UNL     1       5.519   1.972  11.962  1.00  0.00     0.040 A 
ATOM     52  F   UNL     1       4.359   3.766  10.986  1.00  0.00    -0.206 F 
ATOM     53  C   UNL     1       6.546   1.031  11.919  1.00  0.00     0.006 A 
ENDBRANCH  25  46
BRANCH  37  54
ATOM     54  C   UNL     1       6.831   9.784   9.241  1.00  0.00     0.057 A 
ATOM     55  C   UNL     1       5.849  10.672   9.693  1.00  0.00     0.134 A 
ATOM     56  C   UNL     1       8.111   9.886   9.805  1.00  0.00     0.134 A 
ATOM     57  F   UNL     1       4.607  10.631   9.188  1.00  0.00    -0.206 F 
ATOM     58  C   UNL     1       6.122  11.613  10.686  1.00  0.00     0.040 A 
ATOM     59  C   UNL     1       8.386  10.802  10.821  1.00  0.00     0.040 A 
ATOM     60  F   UNL     1       9.090   9.051   9.427  1.00  0.00    -0.206 F 
ATOM     61  C   UNL     1       7.389  11.669  11.264  1.00  0.00     0.006 A 
ENDBRANCH  37  54
ENDBRANCH  11  12
ENDBRANCH   4   6
ENDBRANCH   3   4
ENDBRANCH   2   3
ENDBRANCH   1   2
BRANCH   1  62
ATOM     62  O   UNL     1       3.930   0.967  -1.004  1.00  0.00    -0.374 OA
BRANCH  62  63
ATOM     63  C   UNL     1       2.688   1.389  -1.576  1.00  0.00     0.202 C 
BRANCH  63  64
ATOM     64  C   UNL     1       2.873   2.189  -2.873  1.00  0.00     0.261 C 
BRANCH  64  65
ATOM     65  O   UNL     1       3.385   1.356  -3.930  1.00  0.00    -0.460 OA
BRANCH  65  66
ATOM     66  C   UNL     1       4.718   1.448  -4.165  1.00  0.00     0.338 C 
ATOM     67  O   UNL     1       5.515   2.225  -3.673  1.00  0.00    -0.246 OA
BRANCH  66  68
ATOM     68  C   UNL     1       5.111   0.263  -4.953  1.00  0.00     0.060 A 
ATOM     69  C   UNL     1       4.508  -0.043  -6.175  1.00  0.00     0.016 A 
ATOM     70  C   UNL     1       6.045  -0.611  -4.386  1.00  0.00     0.030 A 
ATOM     71  C   UNL     1       4.851  -1.231  -6.831  1.00  0.00     0.015 A 
ATOM     72  C   UNL     1       6.303  -1.841  -4.993  1.00  0.00     0.055 A 
ATOM     73  C   UNL     1       5.740  -2.137  -6.231  1.00  0.00     0.054 A 
ATOM     74  C   UNL     1       7.090  -2.854  -4.265  1.00  0.00     0.270 A 
ATOM     75  C   UNL     1       6.091  -3.400  -6.909  1.00  0.00     0.270 A 
ATOM     76  N   UNL     1       7.338  -4.031  -4.925  1.00  0.00    -0.263 N 
ATOM     77  O   UNL     1       7.449  -2.666  -3.108  1.00  0.00    -0.267 OA
ATOM     78  O   UNL     1       5.689  -3.648  -8.039  1.00  0.00    -0.267 OA
ATOM     79  N   UNL     1       6.902  -4.270  -6.219  1.00  0.00    -0.263 N 
ATOM     80  H   UNL     1       7.846  -4.734  -4.460  1.00  0.00     0.191 HD
ATOM     81  H   UNL     1       7.186  -5.100  -6.665  1.00  0.00     0.191 HD
ENDBRANCH  66  68
ENDBRANCH  65  66
ENDBRANCH  64  65
ENDBRANCH  63  64
ENDBRANCH  62  63
ENDBRANCH   1  62
TORSDOF 14
