REMARK SMILES CC[C@](C)(NC(=O)N1Cc2ccccc2C1)C(=O)OCCOCCOC(=O)c1ccc(-c2c3nc(c(-c4c(F)cccc4F)c4ccc([nH]4)c(-c4c(F)cccc4F)c4nc(c(-c5c(F)cccc5F)c5ccc2[nH]5)C=C4)C=C3)cc1
REMARK SMILES IDX 23 1 22 2 21 3 20 4 19 5 17 6 18 7 3 8 4 9 2 10 1 11 5 12
REMARK SMILES IDX 6 13 7 15 8 16 9 17 16 18 10 19 15 20 11 21 14 22 12 23
REMARK SMILES IDX 13 24 24 25 25 26 26 27 27 28 28 29 29 30 81 31 30 32 80 33
REMARK SMILES IDX 31 34 32 35 33 36 74 37 34 38 79 39 73 40 75 41 35 42 78 43
REMARK SMILES IDX 72 44 71 45 36 47 62 48 45 49 61 50 46 51 49 52 60 53 76 54
REMARK SMILES IDX 47 55 48 56 59 58 77 59 50 60 37 61 38 62 43 63 39 64 40 65
REMARK SMILES IDX 42 66 44 67 41 68 63 69 64 70 69 71 65 72 66 73 68 74 70 75
REMARK SMILES IDX 67 76 51 77 52 78 57 79 53 80 54 81 56 82 58 83 55 84
REMARK H PARENT 5 14 75 46 49 57
REMARK Flexibility Score: inf
ROOT
ATOM      1  C   UNL     1       2.771  -2.991   2.271  1.00  0.00     0.202 C 
ENDROOT
BRANCH   1   2
ATOM      2  O   UNL     1       3.597  -2.778   1.098  1.00  0.00    -0.374 OA
BRANCH   2   3
ATOM      3  C   UNL     1       4.543  -1.698   0.912  1.00  0.00     0.202 C 
BRANCH   3   4
ATOM      4  C   UNL     1       4.174  -0.186   0.851  1.00  0.00     0.261 C 
BRANCH   4   5
ATOM      5  O   UNL     1       3.236   0.154   1.848  1.00  0.00    -0.462 OA
BRANCH   5   6
ATOM      6  C   UNL     1       2.052   0.683   1.507  1.00  0.00     0.331 C 
ATOM      7  O   UNL     1       1.804   1.227   0.432  1.00  0.00    -0.249 OA
BRANCH   6   8
ATOM      8  C   UNL     1       0.994   0.235   2.533  1.00  0.00     0.136 C 
ATOM      9  C   UNL     1       0.290  -0.932   1.765  1.00  0.00     0.047 C 
BRANCH   8  10
ATOM     10  C   UNL     1      -0.054   1.360   2.756  1.00  0.00     0.037 C 
ATOM     11  C   UNL     1      -1.401   0.883   3.315  1.00  0.00     0.007 C 
ENDBRANCH   8  10
BRANCH   8  12
ATOM     12  N   UNL     1       1.468  -0.250   3.897  1.00  0.00    -0.322 N 
ATOM     13  C   UNL     1       2.582  -0.353   4.672  1.00  0.00     0.318 C 
ATOM     14  H   UNL     1       0.700  -0.617   4.390  1.00  0.00     0.166 HD
ATOM     15  O   UNL     1       2.386  -0.715   5.835  1.00  0.00    -0.249 OA
ATOM     16  N   UNL     1       3.850  -0.161   4.189  1.00  0.00    -0.316 N 
ATOM     17  C   UNL     1       4.737  -1.308   4.121  1.00  0.00     0.157 C 
ATOM     18  C   UNL     1       4.683   0.931   4.699  1.00  0.00     0.157 C 
ATOM     19  C   UNL     1       6.117  -0.808   3.971  1.00  0.00    -0.023 A 
ATOM     20  C   UNL     1       6.096   0.535   4.323  1.00  0.00    -0.023 A 
ATOM     21  C   UNL     1       7.267  -1.511   3.629  1.00  0.00     0.006 A 
ATOM     22  C   UNL     1       7.285   1.229   4.329  1.00  0.00     0.006 A 
ATOM     23  C   UNL     1       8.460  -0.806   3.610  1.00  0.00     0.000 A 
ATOM     24  C   UNL     1       8.466   0.555   3.958  1.00  0.00     0.000 A 
ENDBRANCH   8  12
ENDBRANCH   6   8
ENDBRANCH   5   6
ENDBRANCH   4   5
ENDBRANCH   3   4
ENDBRANCH   2   3
ENDBRANCH   1   2
BRANCH   1  25
ATOM     25  C   UNL     1       3.172  -4.011   3.432  1.00  0.00     0.261 C 
BRANCH  25  26
ATOM     26  O   UNL     1       3.200  -3.402   4.796  1.00  0.00    -0.460 OA
BRANCH  26  27
ATOM     27  C   UNL     1       3.897  -4.034   5.809  1.00  0.00     0.338 C 
ATOM     28  O   UNL     1       4.286  -5.191   5.736  1.00  0.00    -0.246 OA
BRANCH  27  29
ATOM     29  C   UNL     1       4.431  -3.107   6.912  1.00  0.00     0.060 A 
ATOM     30  C   UNL     1       5.812  -2.813   6.892  1.00  0.00     0.016 A 
ATOM     31  C   UNL     1       3.680  -2.504   7.930  1.00  0.00     0.016 A 
ATOM     32  C   UNL     1       6.411  -1.901   7.796  1.00  0.00     0.010 A 
ATOM     33  C   UNL     1       4.302  -1.645   8.895  1.00  0.00     0.010 A 
ATOM     34  C   UNL     1       5.679  -1.333   8.848  1.00  0.00    -0.014 A 
BRANCH  34  35
ATOM     35  C   UNL     1       6.426  -0.718  10.019  1.00  0.00     0.031 A 
ATOM     36  C   UNL     1       7.002  -1.679  11.046  1.00  0.00     0.074 A 
ATOM     37  C   UNL     1       6.696   0.597  10.197  1.00  0.00     0.049 A 
ATOM     38  N   UNL     1       7.678  -1.444  12.146  1.00  0.00    -0.248 NA
ATOM     39  C   UNL     1       6.796  -3.107  10.767  1.00  0.00     0.031 C 
ATOM     40  C   UNL     1       6.344   1.680   9.283  1.00  0.00     0.029 A 
ATOM     41  N   UNL     1       7.356   1.249  11.229  1.00  0.00    -0.354 N 
ATOM     42  C   UNL     1       7.974  -2.693  12.685  1.00  0.00     0.074 A 
ATOM     43  C   UNL     1       7.402  -3.679  11.793  1.00  0.00     0.031 C 
ATOM     44  C   UNL     1       6.777   2.851   9.794  1.00  0.00     0.029 A 
ATOM     45  C   UNL     1       7.412   2.622  11.096  1.00  0.00     0.049 A 
ATOM     46  H   UNL     1       7.752   0.772  11.994  1.00  0.00     0.167 HD
ATOM     47  C   UNL     1       8.645  -3.015  13.818  1.00  0.00     0.037 A 
ATOM     48  C   UNL     1       7.894   3.582  11.922  1.00  0.00     0.037 A 
ATOM     49  C   UNL     1       9.196  -2.070  14.752  1.00  0.00     0.049 A 
ATOM     50  C   UNL     1       8.516   3.212  13.256  1.00  0.00     0.074 A 
ATOM     51  C   UNL     1       9.856  -2.323  15.944  1.00  0.00     0.029 A 
ATOM     52  N   UNL     1       9.137  -0.695  14.614  1.00  0.00    -0.354 N 
ATOM     53  N   UNL     1       8.770   2.027  13.756  1.00  0.00    -0.248 NA
ATOM     54  C   UNL     1       8.912   4.321  14.147  1.00  0.00     0.031 C 
ATOM     55  C   UNL     1      10.144  -1.099  16.556  1.00  0.00     0.029 A 
ATOM     56  C   UNL     1       9.723  -0.084  15.713  1.00  0.00     0.049 A 
ATOM     57  H   UNL     1       8.739  -0.220  13.849  1.00  0.00     0.167 HD
ATOM     58  C   UNL     1       9.384   2.249  14.988  1.00  0.00     0.074 A 
ATOM     59  C   UNL     1       9.475   3.680  15.162  1.00  0.00     0.031 C 
ATOM     60  C   UNL     1       9.835   1.341  15.889  1.00  0.00     0.037 A 
BRANCH  47  61
ATOM     61  C   UNL     1       8.751  -4.477  14.147  1.00  0.00     0.057 A 
ATOM     62  C   UNL     1       9.575  -5.347  13.421  1.00  0.00     0.134 A 
ATOM     63  C   UNL     1       7.998  -5.022  15.195  1.00  0.00     0.134 A 
ATOM     64  F   UNL     1      10.306  -4.892  12.392  1.00  0.00    -0.206 F 
ATOM     65  C   UNL     1       9.618  -6.714  13.703  1.00  0.00     0.040 A 
ATOM     66  C   UNL     1       8.056  -6.381  15.505  1.00  0.00     0.040 A 
ATOM     67  F   UNL     1       7.192  -4.244  15.932  1.00  0.00    -0.206 F 
ATOM     68  C   UNL     1       8.860  -7.233  14.750  1.00  0.00     0.006 A 
ENDBRANCH  47  61
BRANCH  48  69
ATOM     69  C   UNL     1       7.788   5.032  11.566  1.00  0.00     0.057 A 
ATOM     70  C   UNL     1       8.926   5.827  11.364  1.00  0.00     0.134 A 
ATOM     71  C   UNL     1       6.548   5.682  11.521  1.00  0.00     0.134 A 
ATOM     72  F   UNL     1      10.151   5.286  11.447  1.00  0.00    -0.206 F 
ATOM     73  C   UNL     1       8.836   7.206  11.143  1.00  0.00     0.040 A 
ATOM     74  C   UNL     1       6.441   7.054  11.274  1.00  0.00     0.040 A 
ATOM     75  F   UNL     1       5.416   4.996  11.737  1.00  0.00    -0.206 F 
ATOM     76  C   UNL     1       7.589   7.822  11.091  1.00  0.00     0.006 A 
ENDBRANCH  48  69
BRANCH  60  77
ATOM     77  C   UNL     1      10.523   1.849  17.128  1.00  0.00     0.057 A 
ATOM     78  C   UNL     1       9.831   2.499  18.158  1.00  0.00     0.134 A 
ATOM     79  C   UNL     1      11.897   1.638  17.315  1.00  0.00     0.134 A 
ATOM     80  F   UNL     1       8.516   2.740  18.047  1.00  0.00    -0.206 F 
ATOM     81  C   UNL     1      10.482   2.941  19.314  1.00  0.00     0.040 A 
ATOM     82  C   UNL     1      12.553   2.050  18.477  1.00  0.00     0.040 A 
ATOM     83  F   UNL     1      12.623   1.010  16.378  1.00  0.00    -0.206 F 
ATOM     84  C   UNL     1      11.846   2.711  19.478  1.00  0.00     0.006 A 
ENDBRANCH  60  77
ENDBRANCH  34  35
ENDBRANCH  27  29
ENDBRANCH  26  27
ENDBRANCH  25  26
ENDBRANCH   1  25
TORSDOF 16
