REMARK SMILES CC(=O)[NH+]1CCC2(CC1)C[C@H](C(=O)OCCOCCOC(=O)c1ccc(-c3c4nc(c(-c5c(F)cccc5F)c5ccc([nH]5)c(-c5c(F)cccc5F)c5nc(c(-c6c(F)cccc6F)c6ccc3[nH]6)C=C5)C=C4)cc1)[N@H+](Cc1ncc[nH]1)C2
REMARK SMILES IDX 17 1 16 2 15 3 14 4 12 5 13 6 11 7 4 8 5 9 9 10 6 12 8 13
REMARK SMILES IDX 7 14 10 15 84 16 77 17 2 19 1 20 3 21 78 22 79 23 80 24
REMARK SMILES IDX 83 25 81 26 82 27 18 29 19 30 20 31 21 32 22 33 23 34 24 35
REMARK SMILES IDX 76 36 25 37 75 38 26 39 27 40 28 41 69 42 29 43 74 44 68 45
REMARK SMILES IDX 70 46 30 47 73 48 67 49 66 50 31 52 57 53 40 54 56 55 41 56
REMARK SMILES IDX 44 57 55 58 71 59 42 60 43 61 54 63 72 64 45 65 32 66 33 67
REMARK SMILES IDX 38 68 34 69 35 70 37 71 39 72 36 73 58 74 59 75 64 76 60 77
REMARK SMILES IDX 61 78 63 79 65 80 62 81 46 82 47 83 52 84 48 85 49 86 51 87
REMARK SMILES IDX 53 88 50 89
REMARK H PARENT 4 11 77 18 83 28 70 51 44 62
REMARK Flexibility Score: inf
ROOT
ATOM      1  O   UNL     1      -0.662  10.068   3.017  1.00  0.00    -0.374 OA
ENDROOT
BRANCH   1   2
ATOM      2  C   UNL     1       0.417  10.814   2.457  1.00  0.00     0.202 C 
BRANCH   2   3
ATOM      3  C   UNL     1       1.787  10.130   2.366  1.00  0.00     0.261 C 
BRANCH   3   4
ATOM      4  O   UNL     1       1.857   9.040   1.420  1.00  0.00    -0.459 OA
BRANCH   4   5
ATOM      5  C   UNL     1       1.972   7.797   1.969  1.00  0.00     0.365 C 
ATOM      6  O   UNL     1       1.961   7.591   3.182  1.00  0.00    -0.245 OA
BRANCH   5   7
ATOM      7  C   UNL     1       2.300   6.680   0.982  1.00  0.00     0.296 C 
ATOM      8  N   UNL     1       1.338   1.772  -1.027  1.00  0.00    -0.272 N 
ATOM      9  C   UNL     1       0.420   2.858  -1.272  1.00  0.00     0.270 C 
ATOM     10  C   UNL     1       2.721   2.175  -0.754  1.00  0.00     0.270 C 
ATOM     11  H   UNL     1       0.804   1.433  -1.781  1.00  0.00     0.356 HD
ATOM     12  C   UNL     1       0.441   3.736  -0.031  1.00  0.00     0.075 C 
ATOM     13  C   UNL     1       2.818   3.235   0.354  1.00  0.00     0.075 C 
ATOM     14  C   UNL     1       1.811   4.406   0.187  1.00  0.00     0.036 C 
ATOM     15  C   UNL     1       1.813   5.304   1.446  1.00  0.00     0.091 C 
ATOM     16  C   UNL     1       2.187   5.395  -0.949  1.00  0.00     0.270 C 
ATOM     17  N   UNL     1       1.953   6.764  -0.453  1.00  0.00    -0.316 N 
ATOM     18  H   UNL     1       2.542   7.478  -0.882  1.00  0.00     0.349 HD
BRANCH   8  19
ATOM     19  C   UNL     1       0.795   0.501  -0.972  1.00  0.00     0.308 C 
ATOM     20  C   UNL     1       1.462  -0.493  -0.069  1.00  0.00     0.164 C 
ATOM     21  O   UNL     1      -0.268   0.212  -1.526  1.00  0.00    -0.231 OA
ENDBRANCH   8  19
BRANCH  17  22
ATOM     22  C   UNL     1       0.697   7.390  -0.892  1.00  0.00     0.339 C 
BRANCH  22  23
ATOM     23  C   UNL     1      -0.615   6.770  -0.509  1.00  0.00     0.161 A 
ATOM     24  N   UNL     1      -1.062   6.503   0.706  1.00  0.00    -0.236 NA
ATOM     25  N   UNL     1      -1.569   6.412  -1.440  1.00  0.00    -0.344 N 
ATOM     26  C   UNL     1      -2.300   5.929   0.555  1.00  0.00     0.131 A 
ATOM     27  C   UNL     1      -2.633   5.862  -0.774  1.00  0.00     0.104 A 
ATOM     28  H   UNL     1      -1.497   6.531  -2.415  1.00  0.00     0.167 HD
ENDBRANCH  22  23
ENDBRANCH  17  22
ENDBRANCH   5   7
ENDBRANCH   4   5
ENDBRANCH   3   4
ENDBRANCH   2   3
ENDBRANCH   1   2
BRANCH   1  29
ATOM     29  C   UNL     1      -1.200   9.030   2.197  1.00  0.00     0.202 C 
BRANCH  29  30
ATOM     30  C   UNL     1      -2.159   9.490   1.093  1.00  0.00     0.261 C 
BRANCH  30  31
ATOM     31  O   UNL     1      -1.499  10.335   0.137  1.00  0.00    -0.460 OA
BRANCH  31  32
ATOM     32  C   UNL     1      -2.075  11.545  -0.012  1.00  0.00     0.338 C 
ATOM     33  O   UNL     1      -3.163  11.918   0.407  1.00  0.00    -0.246 OA
BRANCH  32  34
ATOM     34  C   UNL     1      -1.110  12.474  -0.607  1.00  0.00     0.060 A 
ATOM     35  C   UNL     1      -0.732  13.573   0.171  1.00  0.00     0.016 A 
ATOM     36  C   UNL     1      -0.639  12.315  -1.912  1.00  0.00     0.016 A 
ATOM     37  C   UNL     1       0.077  14.558  -0.378  1.00  0.00     0.010 A 
ATOM     38  C   UNL     1       0.173  13.309  -2.463  1.00  0.00     0.010 A 
ATOM     39  C   UNL     1       0.500  14.450  -1.710  1.00  0.00    -0.014 A 
BRANCH  39  40
ATOM     40  C   UNL     1       1.185  15.607  -2.328  1.00  0.00     0.031 A 
ATOM     41  C   UNL     1       0.402  16.529  -3.220  1.00  0.00     0.074 A 
ATOM     42  C   UNL     1       2.471  15.860  -2.030  1.00  0.00     0.049 A 
ATOM     43  N   UNL     1       0.794  17.614  -3.834  1.00  0.00    -0.248 NA
ATOM     44  C   UNL     1      -1.012  16.186  -3.449  1.00  0.00     0.031 C 
ATOM     45  C   UNL     1       3.308  15.045  -1.150  1.00  0.00     0.029 A 
ATOM     46  N   UNL     1       3.296  16.878  -2.432  1.00  0.00    -0.354 N 
ATOM     47  C   UNL     1      -0.318  18.080  -4.524  1.00  0.00     0.074 A 
ATOM     48  C   UNL     1      -1.395  17.147  -4.277  1.00  0.00     0.031 C 
ATOM     49  C   UNL     1       4.532  15.593  -1.082  1.00  0.00     0.029 A 
ATOM     50  C   UNL     1       4.573  16.775  -1.939  1.00  0.00     0.049 A 
ATOM     51  H   UNL     1       3.001  17.612  -3.018  1.00  0.00     0.167 HD
ATOM     52  C   UNL     1      -0.427  19.192  -5.287  1.00  0.00     0.037 A 
ATOM     53  C   UNL     1       5.657  17.538  -2.177  1.00  0.00     0.037 A 
ATOM     54  C   UNL     1       0.650  20.120  -5.511  1.00  0.00     0.049 A 
ATOM     55  C   UNL     1       5.518  18.735  -3.079  1.00  0.00     0.074 A 
ATOM     56  C   UNL     1       0.632  21.301  -6.231  1.00  0.00     0.029 A 
ATOM     57  N   UNL     1       1.941  19.963  -5.028  1.00  0.00    -0.354 N 
ATOM     58  N   UNL     1       4.449  19.195  -3.684  1.00  0.00    -0.248 NA
ATOM     59  C   UNL     1       6.735  19.520  -3.331  1.00  0.00     0.031 C 
ATOM     60  C   UNL     1       1.928  21.825  -6.239  1.00  0.00     0.029 A 
ATOM     61  C   UNL     1       2.739  21.003  -5.473  1.00  0.00     0.049 A 
ATOM     62  H   UNL     1       2.244  19.222  -4.455  1.00  0.00     0.167 HD
ATOM     63  C   UNL     1       4.860  20.330  -4.373  1.00  0.00     0.074 A 
ATOM     64  C   UNL     1       6.269  20.504  -4.087  1.00  0.00     0.031 C 
ATOM     65  C   UNL     1       4.141  21.152  -5.176  1.00  0.00     0.037 A 
BRANCH  52  66
ATOM     66  C   UNL     1      -1.740  19.461  -5.960  1.00  0.00     0.057 A 
ATOM     67  C   UNL     1      -2.868  19.892  -5.249  1.00  0.00     0.134 A 
ATOM     68  C   UNL     1      -1.855  19.358  -7.352  1.00  0.00     0.134 A 
ATOM     69  F   UNL     1      -2.830  20.000  -3.913  1.00  0.00    -0.206 F 
ATOM     70  C   UNL     1      -4.064  20.205  -5.899  1.00  0.00     0.040 A 
ATOM     71  C   UNL     1      -3.037  19.691  -8.016  1.00  0.00     0.040 A 
ATOM     72  F   UNL     1      -0.812  18.952  -8.093  1.00  0.00    -0.206 F 
ATOM     73  C   UNL     1      -4.146  20.115  -7.288  1.00  0.00     0.006 A 
ENDBRANCH  52  66
BRANCH  53  74
ATOM     74  C   UNL     1       6.973  17.172  -1.592  1.00  0.00     0.057 A 
ATOM     75  C   UNL     1       7.617  17.994  -0.660  1.00  0.00     0.134 A 
ATOM     76  C   UNL     1       7.640  16.005  -1.987  1.00  0.00     0.134 A 
ATOM     77  F   UNL     1       7.042  19.136  -0.256  1.00  0.00    -0.206 F 
ATOM     78  C   UNL     1       8.886  17.685  -0.165  1.00  0.00     0.040 A 
ATOM     79  C   UNL     1       8.893  15.667  -1.477  1.00  0.00     0.040 A 
ATOM     80  F   UNL     1       7.078  15.171  -2.874  1.00  0.00    -0.206 F 
ATOM     81  C   UNL     1       9.526  16.516  -0.572  1.00  0.00     0.006 A 
ENDBRANCH  53  74
BRANCH  65  82
ATOM     82  C   UNL     1       4.864  22.317  -5.788  1.00  0.00     0.057 A 
ATOM     83  C   UNL     1       5.812  22.143  -6.804  1.00  0.00     0.134 A 
ATOM     84  C   UNL     1       4.581  23.627  -5.384  1.00  0.00     0.134 A 
ATOM     85  F   UNL     1       6.137  20.912  -7.228  1.00  0.00    -0.206 F 
ATOM     86  C   UNL     1       6.471  23.230  -7.379  1.00  0.00     0.040 A 
ATOM     87  C   UNL     1       5.210  24.724  -5.973  1.00  0.00     0.040 A 
ATOM     88  F   UNL     1       3.675  23.864  -4.423  1.00  0.00    -0.206 F 
ATOM     89  C   UNL     1       6.164  24.526  -6.969  1.00  0.00     0.006 A 
ENDBRANCH  65  82
ENDBRANCH  39  40
ENDBRANCH  32  34
ENDBRANCH  31  32
ENDBRANCH  30  31
ENDBRANCH  29  30
ENDBRANCH   1  29
TORSDOF 17
