REMARK SMILES O=C(OCCOCCOC(=O)[C@@H]1[C@@H](C(=O)Nc2ccc(F)c(F)c2)[C@H]2CC[C@@H]1O2)c1ccc(-c2c3nc(c(-c4c(F)cccc4F)c4ccc([nH]4)c(-c4c(F)cccc4F)c4nc(c(-c5c(F)cccc5F)c5ccc2[nH]5)C=C4)C=C3)cc1
REMARK SMILES IDX 6 1 5 2 4 3 3 4 2 5 1 6 30 7 31 8 83 9 32 10 82 11 33 12
REMARK SMILES IDX 34 13 35 14 76 15 36 16 81 17 75 18 77 19 37 20 80 21 74 22
REMARK SMILES IDX 73 23 38 25 64 26 47 27 63 28 48 29 51 30 62 31 78 32 49 33
REMARK SMILES IDX 50 34 61 36 79 37 52 38 39 39 40 40 45 41 41 42 42 43 44 44
REMARK SMILES IDX 46 45 43 46 65 47 66 48 71 49 67 50 68 51 70 52 72 53 69 54
REMARK SMILES IDX 53 55 54 56 59 57 55 58 56 59 58 60 60 61 57 62 7 63 8 64
REMARK SMILES IDX 9 65 10 66 11 67 12 68 13 69 28 70 25 71 27 72 29 73 26 74
REMARK SMILES IDX 14 75 15 76 16 77 17 79 18 80 24 81 19 82 22 83 20 84 23 85
REMARK SMILES IDX 21 86
REMARK H PARENT 77 24 51 35 16 78
REMARK Flexibility Score: inf
ROOT
ATOM      1  O   UNL     1       3.880   1.242  -1.178  1.00  0.00    -0.374 OA
ENDROOT
BRANCH   1   2
ATOM      2  C   UNL     1       4.489  -0.046  -1.357  1.00  0.00     0.202 C 
BRANCH   2   3
ATOM      3  C   UNL     1       4.222  -1.176  -0.340  1.00  0.00     0.261 C 
BRANCH   3   4
ATOM      4  O   UNL     1       2.838  -1.302   0.022  1.00  0.00    -0.460 OA
BRANCH   4   5
ATOM      5  C   UNL     1       2.198  -0.712   1.063  1.00  0.00     0.338 C 
ATOM      6  O   UNL     1       0.993  -0.899   1.209  1.00  0.00    -0.246 OA
BRANCH   5   7
ATOM      7  C   UNL     1       2.899   0.175   2.037  1.00  0.00     0.060 A 
ATOM      8  C   UNL     1       4.079   0.860   1.760  1.00  0.00     0.016 A 
ATOM      9  C   UNL     1       2.307   0.369   3.293  1.00  0.00     0.016 A 
ATOM     10  C   UNL     1       4.740   1.595   2.710  1.00  0.00     0.010 A 
ATOM     11  C   UNL     1       2.936   1.163   4.256  1.00  0.00     0.010 A 
ATOM     12  C   UNL     1       4.179   1.736   3.967  1.00  0.00    -0.014 A 
BRANCH  12  13
ATOM     13  C   UNL     1       5.066   2.321   4.973  1.00  0.00     0.031 A 
ATOM     14  C   UNL     1       5.748   1.379   5.912  1.00  0.00     0.074 A 
ATOM     15  C   UNL     1       5.434   3.607   4.839  1.00  0.00     0.049 A 
ATOM     16  N   UNL     1       6.601   1.633   6.862  1.00  0.00    -0.248 NA
ATOM     17  C   UNL     1       5.445  -0.055   5.740  1.00  0.00     0.031 C 
ATOM     18  C   UNL     1       4.954   4.519   3.792  1.00  0.00     0.029 A 
ATOM     19  N   UNL     1       6.341   4.349   5.535  1.00  0.00    -0.354 N 
ATOM     20  C   UNL     1       6.894   0.404   7.435  1.00  0.00     0.074 A 
ATOM     21  C   UNL     1       6.142  -0.601   6.722  1.00  0.00     0.031 C 
ATOM     22  C   UNL     1       5.600   5.690   3.901  1.00  0.00     0.029 A 
ATOM     23  C   UNL     1       6.463   5.636   5.072  1.00  0.00     0.049 A 
ATOM     24  H   UNL     1       6.858   3.997   6.296  1.00  0.00     0.167 HD
ATOM     25  C   UNL     1       7.710   0.157   8.482  1.00  0.00     0.037 A 
ATOM     26  C   UNL     1       7.170   6.658   5.583  1.00  0.00     0.037 A 
ATOM     27  C   UNL     1       8.443   1.196   9.149  1.00  0.00     0.049 A 
ATOM     28  C   UNL     1       7.970   6.382   6.825  1.00  0.00     0.074 A 
ATOM     29  C   UNL     1       9.248   1.112  10.267  1.00  0.00     0.029 A 
ATOM     30  N   UNL     1       8.451   2.526   8.741  1.00  0.00    -0.354 N 
ATOM     31  N   UNL     1       8.167   5.239   7.443  1.00  0.00    -0.248 NA
ATOM     32  C   UNL     1       8.626   7.531   7.453  1.00  0.00     0.031 C 
ATOM     33  C   UNL     1       9.695   2.403  10.570  1.00  0.00     0.029 A 
ATOM     34  C   UNL     1       9.226   3.280   9.601  1.00  0.00     0.049 A 
ATOM     35  H   UNL     1       7.974   2.879   7.955  1.00  0.00     0.167 HD
ATOM     36  C   UNL     1       8.992   5.525   8.520  1.00  0.00     0.074 A 
ATOM     37  C   UNL     1       9.270   6.949   8.455  1.00  0.00     0.031 C 
ATOM     38  C   UNL     1       9.478   4.697   9.479  1.00  0.00     0.037 A 
BRANCH  25  39
ATOM     39  C   UNL     1       7.732  -1.247   9.010  1.00  0.00     0.057 A 
ATOM     40  C   UNL     1       8.307  -2.315   8.307  1.00  0.00     0.134 A 
ATOM     41  C   UNL     1       7.094  -1.544  10.221  1.00  0.00     0.134 A 
ATOM     42  F   UNL     1       8.899  -2.109   7.120  1.00  0.00    -0.206 F 
ATOM     43  C   UNL     1       8.218  -3.629   8.775  1.00  0.00     0.040 A 
ATOM     44  C   UNL     1       7.023  -2.849  10.712  1.00  0.00     0.040 A 
ATOM     45  F   UNL     1       6.508  -0.573  10.937  1.00  0.00    -0.206 F 
ATOM     46  C   UNL     1       7.576  -3.897   9.982  1.00  0.00     0.006 A 
ENDBRANCH  25  39
BRANCH  26  47
ATOM     47  C   UNL     1       7.095   8.012   4.977  1.00  0.00     0.057 A 
ATOM     48  C   UNL     1       8.225   8.636   4.438  1.00  0.00     0.134 A 
ATOM     49  C   UNL     1       5.890   8.729   4.941  1.00  0.00     0.134 A 
ATOM     50  F   UNL     1       9.412   8.012   4.453  1.00  0.00    -0.206 F 
ATOM     51  C   UNL     1       8.167   9.926   3.906  1.00  0.00     0.040 A 
ATOM     52  C   UNL     1       5.810  10.007   4.385  1.00  0.00     0.040 A 
ATOM     53  F   UNL     1       4.766   8.193   5.438  1.00  0.00    -0.206 F 
ATOM     54  C   UNL     1       6.955  10.614   3.874  1.00  0.00     0.006 A 
ENDBRANCH  26  47
BRANCH  38  55
ATOM     55  C   UNL     1      10.400   5.312  10.487  1.00  0.00     0.057 A 
ATOM     56  C   UNL     1       9.941   6.188  11.477  1.00  0.00     0.134 A 
ATOM     57  C   UNL     1      11.762   4.987  10.482  1.00  0.00     0.134 A 
ATOM     58  F   UNL     1       8.649   6.547  11.523  1.00  0.00    -0.206 F 
ATOM     59  C   UNL     1      10.813   6.745  12.411  1.00  0.00     0.040 A 
ATOM     60  C   UNL     1      12.636   5.509  11.432  1.00  0.00     0.040 A 
ATOM     61  F   UNL     1      12.259   4.143   9.564  1.00  0.00    -0.206 F 
ATOM     62  C   UNL     1      12.163   6.399  12.394  1.00  0.00     0.006 A 
ENDBRANCH  38  55
ENDBRANCH  12  13
ENDBRANCH   5   7
ENDBRANCH   4   5
ENDBRANCH   3   4
ENDBRANCH   2   3
ENDBRANCH   1   2
BRANCH   1  63
ATOM     63  C   UNL     1       2.445   1.315  -1.203  1.00  0.00     0.202 C 
BRANCH  63  64
ATOM     64  C   UNL     1       1.932   2.288  -2.256  1.00  0.00     0.261 C 
BRANCH  64  65
ATOM     65  O   UNL     1       2.316   1.731  -3.512  1.00  0.00    -0.463 OA
BRANCH  65  66
ATOM     66  C   UNL     1       3.532   2.155  -3.920  1.00  0.00     0.312 C 
ATOM     67  O   UNL     1       3.970   3.266  -3.676  1.00  0.00    -0.252 OA
BRANCH  66  68
ATOM     68  C   UNL     1       4.311   1.092  -4.667  1.00  0.00     0.143 C 
ATOM     69  C   UNL     1       4.438   1.515  -6.126  1.00  0.00     0.124 C 
ATOM     70  C   UNL     1       3.550  -0.239  -4.769  1.00  0.00     0.133 C 
ATOM     71  C   UNL     1       3.714   0.345  -6.842  1.00  0.00     0.132 C 
ATOM     72  C   UNL     1       4.469  -1.327  -5.328  1.00  0.00     0.036 C 
ATOM     73  O   UNL     1       2.673   0.027  -5.883  1.00  0.00    -0.373 OA
ATOM     74  C   UNL     1       4.440  -1.002  -6.817  1.00  0.00     0.035 C 
BRANCH  69  75
ATOM     75  C   UNL     1       5.836   1.777  -6.665  1.00  0.00     0.231 C 
ATOM     76  O   UNL     1       6.237   1.196  -7.679  1.00  0.00    -0.274 OA
ATOM     77  N   UNL     1       6.660   2.747  -6.165  1.00  0.00    -0.326 N 
ATOM     78  H   UNL     1       7.516   2.839  -6.644  1.00  0.00     0.169 HD
BRANCH  77  79
ATOM     79  C   UNL     1       6.501   3.629  -5.094  1.00  0.00     0.044 A 
ATOM     80  C   UNL     1       6.853   3.234  -3.796  1.00  0.00     0.029 A 
ATOM     81  C   UNL     1       6.178   4.964  -5.350  1.00  0.00     0.068 A 
ATOM     82  C   UNL     1       6.776   4.149  -2.737  1.00  0.00     0.044 A 
ATOM     83  C   UNL     1       6.099   5.865  -4.289  1.00  0.00     0.160 A 
ATOM     84  C   UNL     1       6.382   5.459  -2.990  1.00  0.00     0.158 A 
ATOM     85  F   UNL     1       5.759   7.139  -4.535  1.00  0.00    -0.204 F 
ATOM     86  F   UNL     1       6.297   6.330  -1.974  1.00  0.00    -0.204 F 
ENDBRANCH  77  79
ENDBRANCH  69  75
ENDBRANCH  66  68
ENDBRANCH  65  66
ENDBRANCH  64  65
ENDBRANCH  63  64
ENDBRANCH   1  63
TORSDOF 16
