REMARK SMILES O=C(CS[C@@H]1CCS(=O)(=O)C1)Nc1nc(CC(=O)OCCOCCOC(=O)c2ccc(-c3c4nc(c(-c5c(F)cccc5F)c5ccc([nH]5)c(-c5c(F)cccc5F)c5nc(c(-c6c(F)cccc6F)c6ccc3[nH]6)C=C5)C=C4)cc2)cs1
REMARK SMILES IDX 20 1 19 2 17 3 18 4 16 5 15 6 13 7 14 8 83 9 82 10 12 11
REMARK SMILES IDX 1 12 2 13 3 15 4 16 5 17 6 18 11 19 7 20 8 21 9 22 10 23
REMARK SMILES IDX 21 24 22 25 23 26 24 27 25 28 26 29 27 30 28 31 29 32 81 33
REMARK SMILES IDX 30 34 80 35 31 36 32 37 33 38 74 39 34 40 79 41 73 42 75 43
REMARK SMILES IDX 35 44 78 45 72 46 71 47 36 49 62 50 45 51 61 52 46 53 49 54
REMARK SMILES IDX 60 55 76 56 47 57 48 58 59 60 77 61 50 62 37 63 38 64 43 65
REMARK SMILES IDX 39 66 40 67 42 68 44 69 41 70 63 71 64 72 69 73 65 74 66 75
REMARK SMILES IDX 68 76 70 77 67 78 51 79 52 80 57 81 53 82 54 83 56 84 58 85
REMARK SMILES IDX 55 86
REMARK H PARENT 12 14 75 48 49 59
REMARK Flexibility Score: inf
ROOT
ATOM      1  C   UNL     1       0.323  -5.564   5.178  1.00  0.00     0.261 C 
ENDROOT
BRANCH   1   2
ATOM      2  O   UNL     1       0.335  -4.348   4.400  1.00  0.00    -0.463 OA
BRANCH   2   3
ATOM      3  C   UNL     1      -0.888  -3.847   4.076  1.00  0.00     0.311 C 
ATOM      4  O   UNL     1      -1.952  -4.373   4.395  1.00  0.00    -0.252 OA
BRANCH   3   5
ATOM      5  C   UNL     1      -0.870  -2.587   3.247  1.00  0.00     0.179 C 
BRANCH   5   6
ATOM      6  C   UNL     1       0.393  -1.790   3.193  1.00  0.00     0.065 A 
ATOM      7  C   UNL     1       1.983  -0.763   2.051  1.00  0.00     0.189 A 
ATOM      8  N   UNL     1       0.960  -1.569   1.946  1.00  0.00    -0.224 NA
ATOM      9  S   UNL     1       2.424  -0.304   3.631  1.00  0.00    -0.105 S 
ATOM     10  C   UNL     1       0.998  -1.070   4.209  1.00  0.00     0.093 A 
BRANCH   7  11
ATOM     11  N   UNL     1       2.724  -0.184   1.065  1.00  0.00    -0.301 N 
ATOM     12  O   UNL     1       1.121  -0.384  -0.611  1.00  0.00    -0.274 OA
ATOM     13  C   UNL     1       2.235  -0.051  -0.217  1.00  0.00     0.236 C 
ATOM     14  H   UNL     1       3.628   0.146   1.272  1.00  0.00     0.172 HD
BRANCH  13  15
ATOM     15  C   UNL     1       3.221   0.577  -1.188  1.00  0.00     0.170 C 
BRANCH  15  16
ATOM     16  S   UNL     1       4.188   1.944  -0.454  1.00  0.00    -0.148 SA
BRANCH  16  17
ATOM     17  C   UNL     1       2.871   3.198  -0.171  1.00  0.00     0.063 C 
ATOM     18  C   UNL     1       2.436   3.916  -1.454  1.00  0.00     0.031 C 
ATOM     19  C   UNL     1       3.388   4.291   0.768  1.00  0.00     0.151 C 
ATOM     20  C   UNL     1       3.535   4.906  -1.829  1.00  0.00     0.138 C 
ATOM     21  S   UNL     1       4.160   5.518  -0.273  1.00  0.00     0.151 S 
ATOM     22  O   UNL     1       5.598   5.330  -0.239  1.00  0.00    -0.229 OA
ATOM     23  O   UNL     1       3.548   6.797   0.004  1.00  0.00    -0.229 OA
ENDBRANCH  16  17
ENDBRANCH  15  16
ENDBRANCH  13  15
ENDBRANCH   7  11
ENDBRANCH   5   6
ENDBRANCH   3   5
ENDBRANCH   2   3
ENDBRANCH   1   2
BRANCH   1  24
ATOM     24  C   UNL     1       1.052  -5.430   6.520  1.00  0.00     0.202 C 
BRANCH  24  25
ATOM     25  O   UNL     1       0.514  -4.495   7.454  1.00  0.00    -0.374 OA
BRANCH  25  26
ATOM     26  C   UNL     1       0.727  -3.113   7.180  1.00  0.00     0.202 C 
BRANCH  26  27
ATOM     27  C   UNL     1       2.143  -2.577   7.435  1.00  0.00     0.261 C 
BRANCH  27  28
ATOM     28  O   UNL     1       3.122  -3.180   6.569  1.00  0.00    -0.460 OA
BRANCH  28  29
ATOM     29  C   UNL     1       4.113  -3.841   7.217  1.00  0.00     0.338 C 
ATOM     30  O   UNL     1       4.320  -3.867   8.418  1.00  0.00    -0.246 OA
BRANCH  29  31
ATOM     31  C   UNL     1       4.855  -4.706   6.281  1.00  0.00     0.060 A 
ATOM     32  C   UNL     1       4.919  -6.072   6.585  1.00  0.00     0.016 A 
ATOM     33  C   UNL     1       5.555  -4.188   5.190  1.00  0.00     0.016 A 
ATOM     34  C   UNL     1       5.723  -6.919   5.826  1.00  0.00     0.010 A 
ATOM     35  C   UNL     1       6.370  -5.040   4.433  1.00  0.00     0.010 A 
ATOM     36  C   UNL     1       6.483  -6.402   4.768  1.00  0.00    -0.014 A 
BRANCH  36  37
ATOM     37  C   UNL     1       7.479  -7.272   4.096  1.00  0.00     0.031 A 
ATOM     38  C   UNL     1       8.927  -7.181   4.492  1.00  0.00     0.074 A 
ATOM     39  C   UNL     1       7.091  -8.160   3.163  1.00  0.00     0.049 A 
ATOM     40  N   UNL     1       9.956  -7.844   4.030  1.00  0.00    -0.248 NA
ATOM     41  C   UNL     1       9.258  -6.214   5.550  1.00  0.00     0.031 C 
ATOM     42  C   UNL     1       5.716  -8.364   2.715  1.00  0.00     0.029 A 
ATOM     43  N   UNL     1       7.825  -9.053   2.424  1.00  0.00    -0.354 N 
ATOM     44  C   UNL     1      11.056  -7.374   4.736  1.00  0.00     0.074 A 
ATOM     45  C   UNL     1      10.573  -6.349   5.637  1.00  0.00     0.031 C 
ATOM     46  C   UNL     1       5.705  -9.316   1.766  1.00  0.00     0.029 A 
ATOM     47  C   UNL     1       7.074  -9.767   1.524  1.00  0.00     0.049 A 
ATOM     48  H   UNL     1       8.797  -9.169   2.528  1.00  0.00     0.167 HD
ATOM     49  C   UNL     1      12.350  -7.766   4.647  1.00  0.00     0.037 A 
ATOM     50  C   UNL     1       7.451 -10.668   0.596  1.00  0.00     0.037 A 
ATOM     51  C   UNL     1      12.830  -8.787   3.753  1.00  0.00     0.049 A 
ATOM     52  C   UNL     1       8.903 -11.041   0.470  1.00  0.00     0.074 A 
ATOM     53  C   UNL     1      14.115  -9.283   3.621  1.00  0.00     0.029 A 
ATOM     54  N   UNL     1      12.045  -9.460   2.829  1.00  0.00    -0.354 N 
ATOM     55  N   UNL     1       9.928 -10.620   1.171  1.00  0.00    -0.248 NA
ATOM     56  C   UNL     1       9.251 -12.014  -0.575  1.00  0.00     0.031 C 
ATOM     57  C   UNL     1      14.118 -10.219   2.581  1.00  0.00     0.029 A 
ATOM     58  C   UNL     1      12.825 -10.340   2.098  1.00  0.00     0.049 A 
ATOM     59  H   UNL     1      11.076  -9.330   2.711  1.00  0.00     0.167 HD
ATOM     60  C   UNL     1      11.037 -11.286   0.664  1.00  0.00     0.074 A 
ATOM     61  C   UNL     1      10.557 -12.152  -0.393  1.00  0.00     0.031 C 
ATOM     62  C   UNL     1      12.336 -11.189   1.041  1.00  0.00     0.037 A 
BRANCH  49  63
ATOM     63  C   UNL     1      13.345  -7.065   5.525  1.00  0.00     0.057 A 
ATOM     64  C   UNL     1      13.399  -7.285   6.907  1.00  0.00     0.134 A 
ATOM     65  C   UNL     1      14.279  -6.178   4.974  1.00  0.00     0.134 A 
ATOM     66  F   UNL     1      12.525  -8.113   7.499  1.00  0.00    -0.206 F 
ATOM     67  C   UNL     1      14.331  -6.629   7.714  1.00  0.00     0.040 A 
ATOM     68  C   UNL     1      15.230  -5.535   5.767  1.00  0.00     0.040 A 
ATOM     69  F   UNL     1      14.284  -5.926   3.656  1.00  0.00    -0.206 F 
ATOM     70  C   UNL     1      15.254  -5.755   7.143  1.00  0.00     0.006 A 
ENDBRANCH  49  63
BRANCH  50  71
ATOM     71  C   UNL     1       6.434 -11.268  -0.302  1.00  0.00     0.057 A 
ATOM     72  C   UNL     1       6.062 -12.611  -0.187  1.00  0.00     0.134 A 
ATOM     73  C   UNL     1       5.809 -10.507  -1.299  1.00  0.00     0.134 A 
ATOM     74  F   UNL     1       6.643 -13.396   0.732  1.00  0.00    -0.206 F 
ATOM     75  C   UNL     1       5.111 -13.181  -1.036  1.00  0.00     0.040 A 
ATOM     76  C   UNL     1       4.840 -11.057  -2.139  1.00  0.00     0.040 A 
ATOM     77  F   UNL     1       6.123  -9.213  -1.459  1.00  0.00    -0.206 F 
ATOM     78  C   UNL     1       4.492 -12.400  -2.011  1.00  0.00     0.006 A 
ENDBRANCH  50  71
BRANCH  62  79
ATOM     79  C   UNL     1      13.329 -12.047   0.312  1.00  0.00     0.057 A 
ATOM     80  C   UNL     1      13.728 -11.759  -0.999  1.00  0.00     0.134 A 
ATOM     81  C   UNL     1      13.924 -13.147   0.943  1.00  0.00     0.134 A 
ATOM     82  F   UNL     1      13.185 -10.727  -1.663  1.00  0.00    -0.206 F 
ATOM     83  C   UNL     1      14.671 -12.545  -1.663  1.00  0.00     0.040 A 
ATOM     84  C   UNL     1      14.886 -13.926   0.298  1.00  0.00     0.040 A 
ATOM     85  F   UNL     1      13.593 -13.472   2.202  1.00  0.00    -0.206 F 
ATOM     86  C   UNL     1      15.258 -13.628  -1.012  1.00  0.00     0.006 A 
ENDBRANCH  62  79
ENDBRANCH  36  37
ENDBRANCH  29  31
ENDBRANCH  28  29
ENDBRANCH  27  28
ENDBRANCH  26  27
ENDBRANCH  25  26
ENDBRANCH  24  25
ENDBRANCH   1  24
TORSDOF 19
