REMARK SMILES Cc1ccnc(C(=O)c2[nH]c3cc(F)ccc3c2CC(=O)OCCOCCOC(=O)c2ccc(-c3c4nc(c(-c5c(F)cccc5F)c5ccc([nH]5)c(-c5c(F)cccc5F)c5nc(c(-c6c(F)cccc6F)c6ccc3[nH]6)C=C5)C=C4)cc2)c1
REMARK SMILES IDX 24 1 23 2 22 3 20 4 21 5 19 6 18 7 9 8 10 9 11 10 17 12
REMARK SMILES IDX 12 13 16 14 13 15 15 16 14 17 7 18 8 19 6 20 1 21 2 22 3 23
REMARK SMILES IDX 85 24 4 25 5 26 25 27 26 28 27 29 28 30 29 31 30 32 31 33
REMARK SMILES IDX 32 34 84 35 33 36 83 37 34 38 35 39 36 40 77 41 37 42 82 43
REMARK SMILES IDX 76 44 78 45 38 46 81 47 75 48 74 49 39 51 65 52 48 53 64 54
REMARK SMILES IDX 49 55 52 56 63 57 79 58 50 59 51 60 62 62 80 63 53 64 40 65
REMARK SMILES IDX 41 66 46 67 42 68 43 69 45 70 47 71 44 72 66 73 67 74 72 75
REMARK SMILES IDX 68 76 69 77 71 78 73 79 70 80 54 81 55 82 60 83 56 84 57 85
REMARK SMILES IDX 59 86 61 87 58 88
REMARK H PARENT 10 11 78 50 52 61
REMARK Flexibility Score: inf
ROOT
ATOM      1  C   UNL     1       6.037  -4.660   0.458  1.00  0.00     0.202 C 
ENDROOT
BRANCH   1   2
ATOM      2  C   UNL     1       5.333  -5.491   1.538  1.00  0.00     0.261 C 
BRANCH   2   3
ATOM      3  O   UNL     1       3.892  -5.385   1.501  1.00  0.00    -0.463 OA
BRANCH   3   4
ATOM      4  C   UNL     1       3.309  -5.089   2.696  1.00  0.00     0.310 C 
ATOM      5  O   UNL     1       3.930  -4.994   3.753  1.00  0.00    -0.252 OA
BRANCH   4   6
ATOM      6  C   UNL     1       1.801  -4.975   2.683  1.00  0.00     0.161 C 
BRANCH   6   7
ATOM      7  C   UNL     1       1.073  -4.851   1.368  1.00  0.00     0.000 A 
ATOM      8  C   UNL     1       0.793  -3.676   0.661  1.00  0.00     0.093 A 
ATOM      9  N   UNL     1       0.104  -4.052  -0.473  1.00  0.00    -0.351 N 
ATOM     10  C   UNL     1      -0.294  -5.366  -0.384  1.00  0.00     0.049 A 
ATOM     11  H   UNL     1      -0.077  -3.463  -1.241  1.00  0.00     0.167 HD
ATOM     12  C   UNL     1       0.324  -5.902   0.744  1.00  0.00     0.004 A 
ATOM     13  C   UNL     1      -1.161  -6.109  -1.195  1.00  0.00     0.066 A 
ATOM     14  C   UNL     1       0.064  -7.249   1.081  1.00  0.00     0.013 A 
ATOM     15  C   UNL     1      -1.425  -7.424  -0.810  1.00  0.00     0.125 A 
ATOM     16  C   UNL     1      -0.829  -7.995   0.305  1.00  0.00     0.040 A 
ATOM     17  F   UNL     1      -2.293  -8.150  -1.528  1.00  0.00    -0.207 F 
BRANCH   8  18
ATOM     18  C   UNL     1       1.159  -2.312   1.034  1.00  0.00     0.227 C 
ATOM     19  O   UNL     1       2.004  -2.086   1.899  1.00  0.00    -0.285 OA
BRANCH  18  20
ATOM     20  C   UNL     1       0.486  -1.127   0.420  1.00  0.00     0.113 A 
ATOM     21  C   UNL     1      -2.973   0.314  -0.117  1.00  0.00     0.044 C 
ATOM     22  C   UNL     1      -1.483   0.151  -0.069  1.00  0.00    -0.047 A 
ATOM     23  C   UNL     1      -0.653   1.250  -0.306  1.00  0.00     0.023 A 
ATOM     24  C   UNL     1      -0.900  -1.063   0.311  1.00  0.00     0.036 A 
ATOM     25  C   UNL     1       0.718   1.086  -0.198  1.00  0.00     0.112 A 
ATOM     26  N   UNL     1       1.305  -0.078   0.142  1.00  0.00    -0.253 NA
ENDBRANCH  18  20
ENDBRANCH   8  18
ENDBRANCH   6   7
ENDBRANCH   4   6
ENDBRANCH   3   4
ENDBRANCH   2   3
ENDBRANCH   1   2
BRANCH   1  27
ATOM     27  O   UNL     1       5.913  -3.240   0.510  1.00  0.00    -0.374 OA
BRANCH  27  28
ATOM     28  C   UNL     1       4.608  -2.699   0.322  1.00  0.00     0.202 C 
BRANCH  28  29
ATOM     29  C   UNL     1       4.069  -2.655  -1.115  1.00  0.00     0.261 C 
BRANCH  29  30
ATOM     30  O   UNL     1       4.169  -3.910  -1.806  1.00  0.00    -0.460 OA
BRANCH  30  31
ATOM     31  C   UNL     1       5.096  -3.937  -2.792  1.00  0.00     0.338 C 
ATOM     32  O   UNL     1       5.752  -3.004  -3.235  1.00  0.00    -0.246 OA
BRANCH  31  33
ATOM     33  C   UNL     1       5.345  -5.331  -3.188  1.00  0.00     0.060 A 
ATOM     34  C   UNL     1       6.635  -5.842  -2.997  1.00  0.00     0.016 A 
ATOM     35  C   UNL     1       4.343  -6.112  -3.765  1.00  0.00     0.016 A 
ATOM     36  C   UNL     1       6.933  -7.141  -3.395  1.00  0.00     0.010 A 
ATOM     37  C   UNL     1       4.648  -7.411  -4.178  1.00  0.00     0.010 A 
ATOM     38  C   UNL     1       5.946  -7.924  -4.009  1.00  0.00    -0.014 A 
BRANCH  38  39
ATOM     39  C   UNL     1       6.298  -9.254  -4.553  1.00  0.00     0.031 A 
ATOM     40  C   UNL     1       6.562  -9.396  -6.024  1.00  0.00     0.074 A 
ATOM     41  C   UNL     1       6.385 -10.315  -3.731  1.00  0.00     0.049 A 
ATOM     42  N   UNL     1       6.833 -10.472  -6.716  1.00  0.00    -0.248 NA
ATOM     43  C   UNL     1       6.513  -8.161  -6.823  1.00  0.00     0.031 C 
ATOM     44  C   UNL     1       6.183 -10.276  -2.282  1.00  0.00     0.029 A 
ATOM     45  N   UNL     1       6.657 -11.632  -3.998  1.00  0.00    -0.354 N 
ATOM     46  C   UNL     1       6.978 -10.047  -8.030  1.00  0.00     0.074 A 
ATOM     47  C   UNL     1       6.743  -8.620  -8.045  1.00  0.00     0.031 C 
ATOM     48  C   UNL     1       6.328 -11.518  -1.789  1.00  0.00     0.029 A 
ATOM     49  C   UNL     1       6.594 -12.441  -2.889  1.00  0.00     0.049 A 
ATOM     50  H   UNL     1       6.875 -11.966  -4.898  1.00  0.00     0.167 HD
ATOM     51  C   UNL     1       7.283 -10.786  -9.123  1.00  0.00     0.037 A 
ATOM     52  C   UNL     1       6.709 -13.778  -2.786  1.00  0.00     0.037 A 
ATOM     53  C   UNL     1       7.516 -12.206  -9.091  1.00  0.00     0.049 A 
ATOM     54  C   UNL     1       6.968 -14.584  -4.032  1.00  0.00     0.074 A 
ATOM     55  C   UNL     1       7.870 -13.045 -10.133  1.00  0.00     0.029 A 
ATOM     56  N   UNL     1       7.404 -12.999  -7.958  1.00  0.00    -0.354 N 
ATOM     57  N   UNL     1       7.149 -14.169  -5.263  1.00  0.00    -0.248 NA
ATOM     58  C   UNL     1       7.032 -16.044  -3.876  1.00  0.00     0.031 C 
ATOM     59  C   UNL     1       7.911 -14.354  -9.643  1.00  0.00     0.029 A 
ATOM     60  C   UNL     1       7.640 -14.323  -8.284  1.00  0.00     0.049 A 
ATOM     61  H   UNL     1       7.189 -12.668  -7.056  1.00  0.00     0.167 HD
ATOM     62  C   UNL     1       7.370 -15.311  -6.022  1.00  0.00     0.074 A 
ATOM     63  C   UNL     1       7.322 -16.434  -5.109  1.00  0.00     0.031 C 
ATOM     64  C   UNL     1       7.587 -15.424  -7.356  1.00  0.00     0.037 A 
BRANCH  51  65
ATOM     65  C   UNL     1       7.354 -10.085 -10.447  1.00  0.00     0.057 A 
ATOM     66  C   UNL     1       8.404  -9.219 -10.775  1.00  0.00     0.134 A 
ATOM     67  C   UNL     1       6.384 -10.325 -11.430  1.00  0.00     0.134 A 
ATOM     68  F   UNL     1       9.358  -8.936  -9.876  1.00  0.00    -0.206 F 
ATOM     69  C   UNL     1       8.482  -8.607 -12.028  1.00  0.00     0.040 A 
ATOM     70  C   UNL     1       6.464  -9.739 -12.694  1.00  0.00     0.040 A 
ATOM     71  F   UNL     1       5.352 -11.146 -11.183  1.00  0.00    -0.206 F 
ATOM     72  C   UNL     1       7.514  -8.875 -12.995  1.00  0.00     0.006 A 
ENDBRANCH  51  65
BRANCH  52  73
ATOM     73  C   UNL     1       6.554 -14.449  -1.469  1.00  0.00     0.057 A 
ATOM     74  C   UNL     1       7.625 -15.114  -0.862  1.00  0.00     0.134 A 
ATOM     75  C   UNL     1       5.322 -14.474  -0.802  1.00  0.00     0.134 A 
ATOM     76  F   UNL     1       8.825 -15.148  -1.460  1.00  0.00    -0.206 F 
ATOM     77  C   UNL     1       7.473 -15.799   0.346  1.00  0.00     0.040 A 
ATOM     78  C   UNL     1       5.162 -15.130   0.419  1.00  0.00     0.040 A 
ATOM     79  F   UNL     1       4.253 -13.856  -1.328  1.00  0.00    -0.206 F 
ATOM     80  C   UNL     1       6.238 -15.804   0.992  1.00  0.00     0.006 A 
ENDBRANCH  52  73
BRANCH  64  81
ATOM     81  C   UNL     1       7.809 -16.806  -7.899  1.00  0.00     0.057 A 
ATOM     82  C   UNL     1       6.764 -17.733  -8.001  1.00  0.00     0.134 A 
ATOM     83  C   UNL     1       9.070 -17.197  -8.367  1.00  0.00     0.134 A 
ATOM     84  F   UNL     1       5.535 -17.425  -7.558  1.00  0.00    -0.206 F 
ATOM     85  C   UNL     1       6.971 -19.009  -8.528  1.00  0.00     0.040 A 
ATOM     86  C   UNL     1       9.282 -18.458  -8.923  1.00  0.00     0.040 A 
ATOM     87  F   UNL     1      10.111 -16.352  -8.308  1.00  0.00    -0.206 F 
ATOM     88  C   UNL     1       8.232 -19.371  -8.999  1.00  0.00     0.006 A 
ENDBRANCH  64  81
ENDBRANCH  38  39
ENDBRANCH  31  33
ENDBRANCH  30  31
ENDBRANCH  29  30
ENDBRANCH  28  29
ENDBRANCH  27  28
ENDBRANCH   1  27
TORSDOF 17
