REMARK SMILES C[NH2+][C@]1(C(=O)OCCOCCOC(=O)c2ccc(-c3c4nc(c(-c5c(F)cccc5F)c5ccc([nH]5)c(-c5c(F)cccc5F)c5nc(c(-c6c(F)cccc6F)c6ccc3[nH]6)C=C5)C=C4)cc2)CCCCC1(C)C
REMARK SMILES IDX 10 1 9 2 8 3 7 4 6 5 4 6 5 7 3 8 69 9 73 10 70 11 72 12
REMARK SMILES IDX 74 13 75 14 71 15 2 16 1 17 11 20 12 21 13 22 14 23 15 24
REMARK SMILES IDX 16 25 68 26 17 27 67 28 18 29 19 30 20 31 61 32 21 33 66 34
REMARK SMILES IDX 60 35 62 36 22 37 65 38 59 39 58 40 23 42 49 43 32 44 48 45
REMARK SMILES IDX 33 46 36 47 47 48 63 49 34 50 35 51 46 53 64 54 37 55 24 56
REMARK SMILES IDX 25 57 30 58 26 59 27 60 29 61 31 62 28 63 50 64 51 65 56 66
REMARK SMILES IDX 52 67 53 68 55 69 57 70 54 71 38 72 39 73 44 74 40 75 41 76
REMARK SMILES IDX 43 77 45 78 42 79
REMARK H PARENT 2 18 2 19 62 41 36 52
REMARK Flexibility Score: inf
ROOT
ATOM      1  C   UNL     1       2.182   0.137  -2.383  1.00  0.00     0.202 C 
ENDROOT
BRANCH   1   2
ATOM      2  O   UNL     1       3.339  -0.193  -1.623  1.00  0.00    -0.374 OA
BRANCH   2   3
ATOM      3  C   UNL     1       3.416  -1.529  -1.127  1.00  0.00     0.202 C 
BRANCH   3   4
ATOM      4  C   UNL     1       2.449  -1.924  -0.006  1.00  0.00     0.261 C 
BRANCH   4   5
ATOM      5  O   UNL     1       1.064  -1.947  -0.424  1.00  0.00    -0.459 OA
BRANCH   5   6
ATOM      6  C   UNL     1       0.228  -1.149   0.305  1.00  0.00     0.368 C 
ATOM      7  O   UNL     1       0.645  -0.421   1.202  1.00  0.00    -0.245 OA
BRANCH   6   8
ATOM      8  C   UNL     1      -1.315  -1.324  -0.037  1.00  0.00     0.199 C 
ATOM      9  C   UNL     1      -2.015  -0.223   0.843  1.00  0.00     0.082 C 
ATOM     10  C   UNL     1      -1.794  -1.096  -1.550  1.00  0.00     0.031 C 
ATOM     11  C   UNL     1      -1.731   1.209   0.370  1.00  0.00     0.007 C 
ATOM     12  C   UNL     1      -1.546   0.373  -2.001  1.00  0.00     0.013 C 
ATOM     13  C   UNL     1      -1.132  -2.027  -2.590  1.00  0.00     0.018 C 
ATOM     14  C   UNL     1      -3.327  -1.351  -1.720  1.00  0.00     0.018 C 
ATOM     15  C   UNL     1      -2.138   1.429  -1.075  1.00  0.00     0.001 C 
BRANCH   8  16
ATOM     16  N   UNL     1      -1.802  -2.610   0.557  1.00  0.00    -0.334 N 
ATOM     17  C   UNL     1      -1.040  -3.815   0.286  1.00  0.00     0.331 C 
ATOM     18  H   UNL     1      -1.826  -2.487   1.569  1.00  0.00     0.347 HD
ATOM     19  H   UNL     1      -2.704  -2.772   0.109  1.00  0.00     0.347 HD
ENDBRANCH   8  16
ENDBRANCH   6   8
ENDBRANCH   5   6
ENDBRANCH   4   5
ENDBRANCH   3   4
ENDBRANCH   2   3
ENDBRANCH   1   2
BRANCH   1  20
ATOM     20  C   UNL     1       2.163  -0.321  -3.847  1.00  0.00     0.261 C 
BRANCH  20  21
ATOM     21  O   UNL     1       2.233  -1.753  -3.965  1.00  0.00    -0.460 OA
BRANCH  21  22
ATOM     22  C   UNL     1       3.393  -2.217  -4.482  1.00  0.00     0.338 C 
ATOM     23  O   UNL     1       4.302  -1.561  -4.974  1.00  0.00    -0.246 OA
BRANCH  22  24
ATOM     24  C   UNL     1       3.531  -3.660  -4.210  1.00  0.00     0.060 A 
ATOM     25  C   UNL     1       4.713  -4.077  -3.586  1.00  0.00     0.016 A 
ATOM     26  C   UNL     1       2.573  -4.592  -4.617  1.00  0.00     0.016 A 
ATOM     27  C   UNL     1       4.979  -5.434  -3.431  1.00  0.00     0.010 A 
ATOM     28  C   UNL     1       2.847  -5.958  -4.470  1.00  0.00     0.010 A 
ATOM     29  C   UNL     1       4.071  -6.381  -3.921  1.00  0.00    -0.014 A 
BRANCH  29  30
ATOM     30  C   UNL     1       4.511  -7.793  -4.029  1.00  0.00     0.031 A 
ATOM     31  C   UNL     1       5.049  -8.281  -5.348  1.00  0.00     0.074 A 
ATOM     32  C   UNL     1       4.510  -8.603  -2.957  1.00  0.00     0.049 A 
ATOM     33  N   UNL     1       5.527  -9.456  -5.666  1.00  0.00    -0.248 NA
ATOM     34  C   UNL     1       5.051  -7.310  -6.455  1.00  0.00     0.031 C 
ATOM     35  C   UNL     1       4.061  -8.231  -1.617  1.00  0.00     0.029 A 
ATOM     36  N   UNL     1       4.911  -9.909  -2.829  1.00  0.00    -0.354 N 
ATOM     37  C   UNL     1       5.885  -9.367  -7.006  1.00  0.00     0.074 A 
ATOM     38  C   UNL     1       5.540  -8.034  -7.450  1.00  0.00     0.031 C 
ATOM     39  C   UNL     1       4.213  -9.288  -0.799  1.00  0.00     0.029 A 
ATOM     40  C   UNL     1       4.746 -10.414  -1.563  1.00  0.00     0.049 A 
ATOM     41  H   UNL     1       5.283 -10.434  -3.574  1.00  0.00     0.167 HD
ATOM     42  C   UNL     1       6.461 -10.306  -7.793  1.00  0.00     0.037 A 
ATOM     43  C   UNL     1       4.988 -11.649  -1.082  1.00  0.00     0.037 A 
ATOM     44  C   UNL     1       6.811 -11.629  -7.349  1.00  0.00     0.049 A 
ATOM     45  C   UNL     1       5.563 -12.698  -1.997  1.00  0.00     0.074 A 
ATOM     46  C   UNL     1       7.417 -12.646  -8.065  1.00  0.00     0.029 A 
ATOM     47  N   UNL     1       6.580 -12.118  -6.073  1.00  0.00    -0.354 N 
ATOM     48  N   UNL     1       5.921 -12.595  -3.254  1.00  0.00    -0.248 NA
ATOM     49  C   UNL     1       5.769 -14.036  -1.424  1.00  0.00     0.031 C 
ATOM     50  C   UNL     1       7.510 -13.768  -7.234  1.00  0.00     0.029 A 
ATOM     51  C   UNL     1       7.006 -13.433  -5.988  1.00  0.00     0.049 A 
ATOM     52  H   UNL     1       6.174 -11.606  -5.336  1.00  0.00     0.167 HD
ATOM     53  C   UNL     1       6.421 -13.841  -3.613  1.00  0.00     0.074 A 
ATOM     54  C   UNL     1       6.329 -14.682  -2.437  1.00  0.00     0.031 C 
ATOM     55  C   UNL     1       6.913 -14.252  -4.807  1.00  0.00     0.037 A 
BRANCH  42  56
ATOM     56  C   UNL     1       6.723  -9.942  -9.224  1.00  0.00     0.057 A 
ATOM     57  C   UNL     1       7.746  -9.057  -9.588  1.00  0.00     0.134 A 
ATOM     58  C   UNL     1       5.960 -10.508 -10.253  1.00  0.00     0.134 A 
ATOM     59  F   UNL     1       8.503  -8.469  -8.649  1.00  0.00    -0.206 F 
ATOM     60  C   UNL     1       7.988  -8.733 -10.925  1.00  0.00     0.040 A 
ATOM     61  C   UNL     1       6.208 -10.210 -11.594  1.00  0.00     0.040 A 
ATOM     62  F   UNL     1       4.967 -11.364  -9.972  1.00  0.00    -0.206 F 
ATOM     63  C   UNL     1       7.222  -9.316 -11.932  1.00  0.00     0.006 A 
ENDBRANCH  42  56
BRANCH  43  64
ATOM     64  C   UNL     1       4.682 -11.970   0.335  1.00  0.00     0.057 A 
ATOM     65  C   UNL     1       5.701 -12.226   1.259  1.00  0.00     0.134 A 
ATOM     66  C   UNL     1       3.361 -12.052   0.792  1.00  0.00     0.134 A 
ATOM     67  F   UNL     1       6.986 -12.188   0.875  1.00  0.00    -0.206 F 
ATOM     68  C   UNL     1       5.419 -12.569   2.582  1.00  0.00     0.040 A 
ATOM     69  C   UNL     1       3.064 -12.370   2.118  1.00  0.00     0.040 A 
ATOM     70  F   UNL     1       2.340 -11.818  -0.045  1.00  0.00    -0.206 F 
ATOM     71  C   UNL     1       4.096 -12.637   3.016  1.00  0.00     0.006 A 
ENDBRANCH  43  64
BRANCH  55  72
ATOM     72  C   UNL     1       7.420 -15.662  -4.894  1.00  0.00     0.057 A 
ATOM     73  C   UNL     1       6.552 -16.760  -4.916  1.00  0.00     0.134 A 
ATOM     74  C   UNL     1       8.793 -15.920  -5.002  1.00  0.00     0.134 A 
ATOM     75  F   UNL     1       5.227 -16.581  -4.805  1.00  0.00    -0.206 F 
ATOM     76  C   UNL     1       7.032 -18.067  -5.021  1.00  0.00     0.040 A 
ATOM     77  C   UNL     1       9.284 -17.219  -5.133  1.00  0.00     0.040 A 
ATOM     78  F   UNL     1       9.678 -14.911  -4.997  1.00  0.00    -0.206 F 
ATOM     79  C   UNL     1       8.402 -18.298  -5.136  1.00  0.00     0.006 A 
ENDBRANCH  55  72
ENDBRANCH  29  30
ENDBRANCH  22  24
ENDBRANCH  21  22
ENDBRANCH  20  21
ENDBRANCH   1  20
TORSDOF 15
