REMARK SMILES NC(=O)[C@@H]1CCC[N@@H+]1[C@@H](C(=O)OCCOCCOC(=O)c1ccc(-c2c3nc(c(-c4c(F)cccc4F)c4ccc([nH]4)c(-c4c(F)cccc4F)c4nc(c(-c5c(F)cccc5F)c5ccc2[nH]5)C=C4)C=C3)cc1)c1c[nH]c2cc(OCc3ccccc3)ccc12
REMARK SMILES IDX 14 1 13 2 12 3 10 4 11 5 9 6 8 7 4 8 5 9 6 10 7 11 2 13 1 14
REMARK SMILES IDX 3 17 75 18 76 19 91 20 77 21 78 22 90 23 79 25 89 26 80 27
REMARK SMILES IDX 81 28 82 29 83 30 84 31 88 32 85 33 87 34 86 35 15 36 16 37
REMARK SMILES IDX 17 38 18 39 19 40 20 41 21 42 22 43 74 44 23 45 73 46 24 47
REMARK SMILES IDX 25 48 26 49 67 50 27 51 72 52 66 53 68 54 28 55 71 56 65 57
REMARK SMILES IDX 64 58 29 60 55 61 38 62 54 63 39 64 42 65 53 66 69 67 40 68
REMARK SMILES IDX 41 69 52 71 70 72 43 73 30 74 31 75 36 76 32 77 33 78 35 79
REMARK SMILES IDX 37 80 34 81 56 82 57 83 62 84 58 85 59 86 61 87 63 88 60 89
REMARK SMILES IDX 44 90 45 91 50 92 46 93 47 94 49 95 51 96 48 97
REMARK H PARENT 8 12 1 15 1 16 77 24 68 59 42 70
REMARK Flexibility Score: inf
ROOT
ATOM      1  C   UNL     1      -0.114  -4.896   2.708  1.00  0.00     0.202 C 
ENDROOT
BRANCH   1   2
ATOM      2  C   UNL     1       0.409  -3.462   2.677  1.00  0.00     0.261 C 
BRANCH   2   3
ATOM      3  O   UNL     1       1.253  -3.265   1.524  1.00  0.00    -0.459 OA
BRANCH   3   4
ATOM      4  C   UNL     1       2.473  -2.710   1.747  1.00  0.00     0.370 C 
ATOM      5  O   UNL     1       2.881  -2.386   2.860  1.00  0.00    -0.245 OA
BRANCH   4   6
ATOM      6  C   UNL     1       3.294  -2.488   0.476  1.00  0.00     0.329 C 
BRANCH   6   7
ATOM      7  N   UNL     1       2.602  -2.498  -0.857  1.00  0.00    -0.309 N 
ATOM      8  C   UNL     1       1.287  -1.879  -1.146  1.00  0.00     0.275 C 
ATOM      9  C   UNL     1       0.396  -3.054  -1.530  1.00  0.00     0.081 C 
ATOM     10  C   UNL     1       1.329  -3.918  -2.344  1.00  0.00     0.068 C 
ATOM     11  C   UNL     1       2.696  -3.670  -1.723  1.00  0.00     0.264 C 
ATOM     12  H   UNL     1       3.294  -1.774  -1.048  1.00  0.00     0.349 HD
BRANCH   8  13
ATOM     13  C   UNL     1       0.661  -0.945  -0.123  1.00  0.00     0.275 C 
ATOM     14  N   UNL     1       1.407   0.152   0.197  1.00  0.00    -0.365 N 
ATOM     15  H   UNL     1       1.068   0.804   0.852  1.00  0.00     0.159 HD
ATOM     16  H   UNL     1       2.284   0.291  -0.228  1.00  0.00     0.159 HD
ATOM     17  O   UNL     1      -0.473  -1.071   0.329  1.00  0.00    -0.268 OA
ENDBRANCH   8  13
ENDBRANCH   6   7
BRANCH   6  18
ATOM     18  C   UNL     1       4.694  -3.205   0.469  1.00  0.00     0.046 A 
ATOM     19  C   UNL     1       5.780  -2.648  -0.204  1.00  0.00     0.094 A 
ATOM     20  C   UNL     1       5.054  -4.606   0.388  1.00  0.00     0.009 A 
ATOM     21  N   UNL     1       5.896  -3.462  -1.312  1.00  0.00    -0.361 N 
ATOM     22  C   UNL     1       5.525  -4.730  -0.921  1.00  0.00     0.050 A 
ATOM     23  C   UNL     1       4.989  -5.797   1.146  1.00  0.00     0.015 A 
ATOM     24  H   UNL     1       6.188  -3.189  -2.211  1.00  0.00     0.166 HD
ATOM     25  C   UNL     1       5.541  -5.942  -1.606  1.00  0.00     0.073 A 
ATOM     26  C   UNL     1       5.163  -7.052   0.504  1.00  0.00     0.047 A 
ATOM     27  C   UNL     1       5.317  -7.113  -0.878  1.00  0.00     0.121 A 
BRANCH  27  28
ATOM     28  O   UNL     1       5.235  -8.223  -1.672  1.00  0.00    -0.489 OA
BRANCH  28  29
ATOM     29  C   UNL     1       5.729  -9.478  -1.208  1.00  0.00     0.265 C 
BRANCH  29  30
ATOM     30  C   UNL     1       7.201  -9.686  -1.509  1.00  0.00    -0.011 A 
ATOM     31  C   UNL     1       7.736 -10.983  -1.477  1.00  0.00     0.007 A 
ATOM     32  C   UNL     1       8.069  -8.620  -1.786  1.00  0.00     0.007 A 
ATOM     33  C   UNL     1       9.101 -11.196  -1.694  1.00  0.00     0.000 A 
ATOM     34  C   UNL     1       9.431  -8.831  -1.998  1.00  0.00     0.000 A 
ATOM     35  C   UNL     1       9.948 -10.119  -1.944  1.00  0.00     0.000 A 
ENDBRANCH  29  30
ENDBRANCH  28  29
ENDBRANCH  27  28
ENDBRANCH   6  18
ENDBRANCH   4   6
ENDBRANCH   3   4
ENDBRANCH   2   3
ENDBRANCH   1   2
BRANCH   1  36
ATOM     36  O   UNL     1       0.825  -5.941   2.968  1.00  0.00    -0.374 OA
BRANCH  36  37
ATOM     37  C   UNL     1       1.953  -6.046   2.112  1.00  0.00     0.202 C 
BRANCH  37  38
ATOM     38  C   UNL     1       1.756  -6.606   0.697  1.00  0.00     0.261 C 
BRANCH  38  39
ATOM     39  O   UNL     1       0.528  -6.232   0.081  1.00  0.00    -0.460 OA
BRANCH  39  40
ATOM     40  C   UNL     1      -0.423  -7.183   0.174  1.00  0.00     0.338 C 
ATOM     41  O   UNL     1      -0.314  -8.316   0.624  1.00  0.00    -0.246 OA
BRANCH  40  42
ATOM     42  C   UNL     1      -1.710  -6.594  -0.198  1.00  0.00     0.060 A 
ATOM     43  C   UNL     1      -2.719  -6.630   0.768  1.00  0.00     0.016 A 
ATOM     44  C   UNL     1      -1.942  -6.066  -1.470  1.00  0.00     0.016 A 
ATOM     45  C   UNL     1      -3.995  -6.202   0.440  1.00  0.00     0.010 A 
ATOM     46  C   UNL     1      -3.226  -5.631  -1.798  1.00  0.00     0.010 A 
ATOM     47  C   UNL     1      -4.266  -5.749  -0.859  1.00  0.00    -0.014 A 
BRANCH  47  48
ATOM     48  C   UNL     1      -5.682  -5.590  -1.257  1.00  0.00     0.031 A 
ATOM     49  C   UNL     1      -6.330  -6.677  -2.068  1.00  0.00     0.074 A 
ATOM     50  C   UNL     1      -6.403  -4.549  -0.805  1.00  0.00     0.049 A 
ATOM     51  N   UNL     1      -7.571  -6.785  -2.468  1.00  0.00    -0.248 NA
ATOM     52  C   UNL     1      -5.466  -7.795  -2.482  1.00  0.00     0.031 C 
ATOM     53  C   UNL     1      -5.885  -3.459   0.020  1.00  0.00     0.029 A 
ATOM     54  N   UNL     1      -7.731  -4.252  -0.967  1.00  0.00    -0.354 N 
ATOM     55  C   UNL     1      -7.637  -7.983  -3.168  1.00  0.00     0.074 A 
ATOM     56  C   UNL     1      -6.304  -8.541  -3.186  1.00  0.00     0.031 C 
ATOM     57  C   UNL     1      -6.889  -2.611   0.297  1.00  0.00     0.029 A 
ATOM     58  C   UNL     1      -8.109  -3.083  -0.355  1.00  0.00     0.049 A 
ATOM     59  H   UNL     1      -8.354  -4.822  -1.473  1.00  0.00     0.167 HD
ATOM     60  C   UNL     1      -8.718  -8.576  -3.727  1.00  0.00     0.037 A 
ATOM     61  C   UNL     1      -9.303  -2.460  -0.340  1.00  0.00     0.037 A 
ATOM     62  C   UNL     1     -10.042  -8.014  -3.709  1.00  0.00     0.049 A 
ATOM     63  C   UNL     1     -10.473  -3.103  -1.036  1.00  0.00     0.074 A 
ATOM     64  C   UNL     1     -11.205  -8.530  -4.252  1.00  0.00     0.029 A 
ATOM     65  N   UNL     1     -10.378  -6.804  -3.119  1.00  0.00    -0.354 N 
ATOM     66  N   UNL     1     -10.530  -4.245  -1.680  1.00  0.00    -0.248 NA
ATOM     67  C   UNL     1     -11.748  -2.373  -0.998  1.00  0.00     0.031 C 
ATOM     68  C   UNL     1     -12.234  -7.608  -4.037  1.00  0.00     0.029 A 
ATOM     69  C   UNL     1     -11.725  -6.546  -3.306  1.00  0.00     0.049 A 
ATOM     70  H   UNL     1      -9.751  -6.216  -2.639  1.00  0.00     0.167 HD
ATOM     71  C   UNL     1     -11.848  -4.383  -2.098  1.00  0.00     0.074 A 
ATOM     72  C   UNL     1     -12.561  -3.217  -1.619  1.00  0.00     0.031 C 
ATOM     73  C   UNL     1     -12.419  -5.382  -2.815  1.00  0.00     0.037 A 
BRANCH  60  74
ATOM     74  C   UNL     1      -8.505  -9.890  -4.420  1.00  0.00     0.057 A 
ATOM     75  C   UNL     1      -8.216 -11.063  -3.709  1.00  0.00     0.134 A 
ATOM     76  C   UNL     1      -8.620  -9.992  -5.812  1.00  0.00     0.134 A 
ATOM     77  F   UNL     1      -8.076 -11.034  -2.375  1.00  0.00    -0.206 F 
ATOM     78  C   UNL     1      -8.026 -12.284  -4.360  1.00  0.00     0.040 A 
ATOM     79  C   UNL     1      -8.461 -11.211  -6.471  1.00  0.00     0.040 A 
ATOM     80  F   UNL     1      -8.897  -8.909  -6.553  1.00  0.00    -0.206 F 
ATOM     81  C   UNL     1      -8.157 -12.361  -5.745  1.00  0.00     0.006 A 
ENDBRANCH  60  74
BRANCH  61  82
ATOM     82  C   UNL     1      -9.446  -1.145   0.335  1.00  0.00     0.057 A 
ATOM     83  C   UNL     1     -10.243  -0.985   1.473  1.00  0.00     0.134 A 
ATOM     84  C   UNL     1      -8.805  -0.005  -0.167  1.00  0.00     0.134 A 
ATOM     85  F   UNL     1     -10.901  -2.034   1.990  1.00  0.00    -0.206 F 
ATOM     86  C   UNL     1     -10.419   0.263   2.074  1.00  0.00     0.040 A 
ATOM     87  C   UNL     1      -8.946   1.243   0.441  1.00  0.00     0.040 A 
ATOM     88  F   UNL     1      -8.026  -0.089  -1.256  1.00  0.00    -0.206 F 
ATOM     89  C   UNL     1      -9.764   1.381   1.559  1.00  0.00     0.006 A 
ENDBRANCH  61  82
BRANCH  73  90
ATOM     90  C   UNL     1     -13.891  -5.277  -3.093  1.00  0.00     0.057 A 
ATOM     91  C   UNL     1     -14.413  -4.337  -3.990  1.00  0.00     0.134 A 
ATOM     92  C   UNL     1     -14.794  -6.160  -2.485  1.00  0.00     0.134 A 
ATOM     93  F   UNL     1     -13.604  -3.456  -4.598  1.00  0.00    -0.206 F 
ATOM     94  C   UNL     1     -15.782  -4.259  -4.251  1.00  0.00     0.040 A 
ATOM     95  C   UNL     1     -16.161  -6.112  -2.762  1.00  0.00     0.040 A 
ATOM     96  F   UNL     1     -14.361  -7.094  -1.625  1.00  0.00    -0.206 F 
ATOM     97  C   UNL     1     -16.659  -5.154  -3.641  1.00  0.00     0.006 A 
ENDBRANCH  73  90
ENDBRANCH  47  48
ENDBRANCH  40  42
ENDBRANCH  39  40
ENDBRANCH  38  39
ENDBRANCH  37  38
ENDBRANCH  36  37
ENDBRANCH   1  36
TORSDOF 20
