REMARK SMILES O=C(OCCOCCOC(=O)c1c(S(=O)(=O)N2CCO[C@@H](CCO)C2)sc2c1CC[NH2+]C2)c1ccc(-c2c3nc(c(-c4c(F)cccc4F)c4ccc([nH]4)c(-c4c(F)cccc4F)c4nc(c(-c5c(F)cccc5F)c5ccc2[nH]5)C=C4)C=C3)cc1
REMARK SMILES IDX 7 1 6 2 5 3 4 4 3 5 2 6 1 7 33 8 34 9 86 10 35 11 85 12
REMARK SMILES IDX 36 13 37 14 38 15 79 16 39 17 84 18 78 19 80 20 40 21 83 22
REMARK SMILES IDX 77 23 76 24 41 26 67 27 50 28 66 29 51 30 54 31 65 32 81 33
REMARK SMILES IDX 52 34 53 35 64 37 82 38 55 39 42 40 43 41 48 42 44 43 45 44
REMARK SMILES IDX 47 45 49 46 46 47 68 48 69 49 74 50 70 51 71 52 73 53 75 54
REMARK SMILES IDX 72 55 56 56 57 57 62 58 58 59 59 60 61 61 63 62 60 63 8 64
REMARK SMILES IDX 9 65 10 66 11 67 12 68 13 69 28 70 26 71 27 72 29 73 32 74
REMARK SMILES IDX 30 75 31 76 14 79 15 80 16 81 17 82 18 83 25 84 19 85 21 86
REMARK SMILES IDX 20 87 22 88 23 89 24 90
REMARK H PARENT 80 25 54 36 31 77 31 78 24 91
REMARK Flexibility Score: inf
ROOT
ATOM      1  C   UNL     1       2.994  -0.568  -1.899  1.00  0.00     0.202 C 
ENDROOT
BRANCH   1   2
ATOM      2  O   UNL     1       3.962   0.040  -1.029  1.00  0.00    -0.374 OA
BRANCH   2   3
ATOM      3  C   UNL     1       4.623  -0.847  -0.133  1.00  0.00     0.202 C 
BRANCH   3   4
ATOM      4  C   UNL     1       4.253  -0.736   1.347  1.00  0.00     0.261 C 
BRANCH   4   5
ATOM      5  O   UNL     1       2.873  -1.054   1.584  1.00  0.00    -0.460 OA
BRANCH   5   6
ATOM      6  C   UNL     1       1.840  -0.352   1.060  1.00  0.00     0.338 C 
ATOM      7  O   UNL     1       0.836  -0.927   0.650  1.00  0.00    -0.246 OA
BRANCH   6   8
ATOM      8  C   UNL     1       1.809   1.117   1.269  1.00  0.00     0.060 A 
ATOM      9  C   UNL     1       2.917   1.963   1.205  1.00  0.00     0.016 A 
ATOM     10  C   UNL     1       0.562   1.657   1.603  1.00  0.00     0.016 A 
ATOM     11  C   UNL     1       2.842   3.249   1.710  1.00  0.00     0.010 A 
ATOM     12  C   UNL     1       0.464   2.977   2.019  1.00  0.00     0.010 A 
ATOM     13  C   UNL     1       1.625   3.737   2.176  1.00  0.00    -0.014 A 
BRANCH  13  14
ATOM     14  C   UNL     1       1.635   5.049   2.818  1.00  0.00     0.031 A 
ATOM     15  C   UNL     1       2.215   6.190   2.051  1.00  0.00     0.074 A 
ATOM     16  C   UNL     1       1.066   5.274   4.019  1.00  0.00     0.049 A 
ATOM     17  N   UNL     1       3.093   7.061   2.442  1.00  0.00    -0.248 NA
ATOM     18  C   UNL     1       1.771   6.365   0.659  1.00  0.00     0.031 C 
ATOM     19  C   UNL     1       0.238   4.357   4.806  1.00  0.00     0.029 A 
ATOM     20  N   UNL     1       1.008   6.439   4.729  1.00  0.00    -0.354 N 
ATOM     21  C   UNL     1       3.182   7.998   1.416  1.00  0.00     0.074 A 
ATOM     22  C   UNL     1       2.411   7.481   0.313  1.00  0.00     0.031 C 
ATOM     23  C   UNL     1      -0.440   5.066   5.731  1.00  0.00     0.029 A 
ATOM     24  C   UNL     1       0.009   6.447   5.684  1.00  0.00     0.049 A 
ATOM     25  H   UNL     1       1.617   7.197   4.576  1.00  0.00     0.167 HD
ATOM     26  C   UNL     1       3.732   9.229   1.587  1.00  0.00     0.037 A 
ATOM     27  C   UNL     1      -0.486   7.519   6.340  1.00  0.00     0.037 A 
ATOM     28  C   UNL     1       4.639   9.294   2.696  1.00  0.00     0.049 A 
ATOM     29  C   UNL     1       0.496   8.622   6.258  1.00  0.00     0.074 A 
ATOM     30  C   UNL     1       5.796   8.629   3.056  1.00  0.00     0.029 A 
ATOM     31  N   UNL     1       4.288  10.028   3.800  1.00  0.00    -0.354 N 
ATOM     32  N   UNL     1       1.627   8.663   6.904  1.00  0.00    -0.248 NA
ATOM     33  C   UNL     1       0.358   9.590   5.180  1.00  0.00     0.031 C 
ATOM     34  C   UNL     1       5.811   8.633   4.482  1.00  0.00     0.029 A 
ATOM     35  C   UNL     1       4.648   9.283   4.893  1.00  0.00     0.049 A 
ATOM     36  H   UNL     1       3.862  10.915   3.806  1.00  0.00     0.167 HD
ATOM     37  C   UNL     1       2.481   9.371   6.075  1.00  0.00     0.074 A 
ATOM     38  C   UNL     1       1.614  10.033   5.110  1.00  0.00     0.031 C 
ATOM     39  C   UNL     1       3.824   9.129   6.067  1.00  0.00     0.037 A 
BRANCH  26  40
ATOM     40  C   UNL     1       3.207  10.459   0.897  1.00  0.00     0.057 A 
ATOM     41  C   UNL     1       3.979  11.630   0.844  1.00  0.00     0.134 A 
ATOM     42  C   UNL     1       1.856  10.605   0.521  1.00  0.00     0.134 A 
ATOM     43  F   UNL     1       5.264  11.624   1.229  1.00  0.00    -0.206 F 
ATOM     44  C   UNL     1       3.438  12.866   0.467  1.00  0.00     0.040 A 
ATOM     45  C   UNL     1       1.318  11.822   0.096  1.00  0.00     0.040 A 
ATOM     46  F   UNL     1       0.977   9.600   0.637  1.00  0.00    -0.206 F 
ATOM     47  C   UNL     1       2.104  12.964   0.088  1.00  0.00     0.006 A 
ENDBRANCH  26  40
BRANCH  27  48
ATOM     48  C   UNL     1      -1.854   7.700   6.864  1.00  0.00     0.057 A 
ATOM     49  C   UNL     1      -2.133   8.639   7.863  1.00  0.00     0.134 A 
ATOM     50  C   UNL     1      -2.968   7.100   6.248  1.00  0.00     0.134 A 
ATOM     51  F   UNL     1      -1.141   9.309   8.466  1.00  0.00    -0.206 F 
ATOM     52  C   UNL     1      -3.445   8.955   8.238  1.00  0.00     0.040 A 
ATOM     53  C   UNL     1      -4.281   7.391   6.625  1.00  0.00     0.040 A 
ATOM     54  F   UNL     1      -2.822   6.267   5.206  1.00  0.00    -0.206 F 
ATOM     55  C   UNL     1      -4.523   8.328   7.620  1.00  0.00     0.006 A 
ENDBRANCH  27  48
BRANCH  39  56
ATOM     56  C   UNL     1       4.401   8.344   7.207  1.00  0.00     0.057 A 
ATOM     57  C   UNL     1       4.082   7.002   7.458  1.00  0.00     0.134 A 
ATOM     58  C   UNL     1       5.409   8.918   7.989  1.00  0.00     0.134 A 
ATOM     59  F   UNL     1       3.208   6.343   6.686  1.00  0.00    -0.206 F 
ATOM     60  C   UNL     1       4.701   6.281   8.483  1.00  0.00     0.040 A 
ATOM     61  C   UNL     1       6.057   8.198   8.997  1.00  0.00     0.040 A 
ATOM     62  F   UNL     1       5.811  10.178   7.760  1.00  0.00    -0.206 F 
ATOM     63  C   UNL     1       5.694   6.878   9.254  1.00  0.00     0.006 A 
ENDBRANCH  39  56
ENDBRANCH  13  14
ENDBRANCH   6   8
ENDBRANCH   5   6
ENDBRANCH   4   5
ENDBRANCH   3   4
ENDBRANCH   2   3
ENDBRANCH   1   2
BRANCH   1  64
ATOM     64  C   UNL     1       3.541  -1.426  -3.050  1.00  0.00     0.261 C 
BRANCH  64  65
ATOM     65  O   UNL     1       4.044  -2.697  -2.586  1.00  0.00    -0.460 OA
BRANCH  65  66
ATOM     66  C   UNL     1       5.391  -2.783  -2.437  1.00  0.00     0.340 C 
ATOM     67  O   UNL     1       6.177  -1.905  -2.780  1.00  0.00    -0.246 OA
BRANCH  66  68
ATOM     68  C   UNL     1       5.838  -3.937  -1.663  1.00  0.00     0.095 A 
ATOM     69  C   UNL     1       5.321  -5.229  -1.748  1.00  0.00     0.150 A 
ATOM     70  C   UNL     1       6.860  -3.886  -0.620  1.00  0.00    -0.007 A 
ATOM     71  S   UNL     1       6.433  -6.319  -1.067  1.00  0.00    -0.120 S 
ATOM     72  C   UNL     1       7.207  -5.142  -0.181  1.00  0.00     0.064 A 
ATOM     73  C   UNL     1       7.490  -2.699   0.048  1.00  0.00     0.099 C 
ATOM     74  C   UNL     1       8.196  -5.474   0.888  1.00  0.00     0.308 C 
ATOM     75  C   UNL     1       8.696  -3.111   0.924  1.00  0.00     0.265 C 
ATOM     76  N   UNL     1       8.427  -4.305   1.751  1.00  0.00    -0.342 N 
ATOM     77  H   UNL     1       7.600  -4.140   2.325  1.00  0.00     0.346 HD
ATOM     78  H   UNL     1       9.233  -4.486   2.350  1.00  0.00     0.346 HD
BRANCH  69  79
ATOM     79  S   UNL     1       3.892  -5.992  -2.498  1.00  0.00     0.253 S 
ATOM     80  O   UNL     1       2.784  -5.193  -2.022  1.00  0.00    -0.206 OA
ATOM     81  O   UNL     1       4.227  -6.062  -3.904  1.00  0.00    -0.206 OA
BRANCH  79  82
ATOM     82  N   UNL     1       3.642  -7.561  -1.917  1.00  0.00    -0.192 NA
ATOM     83  C   UNL     1       3.103  -7.822  -0.561  1.00  0.00     0.131 C 
ATOM     84  C   UNL     1       4.279  -8.740  -2.547  1.00  0.00     0.134 C 
ATOM     85  C   UNL     1       4.072  -8.654   0.302  1.00  0.00     0.177 C 
ATOM     86  C   UNL     1       5.279  -9.401  -1.580  1.00  0.00     0.135 C 
ATOM     87  O   UNL     1       4.586  -9.815  -0.386  1.00  0.00    -0.375 OA
BRANCH  86  88
ATOM     88  C   UNL     1       6.098 -10.541  -2.187  1.00  0.00     0.061 C 
BRANCH  88  89
ATOM     89  C   UNL     1       6.753 -10.163  -3.517  1.00  0.00     0.159 C 
BRANCH  89  90
ATOM     90  O   UNL     1       7.258  -8.834  -3.463  1.00  0.00    -0.396 OA
ATOM     91  H   UNL     1       6.528  -8.218  -3.291  1.00  0.00     0.210 HD
ENDBRANCH  89  90
ENDBRANCH  88  89
ENDBRANCH  86  88
ENDBRANCH  79  82
ENDBRANCH  69  79
ENDBRANCH  66  68
ENDBRANCH  65  66
ENDBRANCH  64  65
ENDBRANCH   1  64
TORSDOF 19
