REMARK SMILES C[C@@H](C(=O)OCCOCCOC(=O)c1ccc(-c2c3nc(c(-c4c(F)cccc4F)c4ccc([nH]4)c(-c4c(F)cccc4F)c4nc(c(-c5c(F)cccc5F)c5ccc2[nH]5)C=C4)C=C3)cc1)c1ccc(-c2cccc(OC(=O)NCCCc3ccccc3)c2)c(F)c1
REMARK SMILES IDX 5 1 3 2 4 3 2 4 1 5 68 6 69 7 93 8 70 9 91 10 71 11 92 12
REMARK SMILES IDX 72 13 73 14 90 15 74 16 76 17 75 18 77 19 78 20 79 21 80 22
REMARK SMILES IDX 81 24 82 25 83 26 84 27 85 28 89 29 86 30 88 31 87 32 6 33
REMARK SMILES IDX 7 34 8 35 9 36 10 37 11 38 12 39 13 40 14 41 15 42 67 43
REMARK SMILES IDX 16 44 66 45 17 46 18 47 19 48 60 49 20 50 65 51 59 52 61 53
REMARK SMILES IDX 21 54 64 55 58 56 57 57 22 59 48 60 31 61 47 62 32 63 35 64
REMARK SMILES IDX 46 65 62 66 33 67 34 68 45 70 63 71 36 72 23 73 24 74 29 75
REMARK SMILES IDX 25 76 26 77 28 78 30 79 27 80 49 81 50 82 55 83 51 84 52 85
REMARK SMILES IDX 54 86 56 87 53 88 37 89 38 90 43 91 39 92 40 93 42 94 44 95
REMARK SMILES IDX 41 96
REMARK H PARENT 80 23 61 58 35 69
REMARK Flexibility Score: inf
ROOT
ATOM      1  O   UNL     1       2.104   2.611  -0.698  1.00  0.00    -0.463 OA
ENDROOT
BRANCH   1   2
ATOM      2  C   UNL     1       1.349   2.830   0.414  1.00  0.00     0.313 C 
ATOM      3  O   UNL     1       1.173   3.934   0.918  1.00  0.00    -0.252 OA
BRANCH   2   4
ATOM      4  C   UNL     1       0.674   1.550   0.927  1.00  0.00     0.126 C 
ATOM      5  C   UNL     1       1.459   0.293   0.513  1.00  0.00     0.025 C 
BRANCH   4   6
ATOM      6  C   UNL     1      -0.831   1.482   0.625  1.00  0.00    -0.031 A 
ATOM      7  C   UNL     1      -1.627   2.641   0.641  1.00  0.00     0.005 A 
ATOM      8  C   UNL     1      -1.495   0.260   0.429  1.00  0.00     0.044 A 
ATOM      9  C   UNL     1      -3.018   2.583   0.482  1.00  0.00     0.012 A 
ATOM     10  C   UNL     1      -2.885   0.207   0.280  1.00  0.00     0.131 A 
ATOM     11  C   UNL     1      -3.678   1.359   0.328  1.00  0.00     0.018 A 
ATOM     12  F   UNL     1      -3.456  -1.000   0.138  1.00  0.00    -0.206 F 
BRANCH  11  13
ATOM     13  C   UNL     1      -5.144   1.298   0.393  1.00  0.00    -0.012 A 
ATOM     14  C   UNL     1      -5.973   2.016  -0.482  1.00  0.00     0.009 A 
ATOM     15  C   UNL     1      -5.743   0.573   1.436  1.00  0.00     0.056 A 
ATOM     16  C   UNL     1      -7.362   2.024  -0.305  1.00  0.00     0.004 A 
ATOM     17  C   UNL     1      -7.119   0.607   1.630  1.00  0.00     0.133 A 
ATOM     18  C   UNL     1      -7.935   1.326   0.758  1.00  0.00     0.047 A 
BRANCH  17  19
ATOM     19  O   UNL     1      -7.780  -0.068   2.681  1.00  0.00    -0.410 OA
BRANCH  19  20
ATOM     20  C   UNL     1      -7.162  -0.617   3.801  1.00  0.00     0.412 C 
ATOM     21  O   UNL     1      -5.965  -0.583   4.073  1.00  0.00    -0.224 OA
ATOM     22  N   UNL     1      -8.037  -1.225   4.653  1.00  0.00    -0.321 N 
ATOM     23  H   UNL     1      -7.654  -1.742   5.398  1.00  0.00     0.167 HD
BRANCH  22  24
ATOM     24  C   UNL     1      -9.476  -1.175   4.554  1.00  0.00     0.120 C 
BRANCH  24  25
ATOM     25  C   UNL     1     -10.184  -2.425   5.074  1.00  0.00     0.026 C 
BRANCH  25  26
ATOM     26  C   UNL     1      -9.639  -3.099   6.340  1.00  0.00     0.037 C 
BRANCH  26  27
ATOM     27  C   UNL     1      -9.783  -2.437   7.692  1.00  0.00    -0.048 A 
ATOM     28  C   UNL     1      -9.985  -1.069   7.893  1.00  0.00     0.004 A 
ATOM     29  C   UNL     1      -9.638  -3.252   8.829  1.00  0.00     0.004 A 
ATOM     30  C   UNL     1     -10.030  -0.529   9.183  1.00  0.00     0.000 A 
ATOM     31  C   UNL     1      -9.694  -2.718  10.118  1.00  0.00     0.000 A 
ATOM     32  C   UNL     1      -9.883  -1.352  10.295  1.00  0.00     0.000 A 
ENDBRANCH  26  27
ENDBRANCH  25  26
ENDBRANCH  24  25
ENDBRANCH  22  24
ENDBRANCH  19  20
ENDBRANCH  17  19
ENDBRANCH  11  13
ENDBRANCH   4   6
ENDBRANCH   2   4
ENDBRANCH   1   2
BRANCH   1  33
ATOM     33  C   UNL     1       2.453   3.779  -1.452  1.00  0.00     0.261 C 
BRANCH  33  34
ATOM     34  C   UNL     1       2.116   3.605  -2.937  1.00  0.00     0.202 C 
BRANCH  34  35
ATOM     35  O   UNL     1       0.796   3.183  -3.268  1.00  0.00    -0.374 OA
BRANCH  35  36
ATOM     36  C   UNL     1       0.412   1.845  -2.951  1.00  0.00     0.202 C 
BRANCH  36  37
ATOM     37  C   UNL     1       1.116   0.691  -3.682  1.00  0.00     0.261 C 
BRANCH  37  38
ATOM     38  O   UNL     1       2.529   0.617  -3.407  1.00  0.00    -0.460 OA
BRANCH  38  39
ATOM     39  C   UNL     1       3.325   0.821  -4.487  1.00  0.00     0.338 C 
ATOM     40  O   UNL     1       2.977   1.007  -5.641  1.00  0.00    -0.246 OA
BRANCH  39  41
ATOM     41  C   UNL     1       4.728   0.986  -4.064  1.00  0.00     0.060 A 
ATOM     42  C   UNL     1       5.356   2.203  -4.359  1.00  0.00     0.016 A 
ATOM     43  C   UNL     1       5.447  -0.067  -3.498  1.00  0.00     0.016 A 
ATOM     44  C   UNL     1       6.720   2.359  -4.128  1.00  0.00     0.010 A 
ATOM     45  C   UNL     1       6.821   0.089  -3.276  1.00  0.00     0.010 A 
ATOM     46  C   UNL     1       7.470   1.290  -3.622  1.00  0.00    -0.014 A 
BRANCH  46  47
ATOM     47  C   UNL     1       8.950   1.385  -3.593  1.00  0.00     0.031 A 
ATOM     48  C   UNL     1       9.751   0.689  -4.659  1.00  0.00     0.074 A 
ATOM     49  C   UNL     1       9.572   2.116  -2.651  1.00  0.00     0.049 A 
ATOM     50  N   UNL     1      11.049   0.604  -4.800  1.00  0.00    -0.248 NA
ATOM     51  C   UNL     1       8.985  -0.007  -5.704  1.00  0.00     0.031 C 
ATOM     52  C   UNL     1       8.906   2.874  -1.593  1.00  0.00     0.029 A 
ATOM     53  N   UNL     1      10.909   2.332  -2.430  1.00  0.00    -0.354 N 
ATOM     54  C   UNL     1      11.256  -0.158  -5.944  1.00  0.00     0.074 A 
ATOM     55  C   UNL     1       9.951  -0.540  -6.438  1.00  0.00     0.031 C 
ATOM     56  C   UNL     1       9.839   3.462  -0.826  1.00  0.00     0.029 A 
ATOM     57  C   UNL     1      11.165   3.093  -1.316  1.00  0.00     0.049 A 
ATOM     58  H   UNL     1      11.617   1.976  -3.015  1.00  0.00     0.167 HD
ATOM     59  C   UNL     1      12.426  -0.498  -6.534  1.00  0.00     0.037 A 
ATOM     60  C   UNL     1      12.337   3.429  -0.743  1.00  0.00     0.037 A 
ATOM     61  C   UNL     1      13.724  -0.117  -6.038  1.00  0.00     0.049 A 
ATOM     62  C   UNL     1      13.626   2.971  -1.372  1.00  0.00     0.074 A 
ATOM     63  C   UNL     1      14.969  -0.404  -6.571  1.00  0.00     0.029 A 
ATOM     64  N   UNL     1      13.943   0.627  -4.889  1.00  0.00    -0.354 N 
ATOM     65  N   UNL     1      13.811   2.266  -2.463  1.00  0.00    -0.248 NA
ATOM     66  C   UNL     1      14.871   3.360  -0.693  1.00  0.00     0.031 C 
ATOM     67  C   UNL     1      15.942   0.119  -5.713  1.00  0.00     0.029 A 
ATOM     68  C   UNL     1      15.303   0.786  -4.681  1.00  0.00     0.049 A 
ATOM     69  H   UNL     1      13.236   0.989  -4.307  1.00  0.00     0.167 HD
ATOM     70  C   UNL     1      15.188   2.154  -2.616  1.00  0.00     0.074 A 
ATOM     71  C   UNL     1      15.791   2.875  -1.515  1.00  0.00     0.031 C 
ATOM     72  C   UNL     1      15.891   1.513  -3.583  1.00  0.00     0.037 A 
BRANCH  59  73
ATOM     73  C   UNL     1      12.358  -1.349  -7.770  1.00  0.00     0.057 A 
ATOM     74  C   UNL     1      11.879  -0.852  -8.989  1.00  0.00     0.134 A 
ATOM     75  C   UNL     1      12.810  -2.675  -7.748  1.00  0.00     0.134 A 
ATOM     76  F   UNL     1      11.418   0.405  -9.077  1.00  0.00    -0.206 F 
ATOM     77  C   UNL     1      11.828  -1.649 -10.134  1.00  0.00     0.040 A 
ATOM     78  C   UNL     1      12.792  -3.473  -8.894  1.00  0.00     0.040 A 
ATOM     79  F   UNL     1      13.288  -3.214  -6.617  1.00  0.00    -0.206 F 
ATOM     80  C   UNL     1      12.293  -2.962 -10.090  1.00  0.00     0.006 A 
ENDBRANCH  59  73
BRANCH  60  81
ATOM     81  C   UNL     1      12.348   4.224   0.512  1.00  0.00     0.057 A 
ATOM     82  C   UNL     1      12.845   5.532   0.542  1.00  0.00     0.134 A 
ATOM     83  C   UNL     1      11.882   3.685   1.718  1.00  0.00     0.134 A 
ATOM     84  F   UNL     1      13.328   6.096  -0.575  1.00  0.00    -0.206 F 
ATOM     85  C   UNL     1      12.898   6.268   1.727  1.00  0.00     0.040 A 
ATOM     86  C   UNL     1      11.901   4.419   2.905  1.00  0.00     0.040 A 
ATOM     87  F   UNL     1      11.392   2.437   1.758  1.00  0.00    -0.206 F 
ATOM     88  C   UNL     1      12.419   5.712   2.913  1.00  0.00     0.006 A 
ENDBRANCH  60  81
BRANCH  72  89
ATOM     89  C   UNL     1      17.390   1.597  -3.520  1.00  0.00     0.057 A 
ATOM     90  C   UNL     1      18.133   0.926  -2.540  1.00  0.00     0.134 A 
ATOM     91  C   UNL     1      18.102   2.330  -4.480  1.00  0.00     0.134 A 
ATOM     92  F   UNL     1      17.514   0.216  -1.585  1.00  0.00    -0.206 F 
ATOM     93  C   UNL     1      19.526   1.002  -2.502  1.00  0.00     0.040 A 
ATOM     94  C   UNL     1      19.496   2.388  -4.470  1.00  0.00     0.040 A 
ATOM     95  F   UNL     1      17.454   2.988  -5.453  1.00  0.00    -0.206 F 
ATOM     96  C   UNL     1      20.212   1.728  -3.473  1.00  0.00     0.006 A 
ENDBRANCH  72  89
ENDBRANCH  46  47
ENDBRANCH  39  41
ENDBRANCH  38  39
ENDBRANCH  37  38
ENDBRANCH  36  37
ENDBRANCH  35  36
ENDBRANCH  34  35
ENDBRANCH  33  34
ENDBRANCH   1  33
TORSDOF 22
