REMARK SMILES O=C(OCCOCCOC(=O)c1ccccc1NC(=O)c1cc2cc(Cl)cc(Cl)c2oc1=O)c1ccc(-c2c3nc(c(-c4c(F)cccc4F)c4ccc([nH]4)c(-c4c(F)cccc4F)c4nc(c(-c5c(F)cccc5F)c5ccc2[nH]5)C=C4)C=C3)cc1
REMARK SMILES IDX 6 1 5 2 4 3 3 4 2 5 1 6 34 7 35 8 87 9 36 10 86 11 37 12
REMARK SMILES IDX 38 13 39 14 80 15 40 16 85 17 79 18 81 19 41 20 84 21 78 22
REMARK SMILES IDX 77 23 42 25 68 26 51 27 67 28 52 29 55 30 66 31 82 32 53 33
REMARK SMILES IDX 54 34 65 36 83 37 56 38 43 39 44 40 49 41 45 42 46 43 48 44
REMARK SMILES IDX 50 45 47 46 69 47 70 48 75 49 71 50 72 51 74 52 76 53 73 54
REMARK SMILES IDX 57 55 58 56 63 57 59 58 60 59 62 60 64 61 61 62 7 63 8 64
REMARK SMILES IDX 9 65 10 66 11 67 12 68 13 69 17 70 14 71 16 72 15 73 18 74
REMARK SMILES IDX 19 75 20 77 21 78 22 79 32 80 23 81 31 82 33 83 24 84 30 85
REMARK SMILES IDX 25 86 28 87 26 88 27 89 29 90
REMARK H PARENT 81 24 55 35 18 76
REMARK Flexibility Score: inf
ROOT
ATOM      1  O   UNL     1       4.030  -0.437   1.534  1.00  0.00    -0.374 OA
ENDROOT
BRANCH   1   2
ATOM      2  C   UNL     1       4.302   0.953   1.370  1.00  0.00     0.202 C 
BRANCH   2   3
ATOM      3  C   UNL     1       4.012   1.495  -0.032  1.00  0.00     0.261 C 
BRANCH   3   4
ATOM      4  O   UNL     1       2.634   1.278  -0.378  1.00  0.00    -0.460 OA
BRANCH   4   5
ATOM      5  C   UNL     1       2.134   0.375  -1.253  1.00  0.00     0.338 C 
ATOM      6  O   UNL     1       0.930   0.391  -1.500  1.00  0.00    -0.246 OA
BRANCH   5   7
ATOM      7  C   UNL     1       2.966  -0.671  -1.918  1.00  0.00     0.060 A 
ATOM      8  C   UNL     1       4.108  -1.242  -1.355  1.00  0.00     0.016 A 
ATOM      9  C   UNL     1       2.492  -1.205  -3.127  1.00  0.00     0.016 A 
ATOM     10  C   UNL     1       4.770  -2.297  -1.950  1.00  0.00     0.010 A 
ATOM     11  C   UNL     1       3.132  -2.296  -3.723  1.00  0.00     0.010 A 
ATOM     12  C   UNL     1       4.263  -2.851  -3.115  1.00  0.00    -0.014 A 
BRANCH  12  13
ATOM     13  C   UNL     1       4.986  -3.998  -3.673  1.00  0.00     0.031 A 
ATOM     14  C   UNL     1       5.885  -3.769  -4.839  1.00  0.00     0.074 A 
ATOM     15  C   UNL     1       4.921  -5.178  -3.029  1.00  0.00     0.049 A 
ATOM     16  N   UNL     1       6.554  -4.637  -5.542  1.00  0.00    -0.248 NA
ATOM     17  C   UNL     1       6.069  -2.369  -5.262  1.00  0.00     0.031 C 
ATOM     18  C   UNL     1       4.179  -5.423  -1.786  1.00  0.00     0.029 A 
ATOM     19  N   UNL     1       5.501  -6.384  -3.310  1.00  0.00    -0.354 N 
ATOM     20  C   UNL     1       7.205  -3.898  -6.518  1.00  0.00     0.074 A 
ATOM     21  C   UNL     1       6.871  -2.508  -6.307  1.00  0.00     0.031 C 
ATOM     22  C   UNL     1       4.350  -6.702  -1.416  1.00  0.00     0.029 A 
ATOM     23  C   UNL     1       5.137  -7.380  -2.436  1.00  0.00     0.049 A 
ATOM     24  H   UNL     1       6.119  -6.524  -4.063  1.00  0.00     0.167 HD
ATOM     25  C   UNL     1       7.989  -4.365  -7.512  1.00  0.00     0.037 A 
ATOM     26  C   UNL     1       5.368  -8.704  -2.505  1.00  0.00     0.037 A 
ATOM     27  C   UNL     1       8.298  -5.760  -7.671  1.00  0.00     0.049 A 
ATOM     28  C   UNL     1       6.152  -9.205  -3.688  1.00  0.00     0.074 A 
ATOM     29  C   UNL     1       9.053  -6.371  -8.652  1.00  0.00     0.029 A 
ATOM     30  N   UNL     1       7.852  -6.760  -6.816  1.00  0.00    -0.354 N 
ATOM     31  N   UNL     1       6.730  -8.516  -4.646  1.00  0.00    -0.248 NA
ATOM     32  C   UNL     1       6.293 -10.658  -3.823  1.00  0.00     0.031 C 
ATOM     33  C   UNL     1       9.013  -7.750  -8.425  1.00  0.00     0.029 A 
ATOM     34  C   UNL     1       8.281  -7.993  -7.271  1.00  0.00     0.049 A 
ATOM     35  H   UNL     1       7.311  -6.613  -6.007  1.00  0.00     0.167 HD
ATOM     36  C   UNL     1       7.310  -9.450  -5.491  1.00  0.00     0.074 A 
ATOM     37  C   UNL     1       7.041 -10.752  -4.913  1.00  0.00     0.031 C 
ATOM     38  C   UNL     1       7.990  -9.260  -6.648  1.00  0.00     0.037 A 
BRANCH  25  39
ATOM     39  C   UNL     1       8.471  -3.384  -8.534  1.00  0.00     0.057 A 
ATOM     40  C   UNL     1       9.480  -2.451  -8.268  1.00  0.00     0.134 A 
ATOM     41  C   UNL     1       7.904  -3.378  -9.815  1.00  0.00     0.134 A 
ATOM     42  F   UNL     1      10.040  -2.382  -7.052  1.00  0.00    -0.206 F 
ATOM     43  C   UNL     1       9.904  -1.542  -9.241  1.00  0.00     0.040 A 
ATOM     44  C   UNL     1       8.333  -2.490 -10.801  1.00  0.00     0.040 A 
ATOM     45  F   UNL     1       6.921  -4.237 -10.128  1.00  0.00    -0.206 F 
ATOM     46  C   UNL     1       9.335  -1.566 -10.514  1.00  0.00     0.006 A 
ENDBRANCH  25  39
BRANCH  26  47
ATOM     47  C   UNL     1       4.770  -9.641  -1.517  1.00  0.00     0.057 A 
ATOM     48  C   UNL     1       5.564 -10.465  -0.711  1.00  0.00     0.134 A 
ATOM     49  C   UNL     1       3.379  -9.783  -1.397  1.00  0.00     0.134 A 
ATOM     50  F   UNL     1       6.901 -10.398  -0.787  1.00  0.00    -0.206 F 
ATOM     51  C   UNL     1       5.002 -11.415   0.147  1.00  0.00     0.040 A 
ATOM     52  C   UNL     1       2.804 -10.702  -0.518  1.00  0.00     0.040 A 
ATOM     53  F   UNL     1       2.553  -9.028  -2.137  1.00  0.00    -0.206 F 
ATOM     54  C   UNL     1       3.617 -11.533   0.246  1.00  0.00     0.006 A 
ENDBRANCH  26  47
BRANCH  38  55
ATOM     55  C   UNL     1       8.495 -10.488  -7.340  1.00  0.00     0.057 A 
ATOM     56  C   UNL     1       7.631 -11.352  -8.021  1.00  0.00     0.134 A 
ATOM     57  C   UNL     1       9.866 -10.768  -7.378  1.00  0.00     0.134 A 
ATOM     58  F   UNL     1       6.306 -11.142  -8.005  1.00  0.00    -0.206 F 
ATOM     59  C   UNL     1       8.113 -12.465  -8.707  1.00  0.00     0.040 A 
ATOM     60  C   UNL     1      10.363 -11.859  -8.088  1.00  0.00     0.040 A 
ATOM     61  F   UNL     1      10.744  -9.968  -6.752  1.00  0.00    -0.206 F 
ATOM     62  C   UNL     1       9.484 -12.713  -8.751  1.00  0.00     0.006 A 
ENDBRANCH  38  55
ENDBRANCH  12  13
ENDBRANCH   5   7
ENDBRANCH   4   5
ENDBRANCH   3   4
ENDBRANCH   2   3
ENDBRANCH   1   2
BRANCH   1  63
ATOM     63  C   UNL     1       2.683  -0.804   1.850  1.00  0.00     0.202 C 
BRANCH  63  64
ATOM     64  C   UNL     1       2.730  -1.896   2.922  1.00  0.00     0.261 C 
BRANCH  64  65
ATOM     65  O   UNL     1       3.330  -1.311   4.089  1.00  0.00    -0.460 OA
BRANCH  65  66
ATOM     66  C   UNL     1       4.689  -1.278   4.080  1.00  0.00     0.340 C 
ATOM     67  O   UNL     1       5.419  -2.078   3.514  1.00  0.00    -0.246 OA
BRANCH  66  68
ATOM     68  C   UNL     1       5.173  -0.013   4.706  1.00  0.00     0.083 A 
ATOM     69  C   UNL     1       6.457   0.410   4.319  1.00  0.00     0.018 A 
ATOM     70  C   UNL     1       4.423   0.769   5.613  1.00  0.00     0.056 A 
ATOM     71  C   UNL     1       7.013   1.571   4.851  1.00  0.00     0.001 A 
ATOM     72  C   UNL     1       5.021   1.901   6.183  1.00  0.00     0.027 A 
ATOM     73  C   UNL     1       6.307   2.296   5.804  1.00  0.00     0.002 A 
BRANCH  70  74
ATOM     74  N   UNL     1       3.051   0.502   5.811  1.00  0.00    -0.321 N 
ATOM     75  C   UNL     1       2.174   0.894   6.777  1.00  0.00     0.263 C 
ATOM     76  H   UNL     1       2.653  -0.076   5.120  1.00  0.00     0.170 HD
ATOM     77  O   UNL     1       0.971   0.938   6.527  1.00  0.00    -0.269 OA
BRANCH  75  78
ATOM     78  C   UNL     1       2.714   1.076   8.164  1.00  0.00     0.126 A 
ATOM     79  C   UNL     1       1.881   1.556   9.114  1.00  0.00     0.033 A 
ATOM     80  C   UNL     1       3.348  -0.172   8.680  1.00  0.00     0.349 A 
ATOM     81  C   UNL     1       0.825   0.589   9.489  1.00  0.00     0.021 A 
ATOM     82  O   UNL     1       2.419  -1.174   8.973  1.00  0.00    -0.421 OA
ATOM     83  O   UNL     1       4.557  -0.314   8.787  1.00  0.00    -0.245 OA
ATOM     84  C   UNL     1      -0.414   0.990   9.980  1.00  0.00     0.032 A 
ATOM     85  C   UNL     1       1.102  -0.778   9.320  1.00  0.00     0.157 A 
ATOM     86  C   UNL     1      -1.381   0.019  10.249  1.00  0.00     0.043 A 
ATOM     87  C   UNL     1       0.119  -1.739   9.544  1.00  0.00     0.085 A 
ATOM     88  Cl  UNL     1      -2.905   0.501  10.888  1.00  0.00    -0.084 Cl
ATOM     89  C   UNL     1      -1.132  -1.336  10.010  1.00  0.00     0.045 A 
ATOM     90  Cl  UNL     1       0.410  -3.410   9.249  1.00  0.00    -0.080 Cl
ENDBRANCH  75  78
ENDBRANCH  70  74
ENDBRANCH  66  68
ENDBRANCH  65  66
ENDBRANCH  64  65
ENDBRANCH  63  64
ENDBRANCH   1  63
TORSDOF 16
