REMARK SMILES CCCCc1cc(S(F)(F)(F)(F)F)cc2c1O[C@@H](C(F)(F)F)C(C(=O)OCCOCCOC(=O)c1ccc(-c3c4nc(c(-c5c(F)cccc5F)c5ccc([nH]5)c(-c5c(F)cccc5F)c5nc(c(-c6c(F)cccc6F)c6ccc3[nH]6)C=C5)C=C4)cc1)=C2
REMARK SMILES IDX 28 1 27 2 26 3 24 4 25 5 23 6 5 7 6 8 16 9 7 10 15 11 17 12
REMARK SMILES IDX 14 13 89 14 18 15 4 16 3 17 2 18 1 19 8 20 9 21 10 22 11 23
REMARK SMILES IDX 12 24 13 25 19 26 20 27 21 28 22 29 29 30 30 31 31 32 32 33
REMARK SMILES IDX 33 34 34 35 35 36 36 37 88 38 37 39 87 40 38 41 39 42 40 43
REMARK SMILES IDX 81 44 41 45 86 46 80 47 82 48 42 49 85 50 79 51 78 52 43 54
REMARK SMILES IDX 69 55 52 56 68 57 53 58 56 59 67 60 83 61 54 62 55 63 66 65
REMARK SMILES IDX 84 66 57 67 44 68 45 69 50 70 46 71 47 72 49 73 51 74 48 75
REMARK SMILES IDX 70 76 71 77 76 78 72 79 73 80 75 81 77 82 74 83 58 84 59 85
REMARK SMILES IDX 64 86 60 87 61 88 63 89 65 90 62 91
REMARK H PARENT 82 53 56 64
REMARK Flexibility Score: inf
ROOT
ATOM      1  C   UNL     1      -5.746  -9.620  -1.607  1.00  0.00     0.202 C 
ENDROOT
BRANCH   1   2
ATOM      2  C   UNL     1      -5.863  -8.764  -0.357  1.00  0.00     0.261 C 
BRANCH   2   3
ATOM      3  O   UNL     1      -5.224  -7.515  -0.577  1.00  0.00    -0.460 OA
BRANCH   3   4
ATOM      4  C   UNL     1      -3.841  -7.472  -0.894  1.00  0.00     0.338 C 
ATOM      5  O   UNL     1      -3.174  -8.551  -0.981  1.00  0.00    -0.246 OA
BRANCH   4   6
ATOM      6  C   UNL     1      -3.156  -6.135  -1.129  1.00  0.00     0.087 C 
ATOM      7  C   UNL     1      -1.108  -2.498  -1.294  1.00  0.00    -0.004 A 
ATOM      8  C   UNL     1      -1.813  -1.313  -1.401  1.00  0.00     0.032 A 
ATOM      9  C   UNL     1      -1.808  -3.676  -1.188  1.00  0.00     0.131 A 
ATOM     10  C   UNL     1      -3.183  -1.306  -1.397  1.00  0.00     0.108 A 
ATOM     11  C   UNL     1      -3.191  -3.708  -1.199  1.00  0.00     0.019 A 
ATOM     12  O   UNL     1      -1.097  -4.830  -0.970  1.00  0.00    -0.475 OA
ATOM     13  C   UNL     1      -3.869  -2.499  -1.303  1.00  0.00     0.036 A 
ATOM     14  C   UNL     1      -3.838  -5.000  -1.042  1.00  0.00     0.027 C 
ATOM     15  C   UNL     1      -1.674  -6.069  -1.471  1.00  0.00     0.316 C 
BRANCH   7  16
ATOM     16  C   UNL     1       0.412  -2.498  -1.294  1.00  0.00     0.039 C 
BRANCH  16  17
ATOM     17  C   UNL     1       0.919  -1.284  -2.055  1.00  0.00     0.005 C 
BRANCH  17  18
ATOM     18  C   UNL     1       0.412  -0.018  -1.384  1.00  0.00    -0.003 C 
ATOM     19  C   UNL     1       0.919   0.034   0.048  1.00  0.00     0.004 C 
ENDBRANCH  17  18
ENDBRANCH  16  17
ENDBRANCH   7  16
BRANCH  10  20
ATOM     20  S   UNL     1      -4.086   0.258  -1.514  1.00  0.00     0.310 S 
ATOM     21  F   UNL     1      -4.391   0.271   0.042  1.00  0.00    -0.094 F 
ATOM     22  F   UNL     1      -5.423  -0.556  -1.699  1.00  0.00    -0.094 F 
ATOM     23  F   UNL     1      -4.859   1.604  -1.615  1.00  0.00    -0.094 F 
ATOM     24  F   UNL     1      -2.761   1.052  -1.188  1.00  0.00    -0.094 F 
ATOM     25  F   UNL     1      -3.308  -1.101  -1.298  1.00  0.00    -0.094 F 
ENDBRANCH  10  20
BRANCH  15  26
ATOM     26  C   UNL     1      -0.963  -7.245  -0.822  1.00  0.00     0.430 C 
ATOM     27  F   UNL     1      -1.480  -8.383  -1.277  1.00  0.00    -0.167 F 
ATOM     28  F   UNL     1       0.333  -7.199  -1.118  1.00  0.00    -0.167 F 
ATOM     29  F   UNL     1      -1.118  -7.184   0.498  1.00  0.00    -0.167 F 
ENDBRANCH  15  26
ENDBRANCH   4   6
ENDBRANCH   3   4
ENDBRANCH   2   3
ENDBRANCH   1   2
BRANCH   1  30
ATOM     30  O   UNL     1      -4.375  -9.837  -1.906  1.00  0.00    -0.374 OA
BRANCH  30  31
ATOM     31  C   UNL     1      -3.736  -8.588  -2.126  1.00  0.00     0.202 C 
BRANCH  31  32
ATOM     32  C   UNL     1      -4.402  -7.876  -3.292  1.00  0.00     0.261 C 
BRANCH  32  33
ATOM     33  O   UNL     1      -5.774  -7.660  -2.993  1.00  0.00    -0.460 OA
BRANCH  33  34
ATOM     34  C   UNL     1      -6.626  -8.765  -2.733  1.00  0.00     0.338 C 
ATOM     35  O   UNL     1      -6.162  -9.948  -2.768  1.00  0.00    -0.246 OA
BRANCH  34  36
ATOM     36  C   UNL     1      -8.094  -8.534  -2.413  1.00  0.00     0.060 A 
ATOM     37  C   UNL     1      -8.677  -9.224  -1.363  1.00  0.00     0.016 A 
ATOM     38  C   UNL     1      -8.794  -7.675  -3.145  1.00  0.00     0.016 A 
ATOM     39  C   UNL     1     -10.090  -9.155  -1.345  1.00  0.00     0.010 A 
ATOM     40  C   UNL     1     -10.153  -7.561  -2.981  1.00  0.00     0.010 A 
ATOM     41  C   UNL     1     -10.804  -8.259  -2.002  1.00  0.00    -0.014 A 
BRANCH  41  42
ATOM     42  C   UNL     1     -12.271  -8.017  -1.685  1.00  0.00     0.031 A 
ATOM     43  C   UNL     1     -13.205  -8.224  -2.701  1.00  0.00     0.074 A 
ATOM     44  C   UNL     1     -12.598  -7.605  -0.405  1.00  0.00     0.049 A 
ATOM     45  N   UNL     1     -14.531  -8.104  -2.624  1.00  0.00    -0.248 NA
ATOM     46  C   UNL     1     -12.857  -8.628  -4.072  1.00  0.00     0.031 C 
ATOM     47  C   UNL     1     -11.662  -7.402   0.628  1.00  0.00     0.029 A 
ATOM     48  N   UNL     1     -13.849  -7.322   0.098  1.00  0.00    -0.354 N 
ATOM     49  C   UNL     1     -15.091  -8.403  -3.798  1.00  0.00     0.074 A 
ATOM     50  C   UNL     1     -14.021  -8.739  -4.748  1.00  0.00     0.031 C 
ATOM     51  C   UNL     1     -12.337  -6.992   1.734  1.00  0.00     0.029 A 
ATOM     52  C   UNL     1     -13.706  -6.932   1.411  1.00  0.00     0.049 A 
ATOM     53  H   UNL     1     -14.698  -7.388  -0.396  1.00  0.00     0.167 HD
ATOM     54  C   UNL     1     -16.451  -8.412  -4.113  1.00  0.00     0.037 A 
ATOM     55  C   UNL     1     -14.701  -6.541   2.293  1.00  0.00     0.037 A 
ATOM     56  C   UNL     1     -17.449  -8.062  -3.218  1.00  0.00     0.049 A 
ATOM     57  C   UNL     1     -16.057  -6.493   1.961  1.00  0.00     0.074 A 
ATOM     58  C   UNL     1     -18.825  -8.072  -3.518  1.00  0.00     0.029 A 
ATOM     59  N   UNL     1     -17.305  -7.648  -1.913  1.00  0.00    -0.354 N 
ATOM     60  N   UNL     1     -16.619  -6.830   0.799  1.00  0.00    -0.248 NA
ATOM     61  C   UNL     1     -17.116  -6.049   2.877  1.00  0.00     0.031 C 
ATOM     62  C   UNL     1     -19.500  -7.662  -2.411  1.00  0.00     0.029 A 
ATOM     63  C   UNL     1     -18.557  -7.387  -1.403  1.00  0.00     0.049 A 
ATOM     64  H   UNL     1     -16.453  -7.555  -1.428  1.00  0.00     0.167 HD
ATOM     65  C   UNL     1     -17.942  -6.670   0.865  1.00  0.00     0.074 A 
ATOM     66  C   UNL     1     -18.281  -6.158   2.200  1.00  0.00     0.031 C 
ATOM     67  C   UNL     1     -18.882  -6.933  -0.134  1.00  0.00     0.037 A 
BRANCH  54  68
ATOM     68  C   UNL     1     -16.859  -8.828  -5.517  1.00  0.00     0.057 A 
ATOM     69  C   UNL     1     -16.624 -10.117  -5.964  1.00  0.00     0.134 A 
ATOM     70  C   UNL     1     -17.525  -7.952  -6.260  1.00  0.00     0.134 A 
ATOM     71  F   UNL     1     -16.192 -11.093  -5.170  1.00  0.00    -0.206 F 
ATOM     72  C   UNL     1     -16.884 -10.303  -7.343  1.00  0.00     0.040 A 
ATOM     73  C   UNL     1     -17.867  -8.251  -7.557  1.00  0.00     0.040 A 
ATOM     74  F   UNL     1     -17.865  -6.774  -5.745  1.00  0.00    -0.206 F 
ATOM     75  C   UNL     1     -17.611  -9.487  -8.084  1.00  0.00     0.006 A 
ENDBRANCH  54  68
BRANCH  55  76
ATOM     76  C   UNL     1     -14.294  -6.141   3.702  1.00  0.00     0.057 A 
ATOM     77  C   UNL     1     -14.868  -6.777   4.791  1.00  0.00     0.134 A 
ATOM     78  C   UNL     1     -13.458  -5.122   3.862  1.00  0.00     0.134 A 
ATOM     79  F   UNL     1     -15.501  -7.943   4.699  1.00  0.00    -0.206 F 
ATOM     80  C   UNL     1     -14.720  -6.072   6.009  1.00  0.00     0.040 A 
ATOM     81  C   UNL     1     -13.257  -4.569   5.104  1.00  0.00     0.040 A 
ATOM     82  F   UNL     1     -12.808  -4.631   2.810  1.00  0.00    -0.206 F 
ATOM     83  C   UNL     1     -13.840  -5.110   6.216  1.00  0.00     0.006 A 
ENDBRANCH  55  76
BRANCH  67  84
ATOM     84  C   UNL     1     -20.350  -6.709   0.190  1.00  0.00     0.057 A 
ATOM     85  C   UNL     1     -20.777  -5.444   0.560  1.00  0.00     0.134 A 
ATOM     86  C   UNL     1     -21.198  -7.728   0.115  1.00  0.00     0.134 A 
ATOM     87  F   UNL     1     -20.032  -4.353   0.408  1.00  0.00    -0.206 F 
ATOM     88  C   UNL     1     -22.078  -5.419   1.115  1.00  0.00     0.040 A 
ATOM     89  C   UNL     1     -22.494  -7.593   0.550  1.00  0.00     0.040 A 
ATOM     90  F   UNL     1     -20.788  -8.890  -0.387  1.00  0.00    -0.206 F 
ATOM     91  C   UNL     1     -22.968  -6.386   0.985  1.00  0.00     0.006 A 
ENDBRANCH  67  84
ENDBRANCH  41  42
ENDBRANCH  34  36
ENDBRANCH  33  34
ENDBRANCH  32  33
ENDBRANCH  31  32
ENDBRANCH  30  31
ENDBRANCH   1  30
TORSDOF 19
