REMARK SMILES Cc1cc(/C=C2/C(=O)NC(=S)N=C2OCCOCCOC(=O)c2ccc(-c3c4nc(c(-c5c(F)cccc5F)c5ccc([nH]5)c(-c5c(F)cccc5F)c5nc(c(-c6c(F)cccc6F)c6ccc3[nH]6)C=C5)C=C4)cc2)c(C)n1-c1cccc(C(=O)[O-])c1
REMARK SMILES IDX 17 1 16 2 15 3 14 4 13 5 5 6 6 7 7 8 8 9 9 10 12 11 10 12
REMARK SMILES IDX 11 14 4 15 1 16 2 17 3 18 79 19 77 20 78 21 80 22 81 23
REMARK SMILES IDX 88 24 82 25 84 26 83 27 85 28 86 29 87 30 18 31 19 32 20 33
REMARK SMILES IDX 21 34 22 35 23 36 24 37 76 38 25 39 75 40 26 41 27 42 28 43
REMARK SMILES IDX 69 44 29 45 74 46 68 47 70 48 30 49 73 50 67 51 66 52 31 54
REMARK SMILES IDX 57 55 40 56 56 57 41 58 44 59 55 60 71 61 42 62 43 63 54 65
REMARK SMILES IDX 72 66 45 67 32 68 33 69 38 70 34 71 35 72 37 73 39 74 36 75
REMARK SMILES IDX 58 76 59 77 64 78 60 79 61 80 63 81 65 82 62 83 46 84 47 85
REMARK SMILES IDX 52 86 48 87 49 88 51 89 53 90 50 91
REMARK H PARENT 9 13 70 53 44 64
REMARK Flexibility Score: inf
ROOT
ATOM      1  O   UNL     1      -3.285  -2.693   5.715  1.00  0.00    -0.374 OA
ENDROOT
BRANCH   1   2
ATOM      2  C   UNL     1      -2.472  -1.583   6.118  1.00  0.00     0.202 C 
BRANCH   2   3
ATOM      3  C   UNL     1      -0.972  -1.795   6.503  1.00  0.00     0.260 C 
BRANCH   3   4
ATOM      4  O   UNL     1      -0.151  -2.349   5.448  1.00  0.00    -0.475 OA
BRANCH   4   5
ATOM      5  C   UNL     1      -0.018  -3.685   5.419  1.00  0.00     0.229 C 
ATOM      6  C   UNL     1       0.572  -3.709   2.865  1.00  0.00     0.029 C 
ATOM      7  C   UNL     1       0.323  -4.250   4.088  1.00  0.00     0.103 C 
ATOM      8  C   UNL     1       0.335  -5.757   4.108  1.00  0.00     0.262 C 
ATOM      9  O   UNL     1       0.575  -6.460   3.131  1.00  0.00    -0.269 OA
ATOM     10  N   UNL     1       0.027  -6.341   5.307  1.00  0.00    -0.297 N 
ATOM     11  N   UNL     1      -0.251  -4.351   6.496  1.00  0.00    -0.184 NA
ATOM     12  C   UNL     1      -0.256  -5.705   6.479  1.00  0.00     0.203 C 
ATOM     13  H   UNL     1       0.007  -7.325   5.325  1.00  0.00     0.172 HD
ATOM     14  S   UNL     1      -0.632  -6.636   7.820  1.00  0.00    -0.038 S 
BRANCH   6  15
ATOM     15  C   UNL     1       0.646  -2.381   2.297  1.00  0.00    -0.003 A 
ATOM     16  C   UNL     1       1.408   0.051  -0.471  1.00  0.00     0.065 C 
ATOM     17  C   UNL     1       1.059  -0.721   0.746  1.00  0.00     0.020 A 
ATOM     18  C   UNL     1       1.266  -2.068   1.041  1.00  0.00     0.031 A 
ATOM     19  N   UNL     1       0.498  -0.169   1.871  1.00  0.00    -0.318 N 
ATOM     20  C   UNL     1      -0.019  -1.217   2.608  1.00  0.00     0.027 A 
ATOM     21  C   UNL     1      -1.186  -0.916   3.435  1.00  0.00     0.065 C 
BRANCH  19  22
ATOM     22  C   UNL     1       0.188   1.179   2.214  1.00  0.00     0.046 A 
ATOM     23  C   UNL     1       0.557   1.589   3.512  1.00  0.00     0.026 A 
ATOM     24  C   UNL     1      -0.825   1.853   1.522  1.00  0.00     0.036 A 
ATOM     25  C   UNL     1      -0.110   2.638   4.139  1.00  0.00     0.003 A 
ATOM     26  C   UNL     1      -1.488   2.915   2.160  1.00  0.00    -0.001 A 
ATOM     27  C   UNL     1      -1.140   3.292   3.468  1.00  0.00     0.010 A 
BRANCH  26  28
ATOM     28  C   UNL     1      -2.638   3.620   1.538  1.00  0.00     0.072 C 
ATOM     29  O   UNL     1      -3.357   4.424   2.081  1.00  0.00    -0.545 OA
ATOM     30  O   UNL     1      -2.809   3.284   0.245  1.00  0.00    -0.545 OA
ENDBRANCH  26  28
ENDBRANCH  19  22
ENDBRANCH   6  15
ENDBRANCH   4   5
ENDBRANCH   3   4
ENDBRANCH   2   3
ENDBRANCH   1   2
BRANCH   1  31
ATOM     31  C   UNL     1      -3.244  -3.285   4.395  1.00  0.00     0.202 C 
BRANCH  31  32
ATOM     32  C   UNL     1      -4.223  -2.773   3.236  1.00  0.00     0.261 C 
BRANCH  32  33
ATOM     33  O   UNL     1      -3.749  -2.221   1.903  1.00  0.00    -0.460 OA
BRANCH  33  34
ATOM     34  C   UNL     1      -4.423  -1.107   1.405  1.00  0.00     0.338 C 
ATOM     35  O   UNL     1      -5.057  -0.391   2.184  1.00  0.00    -0.246 OA
BRANCH  34  36
ATOM     36  C   UNL     1      -4.451  -0.698  -0.141  1.00  0.00     0.060 A 
ATOM     37  C   UNL     1      -5.048   0.526  -0.438  1.00  0.00     0.016 A 
ATOM     38  C   UNL     1      -4.078  -1.358  -1.336  1.00  0.00     0.016 A 
ATOM     39  C   UNL     1      -5.243   1.032  -1.794  1.00  0.00     0.010 A 
ATOM     40  C   UNL     1      -4.253  -0.788  -2.760  1.00  0.00     0.010 A 
ATOM     41  C   UNL     1      -4.837   0.462  -3.062  1.00  0.00    -0.014 A 
BRANCH  41  42
ATOM     42  C   UNL     1      -4.911   1.433  -4.497  1.00  0.00     0.031 A 
ATOM     43  C   UNL     1      -4.862   2.810  -3.951  1.00  0.00     0.074 A 
ATOM     44  C   UNL     1      -5.185   1.535  -5.901  1.00  0.00     0.049 A 
ATOM     45  N   UNL     1      -5.974   3.252  -3.471  1.00  0.00    -0.248 NA
ATOM     46  C   UNL     1      -3.684   3.564  -3.533  1.00  0.00     0.031 C 
ATOM     47  C   UNL     1      -5.603   0.485  -6.856  1.00  0.00     0.029 A 
ATOM     48  N   UNL     1      -5.244   2.677  -6.840  1.00  0.00    -0.354 N 
ATOM     49  C   UNL     1      -5.693   4.284  -2.622  1.00  0.00     0.074 A 
ATOM     50  C   UNL     1      -4.258   4.495  -2.749  1.00  0.00     0.031 C 
ATOM     51  C   UNL     1      -5.702   0.937  -8.151  1.00  0.00     0.029 A 
ATOM     52  C   UNL     1      -5.456   2.382  -8.267  1.00  0.00     0.049 A 
ATOM     53  H   UNL     1      -5.144   3.603  -6.521  1.00  0.00     0.167 HD
ATOM     54  C   UNL     1      -6.751   5.097  -2.372  1.00  0.00     0.037 A 
ATOM     55  C   UNL     1      -5.566   3.199  -9.425  1.00  0.00     0.037 A 
ATOM     56  C   UNL     1      -6.845   6.024  -3.468  1.00  0.00     0.049 A 
ATOM     57  C   UNL     1      -6.189   4.445  -8.968  1.00  0.00     0.074 A 
ATOM     58  C   UNL     1      -5.856   6.737  -4.120  1.00  0.00     0.029 A 
ATOM     59  N   UNL     1      -7.870   5.834  -4.370  1.00  0.00    -0.354 N 
ATOM     60  N   UNL     1      -7.463   4.503  -8.729  1.00  0.00    -0.248 NA
ATOM     61  C   UNL     1      -5.484   5.721  -8.926  1.00  0.00     0.031 C 
ATOM     62  C   UNL     1      -6.070   6.441  -5.481  1.00  0.00     0.029 A 
ATOM     63  C   UNL     1      -7.366   5.964  -5.643  1.00  0.00     0.049 A 
ATOM     64  H   UNL     1      -8.807   5.638  -4.141  1.00  0.00     0.167 HD
ATOM     65  C   UNL     1      -7.570   5.623  -7.976  1.00  0.00     0.074 A 
ATOM     66  C   UNL     1      -6.443   6.457  -8.358  1.00  0.00     0.031 C 
ATOM     67  C   UNL     1      -8.116   5.436  -6.752  1.00  0.00     0.037 A 
BRANCH  54  68
ATOM     68  C   UNL     1      -7.933   4.294  -1.829  1.00  0.00     0.057 A 
ATOM     69  C   UNL     1      -8.329   4.502  -0.507  1.00  0.00     0.134 A 
ATOM     70  C   UNL     1      -8.543   3.200  -2.490  1.00  0.00     0.134 A 
ATOM     71  F   UNL     1      -7.857   5.552   0.181  1.00  0.00    -0.206 F 
ATOM     72  C   UNL     1      -9.203   3.623   0.150  1.00  0.00     0.040 A 
ATOM     73  C   UNL     1      -9.342   2.270  -1.823  1.00  0.00     0.040 A 
ATOM     74  F   UNL     1      -8.372   2.988  -3.804  1.00  0.00    -0.206 F 
ATOM     75  C   UNL     1      -9.670   2.477  -0.492  1.00  0.00     0.006 A 
ENDBRANCH  54  68
BRANCH  55  76
ATOM     76  C   UNL     1      -5.577   3.294 -11.030  1.00  0.00     0.057 A 
ATOM     77  C   UNL     1      -6.382   4.264 -11.751  1.00  0.00     0.134 A 
ATOM     78  C   UNL     1      -4.527   2.816 -11.826  1.00  0.00     0.134 A 
ATOM     79  F   UNL     1      -7.470   4.827 -11.207  1.00  0.00    -0.206 F 
ATOM     80  C   UNL     1      -6.098   4.775 -13.044  1.00  0.00     0.040 A 
ATOM     81  C   UNL     1      -4.254   3.301 -13.149  1.00  0.00     0.040 A 
ATOM     82  F   UNL     1      -3.667   1.919 -11.331  1.00  0.00    -0.206 F 
ATOM     83  C   UNL     1      -5.010   4.308 -13.746  1.00  0.00     0.006 A 
ENDBRANCH  55  76
BRANCH  67  84
ATOM     84  C   UNL     1      -9.343   4.543  -6.674  1.00  0.00     0.057 A 
ATOM     85  C   UNL     1      -9.497   3.245  -7.215  1.00  0.00     0.134 A 
ATOM     86  C   UNL     1     -10.494   5.084  -6.088  1.00  0.00     0.134 A 
ATOM     87  F   UNL     1      -8.470   2.542  -7.712  1.00  0.00    -0.206 F 
ATOM     88  C   UNL     1     -10.736   2.587  -7.253  1.00  0.00     0.040 A 
ATOM     89  C   UNL     1     -11.722   4.415  -6.071  1.00  0.00     0.040 A 
ATOM     90  F   UNL     1     -10.445   6.293  -5.507  1.00  0.00    -0.206 F 
ATOM     91  C   UNL     1     -11.855   3.174  -6.681  1.00  0.00     0.006 A 
ENDBRANCH  67  84
ENDBRANCH  41  42
ENDBRANCH  34  36
ENDBRANCH  33  34
ENDBRANCH  32  33
ENDBRANCH  31  32
ENDBRANCH   1  31
TORSDOF 16
