REMARK SMILES O=C(OCCOCCOC(=O)c1ccc(-c2c3nc(c(-c4c(F)cccc4F)c4ccc([nH]4)c(-c4c(F)cccc4F)c4nc(c(-c5c(F)cccc5F)c5ccc2[nH]5)C=C4)C=C3)cc1)c1ccc(NC(=O)[C@@H]2CC=CC[C@H]2C(=O)Nc2cccc([N+](=O)[O-])c2)cc1
REMARK SMILES IDX 4 1 3 2 2 3 1 4 66 5 67 6 92 7 68 8 91 9 69 10 70 11 71 12
REMARK SMILES IDX 72 14 73 15 74 16 78 17 75 18 77 19 76 20 79 21 80 22 81 23
REMARK SMILES IDX 82 25 83 26 90 27 84 28 86 29 85 30 87 31 88 32 89 33 5 34
REMARK SMILES IDX 6 35 7 36 8 37 9 38 10 39 11 40 12 41 13 42 65 43 14 44
REMARK SMILES IDX 64 45 15 46 16 47 17 48 58 49 18 50 63 51 57 52 59 53 19 54
REMARK SMILES IDX 62 55 56 56 55 57 20 59 46 60 29 61 45 62 30 63 33 64 44 65
REMARK SMILES IDX 60 66 31 67 32 68 43 70 61 71 34 72 21 73 22 74 27 75 23 76
REMARK SMILES IDX 24 77 26 78 28 79 25 80 47 81 48 82 53 83 49 84 50 85 52 86
REMARK SMILES IDX 54 87 51 88 35 89 36 90 41 91 37 92 38 93 40 94 42 95 39 96
REMARK H PARENT 70 13 81 24 59 58 33 69
REMARK Flexibility Score: inf
ROOT
ATOM      1  C   UNL     1       9.209   1.246  -5.969  1.00  0.00     0.261 C 
ENDROOT
BRANCH   1   2
ATOM      2  O   UNL     1       9.099   2.316  -5.013  1.00  0.00    -0.460 OA
BRANCH   2   3
ATOM      3  C   UNL     1       8.467   2.434  -3.823  1.00  0.00     0.338 C 
ATOM      4  O   UNL     1       8.717   3.447  -3.165  1.00  0.00    -0.246 OA
BRANCH   3   5
ATOM      5  C   UNL     1       7.535   1.431  -3.194  1.00  0.00     0.060 A 
ATOM      6  C   UNL     1       6.888   0.357  -3.804  1.00  0.00     0.018 A 
ATOM      7  C   UNL     1       7.271   1.611  -1.824  1.00  0.00     0.018 A 
ATOM      8  C   UNL     1       6.220  -0.630  -3.032  1.00  0.00     0.027 A 
ATOM      9  C   UNL     1       6.596   0.642  -1.068  1.00  0.00     0.027 A 
ATOM     10  C   UNL     1       6.208  -0.565  -1.649  1.00  0.00     0.041 A 
BRANCH  10  11
ATOM     11  N   UNL     1       5.846  -1.592  -0.765  1.00  0.00    -0.326 N 
ATOM     12  C   UNL     1       5.958  -2.946  -0.674  1.00  0.00     0.228 C 
ATOM     13  H   UNL     1       5.371  -1.228   0.017  1.00  0.00     0.169 HD
ATOM     14  O   UNL     1       5.408  -3.407   0.341  1.00  0.00    -0.274 OA
BRANCH  12  15
ATOM     15  C   UNL     1       6.642  -3.923  -1.660  1.00  0.00     0.095 C 
ATOM     16  C   UNL     1       6.451  -5.373  -1.119  1.00  0.00     0.041 C 
ATOM     17  C   UNL     1       8.121  -3.691  -2.005  1.00  0.00     0.095 C 
ATOM     18  C   UNL     1       7.230  -6.449  -1.813  1.00  0.00    -0.030 C 
ATOM     19  C   UNL     1       8.949  -4.856  -2.604  1.00  0.00     0.041 C 
ATOM     20  C   UNL     1       8.364  -6.214  -2.475  1.00  0.00    -0.030 C 
BRANCH  17  21
ATOM     21  C   UNL     1       8.457  -2.498  -2.867  1.00  0.00     0.228 C 
ATOM     22  O   UNL     1       9.043  -1.565  -2.300  1.00  0.00    -0.274 OA
ATOM     23  N   UNL     1       8.290  -2.437  -4.233  1.00  0.00    -0.326 N 
ATOM     24  H   UNL     1       8.786  -1.688  -4.639  1.00  0.00     0.169 HD
BRANCH  23  25
ATOM     25  C   UNL     1       7.576  -3.194  -5.191  1.00  0.00     0.048 A 
ATOM     26  C   UNL     1       8.071  -3.269  -6.492  1.00  0.00     0.026 A 
ATOM     27  C   UNL     1       6.369  -3.836  -4.955  1.00  0.00     0.111 A 
ATOM     28  C   UNL     1       7.487  -4.121  -7.447  1.00  0.00     0.009 A 
ATOM     29  C   UNL     1       5.821  -4.753  -5.859  1.00  0.00     0.271 A 
ATOM     30  C   UNL     1       6.389  -4.914  -7.115  1.00  0.00     0.086 A 
BRANCH  29  31
ATOM     31  N   UNL     1       4.652  -5.544  -5.453  1.00  0.00     0.062 N 
ATOM     32  O   UNL     1       4.354  -6.527  -6.145  1.00  0.00    -0.258 OA
ATOM     33  O   UNL     1       4.043  -5.189  -4.432  1.00  0.00    -0.258 OA
ENDBRANCH  29  31
ENDBRANCH  23  25
ENDBRANCH  17  21
ENDBRANCH  12  15
ENDBRANCH  10  11
ENDBRANCH   3   5
ENDBRANCH   2   3
ENDBRANCH   1   2
BRANCH   1  34
ATOM     34  C   UNL     1      10.366   0.300  -5.677  1.00  0.00     0.202 C 
BRANCH  34  35
ATOM     35  O   UNL     1      10.222  -0.297  -4.398  1.00  0.00    -0.374 OA
BRANCH  35  36
ATOM     36  C   UNL     1      11.124   0.219  -3.401  1.00  0.00     0.202 C 
BRANCH  36  37
ATOM     37  C   UNL     1      12.168  -0.831  -3.005  1.00  0.00     0.261 C 
BRANCH  37  38
ATOM     38  O   UNL     1      12.889  -1.244  -4.177  1.00  0.00    -0.460 OA
BRANCH  38  39
ATOM     39  C   UNL     1      12.361  -2.325  -4.805  1.00  0.00     0.338 C 
ATOM     40  O   UNL     1      11.521  -3.094  -4.385  1.00  0.00    -0.246 OA
BRANCH  39  41
ATOM     41  C   UNL     1      12.832  -2.340  -6.208  1.00  0.00     0.060 A 
ATOM     42  C   UNL     1      11.988  -2.927  -7.158  1.00  0.00     0.016 A 
ATOM     43  C   UNL     1      14.056  -1.789  -6.598  1.00  0.00     0.016 A 
ATOM     44  C   UNL     1      12.372  -2.997  -8.491  1.00  0.00     0.010 A 
ATOM     45  C   UNL     1      14.447  -1.863  -7.934  1.00  0.00     0.010 A 
ATOM     46  C   UNL     1      13.623  -2.503  -8.875  1.00  0.00    -0.014 A 
BRANCH  46  47
ATOM     47  C   UNL     1      14.154  -2.857 -10.207  1.00  0.00     0.031 A 
ATOM     48  C   UNL     1      15.123  -4.002 -10.301  1.00  0.00     0.074 A 
ATOM     49  C   UNL     1      13.745  -2.204 -11.307  1.00  0.00     0.049 A 
ATOM     50  N   UNL     1      15.717  -4.504 -11.351  1.00  0.00    -0.248 NA
ATOM     51  C   UNL     1      15.473  -4.668  -9.035  1.00  0.00     0.031 C 
ATOM     52  C   UNL     1      12.783  -1.103 -11.330  1.00  0.00     0.029 A 
ATOM     53  N   UNL     1      14.091  -2.378 -12.621  1.00  0.00    -0.354 N 
ATOM     54  C   UNL     1      16.520  -5.531 -10.871  1.00  0.00     0.074 A 
ATOM     55  C   UNL     1      16.366  -5.558  -9.434  1.00  0.00     0.031 C 
ATOM     56  C   UNL     1      12.612  -0.701 -12.601  1.00  0.00     0.029 A 
ATOM     57  C   UNL     1      13.474  -1.496 -13.473  1.00  0.00     0.049 A 
ATOM     58  H   UNL     1      14.722  -3.070 -12.926  1.00  0.00     0.167 HD
ATOM     59  C   UNL     1      17.307  -6.382 -11.569  1.00  0.00     0.037 A 
ATOM     60  C   UNL     1      13.606  -1.349 -14.805  1.00  0.00     0.037 A 
ATOM     61  C   UNL     1      17.449  -6.345 -13.000  1.00  0.00     0.049 A 
ATOM     62  C   UNL     1      14.533  -2.272 -15.552  1.00  0.00     0.074 A 
ATOM     63  C   UNL     1      18.198  -7.174 -13.814  1.00  0.00     0.029 A 
ATOM     64  N   UNL     1      16.833  -5.417 -13.828  1.00  0.00    -0.354 N 
ATOM     65  N   UNL     1      15.259  -3.266 -15.097  1.00  0.00    -0.248 NA
ATOM     66  C   UNL     1      14.650  -2.058 -17.000  1.00  0.00     0.031 C 
ATOM     67  C   UNL     1      18.084  -6.710 -15.129  1.00  0.00     0.029 A 
ATOM     68  C   UNL     1      17.208  -5.635 -15.142  1.00  0.00     0.049 A 
ATOM     69  H   UNL     1      16.221  -4.708 -13.525  1.00  0.00     0.167 HD
ATOM     70  C   UNL     1      15.887  -3.820 -16.206  1.00  0.00     0.074 A 
ATOM     71  C   UNL     1      15.445  -3.057 -17.356  1.00  0.00     0.031 C 
ATOM     72  C   UNL     1      16.747  -4.867 -16.272  1.00  0.00     0.037 A 
BRANCH  59  73
ATOM     73  C   UNL     1      18.097  -7.391 -10.787  1.00  0.00     0.057 A 
ATOM     74  C   UNL     1      17.489  -8.459 -10.112  1.00  0.00     0.134 A 
ATOM     75  C   UNL     1      19.493  -7.295 -10.712  1.00  0.00     0.134 A 
ATOM     76  F   UNL     1      16.154  -8.599 -10.124  1.00  0.00    -0.206 F 
ATOM     77  C   UNL     1      18.236  -9.374  -9.368  1.00  0.00     0.040 A 
ATOM     78  C   UNL     1      20.253  -8.222  -9.997  1.00  0.00     0.040 A 
ATOM     79  F   UNL     1      20.141  -6.298 -11.332  1.00  0.00    -0.206 F 
ATOM     80  C   UNL     1      19.623  -9.261  -9.315  1.00  0.00     0.006 A 
ENDBRANCH  59  73
BRANCH  60  81
ATOM     81  C   UNL     1      12.837  -0.300 -15.522  1.00  0.00     0.057 A 
ATOM     82  C   UNL     1      11.827  -0.636 -16.431  1.00  0.00     0.134 A 
ATOM     83  C   UNL     1      13.105   1.062 -15.335  1.00  0.00     0.134 A 
ATOM     84  F   UNL     1      11.534  -1.923 -16.668  1.00  0.00    -0.206 F 
ATOM     85  C   UNL     1      11.128   0.339 -17.145  1.00  0.00     0.040 A 
ATOM     86  C   UNL     1      12.396   2.049 -16.020  1.00  0.00     0.040 A 
ATOM     87  F   UNL     1      14.056   1.452 -14.474  1.00  0.00    -0.206 F 
ATOM     88  C   UNL     1      11.410   1.688 -16.936  1.00  0.00     0.006 A 
ENDBRANCH  60  81
BRANCH  72  89
ATOM     89  C   UNL     1      17.218  -5.282 -17.637  1.00  0.00     0.057 A 
ATOM     90  C   UNL     1      18.093  -4.496 -18.397  1.00  0.00     0.134 A 
ATOM     91  C   UNL     1      16.806  -6.505 -18.186  1.00  0.00     0.134 A 
ATOM     92  F   UNL     1      18.518  -3.311 -17.934  1.00  0.00    -0.206 F 
ATOM     93  C   UNL     1      18.512  -4.893 -19.668  1.00  0.00     0.040 A 
ATOM     94  C   UNL     1      17.246  -6.928 -19.440  1.00  0.00     0.040 A 
ATOM     95  F   UNL     1      15.979  -7.313 -17.506  1.00  0.00    -0.206 F 
ATOM     96  C   UNL     1      18.093  -6.115 -20.190  1.00  0.00     0.006 A 
ENDBRANCH  72  89
ENDBRANCH  46  47
ENDBRANCH  39  41
ENDBRANCH  38  39
ENDBRANCH  37  38
ENDBRANCH  36  37
ENDBRANCH  35  36
ENDBRANCH  34  35
ENDBRANCH   1  34
TORSDOF 19
