REMARK SMILES Cc1ccc([C@@H](CC(=O)OCCOCCOC(=O)c2ccc(-c3c4nc(c(-c5c(F)cccc5F)c5ccc([nH]5)c(-c5c(F)cccc5F)c5nc(c(-c6c(F)cccc6F)c6ccc3[nH]6)C=C5)C=C4)cc2)NC(=O)c2ccc(OC(F)F)cc2)cc1
REMARK SMILES IDX 11 1 10 2 8 3 9 4 7 5 6 6 5 7 1 8 2 9 3 10 87 11 4 12 86 13
REMARK SMILES IDX 73 14 74 15 75 17 76 18 77 19 85 20 78 21 84 22 79 23 80 24
REMARK SMILES IDX 81 25 82 26 83 27 12 28 13 29 14 30 15 31 16 32 17 33 18 34
REMARK SMILES IDX 19 35 20 36 72 37 21 38 71 39 22 40 23 41 24 42 65 43 25 44
REMARK SMILES IDX 70 45 64 46 66 47 26 48 69 49 63 50 62 51 27 53 53 54 36 55
REMARK SMILES IDX 52 56 37 57 40 58 51 59 67 60 38 61 39 62 50 64 68 65 41 66
REMARK SMILES IDX 28 67 29 68 34 69 30 70 31 71 33 72 35 73 32 74 54 75 55 76
REMARK SMILES IDX 60 77 56 78 57 79 59 80 61 81 58 82 42 83 43 84 48 85 44 86
REMARK SMILES IDX 45 87 47 88 49 89 46 90
REMARK H PARENT 73 16 66 52 40 63
REMARK Flexibility Score: inf
ROOT
ATOM      1  C   UNL     1      -1.915  -2.409  -0.411  1.00  0.00     0.261 C 
ENDROOT
BRANCH   1   2
ATOM      2  O   UNL     1      -2.078  -1.032  -0.735  1.00  0.00    -0.463 OA
BRANCH   2   3
ATOM      3  C   UNL     1      -3.335  -0.631  -1.071  1.00  0.00     0.308 C 
ATOM      4  O   UNL     1      -4.227  -1.336  -1.485  1.00  0.00    -0.252 OA
BRANCH   3   5
ATOM      5  C   UNL     1      -3.461   0.847  -0.819  1.00  0.00     0.152 C 
BRANCH   5   6
ATOM      6  C   UNL     1      -3.127   1.213   0.649  1.00  0.00     0.123 C 
BRANCH   6   7
ATOM      7  C   UNL     1      -1.593   1.228   0.873  1.00  0.00    -0.025 A 
ATOM      8  C   UNL     1       2.751   0.953   0.930  1.00  0.00     0.044 C 
ATOM      9  C   UNL     1       1.256   1.084   0.950  1.00  0.00    -0.051 A 
ATOM     10  C   UNL     1       0.483   0.248   1.748  1.00  0.00     0.004 A 
ATOM     11  C   UNL     1       0.606   2.016   0.136  1.00  0.00     0.004 A 
ATOM     12  C   UNL     1      -0.912   0.351   1.740  1.00  0.00     0.006 A 
ATOM     13  C   UNL     1      -0.795   2.086   0.098  1.00  0.00     0.006 A 
ENDBRANCH   6   7
BRANCH   6  14
ATOM     14  N   UNL     1      -3.826   0.385   1.651  1.00  0.00    -0.345 N 
ATOM     15  C   UNL     1      -5.074   0.411   2.200  1.00  0.00     0.251 C 
ATOM     16  H   UNL     1      -3.268  -0.347   2.001  1.00  0.00     0.164 HD
ATOM     17  O   UNL     1      -5.286  -0.212   3.237  1.00  0.00    -0.269 OA
BRANCH  15  18
ATOM     18  C   UNL     1      -6.163   1.161   1.578  1.00  0.00     0.040 A 
ATOM     19  C   UNL     1      -6.830   2.130   2.325  1.00  0.00     0.017 A 
ATOM     20  C   UNL     1      -6.610   0.819   0.305  1.00  0.00     0.017 A 
ATOM     21  C   UNL     1      -7.885   2.832   1.742  1.00  0.00     0.047 A 
ATOM     22  C   UNL     1      -7.640   1.549  -0.288  1.00  0.00     0.047 A 
ATOM     23  C   UNL     1      -8.270   2.573   0.421  1.00  0.00     0.126 A 
BRANCH  23  24
ATOM     24  O   UNL     1      -9.281   3.363  -0.046  1.00  0.00    -0.435 OA
BRANCH  24  25
ATOM     25  C   UNL     1      -9.533   3.348  -1.446  1.00  0.00     0.542 C 
ATOM     26  F   UNL     1      -8.393   3.615  -2.128  1.00  0.00    -0.167 F 
ATOM     27  F   UNL     1      -9.981   2.127  -1.823  1.00  0.00    -0.167 F 
ENDBRANCH  24  25
ENDBRANCH  23  24
ENDBRANCH  15  18
ENDBRANCH   6  14
ENDBRANCH   5   6
ENDBRANCH   3   5
ENDBRANCH   2   3
ENDBRANCH   1   2
BRANCH   1  28
ATOM     28  C   UNL     1      -2.425  -2.751   0.960  1.00  0.00     0.202 C 
BRANCH  28  29
ATOM     29  O   UNL     1      -3.750  -3.238   0.823  1.00  0.00    -0.374 OA
BRANCH  29  30
ATOM     30  C   UNL     1      -4.441  -3.493   2.038  1.00  0.00     0.202 C 
BRANCH  30  31
ATOM     31  C   UNL     1      -3.647  -4.293   3.087  1.00  0.00     0.261 C 
BRANCH  31  32
ATOM     32  O   UNL     1      -3.353  -5.626   2.606  1.00  0.00    -0.460 OA
BRANCH  32  33
ATOM     33  C   UNL     1      -2.089  -5.851   2.141  1.00  0.00     0.338 C 
ATOM     34  O   UNL     1      -1.059  -5.603   2.747  1.00  0.00    -0.246 OA
BRANCH  33  35
ATOM     35  C   UNL     1      -2.142  -6.112   0.666  1.00  0.00     0.060 A 
ATOM     36  C   UNL     1      -0.976  -6.013  -0.123  1.00  0.00     0.016 A 
ATOM     37  C   UNL     1      -3.387  -6.028   0.060  1.00  0.00     0.016 A 
ATOM     38  C   UNL     1      -1.065  -5.678  -1.489  1.00  0.00     0.010 A 
ATOM     39  C   UNL     1      -3.450  -5.521  -1.218  1.00  0.00     0.010 A 
ATOM     40  C   UNL     1      -2.311  -5.362  -2.024  1.00  0.00    -0.014 A 
BRANCH  40  41
ATOM     41  C   UNL     1      -2.616  -4.799  -3.348  1.00  0.00     0.031 A 
ATOM     42  C   UNL     1      -3.556  -5.550  -4.227  1.00  0.00     0.074 A 
ATOM     43  C   UNL     1      -2.324  -3.522  -3.710  1.00  0.00     0.049 A 
ATOM     44  N   UNL     1      -3.654  -5.348  -5.499  1.00  0.00    -0.248 NA
ATOM     45  C   UNL     1      -4.451  -6.609  -3.754  1.00  0.00     0.031 C 
ATOM     46  C   UNL     1      -3.092  -2.696  -4.645  1.00  0.00     0.029 A 
ATOM     47  N   UNL     1      -1.263  -2.688  -3.349  1.00  0.00    -0.354 N 
ATOM     48  C   UNL     1      -4.814  -5.956  -5.911  1.00  0.00     0.074 A 
ATOM     49  C   UNL     1      -5.223  -6.805  -4.822  1.00  0.00     0.031 C 
ATOM     50  C   UNL     1      -2.386  -1.603  -4.966  1.00  0.00     0.029 A 
ATOM     51  C   UNL     1      -1.076  -1.739  -4.373  1.00  0.00     0.049 A 
ATOM     52  H   UNL     1      -0.736  -2.753  -2.520  1.00  0.00     0.167 HD
ATOM     53  C   UNL     1      -5.429  -5.560  -7.058  1.00  0.00     0.037 A 
ATOM     54  C   UNL     1       0.142  -1.526  -4.941  1.00  0.00     0.037 A 
ATOM     55  C   UNL     1      -4.769  -4.400  -7.657  1.00  0.00     0.049 A 
ATOM     56  C   UNL     1       0.118  -1.811  -6.412  1.00  0.00     0.074 A 
ATOM     57  C   UNL     1      -5.046  -3.042  -7.673  1.00  0.00     0.029 A 
ATOM     58  N   UNL     1      -3.458  -4.508  -8.083  1.00  0.00    -0.354 N 
ATOM     59  N   UNL     1      -0.972  -2.016  -7.093  1.00  0.00    -0.248 NA
ATOM     60  C   UNL     1       1.326  -2.056  -7.192  1.00  0.00     0.031 C 
ATOM     61  C   UNL     1      -3.913  -2.357  -8.199  1.00  0.00     0.029 A 
ATOM     62  C   UNL     1      -2.946  -3.296  -8.511  1.00  0.00     0.049 A 
ATOM     63  H   UNL     1      -2.947  -5.349  -8.082  1.00  0.00     0.167 HD
ATOM     64  C   UNL     1      -0.648  -2.645  -8.259  1.00  0.00     0.074 A 
ATOM     65  C   UNL     1       0.805  -2.596  -8.304  1.00  0.00     0.031 C 
ATOM     66  C   UNL     1      -1.587  -3.257  -9.041  1.00  0.00     0.037 A 
BRANCH  53  67
ATOM     67  C   UNL     1      -6.798  -6.066  -7.439  1.00  0.00     0.057 A 
ATOM     68  C   UNL     1      -7.713  -5.250  -8.124  1.00  0.00     0.134 A 
ATOM     69  C   UNL     1      -7.277  -7.356  -7.138  1.00  0.00     0.134 A 
ATOM     70  F   UNL     1      -7.373  -4.040  -8.582  1.00  0.00    -0.206 F 
ATOM     71  C   UNL     1      -9.034  -5.638  -8.377  1.00  0.00     0.040 A 
ATOM     72  C   UNL     1      -8.612  -7.737  -7.328  1.00  0.00     0.040 A 
ATOM     73  F   UNL     1      -6.460  -8.315  -6.675  1.00  0.00    -0.206 F 
ATOM     74  C   UNL     1      -9.502  -6.869  -7.941  1.00  0.00     0.006 A 
ENDBRANCH  53  67
BRANCH  54  75
ATOM     75  C   UNL     1       1.242  -1.868  -3.997  1.00  0.00     0.057 A 
ATOM     76  C   UNL     1       1.376  -1.047  -2.867  1.00  0.00     0.134 A 
ATOM     77  C   UNL     1       1.698  -3.190  -3.894  1.00  0.00     0.134 A 
ATOM     78  F   UNL     1       0.962   0.230  -2.902  1.00  0.00    -0.206 F 
ATOM     79  C   UNL     1       1.746  -1.583  -1.635  1.00  0.00     0.040 A 
ATOM     80  C   UNL     1       2.106  -3.719  -2.666  1.00  0.00     0.040 A 
ATOM     81  F   UNL     1       1.593  -4.030  -4.933  1.00  0.00    -0.206 F 
ATOM     82  C   UNL     1       2.078  -2.929  -1.521  1.00  0.00     0.006 A 
ENDBRANCH  54  75
BRANCH  66  83
ATOM     83  C   UNL     1      -1.241  -3.947 -10.333  1.00  0.00     0.057 A 
ATOM     84  C   UNL     1      -0.249  -3.461 -11.196  1.00  0.00     0.134 A 
ATOM     85  C   UNL     1      -1.936  -5.080 -10.804  1.00  0.00     0.134 A 
ATOM     86  F   UNL     1       0.368  -2.293 -10.960  1.00  0.00    -0.206 F 
ATOM     87  C   UNL     1       0.131  -4.137 -12.359  1.00  0.00     0.040 A 
ATOM     88  C   UNL     1      -1.606  -5.731 -11.993  1.00  0.00     0.040 A 
ATOM     89  F   UNL     1      -2.961  -5.627 -10.140  1.00  0.00    -0.206 F 
ATOM     90  C   UNL     1      -0.543  -5.282 -12.758  1.00  0.00     0.006 A 
ENDBRANCH  66  83
ENDBRANCH  40  41
ENDBRANCH  33  35
ENDBRANCH  32  33
ENDBRANCH  31  32
ENDBRANCH  30  31
ENDBRANCH  29  30
ENDBRANCH  28  29
ENDBRANCH   1  28
TORSDOF 20
