REMARK SMILES O=C1NC(=S)S/C1=C\c1ccc(OCc2cn(-c3ccc(C(=O)OCCOCCOC(=O)c4ccc(-c5c6nc(c(-c7c(F)cccc7F)c7ccc([nH]7)c(-c7c(F)cccc7F)c7nc(c(-c8c(F)cccc8F)c8ccc5[nH]8)C=C7)C=C6)cc4)cc3)nn2)cc1
REMARK SMILES IDX 25 1 24 2 22 3 23 4 21 5 18 6 19 7 88 8 20 9 87 10 17 11
REMARK SMILES IDX 15 12 16 13 90 14 89 15 14 16 13 17 12 18 9 19 10 20 92 21
REMARK SMILES IDX 11 22 91 23 8 24 1 25 2 26 3 27 7 28 4 29 6 31 5 32 26 33
REMARK SMILES IDX 27 34 28 35 29 36 30 37 31 38 32 39 33 40 34 41 86 42 35 43
REMARK SMILES IDX 85 44 36 45 37 46 38 47 79 48 39 49 84 50 78 51 80 52 40 53
REMARK SMILES IDX 83 54 77 55 76 56 41 58 67 59 50 60 66 61 51 62 54 63 65 64
REMARK SMILES IDX 81 65 52 66 53 67 64 69 82 70 55 71 42 72 43 73 48 74 44 75
REMARK SMILES IDX 45 76 47 77 49 78 46 79 68 80 69 81 74 82 70 83 71 84 73 85
REMARK SMILES IDX 75 86 72 87 56 88 57 89 62 90 58 91 59 92 61 93 63 94 60 95
REMARK H PARENT 3 30 80 57 54 68
REMARK Flexibility Score: inf
ROOT
ATOM      1  C   UNL     1       8.181  10.977  -0.960  1.00  0.00     0.261 C 
ENDROOT
BRANCH   1   2
ATOM      2  O   UNL     1       6.892  10.409  -0.682  1.00  0.00    -0.460 OA
BRANCH   2   3
ATOM      3  C   UNL     1       6.129  10.216  -1.783  1.00  0.00     0.338 C 
ATOM      4  O   UNL     1       6.409  10.506  -2.937  1.00  0.00    -0.246 OA
BRANCH   3   5
ATOM      5  C   UNL     1       4.933   9.427  -1.446  1.00  0.00     0.060 A 
ATOM      6  C   UNL     1       2.517   8.096  -1.127  1.00  0.00     0.066 A 
ATOM      7  C   UNL     1       3.409   7.681  -2.126  1.00  0.00     0.029 A 
ATOM      8  C   UNL     1       2.879   9.106  -0.223  1.00  0.00     0.029 A 
ATOM      9  C   UNL     1       4.600   8.372  -2.305  1.00  0.00     0.018 A 
ATOM     10  C   UNL     1       4.107   9.758  -0.369  1.00  0.00     0.018 A 
BRANCH   6  11
ATOM     11  N   UNL     1       1.212   7.554  -1.130  1.00  0.00    -0.220 N 
ATOM     12  C   UNL     1      -0.955   7.306  -1.141  1.00  0.00     0.120 A 
ATOM     13  C   UNL     1       0.047   8.139  -0.688  1.00  0.00     0.144 A 
ATOM     14  N   UNL     1      -0.380   6.244  -1.785  1.00  0.00    -0.131 NA
ATOM     15  N   UNL     1       0.931   6.401  -1.773  1.00  0.00    -0.062 NA
BRANCH  12  16
ATOM     16  C   UNL     1      -2.440   7.470  -1.127  1.00  0.00     0.289 C 
BRANCH  16  17
ATOM     17  O   UNL     1      -3.128   6.730  -0.106  1.00  0.00    -0.487 OA
BRANCH  17  18
ATOM     18  C   UNL     1      -3.129   5.364  -0.193  1.00  0.00     0.119 A 
ATOM     19  C   UNL     1      -2.910   2.571  -0.022  1.00  0.00    -0.024 A 
ATOM     20  C   UNL     1      -3.382   3.304   1.068  1.00  0.00     0.012 A 
ATOM     21  C   UNL     1      -2.642   3.231  -1.223  1.00  0.00     0.012 A 
ATOM     22  C   UNL     1      -3.487   4.697   0.981  1.00  0.00     0.047 A 
ATOM     23  C   UNL     1      -2.776   4.617  -1.314  1.00  0.00     0.047 A 
BRANCH  19  24
ATOM     24  C   UNL     1      -2.675   1.130   0.084  1.00  0.00     0.029 C 
ATOM     25  O   UNL     1      -2.198  -1.742   0.153  1.00  0.00    -0.268 OA
ATOM     26  C   UNL     1      -1.294  -0.923   0.111  1.00  0.00     0.263 C 
ATOM     27  N   UNL     1       0.036  -1.233   0.066  1.00  0.00    -0.307 N 
ATOM     28  C   UNL     1      -1.465   0.554   0.085  1.00  0.00     0.080 C 
ATOM     29  C   UNL     1       0.933  -0.210   0.024  1.00  0.00     0.145 C 
ATOM     30  H   UNL     1       0.338  -2.170   0.064  1.00  0.00     0.171 HD
ATOM     31  S   UNL     1       0.085   1.318   0.035  1.00  0.00    -0.055 SA
ATOM     32  S   UNL     1       2.574  -0.430  -0.027  1.00  0.00    -0.052 S 
ENDBRANCH  19  24
ENDBRANCH  17  18
ENDBRANCH  16  17
ENDBRANCH  12  16
ENDBRANCH   6  11
ENDBRANCH   3   5
ENDBRANCH   2   3
ENDBRANCH   1   2
BRANCH   1  33
ATOM     33  C   UNL     1       9.322   9.977  -0.769  1.00  0.00     0.202 C 
BRANCH  33  34
ATOM     34  O   UNL     1       9.382   8.830  -1.616  1.00  0.00    -0.374 OA
BRANCH  34  35
ATOM     35  C   UNL     1       8.400   7.804  -1.515  1.00  0.00     0.202 C 
BRANCH  35  36
ATOM     36  C   UNL     1       8.412   6.900  -0.292  1.00  0.00     0.261 C 
BRANCH  36  37
ATOM     37  O   UNL     1       8.275   7.640   0.909  1.00  0.00    -0.460 OA
BRANCH  37  38
ATOM     38  C   UNL     1       9.443   7.857   1.548  1.00  0.00     0.338 C 
ATOM     39  O   UNL     1      10.574   7.680   1.115  1.00  0.00    -0.246 OA
BRANCH  38  40
ATOM     40  C   UNL     1       9.151   8.195   2.940  1.00  0.00     0.060 A 
ATOM     41  C   UNL     1      10.259   8.239   3.787  1.00  0.00     0.016 A 
ATOM     42  C   UNL     1       7.839   8.055   3.417  1.00  0.00     0.016 A 
ATOM     43  C   UNL     1      10.082   7.837   5.085  1.00  0.00     0.010 A 
ATOM     44  C   UNL     1       7.667   7.633   4.708  1.00  0.00     0.010 A 
ATOM     45  C   UNL     1       8.805   7.433   5.485  1.00  0.00    -0.014 A 
BRANCH  45  46
ATOM     46  C   UNL     1       8.668   6.876   6.807  1.00  0.00     0.031 A 
ATOM     47  C   UNL     1       8.756   7.919   7.848  1.00  0.00     0.074 A 
ATOM     48  C   UNL     1       8.393   5.575   7.004  1.00  0.00     0.049 A 
ATOM     49  N   UNL     1       9.687   8.084   8.725  1.00  0.00    -0.248 NA
ATOM     50  C   UNL     1       7.803   9.041   7.758  1.00  0.00     0.031 C 
ATOM     51  C   UNL     1       8.031   4.561   6.009  1.00  0.00     0.029 A 
ATOM     52  N   UNL     1       8.277   4.904   8.179  1.00  0.00    -0.354 N 
ATOM     53  C   UNL     1       9.303   9.205   9.450  1.00  0.00     0.074 A 
ATOM     54  C   UNL     1       8.289   9.870   8.680  1.00  0.00     0.031 C 
ATOM     55  C   UNL     1       7.512   3.483   6.643  1.00  0.00     0.029 A 
ATOM     56  C   UNL     1       7.622   3.683   8.077  1.00  0.00     0.049 A 
ATOM     57  H   UNL     1       8.627   5.253   9.030  1.00  0.00     0.167 HD
ATOM     58  C   UNL     1       9.620   9.316  10.766  1.00  0.00     0.037 A 
ATOM     59  C   UNL     1       7.127   2.972   9.121  1.00  0.00     0.037 A 
ATOM     60  C   UNL     1      10.734   8.468  11.106  1.00  0.00     0.049 A 
ATOM     61  C   UNL     1       7.787   3.481  10.355  1.00  0.00     0.074 A 
ATOM     62  C   UNL     1      12.042   8.367  10.670  1.00  0.00     0.029 A 
ATOM     63  N   UNL     1      10.464   7.289  11.756  1.00  0.00    -0.354 N 
ATOM     64  N   UNL     1       9.051   3.307  10.625  1.00  0.00    -0.248 NA
ATOM     65  C   UNL     1       7.151   4.597  11.044  1.00  0.00     0.031 C 
ATOM     66  C   UNL     1      12.324   6.970  10.662  1.00  0.00     0.029 A 
ATOM     67  C   UNL     1      11.201   6.303  11.153  1.00  0.00     0.049 A 
ATOM     68  H   UNL     1       9.852   7.172  12.518  1.00  0.00     0.167 HD
ATOM     69  C   UNL     1       9.470   4.516  11.163  1.00  0.00     0.074 A 
ATOM     70  C   UNL     1       8.241   5.248  11.462  1.00  0.00     0.031 C 
ATOM     71  C   UNL     1      10.765   4.931  11.043  1.00  0.00     0.037 A 
BRANCH  58  72
ATOM     72  C   UNL     1       8.650   9.843  11.795  1.00  0.00     0.057 A 
ATOM     73  C   UNL     1       9.098  10.020  13.114  1.00  0.00     0.134 A 
ATOM     74  C   UNL     1       7.248   9.897  11.628  1.00  0.00     0.134 A 
ATOM     75  F   UNL     1      10.407   9.978  13.407  1.00  0.00    -0.206 F 
ATOM     76  C   UNL     1       8.216  10.153  14.192  1.00  0.00     0.040 A 
ATOM     77  C   UNL     1       6.363  10.085  12.689  1.00  0.00     0.040 A 
ATOM     78  F   UNL     1       6.644   9.671  10.456  1.00  0.00    -0.206 F 
ATOM     79  C   UNL     1       6.843  10.177  13.982  1.00  0.00     0.006 A 
ENDBRANCH  58  72
BRANCH  59  80
ATOM     80  C   UNL     1       5.888   2.160   9.172  1.00  0.00     0.057 A 
ATOM     81  C   UNL     1       5.650   1.268  10.227  1.00  0.00     0.134 A 
ATOM     82  C   UNL     1       4.787   2.438   8.341  1.00  0.00     0.134 A 
ATOM     83  F   UNL     1       6.623   0.974  11.101  1.00  0.00    -0.206 F 
ATOM     84  C   UNL     1       4.388   0.701  10.455  1.00  0.00     0.040 A 
ATOM     85  C   UNL     1       3.525   1.873   8.553  1.00  0.00     0.040 A 
ATOM     86  F   UNL     1       4.873   3.337   7.351  1.00  0.00    -0.206 F 
ATOM     87  C   UNL     1       3.317   1.012   9.622  1.00  0.00     0.006 A 
ENDBRANCH  59  80
BRANCH  71  88
ATOM     88  C   UNL     1      11.773   3.940  10.529  1.00  0.00     0.057 A 
ATOM     89  C   UNL     1      11.746   3.386   9.240  1.00  0.00     0.134 A 
ATOM     90  C   UNL     1      12.895   3.658  11.316  1.00  0.00     0.134 A 
ATOM     91  F   UNL     1      10.763   3.680   8.380  1.00  0.00    -0.206 F 
ATOM     92  C   UNL     1      12.770   2.555   8.773  1.00  0.00     0.040 A 
ATOM     93  C   UNL     1      13.940   2.858  10.849  1.00  0.00     0.040 A 
ATOM     94  F   UNL     1      13.016   4.199  12.538  1.00  0.00    -0.206 F 
ATOM     95  C   UNL     1      13.875   2.295   9.578  1.00  0.00     0.006 A 
ENDBRANCH  71  88
ENDBRANCH  45  46
ENDBRANCH  38  40
ENDBRANCH  37  38
ENDBRANCH  36  37
ENDBRANCH  35  36
ENDBRANCH  34  35
ENDBRANCH  33  34
ENDBRANCH   1  33
TORSDOF 19
