REMARK SMILES O=C(OCCOCCOC(=O)[C@@H](Cc1ccncc1)c1ccc(Cl)cc1)c1ccc(-c2c3nc(c(-c4c(F)cccc4F)c4ccc([nH]4)c(-c4c(F)cccc4F)c4nc(c(-c5c(F)cccc5F)c5ccc2[nH]5)C=C4)C=C3)cc1
REMARK SMILES IDX 6 1 5 2 4 3 3 4 2 5 1 6 27 7 28 8 80 9 29 10 79 11 30 12
REMARK SMILES IDX 31 13 32 14 73 15 33 16 78 17 72 18 74 19 34 20 77 21 71 22
REMARK SMILES IDX 70 23 35 25 61 26 44 27 60 28 45 29 48 30 59 31 75 32 46 33
REMARK SMILES IDX 47 34 58 36 76 37 49 38 36 39 37 40 42 41 38 42 39 43 41 44
REMARK SMILES IDX 43 45 40 46 62 47 63 48 68 49 64 50 65 51 67 52 69 53 66 54
REMARK SMILES IDX 50 55 51 56 56 57 52 58 53 59 55 60 57 61 54 62 7 63 8 64
REMARK SMILES IDX 9 65 10 66 11 67 12 68 13 69 14 70 15 71 19 72 16 73 18 74
REMARK SMILES IDX 17 75 20 76 21 77 26 78 22 79 25 80 23 81 24 82
REMARK H PARENT 74 24 48 35
REMARK Flexibility Score: inf
ROOT
ATOM      1  O   UNL     1       4.120  -1.279  -0.634  1.00  0.00    -0.374 OA
ENDROOT
BRANCH   1   2
ATOM      2  C   UNL     1       4.651  -0.922   0.643  1.00  0.00     0.202 C 
BRANCH   2   3
ATOM      3  C   UNL     1       4.407   0.523   1.114  1.00  0.00     0.261 C 
BRANCH   3   4
ATOM      4  O   UNL     1       3.009   0.860   1.099  1.00  0.00    -0.460 OA
BRANCH   4   5
ATOM      5  C   UNL     1       2.294   1.418   0.093  1.00  0.00     0.338 C 
ATOM      6  O   UNL     1       1.089   1.594   0.255  1.00  0.00    -0.246 OA
BRANCH   5   7
ATOM      7  C   UNL     1       2.894   1.817  -1.216  1.00  0.00     0.060 A 
ATOM      8  C   UNL     1       4.079   1.296  -1.733  1.00  0.00     0.016 A 
ATOM      9  C   UNL     1       2.175   2.721  -2.014  1.00  0.00     0.016 A 
ATOM     10  C   UNL     1       4.546   1.615  -2.980  1.00  0.00     0.010 A 
ATOM     11  C   UNL     1       2.652   3.088  -3.274  1.00  0.00     0.010 A 
ATOM     12  C   UNL     1       3.842   2.527  -3.742  1.00  0.00    -0.014 A 
BRANCH  12  13
ATOM     13  C   UNL     1       4.545   2.988  -4.932  1.00  0.00     0.031 A 
ATOM     14  C   UNL     1       5.360   4.227  -4.795  1.00  0.00     0.074 A 
ATOM     15  C   UNL     1       4.622   2.170  -5.992  1.00  0.00     0.049 A 
ATOM     16  N   UNL     1       6.018   4.885  -5.702  1.00  0.00    -0.248 NA
ATOM     17  C   UNL     1       5.466   4.792  -3.435  1.00  0.00     0.031 C 
ATOM     18  C   UNL     1       4.027   0.831  -6.067  1.00  0.00     0.029 A 
ATOM     19  N   UNL     1       5.255   2.327  -7.188  1.00  0.00    -0.354 N 
ATOM     20  C   UNL     1       6.566   5.973  -5.039  1.00  0.00     0.074 A 
ATOM     21  C   UNL     1       6.198   5.872  -3.647  1.00  0.00     0.031 C 
ATOM     22  C   UNL     1       4.305   0.300  -7.267  1.00  0.00     0.029 A 
ATOM     23  C   UNL     1       5.018   1.294  -8.058  1.00  0.00     0.049 A 
ATOM     24  H   UNL     1       5.823   3.102  -7.405  1.00  0.00     0.167 HD
ATOM     25  C   UNL     1       7.280   6.982  -5.582  1.00  0.00     0.037 A 
ATOM     26  C   UNL     1       5.286   1.221  -9.372  1.00  0.00     0.037 A 
ATOM     27  C   UNL     1       7.596   7.018  -6.983  1.00  0.00     0.049 A 
ATOM     28  C   UNL     1       5.975   2.405  -9.990  1.00  0.00     0.074 A 
ATOM     29  C   UNL     1       8.230   8.003  -7.709  1.00  0.00     0.029 A 
ATOM     30  N   UNL     1       7.277   5.995  -7.873  1.00  0.00    -0.354 N 
ATOM     31  N   UNL     1       6.397   3.505  -9.406  1.00  0.00    -0.248 NA
ATOM     32  C   UNL     1       6.206   2.360 -11.435  1.00  0.00     0.031 C 
ATOM     33  C   UNL     1       8.248   7.597  -9.049  1.00  0.00     0.029 A 
ATOM     34  C   UNL     1       7.679   6.333  -9.149  1.00  0.00     0.049 A 
ATOM     35  H   UNL     1       6.830   5.153  -7.627  1.00  0.00     0.167 HD
ATOM     36  C   UNL     1       6.957   4.282 -10.406  1.00  0.00     0.074 A 
ATOM     37  C   UNL     1       6.826   3.517 -11.635  1.00  0.00     0.031 C 
ATOM     38  C   UNL     1       7.524   5.512 -10.329  1.00  0.00     0.037 A 
BRANCH  25  39
ATOM     39  C   UNL     1       7.607   8.135  -4.682  1.00  0.00     0.057 A 
ATOM     40  C   UNL     1       8.522   8.037  -3.625  1.00  0.00     0.134 A 
ATOM     41  C   UNL     1       6.902   9.339  -4.812  1.00  0.00     0.134 A 
ATOM     42  F   UNL     1       9.199   6.898  -3.415  1.00  0.00    -0.206 F 
ATOM     43  C   UNL     1       8.694   9.079  -2.708  1.00  0.00     0.040 A 
ATOM     44  C   UNL     1       7.085  10.396  -3.918  1.00  0.00     0.040 A 
ATOM     45  F   UNL     1       5.997   9.496  -5.789  1.00  0.00    -0.206 F 
ATOM     46  C   UNL     1       7.973  10.262  -2.854  1.00  0.00     0.006 A 
ENDBRANCH  25  39
BRANCH  26  47
ATOM     47  C   UNL     1       4.809   0.056 -10.156  1.00  0.00     0.057 A 
ATOM     48  C   UNL     1       5.695  -0.863 -10.724  1.00  0.00     0.134 A 
ATOM     49  C   UNL     1       3.436  -0.200 -10.306  1.00  0.00     0.134 A 
ATOM     50  F   UNL     1       7.018  -0.673 -10.627  1.00  0.00    -0.206 F 
ATOM     51  C   UNL     1       5.237  -1.992 -11.409  1.00  0.00     0.040 A 
ATOM     52  C   UNL     1       2.965  -1.336 -10.965  1.00  0.00     0.040 A 
ATOM     53  F   UNL     1       2.530   0.638  -9.780  1.00  0.00    -0.206 F 
ATOM     54  C   UNL     1       3.869  -2.236 -11.522  1.00  0.00     0.006 A 
ENDBRANCH  26  47
BRANCH  38  55
ATOM     55  C   UNL     1       8.076   6.076 -11.599  1.00  0.00     0.057 A 
ATOM     56  C   UNL     1       7.245   6.616 -12.586  1.00  0.00     0.134 A 
ATOM     57  C   UNL     1       9.461   6.163 -11.783  1.00  0.00     0.134 A 
ATOM     58  F   UNL     1       5.910   6.548 -12.464  1.00  0.00    -0.206 F 
ATOM     59  C   UNL     1       7.776   7.224 -13.721  1.00  0.00     0.040 A 
ATOM     60  C   UNL     1      10.003   6.792 -12.901  1.00  0.00     0.040 A 
ATOM     61  F   UNL     1      10.303   5.670 -10.862  1.00  0.00    -0.206 F 
ATOM     62  C   UNL     1       9.159   7.324 -13.874  1.00  0.00     0.006 A 
ENDBRANCH  38  55
ENDBRANCH  12  13
ENDBRANCH   5   7
ENDBRANCH   4   5
ENDBRANCH   3   4
ENDBRANCH   2   3
ENDBRANCH   1   2
BRANCH   1  63
ATOM     63  C   UNL     1       2.745  -1.666  -0.697  1.00  0.00     0.202 C 
BRANCH  63  64
ATOM     64  C   UNL     1       2.617  -3.170  -0.896  1.00  0.00     0.261 C 
BRANCH  64  65
ATOM     65  O   UNL     1       2.945  -3.815   0.339  1.00  0.00    -0.463 OA
BRANCH  65  66
ATOM     66  C   UNL     1       4.268  -4.041   0.557  1.00  0.00     0.313 C 
ATOM     67  O   UNL     1       5.158  -3.904  -0.264  1.00  0.00    -0.252 OA
BRANCH  66  68
ATOM     68  C   UNL     1       4.511  -4.553   1.968  1.00  0.00     0.133 C 
BRANCH  68  69
ATOM     69  C   UNL     1       4.008  -3.662   3.148  1.00  0.00     0.055 C 
BRANCH  69  70
ATOM     70  C   UNL     1       2.555  -3.250   3.264  1.00  0.00    -0.044 A 
ATOM     71  C   UNL     1       2.129  -1.942   2.999  1.00  0.00     0.024 A 
ATOM     72  C   UNL     1       1.581  -4.151   3.687  1.00  0.00     0.024 A 
ATOM     73  C   UNL     1       0.775  -1.637   3.020  1.00  0.00     0.111 A 
ATOM     74  C   UNL     1       0.249  -3.760   3.690  1.00  0.00     0.111 A 
ATOM     75  N   UNL     1      -0.179  -2.530   3.341  1.00  0.00    -0.265 NA
ENDBRANCH  69  70
ENDBRANCH  68  69
BRANCH  68  76
ATOM     76  C   UNL     1       4.188  -6.035   2.008  1.00  0.00    -0.033 A 
ATOM     77  C   UNL     1       2.878  -6.506   1.843  1.00  0.00     0.006 A 
ATOM     78  C   UNL     1       5.236  -6.967   2.056  1.00  0.00     0.006 A 
ATOM     79  C   UNL     1       2.608  -7.871   1.800  1.00  0.00     0.021 A 
ATOM     80  C   UNL     1       4.971  -8.335   1.983  1.00  0.00     0.021 A 
ATOM     81  C   UNL     1       3.656  -8.781   1.870  1.00  0.00     0.041 A 
ATOM     82  Cl  UNL     1       3.327 -10.465   1.787  1.00  0.00    -0.084 Cl
ENDBRANCH  68  76
ENDBRANCH  66  68
ENDBRANCH  65  66
ENDBRANCH  64  65
ENDBRANCH  63  64
ENDBRANCH   1  63
TORSDOF 17
