REMARK SMILES Cc1c(C(=O)OCCOCCOC(=O)c2ccc(-c3c4nc(c(-c5c(F)cccc5F)c5ccc([nH]5)c(-c5c(F)cccc5F)c5nc(c(-c6c(F)cccc6F)c6ccc3[nH]6)C=C5)C=C4)cc2)cccc1-n1c(C)cc(/C=C2/C(=O)NC(=S)N=C2O)c1C
REMARK SMILES IDX 8 1 7 2 6 3 4 4 5 5 3 6 1 7 2 8 72 9 69 10 71 11 70 12 73 13
REMARK SMILES IDX 74 14 88 15 75 16 76 17 77 18 89 19 78 20 79 21 80 22 86 23
REMARK SMILES IDX 81 24 82 25 85 26 83 27 84 29 87 30 9 32 10 33 11 34 12 35
REMARK SMILES IDX 13 36 14 37 15 38 16 39 68 40 17 41 67 42 18 43 19 44 20 45
REMARK SMILES IDX 61 46 21 47 66 48 60 49 62 50 22 51 65 52 59 53 58 54 23 56
REMARK SMILES IDX 49 57 32 58 48 59 33 60 36 61 47 62 63 63 34 64 35 65 46 67
REMARK SMILES IDX 64 68 37 69 24 70 25 71 30 72 26 73 27 74 29 75 31 76 28 77
REMARK SMILES IDX 50 78 51 79 56 80 52 81 53 82 55 83 57 84 54 85 38 86 39 87
REMARK SMILES IDX 44 88 40 89 41 90 43 91 45 92 42 93
REMARK H PARENT 82 28 87 31 62 55 36 66
REMARK Flexibility Score: inf
ROOT
ATOM      1  C   UNL     1       2.068  -2.480   2.297  1.00  0.00     0.202 C 
ENDROOT
BRANCH   1   2
ATOM      2  C   UNL     1       2.534  -2.517   0.881  1.00  0.00     0.261 C 
BRANCH   2   3
ATOM      3  O   UNL     1       1.683  -1.782  -0.003  1.00  0.00    -0.460 OA
BRANCH   3   4
ATOM      4  C   UNL     1       0.366  -2.014  -0.179  1.00  0.00     0.338 C 
ATOM      5  O   UNL     1      -0.211  -3.070  -0.191  1.00  0.00    -0.246 OA
BRANCH   4   6
ATOM      6  C   UNL     1      -0.261  -0.662  -0.325  1.00  0.00     0.065 A 
ATOM      7  C   UNL     1       1.928   0.627   0.192  1.00  0.00     0.047 C 
ATOM      8  C   UNL     1       0.462   0.551  -0.203  1.00  0.00    -0.012 A 
ATOM      9  C   UNL     1      -0.263   1.740  -0.352  1.00  0.00     0.049 A 
ATOM     10  C   UNL     1      -1.660  -0.641  -0.496  1.00  0.00     0.016 A 
ATOM     11  C   UNL     1      -1.655   1.768  -0.482  1.00  0.00     0.027 A 
ATOM     12  C   UNL     1      -2.355   0.569  -0.547  1.00  0.00     0.003 A 
BRANCH   9  13
ATOM     13  N   UNL     1       0.415   2.961  -0.190  1.00  0.00    -0.318 N 
ATOM     14  C   UNL     1       1.344   3.488  -1.076  1.00  0.00     0.020 A 
ATOM     15  C   UNL     1       0.611   3.549   1.056  1.00  0.00     0.027 A 
ATOM     16  C   UNL     1       1.721   2.846  -2.372  1.00  0.00     0.065 C 
ATOM     17  C   UNL     1       1.823   4.643  -0.493  1.00  0.00     0.031 A 
ATOM     18  C   UNL     1       1.286   4.733   0.822  1.00  0.00    -0.003 A 
ATOM     19  C   UNL     1       0.183   2.849   2.311  1.00  0.00     0.065 C 
BRANCH  18  20
ATOM     20  C   UNL     1       1.609   5.783   1.729  1.00  0.00     0.029 C 
ATOM     21  C   UNL     1       0.941   6.283   2.786  1.00  0.00     0.102 C 
ATOM     22  C   UNL     1       1.638   7.355   3.538  1.00  0.00     0.262 C 
ATOM     23  C   UNL     1      -0.345   5.903   3.373  1.00  0.00     0.226 C 
ATOM     24  O   UNL     1       2.592   7.993   3.111  1.00  0.00    -0.269 OA
ATOM     25  N   UNL     1       1.138   7.562   4.795  1.00  0.00    -0.297 N 
ATOM     26  N   UNL     1      -0.757   6.173   4.556  1.00  0.00    -0.184 NA
ATOM     27  C   UNL     1       0.043   6.948   5.351  1.00  0.00     0.203 C 
ATOM     28  H   UNL     1       1.612   8.217   5.357  1.00  0.00     0.172 HD
ATOM     29  S   UNL     1      -0.282   7.250   6.966  1.00  0.00    -0.038 S 
BRANCH  23  30
ATOM     30  O   UNL     1      -1.210   5.267   2.582  1.00  0.00    -0.493 OA
ATOM     31  H   UNL     1      -0.966   5.043   1.705  1.00  0.00     0.295 HD
ENDBRANCH  23  30
ENDBRANCH  18  20
ENDBRANCH   9  13
ENDBRANCH   4   6
ENDBRANCH   3   4
ENDBRANCH   2   3
ENDBRANCH   1   2
BRANCH   1  32
ATOM     32  O   UNL     1       0.909  -3.288   2.328  1.00  0.00    -0.374 OA
BRANCH  32  33
ATOM     33  C   UNL     1       0.326  -3.455   3.600  1.00  0.00     0.202 C 
BRANCH  33  34
ATOM     34  C   UNL     1       1.287  -4.137   4.583  1.00  0.00     0.261 C 
BRANCH  34  35
ATOM     35  O   UNL     1       1.711  -5.409   4.037  1.00  0.00    -0.460 OA
BRANCH  35  36
ATOM     36  C   UNL     1       2.969  -5.471   3.510  1.00  0.00     0.338 C 
ATOM     37  O   UNL     1       3.974  -5.004   4.022  1.00  0.00    -0.246 OA
BRANCH  36  38
ATOM     38  C   UNL     1       2.904  -5.909   2.077  1.00  0.00     0.060 A 
ATOM     39  C   UNL     1       4.034  -5.785   1.238  1.00  0.00     0.016 A 
ATOM     40  C   UNL     1       1.646  -6.071   1.507  1.00  0.00     0.016 A 
ATOM     41  C   UNL     1       3.881  -5.660  -0.159  1.00  0.00     0.010 A 
ATOM     42  C   UNL     1       1.495  -5.821   0.158  1.00  0.00     0.010 A 
ATOM     43  C   UNL     1       2.594  -5.590  -0.692  1.00  0.00    -0.014 A 
BRANCH  43  44
ATOM     44  C   UNL     1       2.218  -5.136  -2.042  1.00  0.00     0.031 A 
ATOM     45  C   UNL     1       1.399  -6.034  -2.887  1.00  0.00     0.074 A 
ATOM     46  C   UNL     1       2.289  -3.830  -2.413  1.00  0.00     0.049 A 
ATOM     47  N   UNL     1       1.217  -5.853  -4.151  1.00  0.00    -0.248 NA
ATOM     48  C   UNL     1       0.713  -7.220  -2.378  1.00  0.00     0.031 C 
ATOM     49  C   UNL     1       1.404  -3.124  -3.347  1.00  0.00     0.029 A 
ATOM     50  N   UNL     1       3.152  -2.816  -1.987  1.00  0.00    -0.354 N 
ATOM     51  C   UNL     1       0.144  -6.628  -4.514  1.00  0.00     0.074 A 
ATOM     52  C   UNL     1      -0.070  -7.533  -3.411  1.00  0.00     0.031 C 
ATOM     53  C   UNL     1       1.897  -1.901  -3.603  1.00  0.00     0.029 A 
ATOM     54  C   UNL     1       3.202  -1.819  -2.979  1.00  0.00     0.049 A 
ATOM     55  H   UNL     1       3.643  -2.801  -1.134  1.00  0.00     0.167 HD
ATOM     56  C   UNL     1      -0.573  -6.314  -5.629  1.00  0.00     0.037 A 
ATOM     57  C   UNL     1       4.385  -1.428  -3.524  1.00  0.00     0.037 A 
ATOM     58  C   UNL     1      -0.112  -5.056  -6.232  1.00  0.00     0.049 A 
ATOM     59  C   UNL     1       4.417  -1.786  -4.984  1.00  0.00     0.074 A 
ATOM     60  C   UNL     1      -0.615  -3.764  -6.267  1.00  0.00     0.029 A 
ATOM     61  N   UNL     1       1.207  -4.939  -6.645  1.00  0.00    -0.354 N 
ATOM     62  N   UNL     1       3.395  -2.322  -5.588  1.00  0.00    -0.248 NA
ATOM     63  C   UNL     1       5.568  -1.661  -5.868  1.00  0.00     0.031 C 
ATOM     64  C   UNL     1       0.396  -2.896  -6.777  1.00  0.00     0.029 A 
ATOM     65  C   UNL     1       1.515  -3.658  -7.063  1.00  0.00     0.049 A 
ATOM     66  H   UNL     1       1.850  -5.684  -6.641  1.00  0.00     0.167 HD
ATOM     67  C   UNL     1       3.728  -2.709  -6.843  1.00  0.00     0.074 A 
ATOM     68  C   UNL     1       5.110  -2.269  -6.980  1.00  0.00     0.031 C 
ATOM     69  C   UNL     1       2.837  -3.389  -7.624  1.00  0.00     0.037 A 
BRANCH  56  70
ATOM     70  C   UNL     1      -1.862  -7.019  -5.985  1.00  0.00     0.057 A 
ATOM     71  C   UNL     1      -2.880  -6.370  -6.702  1.00  0.00     0.134 A 
ATOM     72  C   UNL     1      -2.156  -8.355  -5.646  1.00  0.00     0.134 A 
ATOM     73  F   UNL     1      -2.715  -5.141  -7.208  1.00  0.00    -0.206 F 
ATOM     74  C   UNL     1      -4.129  -6.954  -6.951  1.00  0.00     0.040 A 
ATOM     75  C   UNL     1      -3.421  -8.932  -5.830  1.00  0.00     0.040 A 
ATOM     76  F   UNL     1      -1.215  -9.182  -5.168  1.00  0.00    -0.206 F 
ATOM     77  C   UNL     1      -4.420  -8.225  -6.479  1.00  0.00     0.006 A 
ENDBRANCH  56  70
BRANCH  57  78
ATOM     78  C   UNL     1       5.485  -1.483  -2.515  1.00  0.00     0.057 A 
ATOM     79  C   UNL     1       5.478  -0.501  -1.503  1.00  0.00     0.134 A 
ATOM     80  C   UNL     1       6.104  -2.701  -2.206  1.00  0.00     0.134 A 
ATOM     81  F   UNL     1       4.893   0.689  -1.722  1.00  0.00    -0.206 F 
ATOM     82  C   UNL     1       5.918  -0.772  -0.202  1.00  0.00     0.040 A 
ATOM     83  C   UNL     1       6.533  -2.987  -0.902  1.00  0.00     0.040 A 
ATOM     84  F   UNL     1       6.140  -3.690  -3.110  1.00  0.00    -0.206 F 
ATOM     85  C   UNL     1       6.401  -2.039   0.113  1.00  0.00     0.006 A 
ENDBRANCH  57  78
BRANCH  69  86
ATOM     86  C   UNL     1       3.176  -3.899  -8.991  1.00  0.00     0.057 A 
ATOM     87  C   UNL     1       3.967  -3.178  -9.890  1.00  0.00     0.134 A 
ATOM     88  C   UNL     1       2.670  -5.123  -9.476  1.00  0.00     0.134 A 
ATOM     89  F   UNL     1       4.365  -1.927  -9.616  1.00  0.00    -0.206 F 
ATOM     90  C   UNL     1       4.360  -3.707 -11.122  1.00  0.00     0.040 A 
ATOM     91  C   UNL     1       3.005  -5.636 -10.726  1.00  0.00     0.040 A 
ATOM     92  F   UNL     1       1.844  -5.897  -8.760  1.00  0.00    -0.206 F 
ATOM     93  C   UNL     1       3.888  -4.946 -11.538  1.00  0.00     0.006 A 
ENDBRANCH  69  86
ENDBRANCH  43  44
ENDBRANCH  36  38
ENDBRANCH  35  36
ENDBRANCH  34  35
ENDBRANCH  33  34
ENDBRANCH  32  33
ENDBRANCH   1  32
TORSDOF 17
