REMARK SMILES O=C(OCCOCCOC(=O)c1ccc(NS(=O)(=O)c2ccc3c(c2)CCC3)cc1Cl)c1ccc(-c2c3nc(c(-c4c(F)cccc4F)c4ccc([nH]4)c(-c4c(F)cccc4F)c4nc(c(-c5c(F)cccc5F)c5ccc2[nH]5)C=C4)C=C3)cc1
REMARK SMILES IDX 7 1 6 2 5 3 4 4 3 5 2 6 1 7 32 8 33 9 85 10 34 11 84 12
REMARK SMILES IDX 35 13 36 14 37 15 78 16 38 17 83 18 77 19 79 20 39 21 82 22
REMARK SMILES IDX 76 23 75 24 40 26 66 27 49 28 65 29 50 30 53 31 64 32 80 33
REMARK SMILES IDX 51 34 52 35 63 37 81 38 54 39 41 40 42 41 47 42 43 43 44 44
REMARK SMILES IDX 46 45 48 46 45 47 67 48 68 49 73 50 69 51 70 52 72 53 74 54
REMARK SMILES IDX 71 55 55 56 56 57 61 58 57 59 58 60 60 61 62 62 59 63 8 64
REMARK SMILES IDX 9 65 10 66 11 67 12 68 13 69 30 70 14 71 29 72 31 73 15 74
REMARK SMILES IDX 16 75 17 77 18 78 19 79 20 80 21 81 25 82 22 83 24 84 23 85
REMARK SMILES IDX 26 86 28 87 27 88
REMARK H PARENT 79 25 53 36 16 76
REMARK Flexibility Score: inf
ROOT
ATOM      1  C   UNL     1       2.709   2.295   0.586  1.00  0.00     0.202 C 
ENDROOT
BRANCH   1   2
ATOM      2  O   UNL     1       4.039   1.948   0.169  1.00  0.00    -0.374 OA
BRANCH   2   3
ATOM      3  C   UNL     1       4.151   1.532  -1.197  1.00  0.00     0.202 C 
BRANCH   3   4
ATOM      4  C   UNL     1       3.786   0.068  -1.468  1.00  0.00     0.261 C 
BRANCH   4   5
ATOM      5  O   UNL     1       2.436  -0.205  -1.053  1.00  0.00    -0.460 OA
BRANCH   5   6
ATOM      6  C   UNL     1       2.007  -0.986  -0.034  1.00  0.00     0.338 C 
ATOM      7  O   UNL     1       0.808  -1.248   0.043  1.00  0.00    -0.246 OA
BRANCH   6   8
ATOM      8  C   UNL     1       2.913  -1.541   1.017  1.00  0.00     0.060 A 
ATOM      9  C   UNL     1       4.139  -0.984   1.379  1.00  0.00     0.016 A 
ATOM     10  C   UNL     1       2.450  -2.647   1.753  1.00  0.00     0.016 A 
ATOM     11  C   UNL     1       4.928  -1.555   2.368  1.00  0.00     0.010 A 
ATOM     12  C   UNL     1       3.208  -3.186   2.800  1.00  0.00     0.010 A 
ATOM     13  C   UNL     1       4.464  -2.650   3.095  1.00  0.00    -0.014 A 
BRANCH  13  14
ATOM     14  C   UNL     1       5.356  -3.214   4.127  1.00  0.00     0.031 A 
ATOM     15  C   UNL     1       6.074  -4.498   3.851  1.00  0.00     0.074 A 
ATOM     16  C   UNL     1       5.631  -2.479   5.222  1.00  0.00     0.049 A 
ATOM     17  N   UNL     1       6.961  -5.121   4.580  1.00  0.00    -0.248 NA
ATOM     18  C   UNL     1       5.771  -5.160   2.572  1.00  0.00     0.031 C 
ATOM     19  C   UNL     1       5.038  -1.174   5.528  1.00  0.00     0.029 A 
ATOM     20  N   UNL     1       6.510  -2.694   6.249  1.00  0.00    -0.354 N 
ATOM     21  C   UNL     1       7.320  -6.246   3.853  1.00  0.00     0.074 A 
ATOM     22  C   UNL     1       6.543  -6.234   2.633  1.00  0.00     0.031 C 
ATOM     23  C   UNL     1       5.605  -0.684   6.641  1.00  0.00     0.029 A 
ATOM     24  C   UNL     1       6.555  -1.663   7.157  1.00  0.00     0.049 A 
ATOM     25  H   UNL     1       7.057  -3.509   6.330  1.00  0.00     0.167 HD
ATOM     26  C   UNL     1       8.223  -7.201   4.177  1.00  0.00     0.037 A 
ATOM     27  C   UNL     1       7.276  -1.536   8.286  1.00  0.00     0.037 A 
ATOM     28  C   UNL     1       8.970  -7.206   5.405  1.00  0.00     0.049 A 
ATOM     29  C   UNL     1       8.215  -2.650   8.658  1.00  0.00     0.074 A 
ATOM     30  C   UNL     1       9.833  -8.170   5.893  1.00  0.00     0.029 A 
ATOM     31  N   UNL     1       8.938  -6.182   6.343  1.00  0.00    -0.354 N 
ATOM     32  N   UNL     1       8.497  -3.746   7.994  1.00  0.00    -0.248 NA
ATOM     33  C   UNL     1       8.925  -2.518   9.936  1.00  0.00     0.031 C 
ATOM     34  C   UNL     1      10.304  -7.739   7.140  1.00  0.00     0.029 A 
ATOM     35  C   UNL     1       9.762  -6.491   7.410  1.00  0.00     0.049 A 
ATOM     36  H   UNL     1       8.407  -5.357   6.260  1.00  0.00     0.167 HD
ATOM     37  C   UNL     1       9.415  -4.436   8.773  1.00  0.00     0.074 A 
ATOM     38  C   UNL     1       9.669  -3.615   9.941  1.00  0.00     0.031 C 
ATOM     39  C   UNL     1       9.986  -5.646   8.555  1.00  0.00     0.037 A 
BRANCH  26  40
ATOM     40  C   UNL     1       8.395  -8.327   3.204  1.00  0.00     0.057 A 
ATOM     41  C   UNL     1       9.083  -8.160   1.995  1.00  0.00     0.134 A 
ATOM     42  C   UNL     1       7.835  -9.584   3.462  1.00  0.00     0.134 A 
ATOM     43  F   UNL     1       9.617  -6.971   1.676  1.00  0.00    -0.206 F 
ATOM     44  C   UNL     1       9.189  -9.198   1.067  1.00  0.00     0.040 A 
ATOM     45  C   UNL     1       7.950 -10.635   2.550  1.00  0.00     0.040 A 
ATOM     46  F   UNL     1       7.156  -9.807   4.597  1.00  0.00    -0.206 F 
ATOM     47  C   UNL     1       8.623 -10.441   1.345  1.00  0.00     0.006 A 
ENDBRANCH  26  40
BRANCH  27  48
ATOM     48  C   UNL     1       7.108  -0.344   9.156  1.00  0.00     0.057 A 
ATOM     49  C   UNL     1       8.147   0.572   9.359  1.00  0.00     0.134 A 
ATOM     50  C   UNL     1       5.900  -0.101   9.825  1.00  0.00     0.134 A 
ATOM     51  F   UNL     1       9.335   0.388   8.766  1.00  0.00    -0.206 F 
ATOM     52  C   UNL     1       7.997   1.673  10.206  1.00  0.00     0.040 A 
ATOM     53  C   UNL     1       5.727   1.010  10.651  1.00  0.00     0.040 A 
ATOM     54  F   UNL     1       4.863  -0.938   9.674  1.00  0.00    -0.206 F 
ATOM     55  C   UNL     1       6.782   1.897  10.850  1.00  0.00     0.006 A 
ENDBRANCH  27  48
BRANCH  39  56
ATOM     56  C   UNL     1      10.938  -6.135   9.603  1.00  0.00     0.057 A 
ATOM     57  C   UNL     1      10.484  -6.617  10.837  1.00  0.00     0.134 A 
ATOM     58  C   UNL     1      12.317  -6.145   9.366  1.00  0.00     0.134 A 
ATOM     59  F   UNL     1       9.174  -6.617  11.126  1.00  0.00    -0.206 F 
ATOM     60  C   UNL     1      11.373  -7.072  11.810  1.00  0.00     0.040 A 
ATOM     61  C   UNL     1      13.214  -6.620  10.322  1.00  0.00     0.040 A 
ATOM     62  F   UNL     1      12.812  -5.702   8.200  1.00  0.00    -0.206 F 
ATOM     63  C   UNL     1      12.742  -7.079  11.551  1.00  0.00     0.006 A 
ENDBRANCH  39  56
ENDBRANCH  13  14
ENDBRANCH   6   8
ENDBRANCH   5   6
ENDBRANCH   4   5
ENDBRANCH   3   4
ENDBRANCH   2   3
ENDBRANCH   1   2
BRANCH   1  64
ATOM     64  C   UNL     1       2.726   3.634   1.330  1.00  0.00     0.261 C 
BRANCH  64  65
ATOM     65  O   UNL     1       3.125   4.648   0.394  1.00  0.00    -0.460 OA
BRANCH  65  66
ATOM     66  C   UNL     1       4.415   5.051   0.477  1.00  0.00     0.339 C 
ATOM     67  O   UNL     1       5.181   4.925   1.418  1.00  0.00    -0.246 OA
BRANCH  66  68
ATOM     68  C   UNL     1       4.848   5.328  -0.902  1.00  0.00     0.078 A 
ATOM     69  C   UNL     1       5.855   4.492  -1.388  1.00  0.00     0.019 A 
ATOM     70  C   UNL     1       4.197   6.206  -1.770  1.00  0.00     0.057 A 
ATOM     71  C   UNL     1       6.132   4.460  -2.752  1.00  0.00     0.028 A 
ATOM     72  C   UNL     1       4.506   6.188  -3.139  1.00  0.00     0.048 A 
ATOM     73  Cl  UNL     1       2.998   7.320  -1.221  1.00  0.00    -0.083 Cl
ATOM     74  C   UNL     1       5.460   5.297  -3.641  1.00  0.00     0.050 A 
BRANCH  74  75
ATOM     75  N   UNL     1       5.593   5.163  -5.055  1.00  0.00    -0.280 N 
ATOM     76  H   UNL     1       4.775   5.094  -5.599  1.00  0.00     0.180 HD
BRANCH  75  77
ATOM     77  S   UNL     1       7.087   5.118  -5.838  1.00  0.00     0.261 S 
ATOM     78  O   UNL     1       6.795   5.122  -7.255  1.00  0.00    -0.201 OA
ATOM     79  O   UNL     1       7.938   6.123  -5.240  1.00  0.00    -0.201 OA
BRANCH  77  80
ATOM     80  C   UNL     1       7.726   3.508  -5.441  1.00  0.00     0.088 A 
ATOM     81  C   UNL     1       7.002   2.364  -5.828  1.00  0.00     0.022 A 
ATOM     82  C   UNL     1       8.851   3.415  -4.612  1.00  0.00     0.026 A 
ATOM     83  C   UNL     1       7.362   1.110  -5.327  1.00  0.00     0.005 A 
ATOM     84  C   UNL     1       9.172   2.170  -4.102  1.00  0.00    -0.043 A 
ATOM     85  C   UNL     1       8.433   1.033  -4.449  1.00  0.00    -0.045 A 
ATOM     86  C   UNL     1      10.193   1.851  -3.055  1.00  0.00     0.036 C 
ATOM     87  C   UNL     1       8.909  -0.161  -3.678  1.00  0.00     0.036 C 
ATOM     88  C   UNL     1      10.276   0.324  -3.172  1.00  0.00     0.010 C 
ENDBRANCH  77  80
ENDBRANCH  75  77
ENDBRANCH  74  75
ENDBRANCH  66  68
ENDBRANCH  65  66
ENDBRANCH  64  65
ENDBRANCH   1  64
TORSDOF 17
