REMARK SMILES Cc1ccc(NC(=O)C[C@H]2SC[C@H](C(=O)OCCOCCOC(=O)c3ccc(-c4c5nc(c(-c6c(F)cccc6F)c6ccc([nH]6)c(-c6c(F)cccc6F)c6nc(c(-c7c(F)cccc7F)c7ccc4[nH]7)C=C6)C=C5)cc3)NC2=O)cc1
REMARK SMILES IDX 18 1 17 2 16 3 14 4 15 5 13 6 10 7 11 8 80 9 12 10 79 11
REMARK SMILES IDX 81 12 9 14 7 15 6 16 8 18 5 19 1 20 2 21 3 22 83 23 4 24
REMARK SMILES IDX 82 25 19 26 20 27 21 28 22 29 23 30 24 31 25 32 26 33 78 34
REMARK SMILES IDX 27 35 77 36 28 37 29 38 30 39 71 40 31 41 76 42 70 43 72 44
REMARK SMILES IDX 32 45 75 46 69 47 68 48 33 50 59 51 42 52 58 53 43 54 46 55
REMARK SMILES IDX 57 56 73 57 44 58 45 59 56 61 74 62 47 63 34 64 35 65 40 66
REMARK SMILES IDX 36 67 37 68 39 69 41 70 38 71 60 72 61 73 66 74 62 75 63 76
REMARK SMILES IDX 65 77 67 78 64 79 48 80 49 81 54 82 50 83 51 84 53 85 55 86
REMARK SMILES IDX 52 87
REMARK H PARENT 79 13 6 17 72 49 46 60
REMARK Flexibility Score: inf
ROOT
ATOM      1  C   UNL     1      -7.148  -2.043  -3.677  1.00  0.00     0.202 C 
ENDROOT
BRANCH   1   2
ATOM      2  C   UNL     1      -6.971  -3.277  -2.841  1.00  0.00     0.261 C 
BRANCH   2   3
ATOM      3  O   UNL     1      -5.582  -3.481  -2.561  1.00  0.00    -0.462 OA
BRANCH   3   4
ATOM      4  C   UNL     1      -4.812  -3.944  -3.592  1.00  0.00     0.329 C 
ATOM      5  O   UNL     1      -5.144  -4.788  -4.411  1.00  0.00    -0.250 OA
BRANCH   4   6
ATOM      6  C   UNL     1      -3.427  -3.346  -3.497  1.00  0.00     0.202 C 
ATOM      7  C   UNL     1      -1.301  -2.526  -1.568  1.00  0.00     0.145 C 
ATOM      8  S   UNL     1      -1.888  -1.186  -2.681  1.00  0.00    -0.145 SA
ATOM      9  C   UNL     1      -1.338  -3.869  -2.317  1.00  0.00     0.234 C 
ATOM     10  C   UNL     1      -3.519  -1.903  -2.988  1.00  0.00     0.107 C 
ATOM     11  N   UNL     1      -2.574  -4.262  -2.760  1.00  0.00    -0.341 N 
ATOM     12  O   UNL     1      -0.392  -4.630  -2.483  1.00  0.00    -0.274 OA
ATOM     13  H   UNL     1      -2.887  -5.176  -2.575  1.00  0.00     0.164 HD
BRANCH   7  14
ATOM     14  C   UNL     1       0.007  -2.122  -0.898  1.00  0.00     0.124 C 
BRANCH  14  15
ATOM     15  C   UNL     1       0.949  -3.254  -0.568  1.00  0.00     0.226 C 
ATOM     16  N   UNL     1       0.565  -4.355   0.132  1.00  0.00    -0.326 N 
ATOM     17  H   UNL     1       1.223  -5.086   0.084  1.00  0.00     0.169 HD
ATOM     18  O   UNL     1       2.114  -3.207  -0.979  1.00  0.00    -0.275 OA
BRANCH  16  19
ATOM     19  C   UNL     1      -0.557  -4.685   0.906  1.00  0.00     0.041 A 
ATOM     20  C   UNL     1      -3.787  -6.006   3.454  1.00  0.00     0.044 C 
ATOM     21  C   UNL     1      -2.688  -5.559   2.536  1.00  0.00    -0.051 A 
ATOM     22  C   UNL     1      -2.456  -4.195   2.329  1.00  0.00     0.005 A 
ATOM     23  C   UNL     1      -1.857  -6.486   1.906  1.00  0.00     0.005 A 
ATOM     24  C   UNL     1      -1.391  -3.761   1.529  1.00  0.00     0.026 A 
ATOM     25  C   UNL     1      -0.799  -6.050   1.105  1.00  0.00     0.026 A 
ENDBRANCH  16  19
ENDBRANCH  14  15
ENDBRANCH   7  14
ENDBRANCH   4   6
ENDBRANCH   3   4
ENDBRANCH   2   3
ENDBRANCH   1   2
BRANCH   1  26
ATOM     26  O   UNL     1      -6.735  -2.417  -4.984  1.00  0.00    -0.374 OA
BRANCH  26  27
ATOM     27  C   UNL     1      -6.874  -1.434  -5.993  1.00  0.00     0.202 C 
BRANCH  27  28
ATOM     28  C   UNL     1      -8.292  -0.858  -6.109  1.00  0.00     0.261 C 
BRANCH  28  29
ATOM     29  O   UNL     1      -9.216  -1.913  -6.452  1.00  0.00    -0.460 OA
BRANCH  29  30
ATOM     30  C   UNL     1     -10.004  -2.388  -5.450  1.00  0.00     0.338 C 
ATOM     31  O   UNL     1     -10.617  -1.700  -4.642  1.00  0.00    -0.246 OA
BRANCH  30  32
ATOM     32  C   UNL     1      -9.755  -3.848  -5.267  1.00  0.00     0.060 A 
ATOM     33  C   UNL     1     -10.224  -4.506  -4.112  1.00  0.00     0.016 A 
ATOM     34  C   UNL     1      -8.780  -4.451  -6.057  1.00  0.00     0.016 A 
ATOM     35  C   UNL     1      -9.603  -5.686  -3.668  1.00  0.00     0.010 A 
ATOM     36  C   UNL     1      -8.108  -5.550  -5.563  1.00  0.00     0.010 A 
ATOM     37  C   UNL     1      -8.486  -6.159  -4.354  1.00  0.00    -0.014 A 
BRANCH  37  38
ATOM     38  C   UNL     1      -7.543  -7.181  -3.879  1.00  0.00     0.031 A 
ATOM     39  C   UNL     1      -7.322  -8.377  -4.721  1.00  0.00     0.074 A 
ATOM     40  C   UNL     1      -6.670  -6.923  -2.871  1.00  0.00     0.049 A 
ATOM     41  N   UNL     1      -6.642  -9.402  -4.344  1.00  0.00    -0.248 NA
ATOM     42  C   UNL     1      -7.886  -8.551  -6.057  1.00  0.00     0.031 C 
ATOM     43  C   UNL     1      -5.370  -7.551  -2.617  1.00  0.00     0.029 A 
ATOM     44  N   UNL     1      -6.771  -6.006  -1.819  1.00  0.00    -0.354 N 
ATOM     45  C   UNL     1      -6.361 -10.156  -5.458  1.00  0.00     0.074 A 
ATOM     46  C   UNL     1      -7.287  -9.677  -6.450  1.00  0.00     0.031 C 
ATOM     47  C   UNL     1      -4.957  -7.249  -1.374  1.00  0.00     0.029 A 
ATOM     48  C   UNL     1      -6.028  -6.507  -0.739  1.00  0.00     0.049 A 
ATOM     49  H   UNL     1      -7.275  -5.160  -1.833  1.00  0.00     0.167 HD
ATOM     50  C   UNL     1      -5.276 -10.983  -5.411  1.00  0.00     0.037 A 
ATOM     51  C   UNL     1      -6.624  -6.763   0.454  1.00  0.00     0.037 A 
ATOM     52  C   UNL     1      -4.727 -11.024  -4.037  1.00  0.00     0.049 A 
ATOM     53  C   UNL     1      -6.538  -8.236   0.717  1.00  0.00     0.074 A 
ATOM     54  C   UNL     1      -3.558 -10.559  -3.456  1.00  0.00     0.029 A 
ATOM     55  N   UNL     1      -5.573 -11.360  -2.974  1.00  0.00    -0.354 N 
ATOM     56  N   UNL     1      -6.375  -9.104  -0.247  1.00  0.00    -0.248 NA
ATOM     57  C   UNL     1      -6.481  -8.848   2.038  1.00  0.00     0.031 C 
ATOM     58  C   UNL     1      -3.740 -10.556  -2.041  1.00  0.00     0.029 A 
ATOM     59  C   UNL     1      -5.006 -11.045  -1.753  1.00  0.00     0.049 A 
ATOM     60  H   UNL     1      -6.462 -11.770  -3.081  1.00  0.00     0.167 HD
ATOM     61  C   UNL     1      -6.067 -10.319   0.282  1.00  0.00     0.074 A 
ATOM     62  C   UNL     1      -6.199 -10.125   1.717  1.00  0.00     0.031 C 
ATOM     63  C   UNL     1      -5.681 -11.372  -0.495  1.00  0.00     0.037 A 
BRANCH  50  64
ATOM     64  C   UNL     1      -4.573 -11.606  -6.616  1.00  0.00     0.057 A 
ATOM     65  C   UNL     1      -3.368 -12.322  -6.448  1.00  0.00     0.134 A 
ATOM     66  C   UNL     1      -4.969 -11.504  -7.968  1.00  0.00     0.134 A 
ATOM     67  F   UNL     1      -2.839 -12.534  -5.236  1.00  0.00    -0.206 F 
ATOM     68  C   UNL     1      -2.628 -12.861  -7.517  1.00  0.00     0.040 A 
ATOM     69  C   UNL     1      -4.251 -12.055  -9.042  1.00  0.00     0.040 A 
ATOM     70  F   UNL     1      -6.064 -10.856  -8.359  1.00  0.00    -0.206 F 
ATOM     71  C   UNL     1      -3.069 -12.732  -8.822  1.00  0.00     0.006 A 
ENDBRANCH  50  64
BRANCH  51  72
ATOM     72  C   UNL     1      -7.699  -5.773   0.758  1.00  0.00     0.057 A 
ATOM     73  C   UNL     1      -7.281  -4.454   1.044  1.00  0.00     0.134 A 
ATOM     74  C   UNL     1      -9.008  -5.920   0.286  1.00  0.00     0.134 A 
ATOM     75  F   UNL     1      -6.026  -4.222   1.462  1.00  0.00    -0.206 F 
ATOM     76  C   UNL     1      -8.075  -3.335   0.762  1.00  0.00     0.040 A 
ATOM     77  C   UNL     1      -9.809  -4.803  -0.010  1.00  0.00     0.040 A 
ATOM     78  F   UNL     1      -9.483  -7.131  -0.039  1.00  0.00    -0.206 F 
ATOM     79  C   UNL     1      -9.331  -3.508   0.192  1.00  0.00     0.006 A 
ENDBRANCH  51  72
BRANCH  63  80
ATOM     80  C   UNL     1      -5.828 -12.816  -0.092  1.00  0.00     0.057 A 
ATOM     81  C   UNL     1      -6.701 -13.259   0.913  1.00  0.00     0.134 A 
ATOM     82  C   UNL     1      -5.231 -13.841  -0.860  1.00  0.00     0.134 A 
ATOM     83  F   UNL     1      -7.432 -12.410   1.646  1.00  0.00    -0.206 F 
ATOM     84  C   UNL     1      -6.918 -14.616   1.175  1.00  0.00     0.040 A 
ATOM     85  C   UNL     1      -5.495 -15.195  -0.652  1.00  0.00     0.040 A 
ATOM     86  F   UNL     1      -4.396 -13.578  -1.875  1.00  0.00    -0.206 F 
ATOM     87  C   UNL     1      -6.330 -15.588   0.380  1.00  0.00     0.006 A 
ENDBRANCH  63  80
ENDBRANCH  37  38
ENDBRANCH  30  32
ENDBRANCH  29  30
ENDBRANCH  28  29
ENDBRANCH  27  28
ENDBRANCH  26  27
ENDBRANCH   1  26
TORSDOF 17
