REMARK SMILES O=C(OCCOCCOC(=O)c1nccnc1C(=O)Nc1n[nH]c2ncccc12)c1ccc(-c2c3nc(c(-c4c(F)cccc4F)c4ccc([nH]4)c(-c4c(F)cccc4F)c4nc(c(-c5c(F)cccc5F)c5ccc2[nH]5)C=C4)C=C3)cc1
REMARK SMILES IDX 6 1 5 2 4 3 3 4 2 5 1 6 30 7 31 8 83 9 32 10 82 11 33 12
REMARK SMILES IDX 34 13 35 14 76 15 36 16 81 17 75 18 77 19 37 20 80 21 74 22
REMARK SMILES IDX 73 23 38 25 64 26 47 27 63 28 48 29 51 30 62 31 78 32 49 33
REMARK SMILES IDX 50 34 61 36 79 37 52 38 39 39 40 40 45 41 41 42 42 43 44 44
REMARK SMILES IDX 46 45 43 46 65 47 66 48 71 49 67 50 68 51 70 52 72 53 69 54
REMARK SMILES IDX 53 55 54 56 59 57 55 58 56 59 58 60 60 61 57 62 7 63 8 64
REMARK SMILES IDX 9 65 10 66 11 67 12 68 13 69 17 70 14 71 16 72 15 73 18 74
REMARK SMILES IDX 19 75 20 76 21 78 22 79 29 80 23 81 24 82 28 83 25 85 27 86
REMARK SMILES IDX 26 87
REMARK H PARENT 77 24 51 35 20 77 23 84
REMARK Flexibility Score: inf
ROOT
ATOM      1  O   UNL     1       4.056   0.872  -0.052  1.00  0.00    -0.374 OA
ENDROOT
BRANCH   1   2
ATOM      2  C   UNL     1       4.156   0.573  -1.433  1.00  0.00     0.202 C 
BRANCH   2   3
ATOM      3  C   UNL     1       3.519  -0.742  -1.882  1.00  0.00     0.261 C 
BRANCH   3   4
ATOM      4  O   UNL     1       2.148  -0.840  -1.450  1.00  0.00    -0.460 OA
BRANCH   4   5
ATOM      5  C   UNL     1       1.664  -1.759  -0.573  1.00  0.00     0.338 C 
ATOM      6  O   UNL     1       0.456  -1.949  -0.478  1.00  0.00    -0.246 OA
BRANCH   5   7
ATOM      7  C   UNL     1       2.578  -2.513   0.327  1.00  0.00     0.060 A 
ATOM      8  C   UNL     1       3.666  -1.907   0.942  1.00  0.00     0.016 A 
ATOM      9  C   UNL     1       2.295  -3.837   0.660  1.00  0.00     0.016 A 
ATOM     10  C   UNL     1       4.536  -2.580   1.758  1.00  0.00     0.010 A 
ATOM     11  C   UNL     1       3.119  -4.518   1.568  1.00  0.00     0.010 A 
ATOM     12  C   UNL     1       4.252  -3.885   2.107  1.00  0.00    -0.014 A 
BRANCH  12  13
ATOM     13  C   UNL     1       5.279  -4.558   2.913  1.00  0.00     0.031 A 
ATOM     14  C   UNL     1       6.103  -5.604   2.238  1.00  0.00     0.074 A 
ATOM     15  C   UNL     1       5.601  -4.070   4.127  1.00  0.00     0.049 A 
ATOM     16  N   UNL     1       6.992  -6.408   2.745  1.00  0.00    -0.248 NA
ATOM     17  C   UNL     1       5.903  -5.759   0.784  1.00  0.00     0.031 C 
ATOM     18  C   UNL     1       4.978  -2.903   4.769  1.00  0.00     0.029 A 
ATOM     19  N   UNL     1       6.568  -4.451   5.016  1.00  0.00    -0.354 N 
ATOM     20  C   UNL     1       7.418  -7.198   1.688  1.00  0.00     0.074 A 
ATOM     21  C   UNL     1       6.693  -6.783   0.510  1.00  0.00     0.031 C 
ATOM     22  C   UNL     1       5.601  -2.651   5.931  1.00  0.00     0.029 A 
ATOM     23  C   UNL     1       6.582  -3.699   6.167  1.00  0.00     0.049 A 
ATOM     24  H   UNL     1       7.193  -5.193   4.848  1.00  0.00     0.167 HD
ATOM     25  C   UNL     1       8.332  -8.191   1.720  1.00  0.00     0.037 A 
ATOM     26  C   UNL     1       7.272  -3.889   7.306  1.00  0.00     0.037 A 
ATOM     27  C   UNL     1       9.039  -8.551   2.918  1.00  0.00     0.049 A 
ATOM     28  C   UNL     1       8.187  -5.083   7.356  1.00  0.00     0.074 A 
ATOM     29  C   UNL     1       9.905  -9.603   3.135  1.00  0.00     0.029 A 
ATOM     30  N   UNL     1       8.960  -7.837   4.108  1.00  0.00    -0.354 N 
ATOM     31  N   UNL     1       8.481  -5.938   6.402  1.00  0.00    -0.248 NA
ATOM     32  C   UNL     1       8.843  -5.358   8.637  1.00  0.00     0.031 C 
ATOM     33  C   UNL     1      10.318  -9.549   4.471  1.00  0.00     0.029 A 
ATOM     34  C   UNL     1       9.755  -8.430   5.069  1.00  0.00     0.049 A 
ATOM     35  H   UNL     1       8.417  -7.027   4.246  1.00  0.00     0.167 HD
ATOM     36  C   UNL     1       9.367  -6.845   6.963  1.00  0.00     0.074 A 
ATOM     37  C   UNL     1       9.586  -6.412   8.331  1.00  0.00     0.031 C 
ATOM     38  C   UNL     1       9.940  -7.946   6.415  1.00  0.00     0.037 A 
BRANCH  25  39
ATOM     39  C   UNL     1       8.523  -8.978   0.461  1.00  0.00     0.057 A 
ATOM     40  C   UNL     1       9.157  -8.446  -0.669  1.00  0.00     0.134 A 
ATOM     41  C   UNL     1       8.001 -10.274   0.358  1.00  0.00     0.134 A 
ATOM     42  F   UNL     1       9.637  -7.193  -0.652  1.00  0.00    -0.206 F 
ATOM     43  C   UNL     1       9.244  -9.165  -1.863  1.00  0.00     0.040 A 
ATOM     44  C   UNL     1       8.106 -11.013  -0.822  1.00  0.00     0.040 A 
ATOM     45  F   UNL     1       7.363 -10.836   1.395  1.00  0.00    -0.206 F 
ATOM     46  C   UNL     1       8.722 -10.455  -1.940  1.00  0.00     0.006 A 
ENDBRANCH  25  39
BRANCH  26  47
ATOM     47  C   UNL     1       7.046  -3.027   8.499  1.00  0.00     0.057 A 
ATOM     48  C   UNL     1       8.082  -2.289   9.084  1.00  0.00     0.134 A 
ATOM     49  C   UNL     1       5.793  -2.967   9.127  1.00  0.00     0.134 A 
ATOM     50  F   UNL     1       9.313  -2.314   8.551  1.00  0.00    -0.206 F 
ATOM     51  C   UNL     1       7.891  -1.557  10.259  1.00  0.00     0.040 A 
ATOM     52  C   UNL     1       5.578  -2.211  10.280  1.00  0.00     0.040 A 
ATOM     53  F   UNL     1       4.750  -3.648   8.628  1.00  0.00    -0.206 F 
ATOM     54  C   UNL     1       6.634  -1.515  10.860  1.00  0.00     0.006 A 
ENDBRANCH  26  47
BRANCH  38  55
ATOM     55  C   UNL     1      10.880  -8.712   7.294  1.00  0.00     0.057 A 
ATOM     56  C   UNL     1      10.424  -9.478   8.373  1.00  0.00     0.134 A 
ATOM     57  C   UNL     1      12.255  -8.702   7.034  1.00  0.00     0.134 A 
ATOM     58  F   UNL     1       9.117  -9.514   8.679  1.00  0.00    -0.206 F 
ATOM     59  C   UNL     1      11.310 -10.181   9.187  1.00  0.00     0.040 A 
ATOM     60  C   UNL     1      13.147  -9.429   7.819  1.00  0.00     0.040 A 
ATOM     61  F   UNL     1      12.750  -7.996   6.006  1.00  0.00    -0.206 F 
ATOM     62  C   UNL     1      12.675 -10.164   8.905  1.00  0.00     0.006 A 
ENDBRANCH  38  55
ENDBRANCH  12  13
ENDBRANCH   5   7
ENDBRANCH   4   5
ENDBRANCH   3   4
ENDBRANCH   2   3
ENDBRANCH   1   2
BRANCH   1  63
ATOM     63  C   UNL     1       2.800   1.255   0.510  1.00  0.00     0.202 C 
BRANCH  63  64
ATOM     64  C   UNL     1       3.003   2.105   1.986  1.00  0.00     0.261 C 
BRANCH  64  65
ATOM     65  O   UNL     1       4.052   3.920   2.305  1.00  0.00    -0.458 OA
BRANCH  65  66
ATOM     66  C   UNL     1       4.970   4.989   2.109  1.00  0.00     0.359 C 
ATOM     67  O   UNL     1       5.266   5.726   3.046  1.00  0.00    -0.244 OA
BRANCH  66  68
ATOM     68  C   UNL     1       5.485   5.302   0.717  1.00  0.00     0.179 A 
ATOM     69  N   UNL     1       5.054   6.534   0.287  1.00  0.00    -0.245 NA
ATOM     70  C   UNL     1       6.191   4.455  -0.150  1.00  0.00     0.161 A 
ATOM     71  C   UNL     1       5.324   6.867  -0.993  1.00  0.00     0.132 A 
ATOM     72  N   UNL     1       6.444   4.814  -1.452  1.00  0.00    -0.247 NA
ATOM     73  C   UNL     1       6.001   6.024  -1.847  1.00  0.00     0.132 A 
BRANCH  70  74
ATOM     74  C   UNL     1       6.739   3.096   0.165  1.00  0.00     0.278 C 
ATOM     75  O   UNL     1       7.767   2.692  -0.377  1.00  0.00    -0.267 OA
ATOM     76  N   UNL     1       6.123   2.314   1.087  1.00  0.00    -0.303 N 
ATOM     77  H   UNL     1       6.607   1.532   1.438  1.00  0.00     0.172 HD
BRANCH  76  78
ATOM     78  C   UNL     1       4.867   2.559   1.550  1.00  0.00     0.164 A 
ATOM     79  N   UNL     1       4.551   2.461   3.246  1.00  0.00    -0.155 NA
ATOM     80  C   UNL     1       3.390   3.558   0.673  1.00  0.00     0.063 A 
ATOM     81  N   UNL     1       2.946   3.352   3.541  1.00  0.00    -0.259 N 
ATOM     82  C   UNL     1       2.255   4.009   1.967  1.00  0.00     0.157 A 
ATOM     83  C   UNL     1       2.994   3.956  -0.614  1.00  0.00     0.017 A 
ATOM     84  H   UNL     1       2.522   3.458   4.423  1.00  0.00     0.192 HD
ATOM     85  N   UNL     1       1.040   4.528   1.748  1.00  0.00    -0.237 NA
ATOM     86  C   UNL     1       1.685   4.471  -0.705  1.00  0.00     0.021 A 
ATOM     87  C   UNL     1       0.826   4.701   0.409  1.00  0.00     0.113 A 
ENDBRANCH  76  78
ENDBRANCH  70  74
ENDBRANCH  66  68
ENDBRANCH  65  66
ENDBRANCH  64  65
ENDBRANCH  63  64
ENDBRANCH   1  63
TORSDOF 16
