REMARK SMILES CCn1ccc(NC(=O)[C@H]2[C@@H](C(=O)OCCOCCOC(=O)c3ccc(-c4c5nc(c(-c6c(F)cccc6F)c6ccc([nH]6)c(-c6c(F)cccc6F)c6nc(c(-c7c(F)cccc7F)c7ccc4[nH]7)C=C6)C=C5)cc3)[C@H]3C=C[C@@H]2C3)n1
REMARK SMILES IDX 16 1 15 2 14 3 12 4 13 5 11 6 10 7 80 8 77 9 79 10 81 11
REMARK SMILES IDX 78 12 8 13 7 14 9 16 6 17 3 18 4 19 82 20 5 21 2 22 1 23
REMARK SMILES IDX 17 24 18 25 19 26 20 27 21 28 22 29 23 30 24 31 76 32 25 33
REMARK SMILES IDX 75 34 26 35 27 36 28 37 69 38 29 39 74 40 68 41 70 42 30 43
REMARK SMILES IDX 73 44 67 45 66 46 31 48 57 49 40 50 56 51 41 52 44 53 55 54
REMARK SMILES IDX 71 55 42 56 43 57 54 59 72 60 45 61 32 62 33 63 38 64 34 65
REMARK SMILES IDX 35 66 37 67 39 68 36 69 58 70 59 71 64 72 60 73 61 74 63 75
REMARK SMILES IDX 65 76 62 77 46 78 47 79 52 80 48 81 49 82 51 83 53 84 50 85
REMARK H PARENT 7 15 70 47 44 58
REMARK Flexibility Score: inf
ROOT
ATOM      1  C   UNL     1      -2.135   9.768  -3.413  1.00  0.00     0.202 C 
ENDROOT
BRANCH   1   2
ATOM      2  C   UNL     1      -1.419   9.336  -2.125  1.00  0.00     0.261 C 
BRANCH   2   3
ATOM      3  O   UNL     1       0.010   9.174  -2.170  1.00  0.00    -0.463 OA
BRANCH   3   4
ATOM      4  C   UNL     1       0.354   7.877  -2.323  1.00  0.00     0.310 C 
ATOM      5  O   UNL     1      -0.433   7.009  -2.696  1.00  0.00    -0.252 OA
BRANCH   4   6
ATOM      6  C   UNL     1       1.788   7.514  -2.057  1.00  0.00     0.119 C 
ATOM      7  C   UNL     1       1.870   6.292  -1.107  1.00  0.00     0.100 C 
ATOM      8  C   UNL     1       3.192   6.511  -0.344  1.00  0.00     0.025 C 
ATOM      9  C   UNL     1       3.006   8.374  -1.611  1.00  0.00     0.027 C 
ATOM     10  C   UNL     1       3.099   7.676   0.593  1.00  0.00    -0.027 C 
ATOM     11  C   UNL     1       4.029   7.221  -1.432  1.00  0.00     0.017 C 
ATOM     12  C   UNL     1       3.027   8.786  -0.160  1.00  0.00    -0.027 C 
BRANCH   7  13
ATOM     13  C   UNL     1       0.651   5.775  -0.331  1.00  0.00     0.230 C 
ATOM     14  N   UNL     1      -0.096   6.380   0.616  1.00  0.00    -0.309 N 
ATOM     15  H   UNL     1      -0.752   5.747   0.986  1.00  0.00     0.171 HD
ATOM     16  O   UNL     1       0.332   4.591  -0.549  1.00  0.00    -0.274 OA
BRANCH  14  17
ATOM     17  C   UNL     1      -0.225   7.601   1.223  1.00  0.00     0.154 A 
ATOM     18  N   UNL     1      -0.845   8.923   2.774  1.00  0.00    -0.271 N 
ATOM     19  C   UNL     1      -0.122   9.709   1.938  1.00  0.00     0.111 A 
ATOM     20  N   UNL     1      -0.951   7.651   2.350  1.00  0.00    -0.155 NA
ATOM     21  C   UNL     1       0.216   8.890   0.892  1.00  0.00     0.068 A 
BRANCH  18  22
ATOM     22  C   UNL     1      -1.507   9.367   3.985  1.00  0.00     0.141 C 
ATOM     23  C   UNL     1      -2.987   9.615   3.760  1.00  0.00     0.029 C 
ENDBRANCH  18  22
ENDBRANCH  14  17
ENDBRANCH   7  13
ENDBRANCH   4   6
ENDBRANCH   3   4
ENDBRANCH   2   3
ENDBRANCH   1   2
BRANCH   1  24
ATOM     24  O   UNL     1      -1.714   9.341  -4.699  1.00  0.00    -0.374 OA
BRANCH  24  25
ATOM     25  C   UNL     1      -0.368   9.469  -5.132  1.00  0.00     0.202 C 
BRANCH  25  26
ATOM     26  C   UNL     1       0.276  10.847  -5.204  1.00  0.00     0.261 C 
BRANCH  26  27
ATOM     27  O   UNL     1       0.157  11.559  -3.983  1.00  0.00    -0.460 OA
BRANCH  27  28
ATOM     28  C   UNL     1      -0.828  12.477  -3.985  1.00  0.00     0.338 C 
ATOM     29  O   UNL     1      -1.663  12.667  -4.870  1.00  0.00    -0.246 OA
BRANCH  28  30
ATOM     30  C   UNL     1      -0.705  13.334  -2.804  1.00  0.00     0.060 A 
ATOM     31  C   UNL     1      -1.596  14.410  -2.762  1.00  0.00     0.016 A 
ATOM     32  C   UNL     1       0.512  13.338  -2.110  1.00  0.00     0.016 A 
ATOM     33  C   UNL     1      -1.110  15.621  -2.337  1.00  0.00     0.010 A 
ATOM     34  C   UNL     1       1.007  14.554  -1.714  1.00  0.00     0.010 A 
ATOM     35  C   UNL     1       0.229  15.688  -1.950  1.00  0.00    -0.014 A 
BRANCH  35  36
ATOM     36  C   UNL     1       0.844  16.995  -1.918  1.00  0.00     0.031 A 
ATOM     37  C   UNL     1       0.701  17.722  -0.644  1.00  0.00     0.074 A 
ATOM     38  C   UNL     1       1.603  17.422  -2.946  1.00  0.00     0.049 A 
ATOM     39  N   UNL     1       0.171  18.879  -0.431  1.00  0.00    -0.248 NA
ATOM     40  C   UNL     1       1.122  17.009   0.571  1.00  0.00     0.031 C 
ATOM     41  C   UNL     1       2.084  16.643  -4.094  1.00  0.00     0.029 A 
ATOM     42  N   UNL     1       2.217  18.623  -3.108  1.00  0.00    -0.354 N 
ATOM     43  C   UNL     1       0.352  19.118   0.927  1.00  0.00     0.074 A 
ATOM     44  C   UNL     1       0.782  17.879   1.516  1.00  0.00     0.031 C 
ATOM     45  C   UNL     1       3.085  17.322  -4.697  1.00  0.00     0.029 A 
ATOM     46  C   UNL     1       3.234  18.614  -4.047  1.00  0.00     0.049 A 
ATOM     47  H   UNL     1       1.961  19.428  -2.602  1.00  0.00     0.167 HD
ATOM     48  C   UNL     1       0.370  20.376   1.438  1.00  0.00     0.037 A 
ATOM     49  C   UNL     1       4.190  19.563  -4.194  1.00  0.00     0.037 A 
ATOM     50  C   UNL     1      -0.268  21.321   0.563  1.00  0.00     0.049 A 
ATOM     51  C   UNL     1       3.737  20.782  -3.476  1.00  0.00     0.074 A 
ATOM     52  C   UNL     1      -1.538  21.453   0.035  1.00  0.00     0.029 A 
ATOM     53  N   UNL     1       0.526  22.174  -0.161  1.00  0.00    -0.354 N 
ATOM     54  N   UNL     1       2.750  21.545  -3.855  1.00  0.00    -0.248 NA
ATOM     55  C   UNL     1       4.142  20.937  -2.085  1.00  0.00     0.031 C 
ATOM     56  C   UNL     1      -1.352  22.028  -1.255  1.00  0.00     0.029 A 
ATOM     57  C   UNL     1       0.019  22.218  -1.433  1.00  0.00     0.049 A 
ATOM     58  H   UNL     1       1.313  22.663   0.171  1.00  0.00     0.167 HD
ATOM     59  C   UNL     1       2.157  21.978  -2.677  1.00  0.00     0.074 A 
ATOM     60  C   UNL     1       3.118  21.661  -1.627  1.00  0.00     0.031 C 
ATOM     61  C   UNL     1       0.830  22.294  -2.626  1.00  0.00     0.037 A 
BRANCH  48  62
ATOM     62  C   UNL     1       1.265  20.786   2.577  1.00  0.00     0.057 A 
ATOM     63  C   UNL     1       1.084  22.043   3.176  1.00  0.00     0.134 A 
ATOM     64  C   UNL     1       2.458  20.118   2.931  1.00  0.00     0.134 A 
ATOM     65  F   UNL     1       0.006  22.790   2.895  1.00  0.00    -0.206 F 
ATOM     66  C   UNL     1       2.041  22.613   4.023  1.00  0.00     0.040 A 
ATOM     67  C   UNL     1       3.390  20.651   3.824  1.00  0.00     0.040 A 
ATOM     68  F   UNL     1       2.836  18.966   2.363  1.00  0.00    -0.206 F 
ATOM     69  C   UNL     1       3.198  21.917   4.350  1.00  0.00     0.006 A 
ENDBRANCH  48  62
BRANCH  49  70
ATOM     70  C   UNL     1       5.587  19.380  -4.646  1.00  0.00     0.057 A 
ATOM     71  C   UNL     1       6.354  20.465  -5.088  1.00  0.00     0.134 A 
ATOM     72  C   UNL     1       6.286  18.177  -4.433  1.00  0.00     0.134 A 
ATOM     73  F   UNL     1       5.790  21.668  -5.269  1.00  0.00    -0.206 F 
ATOM     74  C   UNL     1       7.735  20.363  -5.302  1.00  0.00     0.040 A 
ATOM     75  C   UNL     1       7.660  18.056  -4.658  1.00  0.00     0.040 A 
ATOM     76  F   UNL     1       5.676  17.099  -3.919  1.00  0.00    -0.206 F 
ATOM     77  C   UNL     1       8.393  19.155  -5.084  1.00  0.00     0.006 A 
ENDBRANCH  49  70
BRANCH  61  78
ATOM     78  C   UNL     1       0.096  22.432  -3.928  1.00  0.00     0.057 A 
ATOM     79  C   UNL     1      -0.132  21.358  -4.800  1.00  0.00     0.134 A 
ATOM     80  C   UNL     1      -0.540  23.641  -4.228  1.00  0.00     0.134 A 
ATOM     81  F   UNL     1       0.350  20.137  -4.533  1.00  0.00    -0.206 F 
ATOM     82  C   UNL     1      -0.923  21.494  -5.944  1.00  0.00     0.040 A 
ATOM     83  C   UNL     1      -1.358  23.782  -5.351  1.00  0.00     0.040 A 
ATOM     84  F   UNL     1      -0.418  24.693  -3.402  1.00  0.00    -0.206 F 
ATOM     85  C   UNL     1      -1.544  22.709  -6.219  1.00  0.00     0.006 A 
ENDBRANCH  61  78
ENDBRANCH  35  36
ENDBRANCH  28  30
ENDBRANCH  27  28
ENDBRANCH  26  27
ENDBRANCH  25  26
ENDBRANCH  24  25
ENDBRANCH   1  24
TORSDOF 17
