REMARK SMILES O=C(C[C@H]1C[C@H]2CC[C@@H](C1)N2C(=O)NCCC1CC1)OCCOCCOC(=O)c1ccc(-c2c3nc(c(-c4c(F)cccc4F)c4ccc([nH]4)c(-c4c(F)cccc4F)c4nc(c(-c5c(F)cccc5F)c5ccc2[nH]5)C=C4)C=C3)cc1
REMARK SMILES IDX 21 1 20 2 2 3 1 4 3 5 4 6 5 7 10 8 6 9 9 10 7 11 11 12 8 13
REMARK SMILES IDX 12 14 13 15 14 16 15 18 16 19 17 20 18 21 19 22 22 23 23 24
REMARK SMILES IDX 24 25 25 26 26 27 27 28 28 29 29 30 30 31 82 32 31 33 81 34
REMARK SMILES IDX 32 35 33 36 34 37 75 38 35 39 80 40 74 41 76 42 36 43 79 44
REMARK SMILES IDX 73 45 72 46 37 48 63 49 46 50 62 51 47 52 50 53 61 54 77 55
REMARK SMILES IDX 48 56 49 57 60 59 78 60 51 61 38 62 39 63 44 64 40 65 41 66
REMARK SMILES IDX 43 67 45 68 42 69 64 70 65 71 70 72 66 73 67 74 69 75 71 76
REMARK SMILES IDX 68 77 52 78 53 79 58 80 54 81 55 82 57 83 59 84 56 85
REMARK H PARENT 14 17 76 47 50 58
REMARK Flexibility Score: inf
ROOT
ATOM      1  C   UNL     1       3.847  -1.188  -0.308  1.00  0.00     0.261 C 
ENDROOT
BRANCH   1   2
ATOM      2  O   UNL     1       2.547  -0.550  -0.394  1.00  0.00    -0.463 OA
BRANCH   2   3
ATOM      3  C   UNL     1       2.096   0.706  -0.572  1.00  0.00     0.306 C 
ATOM      4  O   UNL     1       0.880   0.890  -0.633  1.00  0.00    -0.252 OA
BRANCH   3   5
ATOM      5  C   UNL     1       3.034   1.871  -0.718  1.00  0.00     0.126 C 
BRANCH   5   6
ATOM      6  C   UNL     1       3.715   2.484   0.518  1.00  0.00     0.004 C 
ATOM      7  C   UNL     1       2.926   3.509   1.388  1.00  0.00     0.029 C 
ATOM      8  C   UNL     1       4.411   1.455   1.395  1.00  0.00     0.029 C 
ATOM      9  C   UNL     1       2.486   2.997   2.796  1.00  0.00     0.087 C 
ATOM     10  C   UNL     1       3.576   0.979   2.606  1.00  0.00     0.087 C 
ATOM     11  C   UNL     1       1.353   1.994   2.592  1.00  0.00     0.027 C 
ATOM     12  N   UNL     1       3.550   2.176   3.397  1.00  0.00    -0.319 N 
ATOM     13  C   UNL     1       2.081   0.656   2.533  1.00  0.00     0.027 C 
BRANCH  12  14
ATOM     14  C   UNL     1       4.455   2.616   4.311  1.00  0.00     0.317 C 
ATOM     15  O   UNL     1       4.314   3.700   4.880  1.00  0.00    -0.249 OA
ATOM     16  N   UNL     1       5.566   1.897   4.625  1.00  0.00    -0.338 N 
ATOM     17  H   UNL     1       6.121   2.356   5.297  1.00  0.00     0.165 HD
BRANCH  16  18
ATOM     18  C   UNL     1       6.149   0.615   4.223  1.00  0.00     0.118 C 
BRANCH  18  19
ATOM     19  C   UNL     1       7.652   0.653   3.965  1.00  0.00     0.025 C 
BRANCH  19  20
ATOM     20  C   UNL     1       8.483   0.748   5.203  1.00  0.00    -0.009 C 
ATOM     21  C   UNL     1       9.940   0.368   5.110  1.00  0.00     0.004 C 
ATOM     22  C   UNL     1       9.551   1.804   5.307  1.00  0.00     0.004 C 
ENDBRANCH  19  20
ENDBRANCH  18  19
ENDBRANCH  16  18
ENDBRANCH  12  14
ENDBRANCH   5   6
ENDBRANCH   3   5
ENDBRANCH   2   3
ENDBRANCH   1   2
BRANCH   1  23
ATOM     23  C   UNL     1       4.859  -0.913  -1.421  1.00  0.00     0.202 C 
BRANCH  23  24
ATOM     24  O   UNL     1       4.549  -1.240  -2.772  1.00  0.00    -0.374 OA
BRANCH  24  25
ATOM     25  C   UNL     1       3.212  -1.538  -3.135  1.00  0.00     0.202 C 
BRANCH  25  26
ATOM     26  C   UNL     1       2.848  -3.031  -3.073  1.00  0.00     0.261 C 
BRANCH  26  27
ATOM     27  O   UNL     1       3.290  -3.715  -1.888  1.00  0.00    -0.460 OA
BRANCH  27  28
ATOM     28  C   UNL     1       4.551  -4.212  -1.949  1.00  0.00     0.338 C 
ATOM     29  O   UNL     1       5.306  -4.183  -2.905  1.00  0.00    -0.246 OA
BRANCH  28  30
ATOM     30  C   UNL     1       4.976  -4.722  -0.624  1.00  0.00     0.060 A 
ATOM     31  C   UNL     1       6.265  -4.396  -0.184  1.00  0.00     0.016 A 
ATOM     32  C   UNL     1       4.178  -5.590   0.128  1.00  0.00     0.016 A 
ATOM     33  C   UNL     1       6.790  -4.999   0.959  1.00  0.00     0.010 A 
ATOM     34  C   UNL     1       4.709  -6.205   1.271  1.00  0.00     0.010 A 
ATOM     35  C   UNL     1       6.037  -5.952   1.660  1.00  0.00    -0.014 A 
BRANCH  35  36
ATOM     36  C   UNL     1       6.727  -6.814   2.653  1.00  0.00     0.031 A 
ATOM     37  C   UNL     1       7.231  -8.165   2.212  1.00  0.00     0.074 A 
ATOM     38  C   UNL     1       6.984  -6.376   3.899  1.00  0.00     0.049 A 
ATOM     39  N   UNL     1       7.916  -9.058   2.880  1.00  0.00    -0.248 NA
ATOM     40  C   UNL     1       6.924  -8.558   0.827  1.00  0.00     0.031 C 
ATOM     41  C   UNL     1       6.578  -5.080   4.439  1.00  0.00     0.029 A 
ATOM     42  N   UNL     1       7.658  -6.976   4.933  1.00  0.00    -0.354 N 
ATOM     43  C   UNL     1       8.136 -10.107   1.994  1.00  0.00     0.074 A 
ATOM     44  C   UNL     1       7.473  -9.761   0.756  1.00  0.00     0.031 C 
ATOM     45  C   UNL     1       7.007  -4.984   5.710  1.00  0.00     0.029 A 
ATOM     46  C   UNL     1       7.703  -6.217   6.076  1.00  0.00     0.049 A 
ATOM     47  H   UNL     1       8.070  -7.867   4.862  1.00  0.00     0.167 HD
ATOM     48  C   UNL     1       8.841 -11.248   2.186  1.00  0.00     0.037 A 
ATOM     49  C   UNL     1       8.237  -6.491   7.283  1.00  0.00     0.037 A 
ATOM     50  C   UNL     1       9.489 -11.602   3.421  1.00  0.00     0.049 A 
ATOM     51  C   UNL     1       8.965  -7.794   7.490  1.00  0.00     0.074 A 
ATOM     52  C   UNL     1      10.215 -12.742   3.720  1.00  0.00     0.029 A 
ATOM     53  N   UNL     1       9.482 -10.820   4.566  1.00  0.00    -0.354 N 
ATOM     54  N   UNL     1       9.182  -8.767   6.638  1.00  0.00    -0.248 NA
ATOM     55  C   UNL     1       9.535  -8.029   8.825  1.00  0.00     0.031 C 
ATOM     56  C   UNL     1      10.614 -12.667   5.059  1.00  0.00     0.029 A 
ATOM     57  C   UNL     1      10.179 -11.459   5.579  1.00  0.00     0.049 A 
ATOM     58  H   UNL     1       9.047  -9.941   4.647  1.00  0.00     0.167 HD
ATOM     59  C   UNL     1       9.926  -9.719   7.326  1.00  0.00     0.074 A 
ATOM     60  C   UNL     1      10.146  -9.193   8.657  1.00  0.00     0.031 C 
ATOM     61  C   UNL     1      10.383 -10.922   6.899  1.00  0.00     0.037 A 
BRANCH  48  62
ATOM     62  C   UNL     1       8.936 -12.200   1.029  1.00  0.00     0.057 A 
ATOM     63  C   UNL     1       9.723 -11.917  -0.095  1.00  0.00     0.134 A 
ATOM     64  C   UNL     1       8.258 -13.425   1.050  1.00  0.00     0.134 A 
ATOM     65  F   UNL     1      10.386 -10.754  -0.185  1.00  0.00    -0.206 F 
ATOM     66  C   UNL     1       9.816 -12.809  -1.166  1.00  0.00     0.040 A 
ATOM     67  C   UNL     1       8.362 -14.335  -0.004  1.00  0.00     0.040 A 
ATOM     68  F   UNL     1       7.489 -13.760   2.097  1.00  0.00    -0.206 F 
ATOM     69  C   UNL     1       9.138 -14.025  -1.118  1.00  0.00     0.006 A 
ENDBRANCH  48  62
BRANCH  49  70
ATOM     70  C   UNL     1       8.095  -5.521   8.399  1.00  0.00     0.057 A 
ATOM     71  C   UNL     1       9.197  -4.835   8.921  1.00  0.00     0.134 A 
ATOM     72  C   UNL     1       6.849  -5.282   8.993  1.00  0.00     0.134 A 
ATOM     73  F   UNL     1      10.421  -5.037   8.411  1.00  0.00    -0.206 F 
ATOM     74  C   UNL     1       9.072  -3.964  10.006  1.00  0.00     0.040 A 
ATOM     75  C   UNL     1       6.704  -4.395  10.060  1.00  0.00     0.040 A 
ATOM     76  F   UNL     1       5.752  -5.907   8.540  1.00  0.00    -0.206 F 
ATOM     77  C   UNL     1       7.820  -3.739  10.575  1.00  0.00     0.006 A 
ENDBRANCH  49  70
BRANCH  61  78
ATOM     78  C   UNL     1      11.181 -11.735   7.878  1.00  0.00     0.057 A 
ATOM     79  C   UNL     1      10.586 -12.350   8.987  1.00  0.00     0.134 A 
ATOM     80  C   UNL     1      12.559 -11.915   7.702  1.00  0.00     0.134 A 
ATOM     81  F   UNL     1       9.272 -12.208   9.219  1.00  0.00    -0.206 F 
ATOM     82  C   UNL     1      11.338 -13.084   9.906  1.00  0.00     0.040 A 
ATOM     83  C   UNL     1      13.317 -12.670   8.598  1.00  0.00     0.040 A 
ATOM     84  F   UNL     1      13.191 -11.364   6.654  1.00  0.00    -0.206 F 
ATOM     85  C   UNL     1      12.708 -13.248   9.710  1.00  0.00     0.006 A 
ENDBRANCH  61  78
ENDBRANCH  35  36
ENDBRANCH  28  30
ENDBRANCH  27  28
ENDBRANCH  26  27
ENDBRANCH  25  26
ENDBRANCH  24  25
ENDBRANCH  23  24
ENDBRANCH   1  23
TORSDOF 19
