REMARK SMILES CC(C)[NH2+][C@@]1(C(=O)OCCOCCOC(=O)c2ccc(-c3c4nc(c(-c5c(F)cccc5F)c5ccc([nH]5)c(-c5c(F)cccc5F)c5nc(c(-c6c(F)cccc6F)c6ccc3[nH]6)C=C5)C=C4)cc2)CC[C@@H](Sc2cccs2)C1
REMARK SMILES IDX 11 1 10 2 9 3 8 4 6 5 7 6 5 7 71 8 80 9 72 10 73 11 4 12
REMARK SMILES IDX 2 15 1 16 3 17 74 18 75 19 76 20 79 21 77 22 78 23 12 24
REMARK SMILES IDX 13 25 14 26 15 27 16 28 17 29 18 30 70 31 19 32 69 33 20 34
REMARK SMILES IDX 21 35 22 36 63 37 23 38 68 39 62 40 64 41 24 42 67 43 61 44
REMARK SMILES IDX 60 45 25 47 51 48 34 49 50 50 35 51 38 52 49 53 65 54 36 55
REMARK SMILES IDX 37 56 48 58 66 59 39 60 26 61 27 62 32 63 28 64 29 65 31 66
REMARK SMILES IDX 33 67 30 68 52 69 53 70 58 71 54 72 55 73 57 74 59 75 56 76
REMARK SMILES IDX 40 77 41 78 46 79 42 80 43 81 45 82 47 83 44 84
REMARK H PARENT 4 13 4 14 64 46 38 57
REMARK Flexibility Score: inf
ROOT
ATOM      1  O   UNL     1      -1.734   0.169   5.019  1.00  0.00    -0.374 OA
ENDROOT
BRANCH   1   2
ATOM      2  C   UNL     1      -1.651   1.420   5.699  1.00  0.00     0.202 C 
BRANCH   2   3
ATOM      3  C   UNL     1      -0.872   2.534   4.995  1.00  0.00     0.261 C 
BRANCH   3   4
ATOM      4  O   UNL     1      -1.404   2.811   3.691  1.00  0.00    -0.459 OA
BRANCH   4   5
ATOM      5  C   UNL     1      -0.476   2.982   2.709  1.00  0.00     0.368 C 
ATOM      6  O   UNL     1       0.722   3.142   2.926  1.00  0.00    -0.245 OA
BRANCH   5   7
ATOM      7  C   UNL     1      -1.095   2.970   1.277  1.00  0.00     0.195 C 
ATOM      8  C   UNL     1      -0.719   4.292   0.591  1.00  0.00     0.082 C 
ATOM      9  C   UNL     1      -2.647   3.027   1.249  1.00  0.00     0.096 C 
ATOM     10  C   UNL     1      -1.725   5.292   1.154  1.00  0.00     0.022 C 
ATOM     11  C   UNL     1      -3.030   4.511   1.288  1.00  0.00     0.059 C 
BRANCH   7  12
ATOM     12  N   UNL     1      -0.722   1.736   0.534  1.00  0.00    -0.330 N 
ATOM     13  H   UNL     1      -1.223   0.964   0.972  1.00  0.00     0.347 HD
ATOM     14  H   UNL     1      -0.964   1.958  -0.432  1.00  0.00     0.347 HD
BRANCH  12  15
ATOM     15  C   UNL     1       0.688   1.337   0.451  1.00  0.00     0.176 C 
ATOM     16  C   UNL     1       0.708  -0.092  -0.112  1.00  0.00     0.075 C 
ATOM     17  C   UNL     1       1.529   2.233  -0.457  1.00  0.00     0.075 C 
ENDBRANCH  12  15
ENDBRANCH   7  12
BRANCH  11  18
ATOM     18  S   UNL     1      -4.326   4.947   0.069  1.00  0.00    -0.112 SA
BRANCH  18  19
ATOM     19  C   UNL     1      -3.499   4.835  -1.478  1.00  0.00     0.060 A 
ATOM     20  C   UNL     1      -3.297   3.692  -2.224  1.00  0.00     0.027 A 
ATOM     21  S   UNL     1      -2.903   6.222  -2.285  1.00  0.00    -0.137 S 
ATOM     22  C   UNL     1      -2.582   3.951  -3.432  1.00  0.00     0.013 A 
ATOM     23  C   UNL     1      -2.299   5.289  -3.584  1.00  0.00     0.066 A 
ENDBRANCH  18  19
ENDBRANCH  11  18
ENDBRANCH   5   7
ENDBRANCH   4   5
ENDBRANCH   3   4
ENDBRANCH   2   3
ENDBRANCH   1   2
BRANCH   1  24
ATOM     24  C   UNL     1      -2.538   0.103   3.839  1.00  0.00     0.202 C 
BRANCH  24  25
ATOM     25  C   UNL     1      -4.055   0.256   4.027  1.00  0.00     0.261 C 
BRANCH  25  26
ATOM     26  O   UNL     1      -4.433   1.536   4.573  1.00  0.00    -0.460 OA
BRANCH  26  27
ATOM     27  C   UNL     1      -5.206   1.468   5.682  1.00  0.00     0.338 C 
ATOM     28  O   UNL     1      -5.698   0.461   6.184  1.00  0.00    -0.246 OA
BRANCH  27  29
ATOM     29  C   UNL     1      -5.271   2.771   6.364  1.00  0.00     0.060 A 
ATOM     30  C   UNL     1      -4.735   2.849   7.655  1.00  0.00     0.016 A 
ATOM     31  C   UNL     1      -5.960   3.856   5.817  1.00  0.00     0.016 A 
ATOM     32  C   UNL     1      -4.929   3.995   8.423  1.00  0.00     0.010 A 
ATOM     33  C   UNL     1      -6.160   5.006   6.595  1.00  0.00     0.010 A 
ATOM     34  C   UNL     1      -5.678   5.066   7.915  1.00  0.00    -0.014 A 
BRANCH  34  35
ATOM     35  C   UNL     1      -6.050   6.171   8.837  1.00  0.00     0.031 A 
ATOM     36  C   UNL     1      -7.398   6.157   9.507  1.00  0.00     0.074 A 
ATOM     37  C   UNL     1      -5.160   7.130   9.149  1.00  0.00     0.049 A 
ATOM     38  N   UNL     1      -7.871   6.949  10.437  1.00  0.00    -0.248 NA
ATOM     39  C   UNL     1      -8.335   5.108   9.077  1.00  0.00     0.031 C 
ATOM     40  C   UNL     1      -3.816   7.249   8.586  1.00  0.00     0.029 A 
ATOM     41  N   UNL     1      -5.250   8.175  10.034  1.00  0.00    -0.354 N 
ATOM     42  C   UNL     1      -9.152   6.488  10.712  1.00  0.00     0.074 A 
ATOM     43  C   UNL     1      -9.399   5.372   9.822  1.00  0.00     0.031 C 
ATOM     44  C   UNL     1      -3.201   8.304   9.149  1.00  0.00     0.029 A 
ATOM     45  C   UNL     1      -4.110   8.937  10.103  1.00  0.00     0.049 A 
ATOM     46  H   UNL     1      -6.056   8.362  10.568  1.00  0.00     0.167 HD
ATOM     47  C   UNL     1     -10.039   6.939  11.631  1.00  0.00     0.037 A 
ATOM     48  C   UNL     1      -3.827  10.017  10.856  1.00  0.00     0.037 A 
ATOM     49  C   UNL     1      -9.804   8.051  12.516  1.00  0.00     0.049 A 
ATOM     50  C   UNL     1      -4.843  10.523  11.845  1.00  0.00     0.074 A 
ATOM     51  C   UNL     1     -10.639   8.573  13.489  1.00  0.00     0.029 A 
ATOM     52  N   UNL     1      -8.649   8.818  12.530  1.00  0.00    -0.354 N 
ATOM     53  N   UNL     1      -6.033  10.050  12.126  1.00  0.00    -0.248 NA
ATOM     54  C   UNL     1      -4.466  11.705  12.634  1.00  0.00     0.031 C 
ATOM     55  C   UNL     1     -10.005   9.679  14.066  1.00  0.00     0.029 A 
ATOM     56  C   UNL     1      -8.757   9.819  13.482  1.00  0.00     0.049 A 
ATOM     57  H   UNL     1      -7.867   8.672  11.949  1.00  0.00     0.167 HD
ATOM     58  C   UNL     1      -6.535  10.858  13.138  1.00  0.00     0.074 A 
ATOM     59  C   UNL     1      -5.514  11.841  13.434  1.00  0.00     0.031 C 
ATOM     60  C   UNL     1      -7.734  10.792  13.768  1.00  0.00     0.037 A 
BRANCH  47  61
ATOM     61  C   UNL     1     -11.359   6.232  11.719  1.00  0.00     0.057 A 
ATOM     62  C   UNL     1     -11.475   4.956  12.287  1.00  0.00     0.134 A 
ATOM     63  C   UNL     1     -12.531   6.845  11.260  1.00  0.00     0.134 A 
ATOM     64  F   UNL     1     -10.387   4.310  12.733  1.00  0.00    -0.206 F 
ATOM     65  C   UNL     1     -12.707   4.307  12.377  1.00  0.00     0.040 A 
ATOM     66  C   UNL     1     -13.773   6.215  11.365  1.00  0.00     0.040 A 
ATOM     67  F   UNL     1     -12.491   8.068  10.710  1.00  0.00    -0.206 F 
ATOM     68  C   UNL     1     -13.862   4.940  11.920  1.00  0.00     0.006 A 
ENDBRANCH  47  61
BRANCH  48  69
ATOM     69  C   UNL     1      -2.511  10.690  10.722  1.00  0.00     0.057 A 
ATOM     70  C   UNL     1      -1.551  10.618  11.738  1.00  0.00     0.134 A 
ATOM     71  C   UNL     1      -2.194  11.439   9.583  1.00  0.00     0.134 A 
ATOM     72  F   UNL     1      -1.808   9.935  12.863  1.00  0.00    -0.206 F 
ATOM     73  C   UNL     1      -0.328  11.282  11.634  1.00  0.00     0.040 A 
ATOM     74  C   UNL     1      -0.965  12.088   9.456  1.00  0.00     0.040 A 
ATOM     75  F   UNL     1      -3.072  11.545   8.576  1.00  0.00    -0.206 F 
ATOM     76  C   UNL     1      -0.031  12.016  10.487  1.00  0.00     0.006 A 
ENDBRANCH  48  69
BRANCH  60  77
ATOM     77  C   UNL     1      -7.991  11.793  14.856  1.00  0.00     0.057 A 
ATOM     78  C   UNL     1      -8.232  13.144  14.577  1.00  0.00     0.134 A 
ATOM     79  C   UNL     1      -8.009  11.398  16.200  1.00  0.00     0.134 A 
ATOM     80  F   UNL     1      -8.216  13.590  13.311  1.00  0.00    -0.206 F 
ATOM     81  C   UNL     1      -8.449  14.073  15.596  1.00  0.00     0.040 A 
ATOM     82  C   UNL     1      -8.251  12.312  17.227  1.00  0.00     0.040 A 
ATOM     83  F   UNL     1      -7.796  10.117  16.537  1.00  0.00    -0.206 F 
ATOM     84  C   UNL     1      -8.463  13.656  16.926  1.00  0.00     0.006 A 
ENDBRANCH  60  77
ENDBRANCH  34  35
ENDBRANCH  27  29
ENDBRANCH  26  27
ENDBRANCH  25  26
ENDBRANCH  24  25
ENDBRANCH   1  24
TORSDOF 18
