REMARK SMILES O=C(OCCOCCOC(=O)[C@H]1CCCN(c2nc(-c3ccco3)cc(C(F)(F)F)n2)C1)c1ccc(-c2c3nc(c(-c4c(F)cccc4F)c4ccc([nH]4)c(-c4c(F)cccc4F)c4nc(c(-c5c(F)cccc5F)c5ccc2[nH]5)C=C4)C=C3)cc1
REMARK SMILES IDX 6 1 5 2 4 3 3 4 2 5 1 6 33 7 34 8 86 9 35 10 85 11 36 12
REMARK SMILES IDX 37 13 38 14 79 15 39 16 84 17 78 18 80 19 40 20 83 21 77 22
REMARK SMILES IDX 76 23 41 25 67 26 50 27 66 28 51 29 54 30 65 31 81 32 52 33
REMARK SMILES IDX 53 34 64 36 82 37 55 38 42 39 43 40 48 41 44 42 45 43 47 44
REMARK SMILES IDX 49 45 46 46 68 47 69 48 74 49 70 50 71 51 73 52 75 53 72 54
REMARK SMILES IDX 56 55 57 56 62 57 58 58 59 59 61 60 63 61 60 62 7 63 8 64
REMARK SMILES IDX 9 65 10 66 11 67 12 68 13 69 32 70 14 71 16 72 15 73 17 74
REMARK SMILES IDX 18 75 31 76 19 77 26 78 25 79 20 80 21 81 24 82 22 83 23 84
REMARK SMILES IDX 27 85 28 86 29 87 30 88
REMARK H PARENT 80 24 54 35
REMARK Flexibility Score: inf
ROOT
ATOM      1  O   UNL     1       2.616  -1.027  -5.637  1.00  0.00    -0.374 OA
ENDROOT
BRANCH   1   2
ATOM      2  C   UNL     1       2.391  -0.971  -4.223  1.00  0.00     0.202 C 
BRANCH   2   3
ATOM      3  C   UNL     1       1.044  -1.480  -3.689  1.00  0.00     0.261 C 
BRANCH   3   4
ATOM      4  O   UNL     1       0.756  -2.805  -4.162  1.00  0.00    -0.460 OA
BRANCH   4   5
ATOM      5  C   UNL     1       0.041  -3.159  -5.257  1.00  0.00     0.338 C 
ATOM      6  O   UNL     1      -0.077  -4.352  -5.527  1.00  0.00    -0.246 OA
BRANCH   5   7
ATOM      7  C   UNL     1      -0.618  -2.165  -6.158  1.00  0.00     0.060 A 
ATOM      8  C   UNL     1      -0.228  -0.834  -6.289  1.00  0.00     0.016 A 
ATOM      9  C   UNL     1      -1.667  -2.623  -6.971  1.00  0.00     0.016 A 
ATOM     10  C   UNL     1      -0.893   0.047  -7.109  1.00  0.00     0.010 A 
ATOM     11  C   UNL     1      -2.332  -1.749  -7.837  1.00  0.00     0.010 A 
ATOM     12  C   UNL     1      -1.958  -0.403  -7.873  1.00  0.00    -0.014 A 
BRANCH  12  13
ATOM     13  C   UNL     1      -2.745   0.650  -8.518  1.00  0.00     0.031 A 
ATOM     14  C   UNL     1      -3.995   1.093  -7.826  1.00  0.00     0.074 A 
ATOM     15  C   UNL     1      -2.192   1.345  -9.528  1.00  0.00     0.049 A 
ATOM     16  N   UNL     1      -4.821   2.049  -8.143  1.00  0.00    -0.248 NA
ATOM     17  C   UNL     1      -4.346   0.379  -6.583  1.00  0.00     0.031 C 
ATOM     18  C   UNL     1      -0.874   1.075 -10.113  1.00  0.00     0.029 A 
ATOM     19  N   UNL     1      -2.632   2.454 -10.190  1.00  0.00    -0.354 N 
ATOM     20  C   UNL     1      -5.807   2.026  -7.166  1.00  0.00     0.074 A 
ATOM     21  C   UNL     1      -5.478   0.969  -6.240  1.00  0.00     0.031 C 
ATOM     22  C   UNL     1      -0.602   2.018 -11.029  1.00  0.00     0.029 A 
ATOM     23  C   UNL     1      -1.751   2.905 -11.142  1.00  0.00     0.049 A 
ATOM     24  H   UNL     1      -3.495   2.889 -10.003  1.00  0.00     0.167 HD
ATOM     25  C   UNL     1      -6.898   2.818  -7.073  1.00  0.00     0.037 A 
ATOM     26  C   UNL     1      -1.893   3.910 -12.024  1.00  0.00     0.037 A 
ATOM     27  C   UNL     1      -7.179   3.863  -8.017  1.00  0.00     0.049 A 
ATOM     28  C   UNL     1      -3.171   4.699 -11.970  1.00  0.00     0.074 A 
ATOM     29  C   UNL     1      -8.284   4.687  -8.096  1.00  0.00     0.029 A 
ATOM     30  N   UNL     1      -6.328   4.223  -9.056  1.00  0.00    -0.354 N 
ATOM     31  N   UNL     1      -4.160   4.612 -11.110  1.00  0.00    -0.248 NA
ATOM     32  C   UNL     1      -3.365   5.711 -13.012  1.00  0.00     0.031 C 
ATOM     33  C   UNL     1      -8.124   5.510  -9.217  1.00  0.00     0.029 A 
ATOM     34  C   UNL     1      -6.891   5.244  -9.797  1.00  0.00     0.049 A 
ATOM     35  H   UNL     1      -5.453   3.810  -9.238  1.00  0.00     0.167 HD
ATOM     36  C   UNL     1      -5.082   5.577 -11.488  1.00  0.00     0.074 A 
ATOM     37  C   UNL     1      -4.522   6.245 -12.649  1.00  0.00     0.031 C 
ATOM     38  C   UNL     1      -6.282   5.886 -10.936  1.00  0.00     0.037 A 
BRANCH  25  39
ATOM     39  C   UNL     1      -7.882   2.494  -5.989  1.00  0.00     0.057 A 
ATOM     40  C   UNL     1      -7.615   2.717  -4.632  1.00  0.00     0.134 A 
ATOM     41  C   UNL     1      -9.099   1.882  -6.314  1.00  0.00     0.134 A 
ATOM     42  F   UNL     1      -6.451   3.264  -4.248  1.00  0.00    -0.206 F 
ATOM     43  C   UNL     1      -8.511   2.317  -3.636  1.00  0.00     0.040 A 
ATOM     44  C   UNL     1     -10.014   1.502  -5.330  1.00  0.00     0.040 A 
ATOM     45  F   UNL     1      -9.412   1.625  -7.592  1.00  0.00    -0.206 F 
ATOM     46  C   UNL     1      -9.715   1.710  -3.986  1.00  0.00     0.006 A 
ENDBRANCH  25  39
BRANCH  26  47
ATOM     47  C   UNL     1      -0.846   4.178 -13.043  1.00  0.00     0.057 A 
ATOM     48  C   UNL     1      -0.150   5.391 -13.082  1.00  0.00     0.134 A 
ATOM     49  C   UNL     1      -0.531   3.229 -14.027  1.00  0.00     0.134 A 
ATOM     50  F   UNL     1      -0.413   6.349 -12.181  1.00  0.00    -0.206 F 
ATOM     51  C   UNL     1       0.801   5.660 -14.070  1.00  0.00     0.040 A 
ATOM     52  C   UNL     1       0.438   3.472 -15.002  1.00  0.00     0.040 A 
ATOM     53  F   UNL     1      -1.157   2.043 -14.051  1.00  0.00    -0.206 F 
ATOM     54  C   UNL     1       1.100   4.696 -15.031  1.00  0.00     0.006 A 
ENDBRANCH  26  47
BRANCH  38  55
ATOM     55  C   UNL     1      -7.026   7.031 -11.552  1.00  0.00     0.057 A 
ATOM     56  C   UNL     1      -7.637   6.932 -12.807  1.00  0.00     0.134 A 
ATOM     57  C   UNL     1      -7.161   8.238 -10.853  1.00  0.00     0.134 A 
ATOM     58  F   UNL     1      -7.532   5.806 -13.529  1.00  0.00    -0.206 F 
ATOM     59  C   UNL     1      -8.332   8.007 -13.361  1.00  0.00     0.040 A 
ATOM     60  C   UNL     1      -7.881   9.307 -11.382  1.00  0.00     0.040 A 
ATOM     61  F   UNL     1      -6.607   8.389  -9.640  1.00  0.00    -0.206 F 
ATOM     62  C   UNL     1      -8.461   9.195 -12.644  1.00  0.00     0.006 A 
ENDBRANCH  38  55
ENDBRANCH  12  13
ENDBRANCH   5   7
ENDBRANCH   4   5
ENDBRANCH   3   4
ENDBRANCH   2   3
ENDBRANCH   1   2
BRANCH   1  63
ATOM     63  C   UNL     1       2.923  -2.309  -6.200  1.00  0.00     0.202 C 
BRANCH  63  64
ATOM     64  C   UNL     1       4.274  -2.278  -6.916  1.00  0.00     0.261 C 
BRANCH  64  65
ATOM     65  O   UNL     1       5.282  -2.151  -5.910  1.00  0.00    -0.463 OA
BRANCH  65  66
ATOM     66  C   UNL     1       5.511  -0.873  -5.517  1.00  0.00     0.310 C 
ATOM     67  O   UNL     1       5.434   0.110  -6.246  1.00  0.00    -0.252 OA
BRANCH  66  68
ATOM     68  C   UNL     1       5.789  -0.799  -4.036  1.00  0.00     0.119 C 
ATOM     69  C   UNL     1       5.763  -2.161  -3.300  1.00  0.00     0.019 C 
ATOM     70  C   UNL     1       7.122  -0.098  -3.858  1.00  0.00     0.135 C 
ATOM     71  C   UNL     1       6.155  -2.008  -1.830  1.00  0.00     0.022 C 
ATOM     72  N   UNL     1       7.456  -0.104  -2.454  1.00  0.00    -0.340 N 
ATOM     73  C   UNL     1       7.529  -1.349  -1.731  1.00  0.00     0.120 C 
BRANCH  72  74
ATOM     74  C   UNL     1       7.812   1.067  -1.866  1.00  0.00     0.226 A 
ATOM     75  N   UNL     1       6.876   2.006  -1.693  1.00  0.00    -0.210 NA
ATOM     76  N   UNL     1       9.102   1.234  -1.574  1.00  0.00    -0.208 NA
ATOM     77  C   UNL     1       7.279   3.183  -1.188  1.00  0.00     0.112 A 
ATOM     78  C   UNL     1       9.499   2.446  -1.124  1.00  0.00     0.150 A 
ATOM     79  C   UNL     1       8.597   3.468  -0.911  1.00  0.00     0.066 A 
BRANCH  77  80
ATOM     80  C   UNL     1       6.242   4.174  -0.957  1.00  0.00     0.152 A 
ATOM     81  C   UNL     1       6.103   5.509  -1.286  1.00  0.00     0.052 A 
ATOM     82  O   UNL     1       5.187   3.781  -0.181  1.00  0.00    -0.463 OA
ATOM     83  C   UNL     1       4.909   5.956  -0.671  1.00  0.00     0.043 A 
ATOM     84  C   UNL     1       4.391   4.868  -0.008  1.00  0.00     0.196 A 
ENDBRANCH  77  80
BRANCH  78  85
ATOM     85  C   UNL     1      10.980   2.672  -0.918  1.00  0.00     0.433 C 
ATOM     86  F   UNL     1      11.574   1.712  -0.155  1.00  0.00    -0.165 F 
ATOM     87  F   UNL     1      11.673   2.705  -2.093  1.00  0.00    -0.165 F 
ATOM     88  F   UNL     1      11.259   3.857  -0.299  1.00  0.00    -0.165 F 
ENDBRANCH  78  85
ENDBRANCH  72  74
ENDBRANCH  66  68
ENDBRANCH  65  66
ENDBRANCH  64  65
ENDBRANCH  63  64
ENDBRANCH   1  63
TORSDOF 17
