REMARK SMILES CN(C(=O)C[C@@H]1SC(=O)N(c2ccccc2)C1=O)c1ccccc1C(=O)OCCOCCOC(=O)c1ccc(-c2c3nc(c(-c4c(F)cccc4F)c4ccc([nH]4)c(-c4c(F)cccc4F)c4nc(c(-c5c(F)cccc5F)c5ccc2[nH]5)C=C4)C=C3)cc1
REMARK SMILES IDX 28 1 27 2 25 3 26 4 24 5 19 6 20 7 21 8 23 9 22 10 2 11 1 12
REMARK SMILES IDX 3 13 4 14 5 15 6 16 7 17 17 18 8 19 10 20 18 21 9 22 11 23
REMARK SMILES IDX 12 24 16 25 13 26 15 27 14 28 29 29 30 30 31 31 32 32 33 33
REMARK SMILES IDX 34 34 35 35 36 36 37 37 89 38 38 39 88 40 39 41 40 42 41 43
REMARK SMILES IDX 82 44 42 45 87 46 81 47 83 48 43 49 86 50 80 51 79 52 44 54
REMARK SMILES IDX 70 55 53 56 69 57 54 58 57 59 68 60 84 61 55 62 56 63 67 65
REMARK SMILES IDX 85 66 58 67 45 68 46 69 51 70 47 71 48 72 50 73 52 74 49 75
REMARK SMILES IDX 71 76 72 77 77 78 73 79 74 80 76 81 78 82 75 83 59 84 60 85
REMARK SMILES IDX 65 86 61 87 62 88 64 89 66 90 63 91
REMARK H PARENT 83 53 57 64
REMARK Flexibility Score: inf
ROOT
ATOM      1  C   UNL     1       4.165   0.531   0.591  1.00  0.00     0.261 C 
ENDROOT
BRANCH   1   2
ATOM      2  O   UNL     1       3.064   1.136  -0.113  1.00  0.00    -0.460 OA
BRANCH   2   3
ATOM      3  C   UNL     1       2.756   2.403   0.227  1.00  0.00     0.340 C 
ATOM      4  O   UNL     1       3.212   3.032   1.168  1.00  0.00    -0.246 OA
BRANCH   3   5
ATOM      5  C   UNL     1       1.898   3.020  -0.814  1.00  0.00     0.083 A 
ATOM      6  C   UNL     1       0.705   2.490  -1.346  1.00  0.00     0.058 A 
ATOM      7  C   UNL     1       0.043   3.239  -2.345  1.00  0.00     0.027 A 
ATOM      8  C   UNL     1       0.559   4.437  -2.837  1.00  0.00     0.002 A 
ATOM      9  C   UNL     1       2.421   4.222  -1.334  1.00  0.00     0.018 A 
ATOM     10  C   UNL     1       1.760   4.921  -2.344  1.00  0.00     0.001 A 
BRANCH   6  11
ATOM     11  N   UNL     1       0.070   1.266  -0.930  1.00  0.00    -0.315 N 
ATOM     12  C   UNL     1      -0.090   1.074   0.513  1.00  0.00     0.153 C 
BRANCH  11  13
ATOM     13  C   UNL     1      -0.383   0.390  -1.926  1.00  0.00     0.228 C 
ATOM     14  O   UNL     1      -0.158   0.542  -3.131  1.00  0.00    -0.274 OA
BRANCH  13  15
ATOM     15  C   UNL     1      -1.153  -0.851  -1.531  1.00  0.00     0.125 C 
BRANCH  15  16
ATOM     16  C   UNL     1      -0.232  -2.063  -1.528  1.00  0.00     0.156 C 
ATOM     17  S   UNL     1      -1.165  -3.503  -0.942  1.00  0.00    -0.050 SA
ATOM     18  C   UNL     1       0.904  -1.927  -0.541  1.00  0.00     0.248 C 
ATOM     19  C   UNL     1      -0.394  -3.463   0.631  1.00  0.00     0.293 C 
ATOM     20  N   UNL     1       0.635  -2.564   0.645  1.00  0.00    -0.240 N 
ATOM     21  O   UNL     1       1.901  -1.264  -0.787  1.00  0.00    -0.273 OA
ATOM     22  O   UNL     1      -0.767  -4.189   1.545  1.00  0.00    -0.261 OA
BRANCH  20  23
ATOM     23  C   UNL     1       1.486  -2.462   1.769  1.00  0.00     0.053 A 
ATOM     24  C   UNL     1       1.016  -1.909   2.965  1.00  0.00     0.027 A 
ATOM     25  C   UNL     1       2.779  -2.990   1.720  1.00  0.00     0.027 A 
ATOM     26  C   UNL     1       1.830  -1.906   4.101  1.00  0.00     0.002 A 
ATOM     27  C   UNL     1       3.572  -3.030   2.867  1.00  0.00     0.002 A 
ATOM     28  C   UNL     1       3.097  -2.487   4.058  1.00  0.00     0.000 A 
ENDBRANCH  20  23
ENDBRANCH  15  16
ENDBRANCH  13  15
ENDBRANCH  11  13
ENDBRANCH   6  11
ENDBRANCH   3   5
ENDBRANCH   2   3
ENDBRANCH   1   2
BRANCH   1  29
ATOM     29  C   UNL     1       4.888  -0.486  -0.306  1.00  0.00     0.202 C 
BRANCH  29  30
ATOM     30  O   UNL     1       5.575   0.094  -1.419  1.00  0.00    -0.374 OA
BRANCH  30  31
ATOM     31  C   UNL     1       4.747   0.509  -2.507  1.00  0.00     0.202 C 
BRANCH  31  32
ATOM     32  C   UNL     1       4.461  -0.557  -3.572  1.00  0.00     0.261 C 
BRANCH  32  33
ATOM     33  O   UNL     1       3.768  -1.716  -3.073  1.00  0.00    -0.460 OA
BRANCH  33  34
ATOM     34  C   UNL     1       4.539  -2.806  -2.845  1.00  0.00     0.338 C 
ATOM     35  O   UNL     1       5.742  -2.907  -3.022  1.00  0.00    -0.246 OA
BRANCH  34  36
ATOM     36  C   UNL     1       3.731  -3.906  -2.260  1.00  0.00     0.060 A 
ATOM     37  C   UNL     1       4.304  -4.696  -1.254  1.00  0.00     0.016 A 
ATOM     38  C   UNL     1       2.453  -4.212  -2.729  1.00  0.00     0.016 A 
ATOM     39  C   UNL     1       3.605  -5.785  -0.708  1.00  0.00     0.010 A 
ATOM     40  C   UNL     1       1.756  -5.299  -2.181  1.00  0.00     0.010 A 
ATOM     41  C   UNL     1       2.327  -6.108  -1.176  1.00  0.00    -0.014 A 
BRANCH  41  42
ATOM     42  C   UNL     1       1.626  -7.365  -0.782  1.00  0.00     0.031 A 
ATOM     43  C   UNL     1       1.538  -8.482  -1.786  1.00  0.00     0.074 A 
ATOM     44  C   UNL     1       1.014  -7.526   0.408  1.00  0.00     0.049 A 
ATOM     45  N   UNL     1       0.890  -9.616  -1.707  1.00  0.00    -0.248 NA
ATOM     46  C   UNL     1       2.315  -8.315  -3.025  1.00  0.00     0.031 C 
ATOM     47  C   UNL     1       1.091  -6.619   1.545  1.00  0.00     0.029 A 
ATOM     48  N   UNL     1       0.121  -8.494   0.821  1.00  0.00    -0.354 N 
ATOM     49  C   UNL     1       1.252 -10.330  -2.838  1.00  0.00     0.074 A 
ATOM     50  C   UNL     1       2.065  -9.454  -3.653  1.00  0.00     0.031 C 
ATOM     51  C   UNL     1       0.160  -6.970   2.451  1.00  0.00     0.029 A 
ATOM     52  C   UNL     1      -0.555  -8.146   1.970  1.00  0.00     0.049 A 
ATOM     53  H   UNL     1      -0.018  -9.344   0.344  1.00  0.00     0.167 HD
ATOM     54  C   UNL     1       1.002 -11.627  -3.132  1.00  0.00     0.037 A 
ATOM     55  C   UNL     1      -1.638  -8.696   2.553  1.00  0.00     0.037 A 
ATOM     56  C   UNL     1       0.173 -12.497  -2.343  1.00  0.00     0.049 A 
ATOM     57  C   UNL     1      -2.112 -10.042   2.082  1.00  0.00     0.074 A 
ATOM     58  C   UNL     1      -0.118 -13.834  -2.548  1.00  0.00     0.029 A 
ATOM     59  N   UNL     1      -0.516 -12.107  -1.205  1.00  0.00    -0.354 N 
ATOM     60  N   UNL     1      -1.683 -10.757   1.071  1.00  0.00    -0.248 NA
ATOM     61  C   UNL     1      -3.136 -10.712   2.898  1.00  0.00     0.031 C 
ATOM     62  C   UNL     1      -1.022 -14.242  -1.559  1.00  0.00     0.029 A 
ATOM     63  C   UNL     1      -1.258 -13.170  -0.715  1.00  0.00     0.049 A 
ATOM     64  H   UNL     1      -0.483 -11.209  -0.805  1.00  0.00     0.167 HD
ATOM     65  C   UNL     1      -2.293 -11.997   1.201  1.00  0.00     0.074 A 
ATOM     66  C   UNL     1      -3.159 -11.922   2.357  1.00  0.00     0.031 C 
ATOM     67  C   UNL     1      -2.102 -13.110   0.451  1.00  0.00     0.037 A 
BRANCH  54  68
ATOM     68  C   UNL     1       1.689 -12.183  -4.341  1.00  0.00     0.057 A 
ATOM     69  C   UNL     1       3.075 -12.404  -4.343  1.00  0.00     0.134 A 
ATOM     70  C   UNL     1       0.979 -12.499  -5.502  1.00  0.00     0.134 A 
ATOM     71  F   UNL     1       3.813 -12.106  -3.263  1.00  0.00    -0.206 F 
ATOM     72  C   UNL     1       3.733 -12.892  -5.471  1.00  0.00     0.040 A 
ATOM     73  C   UNL     1       1.624 -13.011  -6.629  1.00  0.00     0.040 A 
ATOM     74  F   UNL     1      -0.348 -12.312  -5.562  1.00  0.00    -0.206 F 
ATOM     75  C   UNL     1       3.005 -13.201  -6.618  1.00  0.00     0.006 A 
ENDBRANCH  54  68
BRANCH  55  76
ATOM     76  C   UNL     1      -2.307  -8.038   3.705  1.00  0.00     0.057 A 
ATOM     77  C   UNL     1      -2.115  -8.502   5.011  1.00  0.00     0.134 A 
ATOM     78  C   UNL     1      -3.221  -6.993   3.520  1.00  0.00     0.134 A 
ATOM     79  F   UNL     1      -1.281  -9.525   5.244  1.00  0.00    -0.206 F 
ATOM     80  C   UNL     1      -2.828  -7.972   6.089  1.00  0.00     0.040 A 
ATOM     81  C   UNL     1      -3.928  -6.441   4.593  1.00  0.00     0.040 A 
ATOM     82  F   UNL     1      -3.473  -6.518   2.291  1.00  0.00    -0.206 F 
ATOM     83  C   UNL     1      -3.738  -6.939   5.882  1.00  0.00     0.006 A 
ENDBRANCH  55  76
BRANCH  67  84
ATOM     84  C   UNL     1      -2.776 -14.371   0.901  1.00  0.00     0.057 A 
ATOM     85  C   UNL     1      -4.159 -14.558   0.798  1.00  0.00     0.134 A 
ATOM     86  C   UNL     1      -2.017 -15.431   1.417  1.00  0.00     0.134 A 
ATOM     87  F   UNL     1      -4.945 -13.576   0.330  1.00  0.00    -0.206 F 
ATOM     88  C   UNL     1      -4.766 -15.745   1.210  1.00  0.00     0.040 A 
ATOM     89  C   UNL     1      -2.609 -16.633   1.805  1.00  0.00     0.040 A 
ATOM     90  F   UNL     1      -0.685 -15.320   1.540  1.00  0.00    -0.206 F 
ATOM     91  C   UNL     1      -3.989 -16.791   1.707  1.00  0.00     0.006 A 
ENDBRANCH  67  84
ENDBRANCH  41  42
ENDBRANCH  34  36
ENDBRANCH  33  34
ENDBRANCH  32  33
ENDBRANCH  31  32
ENDBRANCH  30  31
ENDBRANCH  29  30
ENDBRANCH   1  29
TORSDOF 19
