REMARK SMILES CN1C(=O)C[C@@H](C(=O)OCCOCCOC(=O)c2ccc(-c3c4nc(c(-c5c(F)cccc5F)c5ccc([nH]5)c(-c5c(F)cccc5F)c5nc(c(-c6c(F)cccc6F)c6ccc3[nH]6)C=C5)C=C4)cc2)C12CCN(c1ccc(Cl)cn1)CC2
REMARK SMILES IDX 13 1 12 2 11 3 10 4 9 5 7 6 8 7 6 8 1 9 2 10 3 11 72 12 4 13
REMARK SMILES IDX 5 14 73 15 84 16 74 17 83 18 75 19 76 20 77 21 82 22 78 23
REMARK SMILES IDX 81 24 79 25 80 26 14 27 15 28 16 29 17 30 18 31 19 32 71 33
REMARK SMILES IDX 20 34 70 35 21 36 22 37 23 38 64 39 24 40 69 41 63 42 65 43
REMARK SMILES IDX 25 44 68 45 62 46 61 47 26 49 52 50 35 51 51 52 36 53 39 54
REMARK SMILES IDX 50 55 66 56 37 57 38 58 49 60 67 61 40 62 27 63 28 64 33 65
REMARK SMILES IDX 29 66 30 67 32 68 34 69 31 70 53 71 54 72 59 73 55 74 56 75
REMARK SMILES IDX 58 76 60 77 57 78 41 79 42 80 47 81 43 82 44 83 46 84 48 85
REMARK SMILES IDX 45 86
REMARK H PARENT 65 48 39 59
REMARK Flexibility Score: inf
ROOT
ATOM      1  C   UNL     1       2.876  -2.579  -6.028  1.00  0.00     0.202 C 
ENDROOT
BRANCH   1   2
ATOM      2  O   UNL     1       2.271  -1.771  -7.035  1.00  0.00    -0.374 OA
BRANCH   2   3
ATOM      3  C   UNL     1       1.843  -0.461  -6.677  1.00  0.00     0.202 C 
BRANCH   3   4
ATOM      4  C   UNL     1       0.619  -0.330  -5.761  1.00  0.00     0.261 C 
BRANCH   4   5
ATOM      5  O   UNL     1       0.779  -0.818  -4.409  1.00  0.00    -0.463 OA
BRANCH   5   6
ATOM      6  C   UNL     1       0.129  -1.977  -4.147  1.00  0.00     0.311 C 
ATOM      7  O   UNL     1      -0.366  -2.694  -5.014  1.00  0.00    -0.252 OA
BRANCH   6   8
ATOM      8  C   UNL     1      -0.092  -2.300  -2.683  1.00  0.00     0.134 C 
ATOM      9  C   UNL     1       0.719   0.206   0.017  1.00  0.00     0.147 C 
ATOM     10  N   UNL     1       0.174  -0.656  -1.020  1.00  0.00    -0.339 N 
ATOM     11  C   UNL     1      -1.133  -0.526  -1.455  1.00  0.00     0.223 C 
ATOM     12  C   UNL     1       0.839  -1.876  -1.515  1.00  0.00     0.060 C 
ATOM     13  O   UNL     1      -1.922   0.352  -1.145  1.00  0.00    -0.275 OA
ATOM     14  C   UNL     1      -1.462  -1.701  -2.328  1.00  0.00     0.118 C 
ATOM     15  C   UNL     1       2.315  -1.596  -1.863  1.00  0.00     0.051 C 
ATOM     16  C   UNL     1       0.770  -2.985  -0.406  1.00  0.00     0.051 C 
ATOM     17  C   UNL     1       3.122  -2.855  -2.129  1.00  0.00     0.120 C 
ATOM     18  C   UNL     1       1.660  -4.207  -0.693  1.00  0.00     0.120 C 
ATOM     19  N   UNL     1       3.003  -3.719  -0.963  1.00  0.00    -0.356 N 
BRANCH  19  20
ATOM     20  C   UNL     1       4.068  -4.598  -0.798  1.00  0.00     0.128 A 
ATOM     21  C   UNL     1       5.288  -4.085  -0.345  1.00  0.00     0.048 A 
ATOM     22  N   UNL     1       3.929  -5.898  -1.126  1.00  0.00    -0.238 NA
ATOM     23  C   UNL     1       6.407  -4.910  -0.259  1.00  0.00     0.026 A 
ATOM     24  C   UNL     1       5.036  -6.683  -1.045  1.00  0.00     0.134 A 
ATOM     25  C   UNL     1       6.282  -6.237  -0.632  1.00  0.00     0.059 A 
ATOM     26  Cl  UNL     1       7.638  -7.286  -0.595  1.00  0.00    -0.083 Cl
ENDBRANCH  19  20
ENDBRANCH   6   8
ENDBRANCH   5   6
ENDBRANCH   4   5
ENDBRANCH   3   4
ENDBRANCH   2   3
ENDBRANCH   1   2
BRANCH   1  27
ATOM     27  C   UNL     1       4.241  -2.111  -5.518  1.00  0.00     0.261 C 
BRANCH  27  28
ATOM     28  O   UNL     1       4.152  -0.810  -4.911  1.00  0.00    -0.460 OA
BRANCH  28  29
ATOM     29  C   UNL     1       5.257  -0.050  -5.100  1.00  0.00     0.338 C 
ATOM     30  O   UNL     1       6.358  -0.428  -5.458  1.00  0.00    -0.246 OA
BRANCH  29  31
ATOM     31  C   UNL     1       4.907   1.375  -4.982  1.00  0.00     0.060 A 
ATOM     32  C   UNL     1       4.759   2.113  -6.163  1.00  0.00     0.016 A 
ATOM     33  C   UNL     1       4.861   2.005  -3.737  1.00  0.00     0.016 A 
ATOM     34  C   UNL     1       4.616   3.499  -6.102  1.00  0.00     0.010 A 
ATOM     35  C   UNL     1       4.718   3.397  -3.680  1.00  0.00     0.010 A 
ATOM     36  C   UNL     1       4.636   4.154  -4.862  1.00  0.00    -0.014 A 
BRANCH  36  37
ATOM     37  C   UNL     1       4.715   5.637  -4.829  1.00  0.00     0.031 A 
ATOM     38  C   UNL     1       6.054   6.300  -4.653  1.00  0.00     0.074 A 
ATOM     39  C   UNL     1       3.613   6.387  -5.011  1.00  0.00     0.049 A 
ATOM     40  N   UNL     1       6.358   7.573  -4.659  1.00  0.00    -0.248 NA
ATOM     41  C   UNL     1       7.206   5.408  -4.444  1.00  0.00     0.031 C 
ATOM     42  C   UNL     1       2.262   5.867  -5.209  1.00  0.00     0.029 A 
ATOM     43  N   UNL     1       3.462   7.750  -5.064  1.00  0.00    -0.354 N 
ATOM     44  C   UNL     1       7.732   7.636  -4.465  1.00  0.00     0.074 A 
ATOM     45  C   UNL     1       8.199   6.275  -4.305  1.00  0.00     0.031 C 
ATOM     46  C   UNL     1       1.417   6.900  -5.367  1.00  0.00     0.029 A 
ATOM     47  C   UNL     1       2.164   8.152  -5.264  1.00  0.00     0.049 A 
ATOM     48  H   UNL     1       4.212   8.380  -4.967  1.00  0.00     0.167 HD
ATOM     49  C   UNL     1       8.536   8.725  -4.440  1.00  0.00     0.037 A 
ATOM     50  C   UNL     1       1.639   9.390  -5.349  1.00  0.00     0.037 A 
ATOM     51  C   UNL     1       8.075  10.080  -4.596  1.00  0.00     0.049 A 
ATOM     52  C   UNL     1       2.545  10.588  -5.255  1.00  0.00     0.074 A 
ATOM     53  C   UNL     1       8.818  11.248  -4.614  1.00  0.00     0.029 A 
ATOM     54  N   UNL     1       6.748  10.447  -4.752  1.00  0.00    -0.354 N 
ATOM     55  N   UNL     1       3.849  10.631  -5.123  1.00  0.00    -0.248 NA
ATOM     56  C   UNL     1       1.906  11.911  -5.327  1.00  0.00     0.031 C 
ATOM     57  C   UNL     1       7.934  12.326  -4.736  1.00  0.00     0.029 A 
ATOM     58  C   UNL     1       6.646  11.826  -4.835  1.00  0.00     0.049 A 
ATOM     59  H   UNL     1       5.990   9.820  -4.796  1.00  0.00     0.167 HD
ATOM     60  C   UNL     1       4.188  11.978  -5.115  1.00  0.00     0.074 A 
ATOM     61  C   UNL     1       2.954  12.721  -5.272  1.00  0.00     0.031 C 
ATOM     62  C   UNL     1       5.410  12.550  -4.988  1.00  0.00     0.037 A 
BRANCH  49  63
ATOM     63  C   UNL     1      10.002   8.495  -4.220  1.00  0.00     0.057 A 
ATOM     64  C   UNL     1      10.821   7.956  -5.221  1.00  0.00     0.134 A 
ATOM     65  C   UNL     1      10.607   8.842  -3.006  1.00  0.00     0.134 A 
ATOM     66  F   UNL     1      10.300   7.591  -6.402  1.00  0.00    -0.206 F 
ATOM     67  C   UNL     1      12.186   7.750  -5.014  1.00  0.00     0.040 A 
ATOM     68  C   UNL     1      11.976   8.661  -2.796  1.00  0.00     0.040 A 
ATOM     69  F   UNL     1       9.881   9.367  -2.009  1.00  0.00    -0.206 F 
ATOM     70  C   UNL     1      12.768   8.109  -3.800  1.00  0.00     0.006 A 
ENDBRANCH  49  63
BRANCH  50  71
ATOM     71  C   UNL     1       0.177   9.564  -5.535  1.00  0.00     0.057 A 
ATOM     72  C   UNL     1      -0.351  10.043  -6.739  1.00  0.00     0.134 A 
ATOM     73  C   UNL     1      -0.726   9.270  -4.506  1.00  0.00     0.134 A 
ATOM     74  F   UNL     1       0.465  10.365  -7.753  1.00  0.00    -0.206 F 
ATOM     75  C   UNL     1      -1.723  10.236  -6.910  1.00  0.00     0.040 A 
ATOM     76  C   UNL     1      -2.102   9.436  -4.670  1.00  0.00     0.040 A 
ATOM     77  F   UNL     1      -0.282   8.809  -3.328  1.00  0.00    -0.206 F 
ATOM     78  C   UNL     1      -2.603   9.927  -5.874  1.00  0.00     0.006 A 
ENDBRANCH  50  71
BRANCH  62  79
ATOM     79  C   UNL     1       5.476  14.048  -5.025  1.00  0.00     0.057 A 
ATOM     80  C   UNL     1       5.050  14.829  -3.944  1.00  0.00     0.134 A 
ATOM     81  C   UNL     1       6.011  14.714  -6.135  1.00  0.00     0.134 A 
ATOM     82  F   UNL     1       4.517  14.252  -2.857  1.00  0.00    -0.206 F 
ATOM     83  C   UNL     1       5.137  16.222  -3.973  1.00  0.00     0.040 A 
ATOM     84  C   UNL     1       6.124  16.105  -6.166  1.00  0.00     0.040 A 
ATOM     85  F   UNL     1       6.445  14.024  -7.200  1.00  0.00    -0.206 F 
ATOM     86  C   UNL     1       5.682  16.863  -5.084  1.00  0.00     0.006 A 
ENDBRANCH  62  79
ENDBRANCH  36  37
ENDBRANCH  29  31
ENDBRANCH  28  29
ENDBRANCH  27  28
ENDBRANCH   1  27
TORSDOF 15
