REMARK SMILES O=C(OCCOCCOC(=O)[C@@H]1[C@H](C(=O)NCc2ccncc2)[C@H]2C=C[C@@H]1O2)c1ccc(-c2c3nc(c(-c4c(F)cccc4F)c4ccc([nH]4)c(-c4c(F)cccc4F)c4nc(c(-c5c(F)cccc5F)c5ccc2[nH]5)C=C4)C=C3)cc1
REMARK SMILES IDX 7 1 6 2 5 3 4 4 3 5 2 6 1 7 29 8 30 9 82 10 31 11 81 12
REMARK SMILES IDX 32 13 33 14 34 15 75 16 35 17 80 18 74 19 76 20 36 21 79 22
REMARK SMILES IDX 73 23 72 24 37 26 63 27 46 28 62 29 47 30 50 31 61 32 77 33
REMARK SMILES IDX 48 34 49 35 60 37 78 38 51 39 38 40 39 41 44 42 40 43 41 44
REMARK SMILES IDX 43 45 45 46 42 47 64 48 65 49 70 50 66 51 67 52 69 53 71 54
REMARK SMILES IDX 68 55 52 56 53 57 58 58 54 59 55 60 57 61 59 62 56 63 8 64
REMARK SMILES IDX 9 65 10 66 11 67 12 68 13 69 27 70 24 71 26 72 28 73 25 74
REMARK SMILES IDX 14 75 15 76 16 77 17 79 18 80 19 81 23 82 20 83 22 84 21 85
REMARK H PARENT 76 25 50 36 16 78
REMARK Flexibility Score: inf
ROOT
ATOM      1  C   UNL     1       1.672   2.193  -2.251  1.00  0.00     0.202 C 
ENDROOT
BRANCH   1   2
ATOM      2  O   UNL     1       2.534   1.673  -1.249  1.00  0.00    -0.374 OA
BRANCH   2   3
ATOM      3  C   UNL     1       2.515   0.252  -1.185  1.00  0.00     0.202 C 
BRANCH   3   4
ATOM      4  C   UNL     1       2.222  -0.306   0.203  1.00  0.00     0.261 C 
BRANCH   4   5
ATOM      5  O   UNL     1       0.881   0.066   0.597  1.00  0.00    -0.460 OA
BRANCH   5   6
ATOM      6  C   UNL     1       0.550   0.712   1.741  1.00  0.00     0.338 C 
ATOM      7  O   UNL     1      -0.587   0.648   2.200  1.00  0.00    -0.246 OA
BRANCH   6   8
ATOM      8  C   UNL     1       1.587   1.481   2.464  1.00  0.00     0.060 A 
ATOM      9  C   UNL     1       2.545   2.208   1.772  1.00  0.00     0.016 A 
ATOM     10  C   UNL     1       1.609   1.494   3.858  1.00  0.00     0.016 A 
ATOM     11  C   UNL     1       3.647   2.727   2.421  1.00  0.00     0.010 A 
ATOM     12  C   UNL     1       2.630   2.179   4.528  1.00  0.00     0.010 A 
ATOM     13  C   UNL     1       3.690   2.765   3.811  1.00  0.00    -0.014 A 
BRANCH  13  14
ATOM     14  C   UNL     1       4.861   3.376   4.491  1.00  0.00     0.031 A 
ATOM     15  C   UNL     1       5.604   2.581   5.524  1.00  0.00     0.074 A 
ATOM     16  C   UNL     1       5.303   4.603   4.148  1.00  0.00     0.049 A 
ATOM     17  N   UNL     1       6.452   2.987   6.430  1.00  0.00    -0.248 NA
ATOM     18  C   UNL     1       5.347   1.131   5.549  1.00  0.00     0.031 C 
ATOM     19  C   UNL     1       4.766   5.438   3.069  1.00  0.00     0.029 A 
ATOM     20  N   UNL     1       6.334   5.355   4.652  1.00  0.00    -0.354 N 
ATOM     21  C   UNL     1       6.746   1.868   7.199  1.00  0.00     0.074 A 
ATOM     22  C   UNL     1       6.018   0.756   6.628  1.00  0.00     0.031 C 
ATOM     23  C   UNL     1       5.526   6.533   2.933  1.00  0.00     0.029 A 
ATOM     24  C   UNL     1       6.494   6.564   4.017  1.00  0.00     0.049 A 
ATOM     25  H   UNL     1       6.905   5.057   5.397  1.00  0.00     0.167 HD
ATOM     26  C   UNL     1       7.528   1.800   8.301  1.00  0.00     0.037 A 
ATOM     27  C   UNL     1       7.278   7.614   4.320  1.00  0.00     0.037 A 
ATOM     28  C   UNL     1       8.291   2.916   8.799  1.00  0.00     0.049 A 
ATOM     29  C   UNL     1       8.102   7.536   5.572  1.00  0.00     0.074 A 
ATOM     30  C   UNL     1       9.085   2.990   9.929  1.00  0.00     0.029 A 
ATOM     31  N   UNL     1       8.373   4.152   8.170  1.00  0.00    -0.354 N 
ATOM     32  N   UNL     1       8.251   6.532   6.404  1.00  0.00    -0.248 NA
ATOM     33  C   UNL     1       8.828   8.752   5.956  1.00  0.00     0.031 C 
ATOM     34  C   UNL     1       9.616   4.283  10.004  1.00  0.00     0.029 A 
ATOM     35  C   UNL     1       9.199   4.997   8.890  1.00  0.00     0.049 A 
ATOM     36  H   UNL     1       7.911   4.391   7.334  1.00  0.00     0.167 HD
ATOM     37  C   UNL     1       9.096   6.990   7.404  1.00  0.00     0.074 A 
ATOM     38  C   UNL     1       9.445   8.354   7.060  1.00  0.00     0.031 C 
ATOM     39  C   UNL     1       9.536   6.346   8.514  1.00  0.00     0.037 A 
BRANCH  26  40
ATOM     40  C   UNL     1       7.512   0.518   9.081  1.00  0.00     0.057 A 
ATOM     41  C   UNL     1       8.104  -0.664   8.621  1.00  0.00     0.134 A 
ATOM     42  C   UNL     1       6.865   0.471  10.325  1.00  0.00     0.134 A 
ATOM     43  F   UNL     1       8.714  -0.699   7.426  1.00  0.00    -0.206 F 
ATOM     44  C   UNL     1       8.029  -1.851   9.354  1.00  0.00     0.040 A 
ATOM     45  C   UNL     1       6.808  -0.701  11.079  1.00  0.00     0.040 A 
ATOM     46  F   UNL     1       6.271   1.565  10.826  1.00  0.00    -0.206 F 
ATOM     47  C   UNL     1       7.385  -1.870  10.590  1.00  0.00     0.006 A 
ENDBRANCH  26  40
BRANCH  27  48
ATOM     48  C   UNL     1       7.249   8.846   3.487  1.00  0.00     0.057 A 
ATOM     49  C   UNL     1       8.385   9.281   2.796  1.00  0.00     0.134 A 
ATOM     50  C   UNL     1       6.090   9.626   3.365  1.00  0.00     0.134 A 
ATOM     51  F   UNL     1       9.537   8.600   2.892  1.00  0.00    -0.206 F 
ATOM     52  C   UNL     1       8.373  10.445   2.023  1.00  0.00     0.040 A 
ATOM     53  C   UNL     1       6.052  10.769   2.566  1.00  0.00     0.040 A 
ATOM     54  F   UNL     1       4.964   9.275   4.005  1.00  0.00    -0.206 F 
ATOM     55  C   UNL     1       7.200  11.187   1.898  1.00  0.00     0.006 A 
ENDBRANCH  27  48
BRANCH  39  56
ATOM     56  C   UNL     1      10.485   7.101   9.394  1.00  0.00     0.057 A 
ATOM     57  C   UNL     1      10.064   8.167  10.198  1.00  0.00     0.134 A 
ATOM     58  C   UNL     1      11.837   6.741   9.445  1.00  0.00     0.134 A 
ATOM     59  F   UNL     1       8.785   8.570  10.181  1.00  0.00    -0.206 F 
ATOM     60  C   UNL     1      10.964   8.870  11.000  1.00  0.00     0.040 A 
ATOM     61  C   UNL     1      12.739   7.417  10.265  1.00  0.00     0.040 A 
ATOM     62  F   UNL     1      12.300   5.723   8.704  1.00  0.00    -0.206 F 
ATOM     63  C   UNL     1      12.305   8.491  11.039  1.00  0.00     0.006 A 
ENDBRANCH  39  56
ENDBRANCH  13  14
ENDBRANCH   6   8
ENDBRANCH   5   6
ENDBRANCH   4   5
ENDBRANCH   3   4
ENDBRANCH   2   3
ENDBRANCH   1   2
BRANCH   1  64
ATOM     64  C   UNL     1       2.271   2.122  -3.658  1.00  0.00     0.261 C 
BRANCH  64  65
ATOM     65  O   UNL     1       2.849   0.833  -3.975  1.00  0.00    -0.463 OA
BRANCH  65  66
ATOM     66  C   UNL     1       4.213   0.777  -3.952  1.00  0.00     0.312 C 
ATOM     67  O   UNL     1       4.932   1.719  -3.641  1.00  0.00    -0.252 OA
BRANCH  66  68
ATOM     68  C   UNL     1       4.723  -0.494  -4.590  1.00  0.00     0.147 C 
ATOM     69  C   UNL     1       4.543  -1.914  -3.985  1.00  0.00     0.128 C 
ATOM     70  C   UNL     1       6.255  -0.456  -4.802  1.00  0.00     0.157 C 
ATOM     71  C   UNL     1       5.934  -2.512  -4.155  1.00  0.00     0.155 C 
ATOM     72  C   UNL     1       6.590  -1.320  -5.981  1.00  0.00     0.004 C 
ATOM     73  O   UNL     1       6.720  -1.357  -3.765  1.00  0.00    -0.365 OA
ATOM     74  C   UNL     1       6.345  -2.582  -5.598  1.00  0.00     0.004 C 
BRANCH  69  75
ATOM     75  C   UNL     1       3.986  -2.171  -2.594  1.00  0.00     0.227 C 
ATOM     76  O   UNL     1       2.777  -2.438  -2.507  1.00  0.00    -0.275 OA
ATOM     77  N   UNL     1       4.637  -2.157  -1.405  1.00  0.00    -0.352 N 
ATOM     78  H   UNL     1       4.021  -2.358  -0.664  1.00  0.00     0.163 HD
BRANCH  77  79
ATOM     79  C   UNL     1       5.994  -1.930  -0.910  1.00  0.00     0.151 C 
BRANCH  79  80
ATOM     80  C   UNL     1       6.204  -0.572  -0.282  1.00  0.00    -0.026 A 
ATOM     81  C   UNL     1       6.383  -0.406   1.095  1.00  0.00     0.025 A 
ATOM     82  C   UNL     1       6.302   0.571  -1.074  1.00  0.00     0.025 A 
ATOM     83  C   UNL     1       6.644   0.868   1.594  1.00  0.00     0.111 A 
ATOM     84  C   UNL     1       6.519   1.809  -0.489  1.00  0.00     0.111 A 
ATOM     85  N   UNL     1       6.695   1.980   0.833  1.00  0.00    -0.265 NA
ENDBRANCH  79  80
ENDBRANCH  77  79
ENDBRANCH  69  75
ENDBRANCH  66  68
ENDBRANCH  65  66
ENDBRANCH  64  65
ENDBRANCH   1  64
TORSDOF 17
