REMARK SMILES O=C(OCCOCCOC(=O)c1ccc(-c2c3nc(c(-c4c(F)cccc4F)c4ccc([nH]4)c(-c4c(F)cccc4F)c4nc(c(-c5c(F)cccc5F)c5ccc2[nH]5)C=C4)C=C3)cc1)C1=Cc2c(ccc(Cl)c2Oc2ccccc2)O[C@H]1C(F)(F)F
REMARK SMILES IDX 6 1 5 2 4 3 3 4 2 5 1 6 66 7 67 8 83 9 68 10 82 11 69 12
REMARK SMILES IDX 74 13 70 14 72 15 71 16 73 17 84 18 85 19 86 20 87 21 75 22
REMARK SMILES IDX 76 23 77 24 81 25 78 26 80 27 79 28 7 29 8 30 9 31 10 32
REMARK SMILES IDX 11 33 12 34 13 35 65 36 14 37 64 38 15 39 16 40 17 41 58 42
REMARK SMILES IDX 18 43 63 44 57 45 59 46 19 47 62 48 56 49 55 50 20 52 46 53
REMARK SMILES IDX 29 54 45 55 30 56 33 57 44 58 60 59 31 60 32 61 43 63 61 64
REMARK SMILES IDX 34 65 21 66 22 67 27 68 23 69 24 70 26 71 28 72 25 73 47 74
REMARK SMILES IDX 48 75 53 76 49 77 50 78 52 79 54 80 51 81 35 82 36 83 41 84
REMARK SMILES IDX 37 85 38 86 40 87 42 88 39 89
REMARK H PARENT 59 51 33 62
REMARK Flexibility Score: inf
ROOT
ATOM      1  O   UNL     1       2.292  -0.090   3.097  1.00  0.00    -0.374 OA
ENDROOT
BRANCH   1   2
ATOM      2  C   UNL     1       2.618  -0.971   2.056  1.00  0.00     0.202 C 
BRANCH   2   3
ATOM      3  C   UNL     1       1.924  -0.952   0.649  1.00  0.00     0.261 C 
BRANCH   3   4
ATOM      4  O   UNL     1       1.689  -2.281   0.163  1.00  0.00    -0.460 OA
BRANCH   4   5
ATOM      5  C   UNL     1       2.671  -3.094  -0.264  1.00  0.00     0.338 C 
ATOM      6  O   UNL     1       2.407  -4.179  -0.769  1.00  0.00    -0.246 OA
BRANCH   5   7
ATOM      7  C   UNL     1       4.078  -2.705  -0.081  1.00  0.00     0.088 C 
ATOM      8  C   UNL     1       4.574  -1.654   0.585  1.00  0.00     0.031 C 
ATOM      9  C   UNL     1       5.114  -3.730  -0.335  1.00  0.00     0.316 C 
ATOM     10  C   UNL     1       5.298  -0.793  -0.308  1.00  0.00     0.062 A 
ATOM     11  O   UNL     1       6.338  -3.025  -0.808  1.00  0.00    -0.475 OA
ATOM     12  C   UNL     1       6.222  -1.639  -1.048  1.00  0.00     0.131 A 
ATOM     13  C   UNL     1       5.059   0.588  -0.526  1.00  0.00     0.156 A 
ATOM     14  C   UNL     1       6.973  -1.109  -2.066  1.00  0.00     0.049 A 
ATOM     15  C   UNL     1       5.775   1.017  -1.673  1.00  0.00     0.084 A 
ATOM     16  C   UNL     1       6.728   0.221  -2.390  1.00  0.00     0.028 A 
ATOM     17  Cl  UNL     1       5.373   2.489  -2.462  1.00  0.00    -0.080 Cl
BRANCH   9  18
ATOM     18  C   UNL     1       5.257  -4.521   1.001  1.00  0.00     0.430 C 
ATOM     19  F   UNL     1       4.165  -4.361   1.806  1.00  0.00    -0.167 F 
ATOM     20  F   UNL     1       5.397  -5.848   0.814  1.00  0.00    -0.167 F 
ATOM     21  F   UNL     1       6.311  -4.084   1.731  1.00  0.00    -0.167 F 
ENDBRANCH   9  18
BRANCH  13  22
ATOM     22  O   UNL     1       4.091   1.513  -0.042  1.00  0.00    -0.455 OA
BRANCH  22  23
ATOM     23  C   UNL     1       3.335   1.731   1.155  1.00  0.00     0.127 A 
ATOM     24  C   UNL     1       1.678   2.438   0.886  1.00  0.00     0.047 A 
ATOM     25  C   UNL     1       3.926   1.589   2.833  1.00  0.00     0.047 A 
ATOM     26  C   UNL     1       0.583   2.853   2.290  1.00  0.00     0.004 A 
ATOM     27  C   UNL     1       2.853   1.965   4.267  1.00  0.00     0.004 A 
ATOM     28  C   UNL     1       1.191   2.652   4.011  1.00  0.00     0.000 A 
ENDBRANCH  22  23
ENDBRANCH  13  22
ENDBRANCH   5   7
ENDBRANCH   4   5
ENDBRANCH   3   4
ENDBRANCH   2   3
ENDBRANCH   1   2
BRANCH   1  29
ATOM     29  C   UNL     1       1.804   1.219   2.612  1.00  0.00     0.202 C 
BRANCH  29  30
ATOM     30  C   UNL     1       2.626   3.240   2.621  1.00  0.00     0.261 C 
BRANCH  30  31
ATOM     31  O   UNL     1       3.248   4.008   1.490  1.00  0.00    -0.460 OA
BRANCH  31  32
ATOM     32  C   UNL     1       4.398   4.668   1.705  1.00  0.00     0.338 C 
ATOM     33  O   UNL     1       5.104   4.715   2.692  1.00  0.00    -0.246 OA
BRANCH  32  34
ATOM     34  C   UNL     1       4.718   5.198   0.389  1.00  0.00     0.060 A 
ATOM     35  C   UNL     1       5.965   4.884  -0.141  1.00  0.00     0.016 A 
ATOM     36  C   UNL     1       3.750   5.911  -0.331  1.00  0.00     0.016 A 
ATOM     37  C   UNL     1       6.270   5.319  -1.420  1.00  0.00     0.010 A 
ATOM     38  C   UNL     1       4.051   6.333  -1.611  1.00  0.00     0.010 A 
ATOM     39  C   UNL     1       5.320   6.058  -2.144  1.00  0.00    -0.014 A 
BRANCH  39  40
ATOM     40  C   UNL     1       5.742   6.842  -3.313  1.00  0.00     0.031 A 
ATOM     41  C   UNL     1       6.314   8.191  -3.019  1.00  0.00     0.074 A 
ATOM     42  C   UNL     1       5.524   6.432  -4.570  1.00  0.00     0.049 A 
ATOM     43  N   UNL     1       6.570   9.175  -3.834  1.00  0.00    -0.248 NA
ATOM     44  C   UNL     1       6.596   8.481  -1.601  1.00  0.00     0.031 C 
ATOM     45  C   UNL     1       4.976   5.140  -4.962  1.00  0.00     0.029 A 
ATOM     46  N   UNL     1       5.710   7.096  -5.755  1.00  0.00    -0.354 N 
ATOM     47  C   UNL     1       7.018  10.207  -3.026  1.00  0.00     0.074 A 
ATOM     48  C   UNL     1       6.987   9.740  -1.660  1.00  0.00     0.031 C 
ATOM     49  C   UNL     1       4.866   5.099  -6.300  1.00  0.00     0.029 A 
ATOM     50  C   UNL     1       5.260   6.396  -6.845  1.00  0.00     0.049 A 
ATOM     51  H   UNL     1       6.126   7.986  -5.816  1.00  0.00     0.167 HD
ATOM     52  C   UNL     1       7.403  11.448  -3.392  1.00  0.00     0.037 A 
ATOM     53  C   UNL     1       5.124   6.786  -8.127  1.00  0.00     0.037 A 
ATOM     54  C   UNL     1       7.378  11.919  -4.746  1.00  0.00     0.049 A 
ATOM     55  C   UNL     1       5.495   8.194  -8.508  1.00  0.00     0.074 A 
ATOM     56  C   UNL     1       7.752  13.156  -5.231  1.00  0.00     0.029 A 
ATOM     57  N   UNL     1       6.924  11.177  -5.828  1.00  0.00    -0.354 N 
ATOM     58  N   UNL     1       5.949   9.164  -7.750  1.00  0.00    -0.248 NA
ATOM     59  C   UNL     1       5.319   8.569  -9.917  1.00  0.00     0.031 C 
ATOM     60  C   UNL     1       7.465  13.187  -6.598  1.00  0.00     0.029 A 
ATOM     61  C   UNL     1       6.982  11.943  -6.978  1.00  0.00     0.049 A 
ATOM     62  H   UNL     1       6.609  10.246  -5.784  1.00  0.00     0.167 HD
ATOM     63  C   UNL     1       6.141  10.252  -8.592  1.00  0.00     0.074 A 
ATOM     64  C   UNL     1       5.754   9.822  -9.920  1.00  0.00     0.031 C 
ATOM     65  C   UNL     1       6.602  11.492  -8.294  1.00  0.00     0.037 A 
BRANCH  52  66
ATOM     66  C   UNL     1       7.798  12.376  -2.286  1.00  0.00     0.057 A 
ATOM     67  C   UNL     1       8.954  12.171  -1.519  1.00  0.00     0.134 A 
ATOM     68  C   UNL     1       6.974  13.454  -1.943  1.00  0.00     0.134 A 
ATOM     69  F   UNL     1       9.766  11.133  -1.775  1.00  0.00    -0.206 F 
ATOM     70  C   UNL     1       9.252  12.981  -0.423  1.00  0.00     0.040 A 
ATOM     71  C   UNL     1       7.281  14.291  -0.872  1.00  0.00     0.040 A 
ATOM     72  F   UNL     1       5.848  13.697  -2.630  1.00  0.00    -0.206 F 
ATOM     73  C   UNL     1       8.415  14.047  -0.100  1.00  0.00     0.006 A 
ENDBRANCH  52  66
BRANCH  53  74
ATOM     74  C   UNL     1       4.571   5.840  -9.128  1.00  0.00     0.057 A 
ATOM     75  C   UNL     1       5.374   5.310 -10.144  1.00  0.00     0.134 A 
ATOM     76  C   UNL     1       3.231   5.432  -9.086  1.00  0.00     0.134 A 
ATOM     77  F   UNL     1       6.658   5.681 -10.251  1.00  0.00    -0.206 F 
ATOM     78  C   UNL     1       4.865   4.414 -11.085  1.00  0.00     0.040 A 
ATOM     79  C   UNL     1       2.716   4.515 -10.003  1.00  0.00     0.040 A 
ATOM     80  F   UNL     1       2.409   5.901  -8.135  1.00  0.00    -0.206 F 
ATOM     81  C   UNL     1       3.534   4.007 -11.010  1.00  0.00     0.006 A 
ENDBRANCH  53  74
BRANCH  65  82
ATOM     82  C   UNL     1       6.775  12.464  -9.425  1.00  0.00     0.057 A 
ATOM     83  C   UNL     1       5.687  13.081 -10.054  1.00  0.00     0.134 A 
ATOM     84  C   UNL     1       8.060  12.854  -9.825  1.00  0.00     0.134 A 
ATOM     85  F   UNL     1       4.430  12.745  -9.726  1.00  0.00    -0.206 F 
ATOM     86  C   UNL     1       5.872  14.044 -11.048  1.00  0.00     0.040 A 
ATOM     87  C   UNL     1       8.258  13.836 -10.795  1.00  0.00     0.040 A 
ATOM     88  F   UNL     1       9.146  12.310  -9.253  1.00  0.00    -0.206 F 
ATOM     89  C   UNL     1       7.161  14.433 -11.412  1.00  0.00     0.006 A 
ENDBRANCH  65  82
ENDBRANCH  39  40
ENDBRANCH  32  34
ENDBRANCH  31  32
ENDBRANCH  30  31
ENDBRANCH  29  30
ENDBRANCH   1  29
TORSDOF 17
