REMARK SMILES C[C@H](C(=O)OCCOCCOC(=O)c1ccc(-c2c3nc(c(-c4c(F)cccc4F)c4ccc([nH]4)c(-c4c(F)cccc4F)c4nc(c(-c5c(F)cccc5F)c5ccc2[nH]5)C=C4)C=C3)cc1)[C@H](C)[S@@](=O)C(C)(C)C
REMARK SMILES IDX 7 1 6 2 5 3 3 4 4 5 2 6 1 7 68 8 69 9 70 10 71 11 72 12
REMARK SMILES IDX 73 13 74 14 75 15 8 16 9 17 10 18 11 19 12 20 13 21 14 22
REMARK SMILES IDX 15 23 67 24 16 25 66 26 17 27 18 28 19 29 60 30 20 31 65 32
REMARK SMILES IDX 59 33 61 34 21 35 64 36 58 37 57 38 22 40 48 41 31 42 47 43
REMARK SMILES IDX 32 44 35 45 46 46 62 47 33 48 34 49 45 51 63 52 36 53 23 54
REMARK SMILES IDX 24 55 29 56 25 57 26 58 28 59 30 60 27 61 49 62 50 63 55 64
REMARK SMILES IDX 51 65 52 66 54 67 56 68 53 69 37 70 38 71 43 72 39 73 40 74
REMARK SMILES IDX 42 75 44 76 41 77
REMARK H PARENT 61 39 35 50
REMARK Flexibility Score: inf
ROOT
ATOM      1  C   UNL     1      -5.564  -0.461  -3.253  1.00  0.00     0.202 C 
ENDROOT
BRANCH   1   2
ATOM      2  C   UNL     1      -4.153  -0.519  -3.827  1.00  0.00     0.261 C 
BRANCH   2   3
ATOM      3  O   UNL     1      -3.177  -0.575  -2.773  1.00  0.00    -0.463 OA
BRANCH   3   4
ATOM      4  C   UNL     1      -2.016   0.062  -3.010  1.00  0.00     0.309 C 
ATOM      5  O   UNL     1      -1.786   0.746  -4.003  1.00  0.00    -0.252 OA
BRANCH   4   6
ATOM      6  C   UNL     1      -0.997  -0.074  -1.897  1.00  0.00     0.111 C 
ATOM      7  C   UNL     1      -1.214   1.135  -0.965  1.00  0.00     0.021 C 
BRANCH   6   8
ATOM      8  C   UNL     1      -0.873  -1.370  -1.075  1.00  0.00     0.090 C 
ATOM      9  C   UNL     1       0.508  -1.450  -0.402  1.00  0.00     0.023 C 
BRANCH   8  10
ATOM     10  S   UNL     1      -1.330  -2.992  -1.737  1.00  0.00     0.030 S 
ATOM     11  O   UNL     1      -2.808  -3.071  -1.953  1.00  0.00    -0.259 OA
BRANCH  10  12
ATOM     12  C   UNL     1      -0.446  -3.342  -3.297  1.00  0.00     0.038 C 
ATOM     13  C   UNL     1      -0.679  -2.317  -4.398  1.00  0.00     0.025 C 
ATOM     14  C   UNL     1       1.054  -3.521  -3.061  1.00  0.00     0.025 C 
ATOM     15  C   UNL     1      -1.013  -4.693  -3.799  1.00  0.00     0.025 C 
ENDBRANCH  10  12
ENDBRANCH   8  10
ENDBRANCH   6   8
ENDBRANCH   4   6
ENDBRANCH   3   4
ENDBRANCH   2   3
ENDBRANCH   1   2
BRANCH   1  16
ATOM     16  O   UNL     1      -5.900   0.744  -2.563  1.00  0.00    -0.374 OA
BRANCH  16  17
ATOM     17  C   UNL     1      -5.245   0.983  -1.319  1.00  0.00     0.202 C 
BRANCH  17  18
ATOM     18  C   UNL     1      -5.781   0.218  -0.101  1.00  0.00     0.261 C 
BRANCH  18  19
ATOM     19  O   UNL     1      -5.758  -1.211  -0.253  1.00  0.00    -0.460 OA
BRANCH  19  20
ATOM     20  C   UNL     1      -6.967  -1.769  -0.488  1.00  0.00     0.338 C 
ATOM     21  O   UNL     1      -8.052  -1.192  -0.537  1.00  0.00    -0.246 OA
BRANCH  20  22
ATOM     22  C   UNL     1      -6.846  -3.201  -0.807  1.00  0.00     0.060 A 
ATOM     23  C   UNL     1      -7.465  -3.661  -1.977  1.00  0.00     0.016 A 
ATOM     24  C   UNL     1      -6.263  -4.103   0.086  1.00  0.00     0.016 A 
ATOM     25  C   UNL     1      -7.556  -5.028  -2.230  1.00  0.00     0.010 A 
ATOM     26  C   UNL     1      -6.365  -5.477  -0.163  1.00  0.00     0.010 A 
ATOM     27  C   UNL     1      -7.048  -5.945  -1.300  1.00  0.00    -0.014 A 
BRANCH  27  28
ATOM     28  C   UNL     1      -7.374  -7.384  -1.446  1.00  0.00     0.031 A 
ATOM     29  C   UNL     1      -8.536  -7.952  -0.679  1.00  0.00     0.074 A 
ATOM     30  C   UNL     1      -6.669  -8.169  -2.279  1.00  0.00     0.049 A 
ATOM     31  N   UNL     1      -8.990  -9.179  -0.644  1.00  0.00    -0.248 NA
ATOM     32  C   UNL     1      -9.289  -7.008   0.163  1.00  0.00     0.031 C 
ATOM     33  C   UNL     1      -5.545  -7.731  -3.103  1.00  0.00     0.029 A 
ATOM     34  N   UNL     1      -6.798  -9.506  -2.563  1.00  0.00    -0.354 N 
ATOM     35  C   UNL     1     -10.078  -9.155   0.219  1.00  0.00     0.074 A 
ATOM     36  C   UNL     1     -10.200  -7.799   0.710  1.00  0.00     0.031 C 
ATOM     37  C   UNL     1      -5.078  -8.785  -3.795  1.00  0.00     0.029 A 
ATOM     38  C   UNL     1      -5.854  -9.973  -3.442  1.00  0.00     0.049 A 
ATOM     39  H   UNL     1      -7.501 -10.074  -2.173  1.00  0.00     0.167 HD
ATOM     40  C   UNL     1     -10.907 -10.168   0.566  1.00  0.00     0.037 A 
ATOM     41  C   UNL     1      -5.631 -11.222  -3.895  1.00  0.00     0.037 A 
ATOM     42  C   UNL     1     -10.787 -11.518   0.083  1.00  0.00     0.049 A 
ATOM     43  C   UNL     1      -6.526 -12.346  -3.446  1.00  0.00     0.074 A 
ATOM     44  C   UNL     1     -11.584 -12.613   0.369  1.00  0.00     0.029 A 
ATOM     45  N   UNL     1      -9.799 -11.959  -0.785  1.00  0.00    -0.354 N 
ATOM     46  N   UNL     1      -7.563 -12.309  -2.645  1.00  0.00    -0.248 NA
ATOM     47  C   UNL     1      -6.220 -13.686  -3.968  1.00  0.00     0.031 C 
ATOM     48  C   UNL     1     -11.055 -13.725  -0.296  1.00  0.00     0.029 A 
ATOM     49  C   UNL     1      -9.953 -13.313  -1.028  1.00  0.00     0.049 A 
ATOM     50  H   UNL     1      -9.092 -11.392  -1.171  1.00  0.00     0.167 HD
ATOM     51  C   UNL     1      -8.046 -13.610  -2.584  1.00  0.00     0.074 A 
ATOM     52  C   UNL     1      -7.195 -14.412  -3.438  1.00  0.00     0.031 C 
ATOM     53  C   UNL     1      -9.099 -14.097  -1.883  1.00  0.00     0.037 A 
BRANCH  40  54
ATOM     54  C   UNL     1     -12.009  -9.854   1.533  1.00  0.00     0.057 A 
ATOM     55  C   UNL     1     -13.136  -9.114   1.152  1.00  0.00     0.134 A 
ATOM     56  C   UNL     1     -11.955 -10.316   2.854  1.00  0.00     0.134 A 
ATOM     57  F   UNL     1     -13.242  -8.632  -0.095  1.00  0.00    -0.206 F 
ATOM     58  C   UNL     1     -14.160  -8.827   2.057  1.00  0.00     0.040 A 
ATOM     59  C   UNL     1     -12.982 -10.054   3.761  1.00  0.00     0.040 A 
ATOM     60  F   UNL     1     -10.905 -11.034   3.281  1.00  0.00    -0.206 F 
ATOM     61  C   UNL     1     -14.086  -9.303   3.365  1.00  0.00     0.006 A 
ENDBRANCH  40  54
BRANCH  41  62
ATOM     62  C   UNL     1      -4.500 -11.481  -4.819  1.00  0.00     0.057 A 
ATOM     63  C   UNL     1      -4.718 -11.801  -6.163  1.00  0.00     0.134 A 
ATOM     64  C   UNL     1      -3.174 -11.428  -4.373  1.00  0.00     0.134 A 
ATOM     65  F   UNL     1      -5.967 -11.893  -6.641  1.00  0.00    -0.206 F 
ATOM     66  C   UNL     1      -3.658 -12.070  -7.030  1.00  0.00     0.040 A 
ATOM     67  C   UNL     1      -2.103 -11.673  -5.234  1.00  0.00     0.040 A 
ATOM     68  F   UNL     1      -2.900 -11.129  -3.095  1.00  0.00    -0.206 F 
ATOM     69  C   UNL     1      -2.345 -12.001  -6.567  1.00  0.00     0.006 A 
ENDBRANCH  41  62
BRANCH  53  70
ATOM     70  C   UNL     1      -9.408 -15.557  -2.032  1.00  0.00     0.057 A 
ATOM     71  C   UNL     1      -8.622 -16.543  -1.422  1.00  0.00     0.134 A 
ATOM     72  C   UNL     1     -10.529 -15.980  -2.758  1.00  0.00     0.134 A 
ATOM     73  F   UNL     1      -7.528 -16.203  -0.723  1.00  0.00    -0.206 F 
ATOM     74  C   UNL     1      -8.929 -17.899  -1.544  1.00  0.00     0.040 A 
ATOM     75  C   UNL     1     -10.859 -17.331  -2.869  1.00  0.00     0.040 A 
ATOM     76  F   UNL     1     -11.328 -15.085  -3.359  1.00  0.00    -0.206 F 
ATOM     77  C   UNL     1     -10.055 -18.295  -2.264  1.00  0.00     0.006 A 
ENDBRANCH  53  70
ENDBRANCH  27  28
ENDBRANCH  20  22
ENDBRANCH  19  20
ENDBRANCH  18  19
ENDBRANCH  17  18
ENDBRANCH  16  17
ENDBRANCH   1  16
TORSDOF 17
