REMARK SMILES CCCCN(c1ccccc1C(=O)OCCOCCOC(=O)c1ccc(-c2c3nc(c(-c4c(F)cccc4F)c4ccc([nH]4)c(-c4c(F)cccc4F)c4nc(c(-c5c(F)cccc5F)c5ccc2[nH]5)C=C4)C=C3)cc1)S(=O)(=O)c1ccc2c(c1)oc(=O)n2C
REMARK SMILES IDX 16 1 15 2 14 3 12 4 13 5 11 6 6 7 7 8 8 9 10 10 9 11 5 12
REMARK SMILES IDX 4 13 3 14 2 15 1 16 77 17 78 18 79 19 80 20 81 21 85 22
REMARK SMILES IDX 82 23 84 24 83 25 86 26 89 27 87 28 90 29 88 30 17 31 18 32
REMARK SMILES IDX 19 33 20 34 21 35 22 36 23 37 24 38 76 39 25 40 75 41 26 42
REMARK SMILES IDX 27 43 28 44 69 45 29 46 74 47 68 48 70 49 30 50 73 51 67 52
REMARK SMILES IDX 66 53 31 55 57 56 40 57 56 58 41 59 44 60 55 61 71 62 42 63
REMARK SMILES IDX 43 64 54 66 72 67 45 68 32 69 33 70 38 71 34 72 35 73 37 74
REMARK SMILES IDX 39 75 36 76 58 77 59 78 64 79 60 80 61 81 63 82 65 83 62 84
REMARK SMILES IDX 46 85 47 86 52 87 48 88 49 89 51 90 53 91 50 92
REMARK H PARENT 70 54 44 65
REMARK Flexibility Score: inf
ROOT
ATOM      1  C   UNL     1       2.411   0.016   5.696  1.00  0.00     0.202 C 
ENDROOT
BRANCH   1   2
ATOM      2  C   UNL     1       2.262  -1.314   4.954  1.00  0.00     0.261 C 
BRANCH   2   3
ATOM      3  O   UNL     1       0.927  -1.508   4.455  1.00  0.00    -0.460 OA
BRANCH   3   4
ATOM      4  C   UNL     1       0.385  -2.700   4.781  1.00  0.00     0.340 C 
ATOM      5  O   UNL     1       0.952  -3.620   5.354  1.00  0.00    -0.246 OA
BRANCH   4   6
ATOM      6  C   UNL     1      -1.059  -2.785   4.482  1.00  0.00     0.084 A 
ATOM      7  C   UNL     1      -1.571  -3.044   3.197  1.00  0.00     0.066 A 
ATOM      8  C   UNL     1      -2.731  -3.831   3.155  1.00  0.00     0.028 A 
ATOM      9  C   UNL     1      -3.484  -4.145   4.292  1.00  0.00     0.002 A 
ATOM     10  C   UNL     1      -1.815  -3.105   5.636  1.00  0.00     0.018 A 
ATOM     11  C   UNL     1      -3.050  -3.732   5.538  1.00  0.00     0.001 A 
BRANCH   7  12
ATOM     12  N   UNL     1      -1.151  -2.446   1.903  1.00  0.00    -0.265 N 
BRANCH  12  13
ATOM     13  C   UNL     1       0.331  -2.271   1.714  1.00  0.00     0.136 C 
BRANCH  13  14
ATOM     14  C   UNL     1       0.863  -2.727   0.356  1.00  0.00     0.022 C 
BRANCH  14  15
ATOM     15  C   UNL     1       0.774  -1.763  -0.825  1.00  0.00    -0.002 C 
ATOM     16  C   UNL     1       1.171  -0.339  -0.490  1.00  0.00     0.004 C 
ENDBRANCH  14  15
ENDBRANCH  13  14
ENDBRANCH  12  13
BRANCH  12  17
ATOM     17  S   UNL     1      -2.043  -0.962   1.499  1.00  0.00     0.264 S 
ATOM     18  O   UNL     1      -1.919  -0.054   2.620  1.00  0.00    -0.201 OA
ATOM     19  O   UNL     1      -1.710  -0.536   0.160  1.00  0.00    -0.201 OA
BRANCH  17  20
ATOM     20  C   UNL     1      -3.759  -1.393   1.355  1.00  0.00     0.091 A 
ATOM     21  C   UNL     1      -4.742  -0.533   1.896  1.00  0.00     0.025 A 
ATOM     22  C   UNL     1      -4.101  -2.601   0.752  1.00  0.00     0.071 A 
ATOM     23  C   UNL     1      -6.076  -0.947   1.965  1.00  0.00     0.032 A 
ATOM     24  C   UNL     1      -5.391  -3.032   0.952  1.00  0.00     0.157 A 
ATOM     25  C   UNL     1      -6.348  -2.233   1.547  1.00  0.00     0.090 A 
ATOM     26  O   UNL     1      -5.832  -4.322   0.711  1.00  0.00    -0.408 OA
ATOM     27  N   UNL     1      -7.465  -3.021   1.657  1.00  0.00    -0.277 N 
ATOM     28  C   UNL     1      -7.132  -4.295   1.234  1.00  0.00     0.419 A 
ATOM     29  C   UNL     1      -8.728  -2.651   2.221  1.00  0.00     0.157 C 
ATOM     30  O   UNL     1      -7.835  -5.288   1.315  1.00  0.00    -0.223 OA
ENDBRANCH  17  20
ENDBRANCH  12  17
ENDBRANCH   7  12
ENDBRANCH   4   6
ENDBRANCH   3   4
ENDBRANCH   2   3
ENDBRANCH   1   2
BRANCH   1  31
ATOM     31  O   UNL     1       1.519   0.288   6.771  1.00  0.00    -0.374 OA
BRANCH  31  32
ATOM     32  C   UNL     1       0.119   0.288   6.509  1.00  0.00     0.202 C 
BRANCH  32  33
ATOM     33  C   UNL     1      -0.462   1.297   5.505  1.00  0.00     0.261 C 
BRANCH  33  34
ATOM     34  O   UNL     1       0.214   1.363   4.240  1.00  0.00    -0.460 OA
BRANCH  34  35
ATOM     35  C   UNL     1       0.897   2.511   4.014  1.00  0.00     0.338 C 
ATOM     36  O   UNL     1       1.059   3.446   4.779  1.00  0.00    -0.246 OA
BRANCH  35  37
ATOM     37  C   UNL     1       1.540   2.461   2.691  1.00  0.00     0.060 A 
ATOM     38  C   UNL     1       2.924   2.265   2.607  1.00  0.00     0.016 A 
ATOM     39  C   UNL     1       0.796   2.762   1.553  1.00  0.00     0.016 A 
ATOM     40  C   UNL     1       3.577   2.389   1.378  1.00  0.00     0.010 A 
ATOM     41  C   UNL     1       1.453   2.889   0.326  1.00  0.00     0.010 A 
ATOM     42  C   UNL     1       2.851   2.725   0.230  1.00  0.00    -0.014 A 
BRANCH  42  43
ATOM     43  C   UNL     1       3.536   3.029  -1.055  1.00  0.00     0.031 A 
ATOM     44  C   UNL     1       3.545   4.449  -1.551  1.00  0.00     0.074 A 
ATOM     45  C   UNL     1       4.108   2.062  -1.797  1.00  0.00     0.049 A 
ATOM     46  N   UNL     1       3.956   4.926  -2.697  1.00  0.00    -0.248 NA
ATOM     47  C   UNL     1       3.033   5.469  -0.621  1.00  0.00     0.031 C 
ATOM     48  C   UNL     1       4.267   0.666  -1.402  1.00  0.00     0.029 A 
ATOM     49  N   UNL     1       4.626   2.102  -3.069  1.00  0.00    -0.354 N 
ATOM     50  C   UNL     1       3.754   6.299  -2.627  1.00  0.00     0.074 A 
ATOM     51  C   UNL     1       3.136   6.572  -1.347  1.00  0.00     0.031 C 
ATOM     52  C   UNL     1       4.741  -0.040  -2.440  1.00  0.00     0.029 A 
ATOM     53  C   UNL     1       4.949   0.861  -3.567  1.00  0.00     0.049 A 
ATOM     54  H   UNL     1       4.754   2.937  -3.575  1.00  0.00     0.167 HD
ATOM     55  C   UNL     1       4.079   7.248  -3.536  1.00  0.00     0.037 A 
ATOM     56  C   UNL     1       5.354   0.489  -4.795  1.00  0.00     0.037 A 
ATOM     57  C   UNL     1       4.695   6.970  -4.807  1.00  0.00     0.049 A 
ATOM     58  C   UNL     1       5.593   1.544  -5.838  1.00  0.00     0.074 A 
ATOM     59  C   UNL     1       5.094   7.864  -5.785  1.00  0.00     0.029 A 
ATOM     60  N   UNL     1       4.986   5.700  -5.282  1.00  0.00    -0.354 N 
ATOM     61  N   UNL     1       5.446   2.844  -5.745  1.00  0.00    -0.248 NA
ATOM     62  C   UNL     1       6.084   1.088  -7.146  1.00  0.00     0.031 C 
ATOM     63  C   UNL     1       5.567   7.131  -6.878  1.00  0.00     0.029 A 
ATOM     64  C   UNL     1       5.525   5.784  -6.555  1.00  0.00     0.049 A 
ATOM     65  H   UNL     1       4.832   4.862  -4.788  1.00  0.00     0.167 HD
ATOM     66  C   UNL     1       5.876   3.364  -6.959  1.00  0.00     0.074 A 
ATOM     67  C   UNL     1       6.285   2.238  -7.773  1.00  0.00     0.031 C 
ATOM     68  C   UNL     1       5.941   4.658  -7.354  1.00  0.00     0.037 A 
BRANCH  55  69
ATOM     69  C   UNL     1       3.754   8.673  -3.193  1.00  0.00     0.057 A 
ATOM     70  C   UNL     1       4.429   9.366  -2.178  1.00  0.00     0.134 A 
ATOM     71  C   UNL     1       2.767   9.370  -3.901  1.00  0.00     0.134 A 
ATOM     72  F   UNL     1       5.378   8.755  -1.452  1.00  0.00    -0.206 F 
ATOM     73  C   UNL     1       4.111  10.688  -1.859  1.00  0.00     0.040 A 
ATOM     74  C   UNL     1       2.462  10.701  -3.613  1.00  0.00     0.040 A 
ATOM     75  F   UNL     1       2.087   8.771  -4.890  1.00  0.00    -0.206 F 
ATOM     76  C   UNL     1       3.129  11.361  -2.583  1.00  0.00     0.006 A 
ENDBRANCH  55  69
BRANCH  56  77
ATOM     77  C   UNL     1       5.592  -0.946  -5.099  1.00  0.00     0.057 A 
ATOM     78  C   UNL     1       6.886  -1.437  -5.300  1.00  0.00     0.134 A 
ATOM     79  C   UNL     1       4.533  -1.856  -5.207  1.00  0.00     0.134 A 
ATOM     80  F   UNL     1       7.940  -0.610  -5.224  1.00  0.00    -0.206 F 
ATOM     81  C   UNL     1       7.120  -2.775  -5.623  1.00  0.00     0.040 A 
ATOM     82  C   UNL     1       4.754  -3.202  -5.506  1.00  0.00     0.040 A 
ATOM     83  F   UNL     1       3.268  -1.452  -5.017  1.00  0.00    -0.206 F 
ATOM     84  C   UNL     1       6.051  -3.663  -5.724  1.00  0.00     0.006 A 
ENDBRANCH  56  77
BRANCH  68  85
ATOM     85  C   UNL     1       6.521   4.941  -8.709  1.00  0.00     0.057 A 
ATOM     86  C   UNL     1       5.839   4.630  -9.891  1.00  0.00     0.134 A 
ATOM     87  C   UNL     1       7.759   5.588  -8.828  1.00  0.00     0.134 A 
ATOM     88  F   UNL     1       4.656   3.997  -9.848  1.00  0.00    -0.206 F 
ATOM     89  C   UNL     1       6.374   4.936 -11.144  1.00  0.00     0.040 A 
ATOM     90  C   UNL     1       8.290   5.927 -10.073  1.00  0.00     0.040 A 
ATOM     91  F   UNL     1       8.462   5.921  -7.735  1.00  0.00    -0.206 F 
ATOM     92  C   UNL     1       7.598   5.596 -11.236  1.00  0.00     0.006 A 
ENDBRANCH  68  85
ENDBRANCH  42  43
ENDBRANCH  35  37
ENDBRANCH  34  35
ENDBRANCH  33  34
ENDBRANCH  32  33
ENDBRANCH  31  32
ENDBRANCH   1  31
TORSDOF 20
