REMARK SMILES Nc1oc2ccc(F)cc2c(=O)c1[C@@H]1[NH2+][C@H](C(=O)OCCOCCOC(=O)c2ccc(-c3c4nc(c(-c5c(F)cccc5F)c5ccc([nH]5)c(-c5c(F)cccc5F)c5nc(c(-c6c(F)cccc6F)c6ccc3[nH]6)C=C5)C=C4)cc2)CS1
REMARK SMILES IDX 22 1 21 2 20 3 19 4 17 5 18 6 16 7 14 8 15 9 83 10 82 13
REMARK SMILES IDX 13 14 2 15 3 16 4 17 11 18 5 19 10 20 12 21 6 22 9 23 7 24
REMARK SMILES IDX 8 25 1 26 23 29 24 30 25 31 26 32 27 33 28 34 29 35 81 36
REMARK SMILES IDX 30 37 80 38 31 39 32 40 33 41 74 42 34 43 79 44 73 45 75 46
REMARK SMILES IDX 35 47 78 48 72 49 71 50 36 52 62 53 45 54 61 55 46 56 49 57
REMARK SMILES IDX 60 58 76 59 47 60 48 61 59 63 77 64 50 65 37 66 38 67 43 68
REMARK SMILES IDX 39 69 40 70 42 71 44 72 41 73 63 74 64 75 69 76 65 77 66 78
REMARK SMILES IDX 68 79 70 80 67 81 51 82 52 83 57 84 53 85 54 86 56 87 58 88
REMARK SMILES IDX 55 89
REMARK H PARENT 15 11 15 12 1 27 1 28 75 51 49 62
REMARK Flexibility Score: inf
ROOT
ATOM      1  O   UNL     1      -2.042  -1.823  -3.072  1.00  0.00    -0.374 OA
ENDROOT
BRANCH   1   2
ATOM      2  C   UNL     1      -2.197  -1.616  -1.666  1.00  0.00     0.202 C 
BRANCH   2   3
ATOM      3  C   UNL     1      -0.952  -1.855  -0.814  1.00  0.00     0.261 C 
BRANCH   3   4
ATOM      4  O   UNL     1       0.042  -0.880  -1.148  1.00  0.00    -0.459 OA
BRANCH   4   5
ATOM      5  C   UNL     1       1.328  -1.311  -1.153  1.00  0.00     0.365 C 
ATOM      6  O   UNL     1       1.696  -2.398  -0.719  1.00  0.00    -0.245 OA
BRANCH   5   7
ATOM      7  C   UNL     1       2.277  -0.352  -1.884  1.00  0.00     0.304 C 
ATOM      8  C   UNL     1       2.012   1.951  -1.192  1.00  0.00     0.283 C 
ATOM      9  N   UNL     1       1.697   0.971  -2.238  1.00  0.00    -0.319 N 
ATOM     10  S   UNL     1       3.596   1.481  -0.445  1.00  0.00    -0.087 SA
ATOM     11  H   UNL     1       2.089   1.286  -3.126  1.00  0.00     0.348 HD
ATOM     12  H   UNL     1       0.684   0.883  -2.321  1.00  0.00     0.348 HD
ATOM     13  C   UNL     1       3.588  -0.193  -1.125  1.00  0.00     0.153 C 
BRANCH   8  14
ATOM     14  C   UNL     1       0.907   2.196  -0.194  1.00  0.00     0.128 A 
ATOM     15  C   UNL     1       0.598   1.504   0.927  1.00  0.00     0.205 A 
ATOM     16  O   UNL     1      -0.477   1.815   1.745  1.00  0.00    -0.440 OA
ATOM     17  C   UNL     1      -0.983   3.080   1.695  1.00  0.00     0.140 A 
ATOM     18  C   UNL     1       0.106   3.429  -0.466  1.00  0.00     0.205 A 
ATOM     19  C   UNL     1      -1.768   3.502   2.766  1.00  0.00     0.051 A 
ATOM     20  C   UNL     1      -0.729   3.932   0.631  1.00  0.00     0.068 A 
ATOM     21  O   UNL     1       0.174   4.054  -1.518  1.00  0.00    -0.288 OA
ATOM     22  C   UNL     1      -2.288   4.796   2.772  1.00  0.00     0.043 A 
ATOM     23  C   UNL     1      -1.243   5.231   0.628  1.00  0.00     0.055 A 
ATOM     24  C   UNL     1      -2.015   5.649   1.707  1.00  0.00     0.124 A 
ATOM     25  F   UNL     1      -2.528   6.886   1.706  1.00  0.00    -0.207 F 
BRANCH  15  26
ATOM     26  N   UNL     1       1.286   0.427   1.406  1.00  0.00    -0.369 N 
ATOM     27  H   UNL     1       0.990  -0.019   2.232  1.00  0.00     0.159 HD
ATOM     28  H   UNL     1       2.079   0.097   0.925  1.00  0.00     0.159 HD
ENDBRANCH  15  26
ENDBRANCH   8  14
ENDBRANCH   5   7
ENDBRANCH   4   5
ENDBRANCH   3   4
ENDBRANCH   2   3
ENDBRANCH   1   2
BRANCH   1  29
ATOM     29  C   UNL     1      -1.254  -0.878  -3.797  1.00  0.00     0.202 C 
BRANCH  29  30
ATOM     30  C   UNL     1      -1.905   0.472  -4.131  1.00  0.00     0.261 C 
BRANCH  30  31
ATOM     31  O   UNL     1      -2.424   1.173  -2.992  1.00  0.00    -0.460 OA
BRANCH  31  32
ATOM     32  C   UNL     1      -3.769   1.085  -2.840  1.00  0.00     0.338 C 
ATOM     33  O   UNL     1      -4.560   0.500  -3.558  1.00  0.00    -0.246 OA
BRANCH  32  34
ATOM     34  C   UNL     1      -4.168   1.706  -1.562  1.00  0.00     0.060 A 
ATOM     35  C   UNL     1      -3.801   3.012  -1.254  1.00  0.00     0.016 A 
ATOM     36  C   UNL     1      -5.007   0.985  -0.702  1.00  0.00     0.016 A 
ATOM     37  C   UNL     1      -4.308   3.599  -0.093  1.00  0.00     0.010 A 
ATOM     38  C   UNL     1      -5.509   1.579   0.461  1.00  0.00     0.010 A 
ATOM     39  C   UNL     1      -5.173   2.900   0.775  1.00  0.00    -0.014 A 
BRANCH  39  40
ATOM     40  C   UNL     1      -5.805   3.629   1.911  1.00  0.00     0.031 A 
ATOM     41  C   UNL     1      -5.492   3.325   3.348  1.00  0.00     0.074 A 
ATOM     42  C   UNL     1      -6.644   4.645   1.630  1.00  0.00     0.049 A 
ATOM     43  N   UNL     1      -5.725   4.060   4.410  1.00  0.00    -0.248 NA
ATOM     44  C   UNL     1      -4.821   2.051   3.639  1.00  0.00     0.031 C 
ATOM     45  C   UNL     1      -7.083   5.022   0.285  1.00  0.00     0.029 A 
ATOM     46  N   UNL     1      -7.247   5.565   2.450  1.00  0.00    -0.354 N 
ATOM     47  C   UNL     1      -5.166   3.377   5.480  1.00  0.00     0.074 A 
ATOM     48  C   UNL     1      -4.653   2.129   4.954  1.00  0.00     0.031 C 
ATOM     49  C   UNL     1      -7.826   6.134   0.364  1.00  0.00     0.029 A 
ATOM     50  C   UNL     1      -7.948   6.527   1.764  1.00  0.00     0.049 A 
ATOM     51  H   UNL     1      -7.184   5.539   3.432  1.00  0.00     0.167 HD
ATOM     52  C   UNL     1      -5.059   3.767   6.775  1.00  0.00     0.037 A 
ATOM     53  C   UNL     1      -8.602   7.616   2.205  1.00  0.00     0.037 A 
ATOM     54  C   UNL     1      -5.671   4.949   7.332  1.00  0.00     0.049 A 
ATOM     55  C   UNL     1      -8.609   7.934   3.671  1.00  0.00     0.074 A 
ATOM     56  C   UNL     1      -5.628   5.416   8.636  1.00  0.00     0.029 A 
ATOM     57  N   UNL     1      -6.487   5.823   6.629  1.00  0.00    -0.354 N 
ATOM     58  N   UNL     1      -7.968   7.347   4.651  1.00  0.00    -0.248 NA
ATOM     59  C   UNL     1      -9.436   9.075   4.087  1.00  0.00     0.031 C 
ATOM     60  C   UNL     1      -6.472   6.531   8.735  1.00  0.00     0.029 A 
ATOM     61  C   UNL     1      -6.996   6.794   7.481  1.00  0.00     0.049 A 
ATOM     62  H   UNL     1      -6.677   5.764   5.665  1.00  0.00     0.167 HD
ATOM     63  C   UNL     1      -8.294   8.060   5.798  1.00  0.00     0.074 A 
ATOM     64  C   UNL     1      -9.173   9.136   5.384  1.00  0.00     0.031 C 
ATOM     65  C   UNL     1      -7.898   7.844   7.077  1.00  0.00     0.037 A 
BRANCH  52  66
ATOM     66  C   UNL     1      -4.240   2.892   7.679  1.00  0.00     0.057 A 
ATOM     67  C   UNL     1      -4.833   2.123   8.687  1.00  0.00     0.134 A 
ATOM     68  C   UNL     1      -2.843   2.833   7.559  1.00  0.00     0.134 A 
ATOM     69  F   UNL     1      -6.162   2.136   8.861  1.00  0.00    -0.206 F 
ATOM     70  C   UNL     1      -4.068   1.324   9.540  1.00  0.00     0.040 A 
ATOM     71  C   UNL     1      -2.070   2.025   8.394  1.00  0.00     0.040 A 
ATOM     72  F   UNL     1      -2.214   3.536   6.604  1.00  0.00    -0.206 F 
ATOM     73  C   UNL     1      -2.683   1.269   9.391  1.00  0.00     0.006 A 
ENDBRANCH  52  66
BRANCH  53  74
ATOM     74  C   UNL     1      -9.290   8.506   1.237  1.00  0.00     0.057 A 
ATOM     75  C   UNL     1     -10.429   8.083   0.543  1.00  0.00     0.134 A 
ATOM     76  C   UNL     1      -8.827   9.803   0.993  1.00  0.00     0.134 A 
ATOM     77  F   UNL     1     -10.920   6.849   0.735  1.00  0.00    -0.206 F 
ATOM     78  C   UNL     1     -11.076   8.912  -0.373  1.00  0.00     0.040 A 
ATOM     79  C   UNL     1      -9.479  10.654   0.100  1.00  0.00     0.040 A 
ATOM     80  F   UNL     1      -7.753  10.272   1.646  1.00  0.00    -0.206 F 
ATOM     81  C   UNL     1     -10.604  10.206  -0.591  1.00  0.00     0.006 A 
ENDBRANCH  53  74
BRANCH  65  82
ATOM     82  C   UNL     1      -8.417   8.802   8.112  1.00  0.00     0.057 A 
ATOM     83  C   UNL     1      -7.566   9.734   8.719  1.00  0.00     0.134 A 
ATOM     84  C   UNL     1      -9.771   8.833   8.479  1.00  0.00     0.134 A 
ATOM     85  F   UNL     1      -6.258   9.758   8.423  1.00  0.00    -0.206 F 
ATOM     86  C   UNL     1      -8.044  10.671   9.638  1.00  0.00     0.040 A 
ATOM     87  C   UNL     1     -10.266   9.785   9.373  1.00  0.00     0.040 A 
ATOM     88  F   UNL     1     -10.645   7.980   7.923  1.00  0.00    -0.206 F 
ATOM     89  C   UNL     1      -9.400  10.708   9.956  1.00  0.00     0.006 A 
ENDBRANCH  65  82
ENDBRANCH  39  40
ENDBRANCH  32  34
ENDBRANCH  31  32
ENDBRANCH  30  31
ENDBRANCH  29  30
ENDBRANCH   1  29
TORSDOF 16
