REMARK SMILES CCCC[C@H](C(=O)OCCOCCOC(=O)c1ccc(-c2c3nc(c(-c4c(F)cccc4F)c4ccc([nH]4)c(-c4c(F)cccc4F)c4nc(c(-c5c(F)cccc5F)c5ccc2[nH]5)C=C4)C=C3)cc1)c1ccnn1C
REMARK SMILES IDX 10 1 9 2 8 3 6 4 7 5 5 6 4 7 3 8 2 9 1 10 71 11 72 12 75 13
REMARK SMILES IDX 73 14 74 15 76 16 11 17 12 18 13 19 14 20 15 21 16 22 17 23
REMARK SMILES IDX 18 24 70 25 19 26 69 27 20 28 21 29 22 30 63 31 23 32 68 33
REMARK SMILES IDX 62 34 64 35 24 36 67 37 61 38 60 39 25 41 51 42 34 43 50 44
REMARK SMILES IDX 35 45 38 46 49 47 65 48 36 49 37 50 48 52 66 53 39 54 26 55
REMARK SMILES IDX 27 56 32 57 28 58 29 59 31 60 33 61 30 62 52 63 53 64 58 65
REMARK SMILES IDX 54 66 55 67 57 68 59 69 56 70 40 71 41 72 46 73 42 74 43 75
REMARK SMILES IDX 45 76 47 77 44 78
REMARK H PARENT 64 40 38 51
REMARK Flexibility Score: inf
ROOT
ATOM      1  C   UNL     1       2.985  -1.251  -2.942  1.00  0.00     0.202 C 
ENDROOT
BRANCH   1   2
ATOM      2  C   UNL     1       2.004  -0.651  -1.920  1.00  0.00     0.261 C 
BRANCH   2   3
ATOM      3  O   UNL     1       0.706  -1.216  -2.160  1.00  0.00    -0.463 OA
BRANCH   3   4
ATOM      4  C   UNL     1      -0.398  -0.565  -1.701  1.00  0.00     0.315 C 
ATOM      5  O   UNL     1      -0.359   0.362  -0.901  1.00  0.00    -0.251 OA
BRANCH   4   6
ATOM      6  C   UNL     1      -1.688  -1.014  -2.465  1.00  0.00     0.148 C 
BRANCH   6   7
ATOM      7  C   UNL     1      -1.784   0.045  -3.594  1.00  0.00     0.022 C 
BRANCH   7   8
ATOM      8  C   UNL     1      -3.022   0.208  -4.472  1.00  0.00     0.001 C 
BRANCH   8   9
ATOM      9  C   UNL     1      -4.361   0.323  -3.749  1.00  0.00    -0.003 C 
ATOM     10  C   UNL     1      -4.622   1.710  -3.191  1.00  0.00     0.004 C 
ENDBRANCH   8   9
ENDBRANCH   7   8
ENDBRANCH   6   7
BRANCH   6  11
ATOM     11  C   UNL     1      -1.603  -2.517  -2.788  1.00  0.00     0.052 A 
ATOM     12  C   UNL     1      -0.899  -3.486  -2.070  1.00  0.00     0.046 A 
ATOM     13  N   UNL     1      -2.287  -3.272  -3.724  1.00  0.00    -0.272 N 
ATOM     14  C   UNL     1      -1.068  -4.694  -2.747  1.00  0.00     0.135 A 
ATOM     15  N   UNL     1      -1.859  -4.551  -3.801  1.00  0.00    -0.182 NA
ATOM     16  C   UNL     1      -3.462  -2.985  -4.505  1.00  0.00     0.174 C 
ENDBRANCH   6  11
ENDBRANCH   4   6
ENDBRANCH   3   4
ENDBRANCH   2   3
ENDBRANCH   1   2
BRANCH   1  17
ATOM     17  O   UNL     1       2.837  -0.796  -4.294  1.00  0.00    -0.374 OA
BRANCH  17  18
ATOM     18  C   UNL     1       1.631  -1.145  -4.971  1.00  0.00     0.202 C 
BRANCH  18  19
ATOM     19  C   UNL     1       1.565  -2.527  -5.624  1.00  0.00     0.261 C 
BRANCH  19  20
ATOM     20  O   UNL     1       1.803  -3.586  -4.689  1.00  0.00    -0.460 OA
BRANCH  20  21
ATOM     21  C   UNL     1       3.014  -4.169  -4.807  1.00  0.00     0.338 C 
ATOM     22  O   UNL     1       3.881  -3.927  -5.639  1.00  0.00    -0.246 OA
BRANCH  21  23
ATOM     23  C   UNL     1       3.246  -5.085  -3.680  1.00  0.00     0.060 A 
ATOM     24  C   UNL     1       4.454  -4.952  -2.987  1.00  0.00     0.016 A 
ATOM     25  C   UNL     1       2.354  -6.115  -3.371  1.00  0.00     0.016 A 
ATOM     26  C   UNL     1       4.809  -5.892  -2.025  1.00  0.00     0.010 A 
ATOM     27  C   UNL     1       2.710  -7.057  -2.399  1.00  0.00     0.010 A 
ATOM     28  C   UNL     1       3.960  -6.975  -1.759  1.00  0.00    -0.014 A 
BRANCH  28  29
ATOM     29  C   UNL     1       4.475  -8.110  -0.956  1.00  0.00     0.031 A 
ATOM     30  C   UNL     1       4.973  -9.336  -1.671  1.00  0.00     0.074 A 
ATOM     31  C   UNL     1       4.559  -8.027   0.383  1.00  0.00     0.049 A 
ATOM     32  N   UNL     1       5.471 -10.441  -1.178  1.00  0.00    -0.248 NA
ATOM     33  C   UNL     1       4.900  -9.313  -3.142  1.00  0.00     0.031 C 
ATOM     34  C   UNL     1       4.151  -6.877   1.188  1.00  0.00     0.029 A 
ATOM     35  N   UNL     1       5.022  -8.936   1.302  1.00  0.00    -0.354 N 
ATOM     36  C   UNL     1       5.765 -11.244  -2.274  1.00  0.00     0.074 A 
ATOM     37  C   UNL     1       5.359 -10.515  -3.455  1.00  0.00     0.031 C 
ATOM     38  C   UNL     1       4.378  -7.151   2.484  1.00  0.00     0.029 A 
ATOM     39  C   UNL     1       4.922  -8.503   2.601  1.00  0.00     0.049 A 
ATOM     40  H   UNL     1       5.390  -9.814   1.053  1.00  0.00     0.167 HD
ATOM     41  C   UNL     1       6.334 -12.472  -2.295  1.00  0.00     0.037 A 
ATOM     42  C   UNL     1       5.224  -9.134   3.752  1.00  0.00     0.037 A 
ATOM     43  C   UNL     1       6.747 -13.194  -1.122  1.00  0.00     0.049 A 
ATOM     44  C   UNL     1       5.796 -10.526   3.705  1.00  0.00     0.074 A 
ATOM     45  C   UNL     1       7.346 -14.438  -1.041  1.00  0.00     0.029 A 
ATOM     46  N   UNL     1       6.597 -12.736   0.178  1.00  0.00    -0.354 N 
ATOM     47  N   UNL     1       6.090 -11.267   2.663  1.00  0.00    -0.248 NA
ATOM     48  C   UNL     1       6.083 -11.169   4.996  1.00  0.00     0.031 C 
ATOM     49  C   UNL     1       7.521 -14.752   0.311  1.00  0.00     0.029 A 
ATOM     50  C   UNL     1       7.073 -13.682   1.069  1.00  0.00     0.049 A 
ATOM     51  H   UNL     1       6.210 -11.866   0.430  1.00  0.00     0.167 HD
ATOM     52  C   UNL     1       6.623 -12.445   3.170  1.00  0.00     0.074 A 
ATOM     53  C   UNL     1       6.621 -12.318   4.613  1.00  0.00     0.031 C 
ATOM     54  C   UNL     1       7.075 -13.535   2.502  1.00  0.00     0.037 A 
BRANCH  41  55
ATOM     55  C   UNL     1       6.525 -13.120  -3.635  1.00  0.00     0.057 A 
ATOM     56  C   UNL     1       7.499 -12.678  -4.539  1.00  0.00     0.134 A 
ATOM     57  C   UNL     1       5.741 -14.216  -4.013  1.00  0.00     0.134 A 
ATOM     58  F   UNL     1       8.273 -11.622  -4.243  1.00  0.00    -0.206 F 
ATOM     59  C   UNL     1       7.672 -13.290  -5.781  1.00  0.00     0.040 A 
ATOM     60  C   UNL     1       5.921 -14.853  -5.242  1.00  0.00     0.040 A 
ATOM     61  F   UNL     1       4.792 -14.691  -3.193  1.00  0.00    -0.206 F 
ATOM     62  C   UNL     1       6.886 -14.386  -6.133  1.00  0.00     0.006 A 
ENDBRANCH  41  55
BRANCH  42  63
ATOM     63  C   UNL     1       4.983  -8.463   5.053  1.00  0.00     0.057 A 
ATOM     64  C   UNL     1       6.045  -8.056   5.869  1.00  0.00     0.134 A 
ATOM     65  C   UNL     1       3.684  -8.237   5.524  1.00  0.00     0.134 A 
ATOM     66  F   UNL     1       7.312  -8.266   5.483  1.00  0.00    -0.206 F 
ATOM     67  C   UNL     1       5.825  -7.465   7.114  1.00  0.00     0.040 A 
ATOM     68  C   UNL     1       3.449  -7.625   6.757  1.00  0.00     0.040 A 
ATOM     69  F   UNL     1       2.624  -8.604   4.790  1.00  0.00    -0.206 F 
ATOM     70  C   UNL     1       4.523  -7.245   7.559  1.00  0.00     0.006 A 
ENDBRANCH  42  63
BRANCH  54  71
ATOM     71  C   UNL     1       7.644 -14.658   3.319  1.00  0.00     0.057 A 
ATOM     72  C   UNL     1       6.829 -15.508   4.077  1.00  0.00     0.134 A 
ATOM     73  C   UNL     1       9.020 -14.919   3.310  1.00  0.00     0.134 A 
ATOM     74  F   UNL     1       5.504 -15.306   4.137  1.00  0.00    -0.206 F 
ATOM     75  C   UNL     1       7.366 -16.565   4.814  1.00  0.00     0.040 A 
ATOM     76  C   UNL     1       9.566 -15.987   4.022  1.00  0.00     0.040 A 
ATOM     77  F   UNL     1       9.855 -14.148   2.596  1.00  0.00    -0.206 F 
ATOM     78  C   UNL     1       8.738 -16.811   4.782  1.00  0.00     0.006 A 
ENDBRANCH  54  71
ENDBRANCH  28  29
ENDBRANCH  21  23
ENDBRANCH  20  21
ENDBRANCH  19  20
ENDBRANCH  18  19
ENDBRANCH  17  18
ENDBRANCH   1  17
TORSDOF 18
