REMARK SMILES Cc1ccc(Cn2c(C)c(C[NH2+]Cc3ccco3)c(C(=O)OCCOCCOC(=O)c3ccc(-c4c5nc(c(-c6c(F)cccc6F)c6ccc([nH]6)c(-c6c(F)cccc6F)c6nc(c(-c7c(F)cccc7F)c7ccc4[nH]7)C=C6)C=C5)cc3)c2C)cc1
REMARK SMILES IDX 24 1 23 2 22 3 20 4 21 5 19 6 7 7 8 8 85 9 9 10 10 11 86 12
REMARK SMILES IDX 6 13 5 14 1 15 2 16 3 17 88 18 4 19 87 20 11 21 12 22 13 25
REMARK SMILES IDX 14 26 15 27 18 28 16 29 17 30 25 31 26 32 27 33 28 34 29 35
REMARK SMILES IDX 30 36 31 37 32 38 84 39 33 40 83 41 34 42 35 43 36 44 77 45
REMARK SMILES IDX 37 46 82 47 76 48 78 49 38 50 81 51 75 52 74 53 39 55 65 56
REMARK SMILES IDX 48 57 64 58 49 59 52 60 63 61 79 62 50 63 51 64 62 66 80 67
REMARK SMILES IDX 53 68 40 69 41 70 46 71 42 72 43 73 45 74 47 75 44 76 66 77
REMARK SMILES IDX 67 78 72 79 68 80 69 81 71 82 73 83 70 84 54 85 55 86 60 87
REMARK SMILES IDX 56 88 57 89 59 90 61 91 58 92
REMARK H PARENT 12 23 12 24 78 54 52 65
REMARK Flexibility Score: inf
ROOT
ATOM      1  C   UNL     1      -5.383  -5.593  -1.196  1.00  0.00     0.202 C 
ENDROOT
BRANCH   1   2
ATOM      2  C   UNL     1      -4.054  -5.265  -1.763  1.00  0.00     0.261 C 
BRANCH   2   3
ATOM      3  O   UNL     1      -3.955  -3.870  -2.094  1.00  0.00    -0.460 OA
BRANCH   3   4
ATOM      4  C   UNL     1      -4.716  -3.160  -2.968  1.00  0.00     0.340 C 
ATOM      5  O   UNL     1      -5.249  -3.576  -3.991  1.00  0.00    -0.246 OA
BRANCH   4   6
ATOM      6  C   UNL     1      -4.748  -1.780  -2.524  1.00  0.00     0.089 A 
ATOM      7  N   UNL     1      -4.218  -0.012  -1.270  1.00  0.00    -0.343 N 
ATOM      8  C   UNL     1      -5.045   0.446  -2.295  1.00  0.00     0.025 A 
ATOM      9  C   UNL     1      -4.325  -1.381  -1.260  1.00  0.00     0.030 A 
ATOM     10  C   UNL     1      -5.583   1.831  -2.392  1.00  0.00     0.065 C 
ATOM     11  C   UNL     1      -5.327  -0.634  -3.145  1.00  0.00     0.042 A 
ATOM     12  C   UNL     1      -4.024  -2.240  -0.079  1.00  0.00     0.065 C 
BRANCH   7  13
ATOM     13  C   UNL     1      -3.554   0.752  -0.199  1.00  0.00     0.157 C 
BRANCH  13  14
ATOM     14  C   UNL     1      -2.036   0.607  -0.124  1.00  0.00    -0.028 A 
ATOM     15  C   UNL     1       2.300   0.289   0.118  1.00  0.00     0.044 C 
ATOM     16  C   UNL     1       0.808   0.432   0.075  1.00  0.00    -0.051 A 
ATOM     17  C   UNL     1      -0.002  -0.592   0.554  1.00  0.00     0.004 A 
ATOM     18  C   UNL     1       0.192   1.552  -0.489  1.00  0.00     0.004 A 
ATOM     19  C   UNL     1      -1.397  -0.489   0.480  1.00  0.00     0.006 A 
ATOM     20  C   UNL     1      -1.208   1.634  -0.595  1.00  0.00     0.006 A 
ENDBRANCH  13  14
ENDBRANCH   7  13
BRANCH  11  21
ATOM     21  C   UNL     1      -6.154  -0.665  -4.418  1.00  0.00     0.300 C 
BRANCH  21  22
ATOM     22  N   UNL     1      -7.459  -1.259  -4.103  1.00  0.00    -0.336 N 
ATOM     23  H   UNL     1      -7.942  -0.647  -3.445  1.00  0.00     0.346 HD
ATOM     24  H   UNL     1      -7.283  -2.184  -3.712  1.00  0.00     0.346 HD
BRANCH  22  25
ATOM     25  C   UNL     1      -8.315  -1.442  -5.281  1.00  0.00     0.337 C 
BRANCH  25  26
ATOM     26  C   UNL     1      -8.195  -2.790  -5.918  1.00  0.00     0.157 A 
ATOM     27  C   UNL     1      -7.668  -3.242  -7.112  1.00  0.00     0.052 A 
ATOM     28  O   UNL     1      -8.783  -3.832  -5.253  1.00  0.00    -0.463 OA
ATOM     29  C   UNL     1      -7.950  -4.629  -7.180  1.00  0.00     0.042 A 
ATOM     30  C   UNL     1      -8.633  -4.936  -6.028  1.00  0.00     0.195 A 
ENDBRANCH  25  26
ENDBRANCH  22  25
ENDBRANCH  21  22
ENDBRANCH  11  21
ENDBRANCH   4   6
ENDBRANCH   3   4
ENDBRANCH   2   3
ENDBRANCH   1   2
BRANCH   1  31
ATOM     31  O   UNL     1      -6.248  -5.361  -2.282  1.00  0.00    -0.374 OA
BRANCH  31  32
ATOM     32  C   UNL     1      -7.619  -5.378  -1.988  1.00  0.00     0.202 C 
BRANCH  32  33
ATOM     33  C   UNL     1      -8.036  -6.785  -1.565  1.00  0.00     0.261 C 
BRANCH  33  34
ATOM     34  O   UNL     1      -7.707  -7.730  -2.617  1.00  0.00    -0.460 OA
BRANCH  34  35
ATOM     35  C   UNL     1      -6.525  -8.407  -2.494  1.00  0.00     0.338 C 
ATOM     36  O   UNL     1      -6.158  -9.003  -1.494  1.00  0.00    -0.246 OA
BRANCH  35  37
ATOM     37  C   UNL     1      -5.613  -8.086  -3.640  1.00  0.00     0.060 A 
ATOM     38  C   UNL     1      -4.241  -8.413  -3.588  1.00  0.00     0.016 A 
ATOM     39  C   UNL     1      -6.056  -7.150  -4.565  1.00  0.00     0.016 A 
ATOM     40  C   UNL     1      -3.304  -7.680  -4.343  1.00  0.00     0.010 A 
ATOM     41  C   UNL     1      -5.127  -6.348  -5.189  1.00  0.00     0.010 A 
ATOM     42  C   UNL     1      -3.750  -6.582  -5.076  1.00  0.00    -0.014 A 
BRANCH  42  43
ATOM     43  C   UNL     1      -2.913  -5.548  -5.694  1.00  0.00     0.031 A 
ATOM     44  C   UNL     1      -2.973  -5.408  -7.158  1.00  0.00     0.074 A 
ATOM     45  C   UNL     1      -2.296  -4.597  -4.951  1.00  0.00     0.049 A 
ATOM     46  N   UNL     1      -2.017  -4.920  -7.866  1.00  0.00    -0.248 NA
ATOM     47  C   UNL     1      -4.090  -5.885  -7.973  1.00  0.00     0.031 C 
ATOM     48  C   UNL     1      -1.885  -3.243  -5.320  1.00  0.00     0.029 A 
ATOM     49  N   UNL     1      -1.962  -4.657  -3.602  1.00  0.00    -0.354 N 
ATOM     50  C   UNL     1      -2.541  -4.665  -9.112  1.00  0.00     0.074 A 
ATOM     51  C   UNL     1      -3.742  -5.454  -9.185  1.00  0.00     0.031 C 
ATOM     52  C   UNL     1      -1.160  -2.699  -4.319  1.00  0.00     0.029 A 
ATOM     53  C   UNL     1      -0.985  -3.714  -3.289  1.00  0.00     0.049 A 
ATOM     54  H   UNL     1      -2.362  -5.282  -2.955  1.00  0.00     0.167 HD
ATOM     55  C   UNL     1      -2.032  -3.635  -9.845  1.00  0.00     0.037 A 
ATOM     56  C   UNL     1       0.150  -4.099  -2.652  1.00  0.00     0.037 A 
ATOM     57  C   UNL     1      -1.012  -2.912  -9.057  1.00  0.00     0.049 A 
ATOM     58  C   UNL     1       1.230  -3.961  -3.678  1.00  0.00     0.074 A 
ATOM     59  C   UNL     1      -1.029  -1.682  -8.415  1.00  0.00     0.029 A 
ATOM     60  N   UNL     1       0.086  -3.598  -8.524  1.00  0.00    -0.354 N 
ATOM     61  N   UNL     1       0.992  -4.087  -4.959  1.00  0.00    -0.248 NA
ATOM     62  C   UNL     1       2.571  -3.473  -3.384  1.00  0.00     0.031 C 
ATOM     63  C   UNL     1       0.058  -1.639  -7.497  1.00  0.00     0.029 A 
ATOM     64  C   UNL     1       0.742  -2.845  -7.566  1.00  0.00     0.049 A 
ATOM     65  H   UNL     1       0.358  -4.503  -8.798  1.00  0.00     0.167 HD
ATOM     66  C   UNL     1       2.034  -3.546  -5.643  1.00  0.00     0.074 A 
ATOM     67  C   UNL     1       3.029  -3.241  -4.626  1.00  0.00     0.031 C 
ATOM     68  C   UNL     1       2.001  -3.294  -6.980  1.00  0.00     0.037 A 
BRANCH  55  69
ATOM     69  C   UNL     1      -2.703  -3.086 -11.097  1.00  0.00     0.057 A 
ATOM     70  C   UNL     1      -2.463  -1.769 -11.534  1.00  0.00     0.134 A 
ATOM     71  C   UNL     1      -3.595  -3.797 -11.927  1.00  0.00     0.134 A 
ATOM     72  F   UNL     1      -1.552  -0.986 -10.944  1.00  0.00    -0.206 F 
ATOM     73  C   UNL     1      -3.127  -1.184 -12.624  1.00  0.00     0.040 A 
ATOM     74  C   UNL     1      -4.310  -3.211 -12.985  1.00  0.00     0.040 A 
ATOM     75  F   UNL     1      -3.763  -5.120 -11.818  1.00  0.00    -0.206 F 
ATOM     76  C   UNL     1      -4.080  -1.893 -13.336  1.00  0.00     0.006 A 
ENDBRANCH  55  69
BRANCH  56  77
ATOM     77  C   UNL     1      -0.064  -5.171  -1.627  1.00  0.00     0.057 A 
ATOM     78  C   UNL     1      -0.550  -4.788  -0.359  1.00  0.00     0.134 A 
ATOM     79  C   UNL     1      -0.234  -6.521  -1.960  1.00  0.00     0.134 A 
ATOM     80  F   UNL     1      -0.463  -3.511   0.036  1.00  0.00    -0.206 F 
ATOM     81  C   UNL     1      -1.245  -5.666   0.491  1.00  0.00     0.040 A 
ATOM     82  C   UNL     1      -0.959  -7.402  -1.135  1.00  0.00     0.040 A 
ATOM     83  F   UNL     1       0.181  -6.985  -3.146  1.00  0.00    -0.206 F 
ATOM     84  C   UNL     1      -1.489  -6.972   0.082  1.00  0.00     0.006 A 
ENDBRANCH  56  77
BRANCH  68  85
ATOM     85  C   UNL     1       3.229  -3.379  -7.835  1.00  0.00     0.057 A 
ATOM     86  C   UNL     1       4.392  -4.059  -7.439  1.00  0.00     0.134 A 
ATOM     87  C   UNL     1       3.202  -2.960  -9.181  1.00  0.00     0.134 A 
ATOM     88  F   UNL     1       4.512  -4.623  -6.229  1.00  0.00    -0.206 F 
ATOM     89  C   UNL     1       5.475  -4.248  -8.296  1.00  0.00     0.040 A 
ATOM     90  C   UNL     1       4.248  -3.208 -10.065  1.00  0.00     0.040 A 
ATOM     91  F   UNL     1       2.145  -2.331  -9.714  1.00  0.00    -0.206 F 
ATOM     92  C   UNL     1       5.399  -3.837  -9.619  1.00  0.00     0.006 A 
ENDBRANCH  68  85
ENDBRANCH  42  43
ENDBRANCH  35  37
ENDBRANCH  34  35
ENDBRANCH  33  34
ENDBRANCH  32  33
ENDBRANCH  31  32
ENDBRANCH   1  31
TORSDOF 20
