REMARK SMILES CCc1cc(C(=O)c2[nH]c3cc(Cl)ccc3c2CC(=O)OCCOCCOC(=O)c2ccc(-c3c4nc(c(-c5c(F)cccc5F)c5ccc([nH]5)c(-c5c(F)cccc5F)c5nc(c(-c6c(F)cccc6F)c6ccc3[nH]6)C=C5)C=C4)cc2)ncc1Cl
REMARK SMILES IDX 23 1 22 2 21 3 19 4 20 5 18 6 17 7 8 8 9 9 10 10 16 12 11 13
REMARK SMILES IDX 15 14 12 15 14 16 13 17 6 18 7 19 5 20 3 21 4 22 86 23 85 24
REMARK SMILES IDX 87 25 84 26 2 27 1 28 24 29 25 30 26 31 27 32 28 33 29 34
REMARK SMILES IDX 30 35 31 36 83 37 32 38 82 39 33 40 34 41 35 42 76 43 36 44
REMARK SMILES IDX 81 45 75 46 77 47 37 48 80 49 74 50 73 51 38 53 64 54 47 55
REMARK SMILES IDX 63 56 48 57 51 58 62 59 78 60 49 61 50 62 61 64 79 65 52 66
REMARK SMILES IDX 39 67 40 68 45 69 41 70 42 71 44 72 46 73 43 74 65 75 66 76
REMARK SMILES IDX 71 77 67 78 68 79 70 80 72 81 69 82 53 83 54 84 59 85 55 86
REMARK SMILES IDX 56 87 58 88 60 89 57 90
REMARK H PARENT 9 11 77 52 51 63
REMARK Flexibility Score: inf
ROOT
ATOM      1  C   UNL     1       0.915   8.366   5.202  1.00  0.00     0.202 C 
ENDROOT
BRANCH   1   2
ATOM      2  C   UNL     1       1.620   8.678   3.877  1.00  0.00     0.261 C 
BRANCH   2   3
ATOM      3  O   UNL     1       1.355   7.679   2.866  1.00  0.00    -0.463 OA
BRANCH   3   4
ATOM      4  C   UNL     1       2.443   7.277   2.155  1.00  0.00     0.310 C 
ATOM      5  O   UNL     1       3.559   7.783   2.268  1.00  0.00    -0.252 OA
BRANCH   4   6
ATOM      6  C   UNL     1       2.188   6.200   1.124  1.00  0.00     0.161 C 
BRANCH   6   7
ATOM      7  C   UNL     1       0.875   5.460   1.144  1.00  0.00     0.000 A 
ATOM      8  C   UNL     1       0.564   4.312   1.879  1.00  0.00     0.093 A 
ATOM      9  N   UNL     1      -0.751   4.007   1.595  1.00  0.00    -0.351 N 
ATOM     10  C   UNL     1      -1.177   4.704   0.490  1.00  0.00     0.048 A 
ATOM     11  H   UNL     1      -1.306   3.378   2.112  1.00  0.00     0.167 HD
ATOM     12  C   UNL     1      -0.196   5.652   0.208  1.00  0.00     0.004 A 
ATOM     13  C   UNL     1      -2.337   4.556  -0.283  1.00  0.00     0.047 A 
ATOM     14  C   UNL     1      -0.384   6.504  -0.901  1.00  0.00     0.012 A 
ATOM     15  C   UNL     1      -2.472   5.385  -1.401  1.00  0.00     0.043 A 
ATOM     16  C   UNL     1      -1.517   6.348  -1.709  1.00  0.00     0.021 A 
ATOM     17  Cl  UNL     1      -3.838   5.188  -2.433  1.00  0.00    -0.084 Cl
BRANCH   8  18
ATOM     18  C   UNL     1       1.440   3.565   2.775  1.00  0.00     0.227 C 
ATOM     19  O   UNL     1       2.413   4.090   3.313  1.00  0.00    -0.285 OA
BRANCH  18  20
ATOM     20  C   UNL     1       1.242   2.095   2.995  1.00  0.00     0.113 A 
ATOM     21  C   UNL     1       0.877  -0.136   2.120  1.00  0.00    -0.026 A 
ATOM     22  C   UNL     1       0.835   1.262   1.955  1.00  0.00     0.037 A 
ATOM     23  C   UNL     1       1.298  -0.631   3.363  1.00  0.00     0.062 A 
ATOM     24  C   UNL     1       1.655   0.277   4.355  1.00  0.00     0.132 A 
ATOM     25  Cl  UNL     1       1.420  -2.312   3.717  1.00  0.00    -0.082 Cl
ATOM     26  N   UNL     1       1.631   1.621   4.204  1.00  0.00    -0.251 NA
BRANCH  21  27
ATOM     27  C   UNL     1       0.466  -1.037   0.974  1.00  0.00     0.034 C 
ATOM     28  C   UNL     1       1.026  -0.612  -0.381  1.00  0.00     0.009 C 
ENDBRANCH  21  27
ENDBRANCH  18  20
ENDBRANCH   8  18
ENDBRANCH   6   7
ENDBRANCH   4   6
ENDBRANCH   3   4
ENDBRANCH   2   3
ENDBRANCH   1   2
BRANCH   1  29
ATOM     29  O   UNL     1       1.435   7.277   5.969  1.00  0.00    -0.374 OA
BRANCH  29  30
ATOM     30  C   UNL     1       1.290   5.977   5.401  1.00  0.00     0.202 C 
BRANCH  30  31
ATOM     31  C   UNL     1      -0.067   5.299   5.621  1.00  0.00     0.261 C 
BRANCH  31  32
ATOM     32  O   UNL     1      -1.164   6.112   5.173  1.00  0.00    -0.460 OA
BRANCH  32  33
ATOM     33  C   UNL     1      -1.920   6.620   6.172  1.00  0.00     0.338 C 
ATOM     34  O   UNL     1      -1.881   6.324   7.362  1.00  0.00    -0.246 OA
BRANCH  33  35
ATOM     35  C   UNL     1      -2.739   7.737   5.679  1.00  0.00     0.060 A 
ATOM     36  C   UNL     1      -2.631   8.955   6.361  1.00  0.00     0.016 A 
ATOM     37  C   UNL     1      -3.646   7.584   4.628  1.00  0.00     0.016 A 
ATOM     38  C   UNL     1      -3.477  10.010   6.036  1.00  0.00     0.010 A 
ATOM     39  C   UNL     1      -4.500   8.643   4.307  1.00  0.00     0.010 A 
ATOM     40  C   UNL     1      -4.446   9.843   5.039  1.00  0.00    -0.014 A 
BRANCH  40  41
ATOM     41  C   UNL     1      -5.495  10.877   4.882  1.00  0.00     0.031 A 
ATOM     42  C   UNL     1      -6.832  10.659   5.533  1.00  0.00     0.074 A 
ATOM     43  C   UNL     1      -5.238  12.012   4.211  1.00  0.00     0.049 A 
ATOM     44  N   UNL     1      -7.883  11.438   5.552  1.00  0.00    -0.248 NA
ATOM     45  C   UNL     1      -7.009   9.390   6.257  1.00  0.00     0.031 C 
ATOM     46  C   UNL     1      -3.971  12.336   3.560  1.00  0.00     0.029 A 
ATOM     47  N   UNL     1      -6.034  13.101   3.966  1.00  0.00    -0.354 N 
ATOM     48  C   UNL     1      -8.846  10.752   6.282  1.00  0.00     0.074 A 
ATOM     49  C   UNL     1      -8.267   9.482   6.661  1.00  0.00     0.031 C 
ATOM     50  C   UNL     1      -4.077  13.544   2.980  1.00  0.00     0.029 A 
ATOM     51  C   UNL     1      -5.425  14.064   3.201  1.00  0.00     0.049 A 
ATOM     52  H   UNL     1      -6.954  13.184   4.307  1.00  0.00     0.167 HD
ATOM     53  C   UNL     1     -10.097  11.151   6.613  1.00  0.00     0.037 A 
ATOM     54  C   UNL     1      -5.909  15.226   2.724  1.00  0.00     0.037 A 
ATOM     55  C   UNL     1     -10.662  12.419   6.234  1.00  0.00     0.049 A 
ATOM     56  C   UNL     1      -7.313  15.635   3.073  1.00  0.00     0.074 A 
ATOM     57  C   UNL     1     -11.904  12.940   6.550  1.00  0.00     0.029 A 
ATOM     58  N   UNL     1     -10.021  13.362   5.442  1.00  0.00    -0.354 N 
ATOM     59  N   UNL     1      -8.200  15.002   3.804  1.00  0.00    -0.248 NA
ATOM     60  C   UNL     1      -7.782  16.922   2.541  1.00  0.00     0.031 C 
ATOM     61  C   UNL     1     -12.036  14.175   5.904  1.00  0.00     0.029 A 
ATOM     62  C   UNL     1     -10.855  14.448   5.231  1.00  0.00     0.049 A 
ATOM     63  H   UNL     1      -9.109  13.272   5.084  1.00  0.00     0.167 HD
ATOM     64  C   UNL     1      -9.323  15.819   3.837  1.00  0.00     0.074 A 
ATOM     65  C   UNL     1      -8.999  17.001   3.064  1.00  0.00     0.031 C 
ATOM     66  C   UNL     1     -10.514  15.612   4.452  1.00  0.00     0.037 A 
BRANCH  53  67
ATOM     67  C   UNL     1     -10.944  10.188   7.394  1.00  0.00     0.057 A 
ATOM     68  C   UNL     1     -10.680   9.881   8.735  1.00  0.00     0.134 A 
ATOM     69  C   UNL     1     -12.044   9.562   6.794  1.00  0.00     0.134 A 
ATOM     70  F   UNL     1      -9.633  10.434   9.366  1.00  0.00    -0.206 F 
ATOM     71  C   UNL     1     -11.460   8.962   9.441  1.00  0.00     0.040 A 
ATOM     72  C   UNL     1     -12.847   8.663   7.497  1.00  0.00     0.040 A 
ATOM     73  F   UNL     1     -12.356   9.812   5.513  1.00  0.00    -0.206 F 
ATOM     74  C   UNL     1     -12.550   8.354   8.823  1.00  0.00     0.006 A 
ENDBRANCH  53  67
BRANCH  54  75
ATOM     75  C   UNL     1      -5.051  16.077   1.862  1.00  0.00     0.057 A 
ATOM     76  C   UNL     1      -4.539  17.297   2.317  1.00  0.00     0.134 A 
ATOM     77  C   UNL     1      -4.706  15.676   0.565  1.00  0.00     0.134 A 
ATOM     78  F   UNL     1      -4.850  17.744   3.542  1.00  0.00    -0.206 F 
ATOM     79  C   UNL     1      -3.720  18.090   1.512  1.00  0.00     0.040 A 
ATOM     80  C   UNL     1      -3.869  16.448  -0.242  1.00  0.00     0.040 A 
ATOM     81  F   UNL     1      -5.162  14.515   0.071  1.00  0.00    -0.206 F 
ATOM     82  C   UNL     1      -3.376  17.662   0.231  1.00  0.00     0.006 A 
ENDBRANCH  54  75
BRANCH  66  83
ATOM     83  C   UNL     1     -11.546  16.695   4.329  1.00  0.00     0.057 A 
ATOM     84  C   UNL     1     -12.236  16.925   3.133  1.00  0.00     0.134 A 
ATOM     85  C   UNL     1     -11.885  17.485   5.435  1.00  0.00     0.134 A 
ATOM     86  F   UNL     1     -11.950  16.210   2.034  1.00  0.00    -0.206 F 
ATOM     87  C   UNL     1     -13.212  17.918   3.034  1.00  0.00     0.040 A 
ATOM     88  C   UNL     1     -12.878  18.462   5.356  1.00  0.00     0.040 A 
ATOM     89  F   UNL     1     -11.269  17.308   6.614  1.00  0.00    -0.206 F 
ATOM     90  C   UNL     1     -13.540  18.685   4.151  1.00  0.00     0.006 A 
ENDBRANCH  66  83
ENDBRANCH  40  41
ENDBRANCH  33  35
ENDBRANCH  32  33
ENDBRANCH  31  32
ENDBRANCH  30  31
ENDBRANCH  29  30
ENDBRANCH   1  29
TORSDOF 18
