REMARK SMILES Cc1cc(C(=O)OCCOCCOC(=O)c2ccc(-c3c4nc(c(-c5c(F)cccc5F)c5ccc([nH]5)c(-c5c(F)cccc5F)c5nc(c(-c6c(F)cccc6F)c6ccc3[nH]6)C=C5)C=C4)cc2)cc(S(=O)(=O)NNC(=O)c2c[nH]c3ccccc23)c1C
REMARK SMILES IDX 9 1 8 2 7 3 5 4 6 5 4 6 1 7 2 8 3 9 88 10 71 11 89 12 70 13
REMARK SMILES IDX 72 14 73 15 74 16 75 17 76 19 77 20 78 22 79 23 80 24 87 25
REMARK SMILES IDX 81 26 82 27 86 28 83 30 85 31 84 32 10 33 11 34 12 35 13 36
REMARK SMILES IDX 14 37 15 38 16 39 17 40 69 41 18 42 68 43 19 44 20 45 21 46
REMARK SMILES IDX 62 47 22 48 67 49 61 50 63 51 23 52 66 53 60 54 59 55 24 57
REMARK SMILES IDX 50 58 33 59 49 60 34 61 37 62 48 63 64 64 35 65 36 66 47 68
REMARK SMILES IDX 65 69 38 70 25 71 26 72 31 73 27 74 28 75 30 76 32 77 29 78
REMARK SMILES IDX 51 79 52 80 57 81 53 82 54 83 56 84 58 85 55 86 39 87 40 88
REMARK SMILES IDX 45 89 41 90 42 91 44 92 46 93 43 94
REMARK H PARENT 75 18 76 21 81 29 63 56 37 67
REMARK Flexibility Score: inf
ROOT
ATOM      1  C   UNL     1      -5.439   2.797  -0.377  1.00  0.00     0.202 C 
ENDROOT
BRANCH   1   2
ATOM      2  C   UNL     1      -4.559   2.773   0.880  1.00  0.00     0.261 C 
BRANCH   2   3
ATOM      3  O   UNL     1      -3.288   2.143   0.674  1.00  0.00    -0.460 OA
BRANCH   3   4
ATOM      4  C   UNL     1      -3.175   0.901   1.215  1.00  0.00     0.338 C 
ATOM      5  O   UNL     1      -3.990   0.321   1.906  1.00  0.00    -0.246 OA
BRANCH   4   6
ATOM      6  C   UNL     1      -1.946   0.244   0.710  1.00  0.00     0.061 A 
ATOM      7  C   UNL     1       1.665   1.154  -0.011  1.00  0.00     0.044 C 
ATOM      8  C   UNL     1       0.413   0.325   0.125  1.00  0.00    -0.046 A 
ATOM      9  C   UNL     1      -0.762   0.969   0.539  1.00  0.00     0.019 A 
ATOM     10  C   UNL     1       0.392  -1.073  -0.109  1.00  0.00    -0.028 A 
ATOM     11  C   UNL     1      -0.850  -1.771  -0.050  1.00  0.00     0.088 A 
ATOM     12  C   UNL     1       1.681  -1.826  -0.347  1.00  0.00     0.046 C 
ATOM     13  C   UNL     1      -2.005  -1.120   0.388  1.00  0.00     0.037 A 
BRANCH  11  14
ATOM     14  S   UNL     1      -0.926  -3.469  -0.620  1.00  0.00     0.257 S 
ATOM     15  O   UNL     1      -0.479  -3.466  -2.002  1.00  0.00    -0.205 OA
ATOM     16  O   UNL     1      -0.285  -4.278   0.387  1.00  0.00    -0.205 OA
BRANCH  14  17
ATOM     17  N   UNL     1      -2.555  -3.975  -0.631  1.00  0.00    -0.123 NA
ATOM     18  H   UNL     1      -3.011  -3.518   0.159  1.00  0.00     0.167 HD
BRANCH  17  19
ATOM     19  N   UNL     1      -3.394  -3.723  -1.807  1.00  0.00    -0.273 N 
ATOM     20  C   UNL     1      -4.361  -4.625  -2.240  1.00  0.00     0.268 C 
ATOM     21  H   UNL     1      -3.268  -2.885  -2.309  1.00  0.00     0.186 HD
ATOM     22  O   UNL     1      -5.538  -4.280  -2.320  1.00  0.00    -0.268 OA
BRANCH  20  23
ATOM     23  C   UNL     1      -3.845  -5.821  -2.927  1.00  0.00     0.066 A 
ATOM     24  C   UNL     1      -2.531  -6.049  -3.301  1.00  0.00     0.097 A 
ATOM     25  C   UNL     1      -4.557  -6.636  -3.872  1.00  0.00     0.012 A 
ATOM     26  N   UNL     1      -2.572  -6.027  -4.670  1.00  0.00    -0.360 N 
ATOM     27  C   UNL     1      -3.777  -6.586  -5.034  1.00  0.00     0.046 A 
ATOM     28  C   UNL     1      -5.802  -7.292  -3.938  1.00  0.00     0.011 A 
ATOM     29  H   UNL     1      -1.877  -5.681  -5.275  1.00  0.00     0.166 HD
ATOM     30  C   UNL     1      -4.213  -7.049  -6.275  1.00  0.00     0.027 A 
ATOM     31  C   UNL     1      -6.195  -7.884  -5.150  1.00  0.00     0.001 A 
ATOM     32  C   UNL     1      -5.431  -7.726  -6.306  1.00  0.00     0.002 A 
ENDBRANCH  20  23
ENDBRANCH  17  19
ENDBRANCH  14  17
ENDBRANCH  11  14
ENDBRANCH   4   6
ENDBRANCH   3   4
ENDBRANCH   2   3
ENDBRANCH   1   2
BRANCH   1  33
ATOM     33  O   UNL     1      -5.645   1.583  -1.091  1.00  0.00    -0.374 OA
BRANCH  33  34
ATOM     34  C   UNL     1      -4.565   1.039  -1.842  1.00  0.00     0.202 C 
BRANCH  34  35
ATOM     35  C   UNL     1      -4.072   1.782  -3.090  1.00  0.00     0.261 C 
BRANCH  35  36
ATOM     36  O   UNL     1      -3.652   3.131  -2.835  1.00  0.00    -0.460 OA
BRANCH  36  37
ATOM     37  C   UNL     1      -4.438   4.075  -3.411  1.00  0.00     0.338 C 
ATOM     38  O   UNL     1      -5.414   3.901  -4.118  1.00  0.00    -0.246 OA
BRANCH  37  39
ATOM     39  C   UNL     1      -4.039   5.415  -2.951  1.00  0.00     0.060 A 
ATOM     40  C   UNL     1      -4.977   6.167  -2.234  1.00  0.00     0.016 A 
ATOM     41  C   UNL     1      -2.816   5.970  -3.330  1.00  0.00     0.016 A 
ATOM     42  C   UNL     1      -4.709   7.498  -1.925  1.00  0.00     0.010 A 
ATOM     43  C   UNL     1      -2.553   7.309  -3.024  1.00  0.00     0.010 A 
ATOM     44  C   UNL     1      -3.510   8.087  -2.349  1.00  0.00    -0.014 A 
BRANCH  44  45
ATOM     45  C   UNL     1      -3.312   9.547  -2.189  1.00  0.00     0.031 A 
ATOM     46  C   UNL     1      -3.501  10.451  -3.375  1.00  0.00     0.074 A 
ATOM     47  C   UNL     1      -2.986  10.063  -0.990  1.00  0.00     0.049 A 
ATOM     48  N   UNL     1      -3.330  11.746  -3.467  1.00  0.00    -0.248 NA
ATOM     49  C   UNL     1      -3.938   9.811  -4.626  1.00  0.00     0.031 C 
ATOM     50  C   UNL     1      -2.813   9.293   0.240  1.00  0.00     0.029 A 
ATOM     51  N   UNL     1      -2.735  11.358  -0.616  1.00  0.00    -0.354 N 
ATOM     52  C   UNL     1      -3.632  12.074  -4.783  1.00  0.00     0.074 A 
ATOM     53  C   UNL     1      -3.966  10.840  -5.461  1.00  0.00     0.031 C 
ATOM     54  C   UNL     1      -2.473  10.131   1.234  1.00  0.00     0.029 A 
ATOM     55  C   UNL     1      -2.370  11.488   0.701  1.00  0.00     0.049 A 
ATOM     56  H   UNL     1      -2.809  12.122  -1.233  1.00  0.00     0.167 HD
ATOM     57  C   UNL     1      -3.638  13.295  -5.370  1.00  0.00     0.037 A 
ATOM     58  C   UNL     1      -1.974  12.575   1.391  1.00  0.00     0.037 A 
ATOM     59  C   UNL     1      -3.308  14.521  -4.691  1.00  0.00     0.049 A 
ATOM     60  C   UNL     1      -1.917  13.910   0.696  1.00  0.00     0.074 A 
ATOM     61  C   UNL     1      -3.307  15.811  -5.193  1.00  0.00     0.029 A 
ATOM     62  N   UNL     1      -2.913  14.608  -3.364  1.00  0.00    -0.354 N 
ATOM     63  N   UNL     1      -2.229  14.213  -0.541  1.00  0.00    -0.248 NA
ATOM     64  C   UNL     1      -1.454  15.054   1.494  1.00  0.00     0.031 C 
ATOM     65  C   UNL     1      -2.861  16.672  -4.185  1.00  0.00     0.029 A 
ATOM     66  C   UNL     1      -2.638  15.926  -3.039  1.00  0.00     0.049 A 
ATOM     67  H   UNL     1      -2.840  13.846  -2.746  1.00  0.00     0.167 HD
ATOM     68  C   UNL     1      -2.029  15.583  -0.660  1.00  0.00     0.074 A 
ATOM     69  C   UNL     1      -1.581  16.054   0.634  1.00  0.00     0.031 C 
ATOM     70  C   UNL     1      -2.200  16.380  -1.744  1.00  0.00     0.037 A 
BRANCH  57  71
ATOM     71  C   UNL     1      -3.992  13.364  -6.827  1.00  0.00     0.057 A 
ATOM     72  C   UNL     1      -5.300  13.154  -7.283  1.00  0.00     0.134 A 
ATOM     73  C   UNL     1      -3.020  13.687  -7.782  1.00  0.00     0.134 A 
ATOM     74  F   UNL     1      -6.276  12.829  -6.422  1.00  0.00    -0.206 F 
ATOM     75  C   UNL     1      -5.623  13.242  -8.638  1.00  0.00     0.040 A 
ATOM     76  C   UNL     1      -3.336  13.805  -9.136  1.00  0.00     0.040 A 
ATOM     77  F   UNL     1      -1.749  13.906  -7.413  1.00  0.00    -0.206 F 
ATOM     78  C   UNL     1      -4.641  13.576  -9.568  1.00  0.00     0.006 A 
ENDBRANCH  57  71
BRANCH  58  79
ATOM     79  C   UNL     1      -1.579  12.450   2.817  1.00  0.00     0.057 A 
ATOM     80  C   UNL     1      -2.345  13.028   3.835  1.00  0.00     0.134 A 
ATOM     81  C   UNL     1      -0.413  11.772   3.192  1.00  0.00     0.134 A 
ATOM     82  F   UNL     1      -3.460  13.710   3.537  1.00  0.00    -0.206 F 
ATOM     83  C   UNL     1      -1.954  12.956   5.174  1.00  0.00     0.040 A 
ATOM     84  C   UNL     1      -0.025  11.668   4.529  1.00  0.00     0.040 A 
ATOM     85  F   UNL     1       0.364  11.193   2.264  1.00  0.00    -0.206 F 
ATOM     86  C   UNL     1      -0.793  12.269   5.523  1.00  0.00     0.006 A 
ENDBRANCH  58  79
BRANCH  70  87
ATOM     87  C   UNL     1      -1.938  17.849  -1.568  1.00  0.00     0.057 A 
ATOM     88  C   UNL     1      -0.641  18.358  -1.421  1.00  0.00     0.134 A 
ATOM     89  C   UNL     1      -2.995  18.768  -1.588  1.00  0.00     0.134 A 
ATOM     90  F   UNL     1       0.414  17.530  -1.381  1.00  0.00    -0.206 F 
ATOM     91  C   UNL     1      -0.408  19.727  -1.278  1.00  0.00     0.040 A 
ATOM     92  C   UNL     1      -2.771  20.141  -1.474  1.00  0.00     0.040 A 
ATOM     93  F   UNL     1      -4.261  18.348  -1.734  1.00  0.00    -0.206 F 
ATOM     94  C   UNL     1      -1.474  20.623  -1.313  1.00  0.00     0.006 A 
ENDBRANCH  70  87
ENDBRANCH  44  45
ENDBRANCH  37  39
ENDBRANCH  36  37
ENDBRANCH  35  36
ENDBRANCH  34  35
ENDBRANCH  33  34
ENDBRANCH   1  33
TORSDOF 18
