REMARK SMILES COCCNc1cc(C)nc2cc(C(=O)OCCOCCOC(=O)c3ccc(-c4c5nc(c(-c6c(F)cccc6F)c6ccc([nH]6)c(-c6c(F)cccc6F)c6nc(c(-c7c(F)cccc7F)c7ccc4[nH]7)C=C6)C=C5)cc3)ccc12
REMARK SMILES IDX 18 1 17 2 16 3 14 4 15 5 13 6 6 7 7 8 81 9 8 10 11 11 80 12
REMARK SMILES IDX 9 13 10 14 12 15 79 16 5 17 4 19 3 20 2 21 1 22 19 23 20 24
REMARK SMILES IDX 21 25 22 26 23 27 24 28 25 29 26 30 78 31 27 32 77 33 28 34
REMARK SMILES IDX 29 35 30 36 71 37 31 38 76 39 70 40 72 41 32 42 75 43 69 44
REMARK SMILES IDX 68 45 33 47 59 48 42 49 58 50 43 51 46 52 57 53 73 54 44 55
REMARK SMILES IDX 45 56 56 58 74 59 47 60 34 61 35 62 40 63 36 64 37 65 39 66
REMARK SMILES IDX 41 67 38 68 60 69 61 70 66 71 62 72 63 73 65 74 67 75 64 76
REMARK SMILES IDX 48 77 49 78 54 79 50 80 51 81 53 82 55 83 52 84
REMARK H PARENT 5 18 72 46 46 57
REMARK Flexibility Score: inf
ROOT
ATOM      1  C   UNL     1       8.565   1.996   5.297  1.00  0.00     0.202 C 
ENDROOT
BRANCH   1   2
ATOM      2  C   UNL     1       8.837   2.400   3.845  1.00  0.00     0.261 C 
BRANCH   2   3
ATOM      3  O   UNL     1       7.654   2.934   3.226  1.00  0.00    -0.460 OA
BRANCH   3   4
ATOM      4  C   UNL     1       7.138   2.163   2.242  1.00  0.00     0.338 C 
ATOM      5  O   UNL     1       7.643   1.163   1.752  1.00  0.00    -0.246 OA
BRANCH   4   6
ATOM      6  C   UNL     1       5.759   2.581   1.919  1.00  0.00     0.062 A 
ATOM      7  C   UNL     1       1.913   3.592   0.560  1.00  0.00     0.045 A 
ATOM      8  C   UNL     1       1.599   4.945   0.448  1.00  0.00     0.049 A 
ATOM      9  C   UNL     1       3.170   3.235   1.092  1.00  0.00     0.023 A 
ATOM     10  C   UNL     1       2.544   5.894   0.813  1.00  0.00     0.040 A 
ATOM     11  C   UNL     1       4.082   4.265   1.418  1.00  0.00     0.073 A 
ATOM     12  C   UNL     1       3.556   1.891   1.254  1.00  0.00     0.013 A 
ATOM     13  C   UNL     1       2.236   7.358   0.696  1.00  0.00     0.067 C 
ATOM     14  N   UNL     1       3.766   5.565   1.295  1.00  0.00    -0.253 NA
ATOM     15  C   UNL     1       5.362   3.921   1.845  1.00  0.00     0.044 A 
ATOM     16  C   UNL     1       4.845   1.564   1.649  1.00  0.00     0.016 A 
BRANCH   7  17
ATOM     17  N   UNL     1       0.970   2.623   0.234  1.00  0.00    -0.382 N 
ATOM     18  H   UNL     1       0.658   1.997   0.927  1.00  0.00     0.160 HD
BRANCH  17  19
ATOM     19  C   UNL     1       0.437   2.521  -1.120  1.00  0.00     0.141 C 
BRANCH  19  20
ATOM     20  C   UNL     1       1.010   1.302  -1.861  1.00  0.00     0.181 C 
BRANCH  20  21
ATOM     21  O   UNL     1       0.353   0.076  -1.518  1.00  0.00    -0.383 OA
ATOM     22  C   UNL     1       0.883  -0.546  -0.357  1.00  0.00     0.194 C 
ENDBRANCH  20  21
ENDBRANCH  19  20
ENDBRANCH  17  19
ENDBRANCH   7  17
ENDBRANCH   4   6
ENDBRANCH   3   4
ENDBRANCH   2   3
ENDBRANCH   1   2
BRANCH   1  23
ATOM     23  O   UNL     1       7.637   0.928   5.485  1.00  0.00    -0.374 OA
BRANCH  23  24
ATOM     24  C   UNL     1       6.248   1.261   5.445  1.00  0.00     0.202 C 
BRANCH  24  25
ATOM     25  C   UNL     1       5.665   1.876   6.723  1.00  0.00     0.261 C 
BRANCH  25  26
ATOM     26  O   UNL     1       6.183   3.198   6.957  1.00  0.00    -0.460 OA
BRANCH  26  27
ATOM     27  C   UNL     1       7.024   3.301   8.010  1.00  0.00     0.338 C 
ATOM     28  O   UNL     1       7.303   2.430   8.825  1.00  0.00    -0.246 OA
BRANCH  27  29
ATOM     29  C   UNL     1       7.733   4.593   7.970  1.00  0.00     0.060 A 
ATOM     30  C   UNL     1       9.126   4.566   8.118  1.00  0.00     0.016 A 
ATOM     31  C   UNL     1       7.053   5.809   7.870  1.00  0.00     0.016 A 
ATOM     32  C   UNL     1       9.838   5.757   8.239  1.00  0.00     0.010 A 
ATOM     33  C   UNL     1       7.768   7.004   8.000  1.00  0.00     0.010 A 
ATOM     34  C   UNL     1       9.156   6.980   8.231  1.00  0.00    -0.014 A 
BRANCH  34  35
ATOM     35  C   UNL     1       9.870   8.209   8.654  1.00  0.00     0.031 A 
ATOM     36  C   UNL     1       9.715   8.681  10.074  1.00  0.00     0.074 A 
ATOM     37  C   UNL     1      10.677   8.869   7.807  1.00  0.00     0.049 A 
ATOM     38  N   UNL     1      10.232   9.729  10.664  1.00  0.00    -0.248 NA
ATOM     39  C   UNL     1       8.859   7.860  10.946  1.00  0.00     0.031 C 
ATOM     40  C   UNL     1      10.940   8.490   6.420  1.00  0.00     0.029 A 
ATOM     41  N   UNL     1      11.424  10.004   7.995  1.00  0.00    -0.354 N 
ATOM     42  C   UNL     1       9.760   9.697  11.970  1.00  0.00     0.074 A 
ATOM     43  C   UNL     1       8.890   8.545  12.079  1.00  0.00     0.031 C 
ATOM     44  C   UNL     1      11.786   9.384   5.878  1.00  0.00     0.029 A 
ATOM     45  C   UNL     1      12.102  10.409   6.872  1.00  0.00     0.049 A 
ATOM     46  H   UNL     1      11.470  10.482   8.854  1.00  0.00     0.167 HD
ATOM     47  C   UNL     1      10.033  10.543  12.990  1.00  0.00     0.037 A 
ATOM     48  C   UNL     1      12.876  11.491   6.669  1.00  0.00     0.037 A 
ATOM     49  C   UNL     1      10.900  11.687  12.883  1.00  0.00     0.049 A 
ATOM     50  C   UNL     1      13.123  12.449   7.804  1.00  0.00     0.074 A 
ATOM     51  C   UNL     1      11.248  12.602  13.862  1.00  0.00     0.029 A 
ATOM     52  N   UNL     1      11.553  12.074  11.723  1.00  0.00    -0.354 N 
ATOM     53  N   UNL     1      12.689  12.400   9.040  1.00  0.00    -0.248 NA
ATOM     54  C   UNL     1      13.977  13.611   7.516  1.00  0.00     0.031 C 
ATOM     55  C   UNL     1      12.080  13.566  13.283  1.00  0.00     0.029 A 
ATOM     56  C   UNL     1      12.289  13.223  11.956  1.00  0.00     0.049 A 
ATOM     57  H   UNL     1      11.501  11.601  10.861  1.00  0.00     0.167 HD
ATOM     58  C   UNL     1      13.242  13.499   9.684  1.00  0.00     0.074 A 
ATOM     59  C   UNL     1      14.050  14.195   8.704  1.00  0.00     0.031 C 
ATOM     60  C   UNL     1      13.100  13.895  10.973  1.00  0.00     0.037 A 
BRANCH  47  61
ATOM     61  C   UNL     1       9.364  10.273  14.306  1.00  0.00     0.057 A 
ATOM     62  C   UNL     1       9.738   9.195  15.119  1.00  0.00     0.134 A 
ATOM     63  C   UNL     1       8.343  11.111  14.771  1.00  0.00     0.134 A 
ATOM     64  F   UNL     1      10.697   8.345  14.723  1.00  0.00    -0.206 F 
ATOM     65  C   UNL     1       9.102   8.946  16.337  1.00  0.00     0.040 A 
ATOM     66  C   UNL     1       7.718  10.886  15.999  1.00  0.00     0.040 A 
ATOM     67  F   UNL     1       7.939  12.162  14.043  1.00  0.00    -0.206 F 
ATOM     68  C   UNL     1       8.092   9.797  16.782  1.00  0.00     0.006 A 
ENDBRANCH  47  61
BRANCH  48  69
ATOM     69  C   UNL     1      13.479  11.732   5.334  1.00  0.00     0.057 A 
ATOM     70  C   UNL     1      14.857  11.607   5.126  1.00  0.00     0.134 A 
ATOM     71  C   UNL     1      12.692  12.110   4.239  1.00  0.00     0.134 A 
ATOM     72  F   UNL     1      15.665  11.272   6.142  1.00  0.00    -0.206 F 
ATOM     73  C   UNL     1      15.434  11.866   3.882  1.00  0.00     0.040 A 
ATOM     74  C   UNL     1      13.253  12.348   2.984  1.00  0.00     0.040 A 
ATOM     75  F   UNL     1      11.364  12.246   4.374  1.00  0.00    -0.206 F 
ATOM     76  C   UNL     1      14.630  12.233   2.805  1.00  0.00     0.006 A 
ENDBRANCH  48  69
BRANCH  60  77
ATOM     77  C   UNL     1      13.872  15.105  11.412  1.00  0.00     0.057 A 
ATOM     78  C   UNL     1      13.515  16.399  11.014  1.00  0.00     0.134 A 
ATOM     79  C   UNL     1      14.965  14.972  12.278  1.00  0.00     0.134 A 
ATOM     80  F   UNL     1      12.485  16.593  10.177  1.00  0.00    -0.206 F 
ATOM     81  C   UNL     1      14.234  17.517  11.441  1.00  0.00     0.040 A 
ATOM     82  C   UNL     1      15.676  16.084  12.732  1.00  0.00     0.040 A 
ATOM     83  F   UNL     1      15.353  13.761  12.705  1.00  0.00    -0.206 F 
ATOM     84  C   UNL     1      15.314  17.361  12.309  1.00  0.00     0.006 A 
ENDBRANCH  60  77
ENDBRANCH  34  35
ENDBRANCH  27  29
ENDBRANCH  26  27
ENDBRANCH  25  26
ENDBRANCH  24  25
ENDBRANCH  23  24
ENDBRANCH   1  23
TORSDOF 18
