REMARK SMILES O=C(OCCOCCOC(=O)c1ccc(-c2ccc(Cl)cc2)cc1F)c1ccc(-c2c3nc(c(-c4c(F)cccc4F)c4ccc([nH]4)c(-c4c(F)cccc4F)c4nc(c(-c5c(F)cccc5F)c5ccc2[nH]5)C=C4)C=C3)cc1
REMARK SMILES IDX 5 1 4 2 3 3 2 4 1 5 26 6 27 7 79 8 28 9 78 10 29 11 30 12
REMARK SMILES IDX 31 13 72 14 32 15 77 16 71 17 73 18 33 19 76 20 70 21 69 22
REMARK SMILES IDX 34 24 60 25 43 26 59 27 44 28 47 29 58 30 74 31 45 32 46 33
REMARK SMILES IDX 57 35 75 36 48 37 35 38 36 39 41 40 37 41 38 42 40 43 42 44
REMARK SMILES IDX 39 45 61 46 62 47 67 48 63 49 64 50 66 51 68 52 65 53 49 54
REMARK SMILES IDX 50 55 55 56 51 57 52 58 54 59 56 60 53 61 6 62 7 63 8 64
REMARK SMILES IDX 9 65 10 66 11 67 12 68 13 69 24 70 14 71 23 72 25 73 15 74
REMARK SMILES IDX 16 75 17 76 22 77 18 78 21 79 19 80 20 81
REMARK H PARENT 73 23 47 34
REMARK Flexibility Score: inf
ROOT
ATOM      1  C   UNL     1       4.209  -1.106  -1.241  1.00  0.00     0.202 C 
ENDROOT
BRANCH   1   2
ATOM      2  C   UNL     1       3.934  -1.429   0.231  1.00  0.00     0.261 C 
BRANCH   2   3
ATOM      3  O   UNL     1       2.561  -1.165   0.561  1.00  0.00    -0.460 OA
BRANCH   3   4
ATOM      4  C   UNL     1       2.018  -0.059   1.120  1.00  0.00     0.338 C 
ATOM      5  O   UNL     1       0.799  -0.027   1.281  1.00  0.00    -0.246 OA
BRANCH   4   6
ATOM      6  C   UNL     1       2.808   1.127   1.577  1.00  0.00     0.060 A 
ATOM      7  C   UNL     1       4.061   1.502   1.090  1.00  0.00     0.016 A 
ATOM      8  C   UNL     1       2.197   1.968   2.525  1.00  0.00     0.016 A 
ATOM      9  C   UNL     1       4.721   2.623   1.563  1.00  0.00     0.010 A 
ATOM     10  C   UNL     1       2.841   3.119   2.991  1.00  0.00     0.010 A 
ATOM     11  C   UNL     1       4.121   3.427   2.525  1.00  0.00    -0.014 A 
BRANCH  11  12
ATOM     12  C   UNL     1       4.953   4.482   3.123  1.00  0.00     0.031 A 
ATOM     13  C   UNL     1       5.595   4.199   4.444  1.00  0.00     0.074 A 
ATOM     14  C   UNL     1       5.270   5.565   2.393  1.00  0.00     0.049 A 
ATOM     15  N   UNL     1       6.405   4.941   5.146  1.00  0.00    -0.248 NA
ATOM     16  C   UNL     1       5.306   2.884   5.045  1.00  0.00     0.031 C 
ATOM     17  C   UNL     1       4.798   5.827   1.032  1.00  0.00     0.029 A 
ATOM     18  N   UNL     1       6.102   6.614   2.669  1.00  0.00    -0.354 N 
ATOM     19  C   UNL     1       6.708   4.194   6.276  1.00  0.00     0.074 A 
ATOM     20  C   UNL     1       5.989   2.945   6.176  1.00  0.00     0.031 C 
ATOM     21  C   UNL     1       5.377   6.951   0.579  1.00  0.00     0.029 A 
ATOM     22  C   UNL     1       6.207   7.515   1.638  1.00  0.00     0.049 A 
ATOM     23  H   UNL     1       6.579   6.715   3.525  1.00  0.00     0.167 HD
ATOM     24  C   UNL     1       7.517   4.532   7.304  1.00  0.00     0.037 A 
ATOM     25  C   UNL     1       6.886   8.674   1.575  1.00  0.00     0.037 A 
ATOM     26  C   UNL     1       8.209   5.790   7.373  1.00  0.00     0.049 A 
ATOM     27  C   UNL     1       7.693   9.081   2.777  1.00  0.00     0.074 A 
ATOM     28  C   UNL     1       8.975   6.302   8.401  1.00  0.00     0.029 A 
ATOM     29  N   UNL     1       8.212   6.735   6.354  1.00  0.00    -0.354 N 
ATOM     30  N   UNL     1       7.897   8.420   3.893  1.00  0.00    -0.248 NA
ATOM     31  C   UNL     1       8.351  10.392   2.724  1.00  0.00     0.031 C 
ATOM     32  C   UNL     1       9.408   7.576   8.020  1.00  0.00     0.029 A 
ATOM     33  C   UNL     1       8.959   7.834   6.731  1.00  0.00     0.049 A 
ATOM     34  H   UNL     1       7.749   6.636   5.490  1.00  0.00     0.167 HD
ATOM     35  C   UNL     1       8.719   9.223   4.670  1.00  0.00     0.074 A 
ATOM     36  C   UNL     1       8.985  10.417   3.890  1.00  0.00     0.031 C 
ATOM     37  C   UNL     1       9.207   8.998   5.915  1.00  0.00     0.037 A 
BRANCH  24  38
ATOM     38  C   UNL     1       7.618   3.560   8.440  1.00  0.00     0.057 A 
ATOM     39  C   UNL     1       6.984   3.829   9.659  1.00  0.00     0.134 A 
ATOM     40  C   UNL     1       8.298   2.340   8.322  1.00  0.00     0.134 A 
ATOM     41  F   UNL     1       6.305   4.973   9.836  1.00  0.00    -0.206 F 
ATOM     42  C   UNL     1       7.020   2.922  10.719  1.00  0.00     0.040 A 
ATOM     43  C   UNL     1       8.321   1.413   9.367  1.00  0.00     0.040 A 
ATOM     44  F   UNL     1       8.898   2.005   7.170  1.00  0.00    -0.206 F 
ATOM     45  C   UNL     1       7.683   1.705  10.572  1.00  0.00     0.006 A 
ENDBRANCH  24  38
BRANCH  25  46
ATOM     46  C   UNL     1       6.804   9.516   0.354  1.00  0.00     0.057 A 
ATOM     47  C   UNL     1       5.597  10.113  -0.035  1.00  0.00     0.134 A 
ATOM     48  C   UNL     1       7.912   9.713  -0.477  1.00  0.00     0.134 A 
ATOM     49  F   UNL     1       4.495   9.964   0.715  1.00  0.00    -0.206 F 
ATOM     50  C   UNL     1       5.487  10.848  -1.217  1.00  0.00     0.040 A 
ATOM     51  C   UNL     1       7.823  10.467  -1.650  1.00  0.00     0.040 A 
ATOM     52  F   UNL     1       9.101   9.184  -0.153  1.00  0.00    -0.206 F 
ATOM     53  C   UNL     1       6.604  11.028  -2.028  1.00  0.00     0.006 A 
ENDBRANCH  25  46
BRANCH  37  54
ATOM     54  C   UNL     1      10.106  10.047   6.497  1.00  0.00     0.057 A 
ATOM     55  C   UNL     1      11.474   9.793   6.657  1.00  0.00     0.134 A 
ATOM     56  C   UNL     1       9.604  11.259   6.982  1.00  0.00     0.134 A 
ATOM     57  F   UNL     1      12.009   8.642   6.223  1.00  0.00    -0.206 F 
ATOM     58  C   UNL     1      12.311  10.705   7.299  1.00  0.00     0.040 A 
ATOM     59  C   UNL     1      10.437  12.191   7.603  1.00  0.00     0.040 A 
ATOM     60  F   UNL     1       8.304  11.561   6.849  1.00  0.00    -0.206 F 
ATOM     61  C   UNL     1      11.792  11.909   7.772  1.00  0.00     0.006 A 
ENDBRANCH  37  54
ENDBRANCH  11  12
ENDBRANCH   4   6
ENDBRANCH   3   4
ENDBRANCH   2   3
ENDBRANCH   1   2
BRANCH   1  62
ATOM     62  O   UNL     1       3.950   0.252  -1.601  1.00  0.00    -0.374 OA
BRANCH  62  63
ATOM     63  C   UNL     1       2.608   0.544  -2.012  1.00  0.00     0.202 C 
BRANCH  63  64
ATOM     64  C   UNL     1       2.612   1.096  -3.436  1.00  0.00     0.261 C 
BRANCH  64  65
ATOM     65  O   UNL     1       3.093   0.063  -4.304  1.00  0.00    -0.460 OA
BRANCH  65  66
ATOM     66  C   UNL     1       4.435   0.042  -4.477  1.00  0.00     0.341 C 
ATOM     67  O   UNL     1       5.232   0.938  -4.244  1.00  0.00    -0.246 OA
BRANCH  66  68
ATOM     68  C   UNL     1       4.843  -1.335  -4.787  1.00  0.00     0.095 A 
ATOM     69  C   UNL     1       6.015  -1.831  -4.200  1.00  0.00     0.019 A 
ATOM     70  C   UNL     1       4.093  -2.144  -5.631  1.00  0.00     0.138 A 
ATOM     71  C   UNL     1       6.450  -3.123  -4.499  1.00  0.00     0.010 A 
ATOM     72  C   UNL     1       4.530  -3.425  -5.940  1.00  0.00     0.049 A 
ATOM     73  F   UNL     1       2.973  -1.697  -6.218  1.00  0.00    -0.206 F 
ATOM     74  C   UNL     1       5.737  -3.912  -5.413  1.00  0.00    -0.015 A 
BRANCH  74  75
ATOM     75  C   UNL     1       6.325  -5.130  -5.968  1.00  0.00    -0.018 A 
ATOM     76  C   UNL     1       6.817  -5.082  -7.286  1.00  0.00     0.010 A 
ATOM     77  C   UNL     1       6.430  -6.327  -5.250  1.00  0.00     0.010 A 
ATOM     78  C   UNL     1       7.389  -6.202  -7.881  1.00  0.00     0.021 A 
ATOM     79  C   UNL     1       7.003  -7.455  -5.849  1.00  0.00     0.021 A 
ATOM     80  C   UNL     1       7.477  -7.387  -7.160  1.00  0.00     0.041 A 
ATOM     81  Cl  UNL     1       8.177  -8.774  -7.897  1.00  0.00    -0.084 Cl
ENDBRANCH  74  75
ENDBRANCH  66  68
ENDBRANCH  65  66
ENDBRANCH  64  65
ENDBRANCH  63  64
ENDBRANCH  62  63
ENDBRANCH   1  62
TORSDOF 15
