REMARK SMILES Cc1cc(SCC(=O)OCCOCCOC(=O)c2ccc(-c3c4nc(c(-c5c(F)cccc5F)c5ccc([nH]5)c(-c5c(F)cccc5F)c5nc(c(-c6c(F)cccc6F)c6ccc3[nH]6)C=C5)C=C4)cc2)c2cc(I)ccc2n1
REMARK SMILES IDX 12 1 11 2 10 3 9 4 7 5 8 6 6 7 5 8 4 9 1 10 2 11 3 12 79 13
REMARK SMILES IDX 78 14 72 15 77 16 73 17 76 18 74 19 75 20 13 21 14 22 15 23
REMARK SMILES IDX 16 24 17 25 18 26 19 27 71 28 20 29 70 30 21 31 22 32 23 33
REMARK SMILES IDX 64 34 24 35 69 36 63 37 65 38 25 39 68 40 62 41 61 42 26 44
REMARK SMILES IDX 52 45 35 46 51 47 36 48 39 49 50 50 66 51 37 52 38 53 49 55
REMARK SMILES IDX 67 56 40 57 27 58 28 59 33 60 29 61 30 62 32 63 34 64 31 65
REMARK SMILES IDX 53 66 54 67 59 68 55 69 56 70 58 71 60 72 57 73 41 74 42 75
REMARK SMILES IDX 47 76 43 77 44 78 46 79 48 80 45 81
REMARK H PARENT 65 43 39 54
REMARK Flexibility Score: inf
ROOT
ATOM      1  O   UNL     1      -2.098  -2.647  -0.831  1.00  0.00    -0.374 OA
ENDROOT
BRANCH   1   2
ATOM      2  C   UNL     1      -3.180  -3.318  -0.191  1.00  0.00     0.202 C 
BRANCH   2   3
ATOM      3  C   UNL     1      -2.851  -4.435   0.810  1.00  0.00     0.261 C 
BRANCH   3   4
ATOM      4  O   UNL     1      -2.012  -4.018   1.908  1.00  0.00    -0.463 OA
BRANCH   4   5
ATOM      5  C   UNL     1      -0.794  -4.621   1.981  1.00  0.00     0.316 C 
ATOM      6  O   UNL     1      -0.409  -5.478   1.188  1.00  0.00    -0.251 OA
BRANCH   5   7
ATOM      7  C   UNL     1       0.099  -4.194   3.128  1.00  0.00     0.197 C 
BRANCH   7   8
ATOM      8  S   UNL     1      -0.450  -2.813   4.171  1.00  0.00    -0.114 SA
BRANCH   8   9
ATOM      9  C   UNL     1       0.308  -1.288   3.540  1.00  0.00     0.019 A 
ATOM     10  C   UNL     1       2.038   0.083   0.462  1.00  0.00     0.067 C 
ATOM     11  C   UNL     1       1.406  -0.017   1.821  1.00  0.00     0.039 A 
ATOM     12  C   UNL     1       1.101  -1.251   2.388  1.00  0.00     0.039 A 
ATOM     13  N   UNL     1       1.033   1.153   2.379  1.00  0.00    -0.253 NA
ATOM     14  C   UNL     1       0.336   1.139   3.521  1.00  0.00     0.072 A 
ATOM     15  C   UNL     1      -0.042  -0.054   4.176  1.00  0.00     0.015 A 
ATOM     16  C   UNL     1      -0.064   2.364   4.039  1.00  0.00     0.030 A 
ATOM     17  C   UNL     1      -0.758   0.066   5.399  1.00  0.00     0.026 A 
ATOM     18  C   UNL     1      -0.798   2.466   5.222  1.00  0.00     0.017 A 
ATOM     19  C   UNL     1      -1.125   1.311   5.912  1.00  0.00     0.014 A 
ATOM     20  I   UNL     1      -2.172   1.431   7.700  1.00  0.00    -0.044 I 
ENDBRANCH   8   9
ENDBRANCH   7   8
ENDBRANCH   5   7
ENDBRANCH   4   5
ENDBRANCH   3   4
ENDBRANCH   2   3
ENDBRANCH   1   2
BRANCH   1  21
ATOM     21  C   UNL     1      -1.244  -1.846  -0.024  1.00  0.00     0.202 C 
BRANCH  21  22
ATOM     22  C   UNL     1      -1.807  -0.544   0.554  1.00  0.00     0.261 C 
BRANCH  22  23
ATOM     23  O   UNL     1      -3.022  -0.715   1.274  1.00  0.00    -0.460 OA
BRANCH  23  24
ATOM     24  C   UNL     1      -4.072  -0.059   0.736  1.00  0.00     0.338 C 
ATOM     25  O   UNL     1      -4.092   0.672  -0.241  1.00  0.00    -0.246 OA
BRANCH  24  26
ATOM     26  C   UNL     1      -5.276  -0.522   1.424  1.00  0.00     0.060 A 
ATOM     27  C   UNL     1      -5.417  -0.366   2.804  1.00  0.00     0.016 A 
ATOM     28  C   UNL     1      -6.271  -1.123   0.647  1.00  0.00     0.016 A 
ATOM     29  C   UNL     1      -6.593  -0.794   3.410  1.00  0.00     0.010 A 
ATOM     30  C   UNL     1      -7.446  -1.543   1.253  1.00  0.00     0.010 A 
ATOM     31  C   UNL     1      -7.620  -1.357   2.631  1.00  0.00    -0.014 A 
BRANCH  31  32
ATOM     32  C   UNL     1      -8.941  -1.624   3.231  1.00  0.00     0.031 A 
ATOM     33  C   UNL     1      -9.413  -3.022   3.468  1.00  0.00     0.074 A 
ATOM     34  C   UNL     1      -9.728  -0.567   3.499  1.00  0.00     0.049 A 
ATOM     35  N   UNL     1     -10.547  -3.429   3.974  1.00  0.00    -0.248 NA
ATOM     36  C   UNL     1      -8.499  -4.105   3.075  1.00  0.00     0.031 C 
ATOM     37  C   UNL     1      -9.366   0.833   3.256  1.00  0.00     0.029 A 
ATOM     38  N   UNL     1     -10.988  -0.499   4.026  1.00  0.00    -0.354 N 
ATOM     39  C   UNL     1     -10.486  -4.815   3.968  1.00  0.00     0.074 A 
ATOM     40  C   UNL     1      -9.220  -5.180   3.367  1.00  0.00     0.031 C 
ATOM     41  C   UNL     1     -10.373   1.622   3.657  1.00  0.00     0.029 A 
ATOM     42  C   UNL     1     -11.461   0.784   4.144  1.00  0.00     0.049 A 
ATOM     43  H   UNL     1     -11.505  -1.293   4.295  1.00  0.00     0.167 HD
ATOM     44  C   UNL     1     -11.405  -5.695   4.434  1.00  0.00     0.037 A 
ATOM     45  C   UNL     1     -12.649   1.230   4.588  1.00  0.00     0.037 A 
ATOM     46  C   UNL     1     -12.670  -5.307   5.006  1.00  0.00     0.049 A 
ATOM     47  C   UNL     1     -13.662   0.228   5.061  1.00  0.00     0.074 A 
ATOM     48  C   UNL     1     -13.657  -6.113   5.545  1.00  0.00     0.029 A 
ATOM     49  N   UNL     1     -13.130  -4.000   5.096  1.00  0.00    -0.354 N 
ATOM     50  N   UNL     1     -13.568  -1.079   5.118  1.00  0.00    -0.248 NA
ATOM     51  C   UNL     1     -14.943   0.763   5.536  1.00  0.00     0.031 C 
ATOM     52  C   UNL     1     -14.738  -5.300   5.904  1.00  0.00     0.029 A 
ATOM     53  C   UNL     1     -14.400  -3.980   5.651  1.00  0.00     0.049 A 
ATOM     54  H   UNL     1     -12.627  -3.203   4.809  1.00  0.00     0.167 HD
ATOM     55  C   UNL     1     -14.768  -1.523   5.655  1.00  0.00     0.074 A 
ATOM     56  C   UNL     1     -15.562  -0.341   5.928  1.00  0.00     0.031 C 
ATOM     57  C   UNL     1     -15.178  -2.792   5.901  1.00  0.00     0.037 A 
BRANCH  44  58
ATOM     58  C   UNL     1     -11.082  -7.157   4.324  1.00  0.00     0.057 A 
ATOM     59  C   UNL     1     -11.809  -7.988   3.462  1.00  0.00     0.134 A 
ATOM     60  C   UNL     1     -10.077  -7.754   5.097  1.00  0.00     0.134 A 
ATOM     61  F   UNL     1     -12.789  -7.485   2.696  1.00  0.00    -0.206 F 
ATOM     62  C   UNL     1     -11.548  -9.357   3.373  1.00  0.00     0.040 A 
ATOM     63  C   UNL     1      -9.789  -9.117   4.997  1.00  0.00     0.040 A 
ATOM     64  F   UNL     1      -9.335  -7.015   5.936  1.00  0.00    -0.206 F 
ATOM     65  C   UNL     1     -10.531  -9.923   4.137  1.00  0.00     0.006 A 
ENDBRANCH  44  58
BRANCH  45  66
ATOM     66  C   UNL     1     -12.933   2.685   4.615  1.00  0.00     0.057 A 
ATOM     67  C   UNL     1     -13.082   3.423   3.434  1.00  0.00     0.134 A 
ATOM     68  C   UNL     1     -13.059   3.374   5.826  1.00  0.00     0.134 A 
ATOM     69  F   UNL     1     -12.958   2.824   2.240  1.00  0.00    -0.206 F 
ATOM     70  C   UNL     1     -13.342   4.793   3.457  1.00  0.00     0.040 A 
ATOM     71  C   UNL     1     -13.348   4.738   5.864  1.00  0.00     0.040 A 
ATOM     72  F   UNL     1     -12.937   2.719   6.990  1.00  0.00    -0.206 F 
ATOM     73  C   UNL     1     -13.486   5.453   4.676  1.00  0.00     0.006 A 
ENDBRANCH  45  66
BRANCH  57  74
ATOM     74  C   UNL     1     -16.539  -2.954   6.516  1.00  0.00     0.057 A 
ATOM     75  C   UNL     1     -16.674  -3.399   7.837  1.00  0.00     0.134 A 
ATOM     76  C   UNL     1     -17.713  -2.678   5.804  1.00  0.00     0.134 A 
ATOM     77  F   UNL     1     -15.591  -3.690   8.573  1.00  0.00    -0.206 F 
ATOM     78  C   UNL     1     -17.927  -3.561   8.428  1.00  0.00     0.040 A 
ATOM     79  C   UNL     1     -18.971  -2.803   6.395  1.00  0.00     0.040 A 
ATOM     80  F   UNL     1     -17.654  -2.233   4.539  1.00  0.00    -0.206 F 
ATOM     81  C   UNL     1     -19.080  -3.252   7.710  1.00  0.00     0.006 A 
ENDBRANCH  57  74
ENDBRANCH  31  32
ENDBRANCH  24  26
ENDBRANCH  23  24
ENDBRANCH  22  23
ENDBRANCH  21  22
ENDBRANCH   1  21
TORSDOF 16
