REMARK SMILES N#Cc1nccn1-c1ccc(F)cc1C(=O)OCCOCCOC(=O)c1ccc(-c2c3nc(c(-c4c(F)cccc4F)c4ccc([nH]4)c(-c4c(F)cccc4F)c4nc(c(-c5c(F)cccc5F)c5ccc2[nH]5)C=C4)C=C3)cc1
REMARK SMILES IDX 20 1 19 2 18 3 17 4 15 5 16 6 14 7 8 8 9 9 10 10 13 11 11 12
REMARK SMILES IDX 12 13 7 14 3 15 4 16 5 17 6 18 2 19 1 20 21 21 22 22 23 23
REMARK SMILES IDX 24 24 25 25 26 26 27 27 79 28 28 29 78 30 29 31 30 32 31 33
REMARK SMILES IDX 72 34 32 35 77 36 71 37 73 38 33 39 76 40 70 41 69 42 34 44
REMARK SMILES IDX 60 45 43 46 59 47 44 48 47 49 58 50 74 51 45 52 46 53 57 55
REMARK SMILES IDX 75 56 48 57 35 58 36 59 41 60 37 61 38 62 40 63 42 64 39 65
REMARK SMILES IDX 61 66 62 67 67 68 63 69 64 70 66 71 68 72 65 73 49 74 50 75
REMARK SMILES IDX 55 76 51 77 52 78 54 79 56 80 53 81
REMARK H PARENT 73 43 47 54
REMARK Flexibility Score: inf
ROOT
ATOM      1  O   UNL     1       5.592  -2.705   4.989  1.00  0.00    -0.374 OA
ENDROOT
BRANCH   1   2
ATOM      2  C   UNL     1       6.311  -1.592   4.459  1.00  0.00     0.202 C 
BRANCH   2   3
ATOM      3  C   UNL     1       6.889  -1.717   3.052  1.00  0.00     0.261 C 
BRANCH   3   4
ATOM      4  O   UNL     1       5.865  -1.947   2.069  1.00  0.00    -0.460 OA
BRANCH   4   5
ATOM      5  C   UNL     1       6.006  -3.085   1.350  1.00  0.00     0.340 C 
ATOM      6  O   UNL     1       6.899  -3.909   1.450  1.00  0.00    -0.246 OA
BRANCH   5   7
ATOM      7  C   UNL     1       4.821  -3.317   0.492  1.00  0.00     0.087 A 
ATOM      8  C   UNL     1       4.167  -2.360  -0.309  1.00  0.00     0.062 A 
ATOM      9  C   UNL     1       3.058  -2.755  -1.082  1.00  0.00     0.030 A 
ATOM     10  C   UNL     1       2.572  -4.063  -1.014  1.00  0.00     0.041 A 
ATOM     11  C   UNL     1       4.301  -4.622   0.570  1.00  0.00     0.057 A 
ATOM     12  C   UNL     1       3.182  -4.977  -0.170  1.00  0.00     0.124 A 
ATOM     13  F   UNL     1       2.688  -6.216  -0.069  1.00  0.00    -0.207 F 
BRANCH   8  14
ATOM     14  N   UNL     1       4.573  -0.998  -0.361  1.00  0.00    -0.291 N 
ATOM     15  C   UNL     1       3.755   0.125  -0.347  1.00  0.00     0.217 A 
ATOM     16  N   UNL     1       4.464   1.239  -0.329  1.00  0.00    -0.227 NA
ATOM     17  C   UNL     1       5.772   0.846  -0.361  1.00  0.00     0.132 A 
ATOM     18  C   UNL     1       5.866  -0.523  -0.416  1.00  0.00     0.114 A 
BRANCH  15  19
ATOM     19  C   UNL     1       2.328   0.117  -0.232  1.00  0.00     0.139 C 
ATOM     20  N   UNL     1       1.176   0.068  -0.127  1.00  0.00    -0.189 NA
ENDBRANCH  15  19
ENDBRANCH   8  14
ENDBRANCH   5   7
ENDBRANCH   4   5
ENDBRANCH   3   4
ENDBRANCH   2   3
ENDBRANCH   1   2
BRANCH   1  21
ATOM     21  C   UNL     1       4.393  -3.143   4.362  1.00  0.00     0.202 C 
BRANCH  21  22
ATOM     22  C   UNL     1       3.170  -2.239   4.416  1.00  0.00     0.261 C 
BRANCH  22  23
ATOM     23  O   UNL     1       3.426  -0.928   3.935  1.00  0.00    -0.460 OA
BRANCH  23  24
ATOM     24  C   UNL     1       3.595  -0.022   4.929  1.00  0.00     0.338 C 
ATOM     25  O   UNL     1       3.906  -0.245   6.087  1.00  0.00    -0.246 OA
BRANCH  24  26
ATOM     26  C   UNL     1       3.131   1.284   4.460  1.00  0.00     0.060 A 
ATOM     27  C   UNL     1       3.182   2.327   5.385  1.00  0.00     0.016 A 
ATOM     28  C   UNL     1       2.314   1.332   3.325  1.00  0.00     0.016 A 
ATOM     29  C   UNL     1       2.204   3.292   5.314  1.00  0.00     0.010 A 
ATOM     30  C   UNL     1       1.335   2.286   3.261  1.00  0.00     0.010 A 
ATOM     31  C   UNL     1       1.228   3.186   4.314  1.00  0.00    -0.014 A 
BRANCH  31  32
ATOM     32  C   UNL     1       0.169   4.167   4.269  1.00  0.00     0.031 A 
ATOM     33  C   UNL     1       0.688   5.453   3.763  1.00  0.00     0.074 A 
ATOM     34  C   UNL     1      -1.117   3.887   4.556  1.00  0.00     0.049 A 
ATOM     35  N   UNL     1       0.954   6.500   4.468  1.00  0.00    -0.248 NA
ATOM     36  C   UNL     1       1.231   5.497   2.393  1.00  0.00     0.031 C 
ATOM     37  C   UNL     1      -1.739   2.592   4.839  1.00  0.00     0.029 A 
ATOM     38  N   UNL     1      -2.179   4.741   4.579  1.00  0.00    -0.354 N 
ATOM     39  C   UNL     1       1.460   7.422   3.565  1.00  0.00     0.074 A 
ATOM     40  C   UNL     1       1.845   6.681   2.395  1.00  0.00     0.031 C 
ATOM     41  C   UNL     1      -3.087   2.715   4.774  1.00  0.00     0.029 A 
ATOM     42  C   UNL     1      -3.427   4.113   4.583  1.00  0.00     0.049 A 
ATOM     43  H   UNL     1      -2.075   5.720   4.592  1.00  0.00     0.167 HD
ATOM     44  C   UNL     1       1.215   8.747   3.731  1.00  0.00     0.037 A 
ATOM     45  C   UNL     1      -4.619   4.738   4.373  1.00  0.00     0.037 A 
ATOM     46  C   UNL     1       0.768   9.024   5.074  1.00  0.00     0.049 A 
ATOM     47  C   UNL     1      -4.398   6.184   4.652  1.00  0.00     0.074 A 
ATOM     48  C   UNL     1       1.324   8.864   6.328  1.00  0.00     0.029 A 
ATOM     49  N   UNL     1      -0.587   9.137   5.266  1.00  0.00    -0.354 N 
ATOM     50  N   UNL     1      -4.145   6.654   5.842  1.00  0.00    -0.248 NA
ATOM     51  C   UNL     1      -3.954   7.011   3.540  1.00  0.00     0.031 C 
ATOM     52  C   UNL     1       0.250   8.430   7.157  1.00  0.00     0.029 A 
ATOM     53  C   UNL     1      -0.921   8.441   6.399  1.00  0.00     0.049 A 
ATOM     54  H   UNL     1      -1.212   9.632   4.688  1.00  0.00     0.167 HD
ATOM     55  C   UNL     1      -3.130   7.578   5.640  1.00  0.00     0.074 A 
ATOM     56  C   UNL     1      -3.088   7.792   4.193  1.00  0.00     0.031 C 
ATOM     57  C   UNL     1      -2.218   7.842   6.620  1.00  0.00     0.037 A 
BRANCH  44  58
ATOM     58  C   UNL     1       0.980   9.692   2.586  1.00  0.00     0.057 A 
ATOM     59  C   UNL     1       0.532   9.298   1.306  1.00  0.00     0.134 A 
ATOM     60  C   UNL     1       0.935  11.071   2.838  1.00  0.00     0.134 A 
ATOM     61  F   UNL     1       0.385   8.016   0.954  1.00  0.00    -0.206 F 
ATOM     62  C   UNL     1       0.098  10.207   0.341  1.00  0.00     0.040 A 
ATOM     63  C   UNL     1       0.446  11.986   1.898  1.00  0.00     0.040 A 
ATOM     64  F   UNL     1       1.292  11.563   4.033  1.00  0.00    -0.206 F 
ATOM     65  C   UNL     1       0.030  11.555   0.644  1.00  0.00     0.006 A 
ENDBRANCH  44  58
BRANCH  45  66
ATOM     66  C   UNL     1      -5.800   4.286   3.590  1.00  0.00     0.057 A 
ATOM     67  C   UNL     1      -5.688   3.324   2.573  1.00  0.00     0.134 A 
ATOM     68  C   UNL     1      -6.995   5.028   3.599  1.00  0.00     0.134 A 
ATOM     69  F   UNL     1      -4.576   2.590   2.433  1.00  0.00    -0.206 F 
ATOM     70  C   UNL     1      -6.677   3.146   1.597  1.00  0.00     0.040 A 
ATOM     71  C   UNL     1      -7.991   4.861   2.625  1.00  0.00     0.040 A 
ATOM     72  F   UNL     1      -7.191   5.993   4.510  1.00  0.00    -0.206 F 
ATOM     73  C   UNL     1      -7.824   3.929   1.607  1.00  0.00     0.006 A 
ENDBRANCH  45  66
BRANCH  57  74
ATOM     74  C   UNL     1      -2.474   7.297   8.000  1.00  0.00     0.057 A 
ATOM     75  C   UNL     1      -2.508   8.201   9.067  1.00  0.00     0.134 A 
ATOM     76  C   UNL     1      -2.499   5.931   8.326  1.00  0.00     0.134 A 
ATOM     77  F   UNL     1      -2.441   9.521   8.832  1.00  0.00    -0.206 F 
ATOM     78  C   UNL     1      -2.544   7.777  10.396  1.00  0.00     0.040 A 
ATOM     79  C   UNL     1      -2.571   5.492   9.654  1.00  0.00     0.040 A 
ATOM     80  F   UNL     1      -2.386   4.988   7.381  1.00  0.00    -0.206 F 
ATOM     81  C   UNL     1      -2.580   6.418  10.694  1.00  0.00     0.006 A 
ENDBRANCH  57  74
ENDBRANCH  31  32
ENDBRANCH  24  26
ENDBRANCH  23  24
ENDBRANCH  22  23
ENDBRANCH  21  22
ENDBRANCH   1  21
TORSDOF 16
