REMARK SMILES Cc1ccc(-c2cc([C@@H](C)C(=O)OCCOCCOC(=O)c3ccc(-c4c5nc(c(-c6c(F)cccc6F)c6ccc([nH]6)c(-c6c(F)cccc6F)c6nc(c(-c7c(F)cccc7F)c7ccc4[nH]7)C=C6)C=C5)cc3)ccc2C[C@H]2CCCC2=O)cc1
REMARK SMILES IDX 15 1 14 2 13 3 11 4 12 5 9 6 10 7 8 8 6 9 7 10 78 11 77 12
REMARK SMILES IDX 76 13 5 14 1 15 2 16 3 17 87 18 4 19 86 20 79 21 80 22 81 23
REMARK SMILES IDX 84 24 82 25 83 26 85 27 16 28 17 29 18 30 19 31 20 32 21 33
REMARK SMILES IDX 22 34 23 35 75 36 24 37 74 38 25 39 26 40 27 41 68 42 28 43
REMARK SMILES IDX 73 44 67 45 69 46 29 47 72 48 66 49 65 50 30 52 56 53 39 54
REMARK SMILES IDX 55 55 40 56 43 57 54 58 70 59 41 60 42 61 53 63 71 64 44 65
REMARK SMILES IDX 31 66 32 67 37 68 33 69 34 70 36 71 38 72 35 73 57 74 58 75
REMARK SMILES IDX 63 76 59 77 60 78 62 79 64 80 61 81 45 82 46 83 51 84 47 85
REMARK SMILES IDX 48 86 50 87 52 88 49 89
REMARK H PARENT 69 51 43 62
REMARK Flexibility Score: inf
ROOT
ATOM      1  C   UNL     1      -6.007   2.572   0.468  1.00  0.00     0.202 C 
ENDROOT
BRANCH   1   2
ATOM      2  C   UNL     1      -7.294   2.160  -0.173  1.00  0.00     0.261 C 
BRANCH   2   3
ATOM      3  O   UNL     1      -7.143   1.186  -1.209  1.00  0.00    -0.463 OA
BRANCH   3   4
ATOM      4  C   UNL     1      -6.448   1.540  -2.337  1.00  0.00     0.313 C 
ATOM      5  O   UNL     1      -6.439   2.634  -2.854  1.00  0.00    -0.252 OA
BRANCH   4   6
ATOM      6  C   UNL     1      -5.618   0.337  -2.795  1.00  0.00     0.126 C 
ATOM      7  C   UNL     1      -6.456  -0.625  -3.631  1.00  0.00     0.025 C 
BRANCH   6   8
ATOM      8  C   UNL     1      -4.950  -0.293  -1.573  1.00  0.00    -0.033 A 
ATOM      9  C   UNL     1      -3.030  -0.339  -0.047  1.00  0.00    -0.015 A 
ATOM     10  C   UNL     1      -3.627   0.037  -1.269  1.00  0.00     0.013 A 
ATOM     11  C   UNL     1      -3.813  -0.982   0.945  1.00  0.00    -0.039 A 
ATOM     12  C   UNL     1      -5.134  -1.331   0.621  1.00  0.00     0.004 A 
ATOM     13  C   UNL     1      -5.677  -1.033  -0.629  1.00  0.00     0.005 A 
BRANCH   9  14
ATOM     14  C   UNL     1      -1.575  -0.179   0.052  1.00  0.00    -0.018 A 
ATOM     15  C   UNL     1       2.731   0.101   0.007  1.00  0.00     0.044 C 
ATOM     16  C   UNL     1       1.234   0.022   0.028  1.00  0.00    -0.051 A 
ATOM     17  C   UNL     1       0.618  -1.229  -0.035  1.00  0.00     0.004 A 
ATOM     18  C   UNL     1       0.442   1.174   0.101  1.00  0.00     0.004 A 
ATOM     19  C   UNL     1      -0.770  -1.325  -0.034  1.00  0.00     0.009 A 
ATOM     20  C   UNL     1      -0.954   1.074   0.111  1.00  0.00     0.009 A 
ENDBRANCH   9  14
BRANCH  11  21
ATOM     21  C   UNL     1      -3.259  -1.438   2.285  1.00  0.00     0.047 C 
BRANCH  21  22
ATOM     22  C   UNL     1      -3.687  -0.739   3.583  1.00  0.00     0.060 C 
ATOM     23  C   UNL     1      -3.346   0.746   3.722  1.00  0.00     0.012 C 
ATOM     24  C   UNL     1      -5.172  -0.776   3.865  1.00  0.00     0.136 C 
ATOM     25  C   UNL     1      -4.658   1.493   3.568  1.00  0.00     0.009 C 
ATOM     26  C   UNL     1      -5.748   0.589   4.110  1.00  0.00     0.076 C 
ATOM     27  O   UNL     1      -5.831  -1.806   3.942  1.00  0.00    -0.299 OA
ENDBRANCH  21  22
ENDBRANCH  11  21
ENDBRANCH   6   8
ENDBRANCH   4   6
ENDBRANCH   3   4
ENDBRANCH   2   3
ENDBRANCH   1   2
BRANCH   1  28
ATOM     28  O   UNL     1      -5.469   3.641  -0.291  1.00  0.00    -0.374 OA
BRANCH  28  29
ATOM     29  C   UNL     1      -4.286   4.215   0.236  1.00  0.00     0.202 C 
BRANCH  29  30
ATOM     30  C   UNL     1      -4.449   4.809   1.647  1.00  0.00     0.261 C 
BRANCH  30  31
ATOM     31  O   UNL     1      -5.455   5.843   1.652  1.00  0.00    -0.460 OA
BRANCH  31  32
ATOM     32  C   UNL     1      -6.671   5.505   2.167  1.00  0.00     0.338 C 
ATOM     33  O   UNL     1      -6.857   4.923   3.225  1.00  0.00    -0.246 OA
BRANCH  32  34
ATOM     34  C   UNL     1      -7.717   5.661   1.112  1.00  0.00     0.060 A 
ATOM     35  C   UNL     1      -9.016   5.149   1.309  1.00  0.00     0.016 A 
ATOM     36  C   UNL     1      -7.288   5.971  -0.173  1.00  0.00     0.016 A 
ATOM     37  C   UNL     1      -9.813   4.795   0.205  1.00  0.00     0.010 A 
ATOM     38  C   UNL     1      -8.009   5.486  -1.239  1.00  0.00     0.010 A 
ATOM     39  C   UNL     1      -9.268   4.880  -1.074  1.00  0.00    -0.014 A 
BRANCH  39  40
ATOM     40  C   UNL     1      -9.790   4.258  -2.302  1.00  0.00     0.031 A 
ATOM     41  C   UNL     1      -9.970   5.115  -3.498  1.00  0.00     0.074 A 
ATOM     42  C   UNL     1      -9.770   2.911  -2.480  1.00  0.00     0.049 A 
ATOM     43  N   UNL     1     -10.513   4.715  -4.592  1.00  0.00    -0.248 NA
ATOM     44  C   UNL     1      -9.534   6.506  -3.567  1.00  0.00     0.031 C 
ATOM     45  C   UNL     1      -9.657   2.167  -3.739  1.00  0.00     0.029 A 
ATOM     46  N   UNL     1      -9.859   1.886  -1.532  1.00  0.00    -0.354 N 
ATOM     47  C   UNL     1     -10.180   5.612  -5.579  1.00  0.00     0.074 A 
ATOM     48  C   UNL     1      -9.616   6.739  -4.878  1.00  0.00     0.031 C 
ATOM     49  C   UNL     1      -9.963   0.876  -3.527  1.00  0.00     0.029 A 
ATOM     50  C   UNL     1     -10.429   0.764  -2.160  1.00  0.00     0.049 A 
ATOM     51  H   UNL     1      -9.573   1.940  -0.591  1.00  0.00     0.167 HD
ATOM     52  C   UNL     1     -10.312   5.227  -6.881  1.00  0.00     0.037 A 
ATOM     53  C   UNL     1     -11.595   0.247  -1.690  1.00  0.00     0.037 A 
ATOM     54  C   UNL     1     -10.846   3.853  -6.975  1.00  0.00     0.049 A 
ATOM     55  C   UNL     1     -12.684   0.458  -2.710  1.00  0.00     0.074 A 
ATOM     56  C   UNL     1     -10.317   2.613  -7.300  1.00  0.00     0.029 A 
ATOM     57  N   UNL     1     -12.067   3.574  -6.374  1.00  0.00    -0.354 N 
ATOM     58  N   UNL     1     -12.453   0.929  -3.906  1.00  0.00    -0.248 NA
ATOM     59  C   UNL     1     -14.105   0.243  -2.474  1.00  0.00     0.031 C 
ATOM     60  C   UNL     1     -11.252   1.603  -6.901  1.00  0.00     0.029 A 
ATOM     61  C   UNL     1     -12.361   2.223  -6.353  1.00  0.00     0.049 A 
ATOM     62  H   UNL     1     -12.661   4.265  -6.001  1.00  0.00     0.167 HD
ATOM     63  C   UNL     1     -13.618   1.189  -4.552  1.00  0.00     0.074 A 
ATOM     64  C   UNL     1     -14.634   0.730  -3.613  1.00  0.00     0.031 C 
ATOM     65  C   UNL     1     -13.638   1.791  -5.781  1.00  0.00     0.037 A 
BRANCH  52  66
ATOM     66  C   UNL     1      -9.764   6.018  -8.055  1.00  0.00     0.057 A 
ATOM     67  C   UNL     1      -9.492   5.392  -9.286  1.00  0.00     0.134 A 
ATOM     68  C   UNL     1      -9.473   7.397  -8.046  1.00  0.00     0.134 A 
ATOM     69  F   UNL     1      -9.810   4.111  -9.509  1.00  0.00    -0.206 F 
ATOM     70  C   UNL     1      -8.890   6.054 -10.368  1.00  0.00     0.040 A 
ATOM     71  C   UNL     1      -8.812   8.058  -9.094  1.00  0.00     0.040 A 
ATOM     72  F   UNL     1      -9.887   8.203  -7.062  1.00  0.00    -0.206 F 
ATOM     73  C   UNL     1      -8.511   7.383 -10.263  1.00  0.00     0.006 A 
ENDBRANCH  52  66
BRANCH  53  74
ATOM     74  C   UNL     1     -11.642   0.358  -0.196  1.00  0.00     0.057 A 
ATOM     75  C   UNL     1     -10.686  -0.392   0.530  1.00  0.00     0.134 A 
ATOM     76  C   UNL     1     -12.148   1.499   0.436  1.00  0.00     0.134 A 
ATOM     77  F   UNL     1     -10.137  -1.489  -0.017  1.00  0.00    -0.206 F 
ATOM     78  C   UNL     1     -10.146   0.058   1.741  1.00  0.00     0.040 A 
ATOM     79  C   UNL     1     -11.620   1.952   1.656  1.00  0.00     0.040 A 
ATOM     80  F   UNL     1     -13.040   2.282  -0.188  1.00  0.00    -0.206 F 
ATOM     81  C   UNL     1     -10.582   1.261   2.284  1.00  0.00     0.006 A 
ENDBRANCH  53  74
BRANCH  65  82
ATOM     82  C   UNL     1     -14.917   2.079  -6.517  1.00  0.00     0.057 A 
ATOM     83  C   UNL     1     -16.015   1.210  -6.483  1.00  0.00     0.134 A 
ATOM     84  C   UNL     1     -15.076   3.212  -7.342  1.00  0.00     0.134 A 
ATOM     85  F   UNL     1     -15.933   0.008  -5.894  1.00  0.00    -0.206 F 
ATOM     86  C   UNL     1     -17.237   1.528  -7.082  1.00  0.00     0.040 A 
ATOM     87  C   UNL     1     -16.271   3.512  -7.993  1.00  0.00     0.040 A 
ATOM     88  F   UNL     1     -14.093   4.096  -7.553  1.00  0.00    -0.206 F 
ATOM     89  C   UNL     1     -17.372   2.692  -7.828  1.00  0.00     0.006 A 
ENDBRANCH  65  82
ENDBRANCH  39  40
ENDBRANCH  32  34
ENDBRANCH  31  32
ENDBRANCH  30  31
ENDBRANCH  29  30
ENDBRANCH  28  29
ENDBRANCH   1  28
TORSDOF 18
