REMARK SMILES O=C(OCCOCCOC(=O)c1ccc(C[N@H+]2CC[N@H+]3CCCC[C@@H]3C2)c(F)c1)c1ccc(-c2c3nc(c(-c4c(F)cccc4F)c4ccc([nH]4)c(-c4c(F)cccc4F)c4nc(c(-c5c(F)cccc5F)c5ccc2[nH]5)C=C4)C=C3)cc1
REMARK SMILES IDX 6 1 5 2 4 3 3 4 2 5 1 6 30 7 31 8 83 9 32 10 82 11 33 12
REMARK SMILES IDX 34 13 35 14 76 15 36 16 81 17 75 18 77 19 37 20 80 21 74 22
REMARK SMILES IDX 73 23 38 25 64 26 47 27 63 28 48 29 51 30 62 31 78 32 49 33
REMARK SMILES IDX 50 34 61 36 79 37 52 38 39 39 40 40 45 41 41 42 42 43 44 44
REMARK SMILES IDX 46 45 43 46 65 47 66 48 71 49 67 50 68 51 70 52 72 53 69 54
REMARK SMILES IDX 53 55 54 56 59 57 55 58 56 59 58 60 60 61 57 62 7 63 8 64
REMARK SMILES IDX 9 65 10 66 11 67 12 68 13 69 29 70 14 71 27 72 15 73 28 74
REMARK SMILES IDX 16 75 17 76 18 77 26 78 19 80 25 81 20 82 24 83 21 84 23 86
REMARK SMILES IDX 22 87
REMARK H PARENT 77 24 51 35 17 79 20 85
REMARK Flexibility Score: inf
ROOT
ATOM      1  O   UNL     1       4.062   0.734   1.643  1.00  0.00    -0.374 OA
ENDROOT
BRANCH   1   2
ATOM      2  C   UNL     1       4.196   1.693   0.594  1.00  0.00     0.202 C 
BRANCH   2   3
ATOM      3  C   UNL     1       3.771   1.193  -0.787  1.00  0.00     0.261 C 
BRANCH   3   4
ATOM      4  O   UNL     1       2.391   0.789  -0.763  1.00  0.00    -0.460 OA
BRANCH   4   5
ATOM      5  C   UNL     1       1.888  -0.456  -0.921  1.00  0.00     0.338 C 
ATOM      6  O   UNL     1       0.674  -0.594  -1.056  1.00  0.00    -0.246 OA
BRANCH   5   7
ATOM      7  C   UNL     1       2.736  -1.685  -0.929  1.00  0.00     0.060 A 
ATOM      8  C   UNL     1       3.932  -1.822  -0.224  1.00  0.00     0.016 A 
ATOM      9  C   UNL     1       2.232  -2.810  -1.604  1.00  0.00     0.016 A 
ATOM     10  C   UNL     1       4.652  -3.010  -0.244  1.00  0.00     0.010 A 
ATOM     11  C   UNL     1       2.920  -4.027  -1.581  1.00  0.00     0.010 A 
ATOM     12  C   UNL     1       4.143  -4.124  -0.908  1.00  0.00    -0.014 A 
BRANCH  12  13
ATOM     13  C   UNL     1       4.935  -5.368  -0.902  1.00  0.00     0.031 A 
ATOM     14  C   UNL     1       5.683  -5.759  -2.138  1.00  0.00     0.074 A 
ATOM     15  C   UNL     1       5.060  -6.063   0.243  1.00  0.00     0.049 A 
ATOM     16  N   UNL     1       6.415  -6.817  -2.358  1.00  0.00    -0.248 NA
ATOM     17  C   UNL     1       5.610  -4.825  -3.275  1.00  0.00     0.031 C 
ATOM     18  C   UNL     1       4.449  -5.692   1.522  1.00  0.00     0.029 A 
ATOM     19  N   UNL     1       5.765  -7.202   0.530  1.00  0.00    -0.354 N 
ATOM     20  C   UNL     1       6.878  -6.686  -3.660  1.00  0.00     0.074 A 
ATOM     21  C   UNL     1       6.341  -5.451  -4.186  1.00  0.00     0.031 C 
ATOM     22  C   UNL     1       4.835  -6.567   2.464  1.00  0.00     0.029 A 
ATOM     23  C   UNL     1       5.663  -7.595   1.843  1.00  0.00     0.049 A 
ATOM     24  H   UNL     1       6.295  -7.691  -0.140  1.00  0.00     0.167 HD
ATOM     25  C   UNL     1       7.678  -7.531  -4.348  1.00  0.00     0.037 A 
ATOM     26  C   UNL     1       6.163  -8.681   2.461  1.00  0.00     0.037 A 
ATOM     27  C   UNL     1       8.196  -8.755  -3.800  1.00  0.00     0.049 A 
ATOM     28  C   UNL     1       6.974  -9.650   1.646  1.00  0.00     0.074 A 
ATOM     29  C   UNL     1       8.955  -9.728  -4.423  1.00  0.00     0.029 A 
ATOM     30  N   UNL     1       8.008  -9.166  -2.487  1.00  0.00    -0.354 N 
ATOM     31  N   UNL     1       7.345  -9.561   0.391  1.00  0.00    -0.248 NA
ATOM     32  C   UNL     1       7.416 -10.879   2.318  1.00  0.00     0.031 C 
ATOM     33  C   UNL     1       9.197 -10.746  -3.495  1.00  0.00     0.029 A 
ATOM     34  C   UNL     1       8.625 -10.387  -2.283  1.00  0.00     0.049 A 
ATOM     35  H   UNL     1       7.510  -8.663  -1.803  1.00  0.00     0.167 HD
ATOM     36  C   UNL     1       8.067 -10.714   0.122  1.00  0.00     0.074 A 
ATOM     37  C   UNL     1       8.101 -11.479   1.354  1.00  0.00     0.031 C 
ATOM     38  C   UNL     1       8.642 -11.113  -1.038  1.00  0.00     0.037 A 
BRANCH  25  39
ATOM     39  C   UNL     1       7.987  -7.182  -5.771  1.00  0.00     0.057 A 
ATOM     40  C   UNL     1       7.372  -7.875  -6.821  1.00  0.00     0.134 A 
ATOM     41  C   UNL     1       8.894  -6.170  -6.106  1.00  0.00     0.134 A 
ATOM     42  F   UNL     1       6.489  -8.852  -6.567  1.00  0.00    -0.206 F 
ATOM     43  C   UNL     1       7.653  -7.577  -8.155  1.00  0.00     0.040 A 
ATOM     44  C   UNL     1       9.170  -5.850  -7.437  1.00  0.00     0.040 A 
ATOM     45  F   UNL     1       9.497  -5.452  -5.146  1.00  0.00    -0.206 F 
ATOM     46  C   UNL     1       8.552  -6.559  -8.466  1.00  0.00     0.006 A 
ENDBRANCH  25  39
BRANCH  26  47
ATOM     47  C   UNL     1       5.880  -8.921   3.900  1.00  0.00     0.057 A 
ATOM     48  C   UNL     1       4.580  -9.187   4.353  1.00  0.00     0.134 A 
ATOM     49  C   UNL     1       6.897  -8.881   4.860  1.00  0.00     0.134 A 
ATOM     50  F   UNL     1       3.558  -9.241   3.486  1.00  0.00    -0.206 F 
ATOM     51  C   UNL     1       4.299  -9.381   5.707  1.00  0.00     0.040 A 
ATOM     52  C   UNL     1       6.634  -9.100   6.215  1.00  0.00     0.040 A 
ATOM     53  F   UNL     1       8.166  -8.653   4.491  1.00  0.00    -0.206 F 
ATOM     54  C   UNL     1       5.330  -9.342   6.642  1.00  0.00     0.006 A 
ENDBRANCH  26  47
BRANCH  38  55
ATOM     55  C   UNL     1       9.362 -12.425  -1.029  1.00  0.00     0.057 A 
ATOM     56  C   UNL     1      10.760 -12.470  -1.084  1.00  0.00     0.134 A 
ATOM     57  C   UNL     1       8.667 -13.639  -1.061  1.00  0.00     0.134 A 
ATOM     58  F   UNL     1      11.479 -11.338  -1.067  1.00  0.00    -0.206 F 
ATOM     59  C   UNL     1      11.443 -13.681  -1.189  1.00  0.00     0.040 A 
ATOM     60  C   UNL     1       9.340 -14.858  -1.144  1.00  0.00     0.040 A 
ATOM     61  F   UNL     1       7.327 -13.657  -1.002  1.00  0.00    -0.206 F 
ATOM     62  C   UNL     1      10.732 -14.879  -1.219  1.00  0.00     0.006 A 
ENDBRANCH  38  55
ENDBRANCH  12  13
ENDBRANCH   5   7
ENDBRANCH   4   5
ENDBRANCH   3   4
ENDBRANCH   2   3
ENDBRANCH   1   2
BRANCH   1  63
ATOM     63  C   UNL     1       2.772   0.675   2.264  1.00  0.00     0.202 C 
BRANCH  63  64
ATOM     64  C   UNL     1       2.942   0.483   3.777  1.00  0.00     0.261 C 
BRANCH  64  65
ATOM     65  O   UNL     1       3.690   1.591   4.312  1.00  0.00    -0.460 OA
BRANCH  65  66
ATOM     66  C   UNL     1       5.040   1.425   4.333  1.00  0.00     0.338 C 
ATOM     67  O   UNL     1       5.674   0.391   4.223  1.00  0.00    -0.246 OA
BRANCH  66  68
ATOM     68  C   UNL     1       5.620   2.776   4.245  1.00  0.00     0.063 A 
ATOM     69  C   UNL     1       5.317   3.754   5.193  1.00  0.00     0.016 A 
ATOM     70  C   UNL     1       6.337   3.099   3.094  1.00  0.00     0.055 A 
ATOM     71  C   UNL     1       5.643   5.087   4.929  1.00  0.00     0.013 A 
ATOM     72  C   UNL     1       6.592   4.435   2.814  1.00  0.00     0.132 A 
ATOM     73  C   UNL     1       6.183   5.452   3.683  1.00  0.00     0.042 A 
ATOM     74  F   UNL     1       7.151   4.744   1.635  1.00  0.00    -0.206 F 
BRANCH  73  75
ATOM     75  C   UNL     1       6.245   6.901   3.257  1.00  0.00     0.302 C 
BRANCH  75  76
ATOM     76  N   UNL     1       5.049   7.497   2.637  1.00  0.00    -0.322 N 
ATOM     77  C   UNL     1       4.670   6.978   1.316  1.00  0.00     0.324 C 
ATOM     78  C   UNL     1       3.859   7.646   3.485  1.00  0.00     0.328 C 
ATOM     79  H   UNL     1       5.416   8.438   2.494  1.00  0.00     0.348 HD
ATOM     80  C   UNL     1       3.701   5.769   1.311  1.00  0.00     0.324 C 
ATOM     81  C   UNL     1       2.936   6.402   3.534  1.00  0.00     0.239 C 
ATOM     82  N   UNL     1       2.532   5.897   2.205  1.00  0.00    -0.323 N 
ATOM     83  C   UNL     1       1.687   6.661   4.385  1.00  0.00     0.071 C 
ATOM     84  C   UNL     1       1.861   4.593   2.354  1.00  0.00     0.262 C 
ATOM     85  H   UNL     1       1.885   6.566   1.785  1.00  0.00     0.348 HD
ATOM     86  C   UNL     1       0.937   5.347   4.600  1.00  0.00     0.012 C 
ATOM     87  C   UNL     1       0.633   4.671   3.265  1.00  0.00     0.062 C 
ENDBRANCH  75  76
ENDBRANCH  73  75
ENDBRANCH  66  68
ENDBRANCH  65  66
ENDBRANCH  64  65
ENDBRANCH  63  64
ENDBRANCH   1  63
TORSDOF 16
