REMARK SMILES CC(C)(CCc1ccc(Cl)c2ccccc12)C(=O)OCCOCCOC(=O)c1ccc(-c2c3nc(c(-c4c(F)cccc4F)c4ccc([nH]4)c(-c4c(F)cccc4F)c4nc(c(-c5c(F)cccc5F)c5ccc2[nH]5)C=C4)C=C3)cc1
REMARK SMILES IDX 21 1 20 2 19 3 17 4 18 5 2 6 1 7 3 8 4 9 5 10 6 11 7 12
REMARK SMILES IDX 16 13 8 14 11 15 15 16 9 17 12 18 14 19 10 20 13 21 22 22
REMARK SMILES IDX 23 23 24 24 25 25 26 26 27 27 28 28 29 29 81 30 30 31 80 32
REMARK SMILES IDX 31 33 32 34 33 35 74 36 34 37 79 38 73 39 75 40 35 41 78 42
REMARK SMILES IDX 72 43 71 44 36 46 62 47 45 48 61 49 46 50 49 51 60 52 76 53
REMARK SMILES IDX 47 54 48 55 59 57 77 58 50 59 37 60 38 61 43 62 39 63 40 64
REMARK SMILES IDX 42 65 44 66 41 67 63 68 64 69 69 70 65 71 66 72 68 73 70 74
REMARK SMILES IDX 67 75 51 76 52 77 57 78 53 79 54 80 56 81 58 82 55 83
REMARK H PARENT 75 45 49 56
REMARK Flexibility Score: inf
ROOT
ATOM      1  C   UNL     1       3.298  -2.996   2.827  1.00  0.00     0.202 C 
ENDROOT
BRANCH   1   2
ATOM      2  C   UNL     1       2.827  -1.836   3.730  1.00  0.00     0.261 C 
BRANCH   2   3
ATOM      3  O   UNL     1       1.760  -1.008   3.212  1.00  0.00    -0.463 OA
BRANCH   3   4
ATOM      4  C   UNL     1       1.973  -0.357   2.049  1.00  0.00     0.311 C 
ATOM      5  O   UNL     1       3.055  -0.351   1.473  1.00  0.00    -0.252 OA
BRANCH   4   6
ATOM      6  C   UNL     1       0.732   0.405   1.544  1.00  0.00     0.063 C 
ATOM      7  C   UNL     1       0.777   0.402   0.006  1.00  0.00     0.023 C 
ATOM      8  C   UNL     1       0.986   1.849   2.039  1.00  0.00     0.023 C 
BRANCH   6   9
ATOM      9  C   UNL     1      -0.685  -0.033   2.076  1.00  0.00     0.023 C 
BRANCH   9  10
ATOM     10  C   UNL     1      -1.531  -1.124   1.360  1.00  0.00     0.037 C 
BRANCH  10  11
ATOM     11  C   UNL     1      -1.344  -2.580   1.730  1.00  0.00    -0.040 A 
ATOM     12  C   UNL     1      -0.314  -3.038   3.128  1.00  0.00     0.006 A 
ATOM     13  C   UNL     1      -2.134  -3.864   0.682  1.00  0.00    -0.014 A 
ATOM     14  C   UNL     1       0.058  -4.771   3.440  1.00  0.00     0.021 A 
ATOM     15  C   UNL     1      -1.778  -5.607   1.022  1.00  0.00     0.001 A 
ATOM     16  C   UNL     1      -2.997  -3.649  -0.392  1.00  0.00     0.009 A 
ATOM     17  C   UNL     1      -0.686  -6.037   2.414  1.00  0.00     0.048 A 
ATOM     18  C   UNL     1      -2.370  -6.529   0.170  1.00  0.00     0.010 A 
ATOM     19  C   UNL     1      -3.511  -4.735  -1.125  1.00  0.00     0.001 A 
ATOM     20  Cl  UNL     1      -0.293  -7.684   2.727  1.00  0.00    -0.084 Cl
ATOM     21  C   UNL     1      -3.207  -6.095  -0.866  1.00  0.00     0.001 A 
ENDBRANCH  10  11
ENDBRANCH   9  10
ENDBRANCH   6   9
ENDBRANCH   4   6
ENDBRANCH   3   4
ENDBRANCH   2   3
ENDBRANCH   1   2
BRANCH   1  22
ATOM     22  O   UNL     1       2.269  -3.936   2.508  1.00  0.00    -0.374 OA
BRANCH  22  23
ATOM     23  C   UNL     1       1.458  -3.550   1.402  1.00  0.00     0.202 C 
BRANCH  23  24
ATOM     24  C   UNL     1       0.012  -4.272   1.221  1.00  0.00     0.261 C 
BRANCH  24  25
ATOM     25  O   UNL     1      -1.554  -4.340   2.498  1.00  0.00    -0.460 OA
BRANCH  25  26
ATOM     26  C   UNL     1      -2.819  -4.392   3.132  1.00  0.00     0.338 C 
ATOM     27  O   UNL     1      -3.920  -4.440   2.590  1.00  0.00    -0.246 OA
BRANCH  26  28
ATOM     28  C   UNL     1      -2.785  -4.309   4.627  1.00  0.00     0.060 A 
ATOM     29  C   UNL     1      -2.073  -5.216   5.421  1.00  0.00     0.016 A 
ATOM     30  C   UNL     1      -3.609  -3.366   5.255  1.00  0.00     0.016 A 
ATOM     31  C   UNL     1      -2.116  -5.145   6.815  1.00  0.00     0.010 A 
ATOM     32  C   UNL     1      -3.701  -3.325   6.653  1.00  0.00     0.010 A 
ATOM     33  C   UNL     1      -2.964  -4.226   7.437  1.00  0.00    -0.014 A 
BRANCH  33  34
ATOM     34  C   UNL     1      -3.259  -4.384   8.880  1.00  0.00     0.031 A 
ATOM     35  C   UNL     1      -4.372  -5.315   9.275  1.00  0.00     0.074 A 
ATOM     36  C   UNL     1      -2.546  -3.742   9.821  1.00  0.00     0.049 A 
ATOM     37  N   UNL     1      -4.862  -5.571  10.460  1.00  0.00    -0.248 NA
ATOM     38  C   UNL     1      -5.015  -6.063   8.181  1.00  0.00     0.031 C 
ATOM     39  C   UNL     1      -1.403  -2.867   9.569  1.00  0.00     0.029 A 
ATOM     40  N   UNL     1      -2.692  -3.724  11.186  1.00  0.00    -0.354 N 
ATOM     41  C   UNL     1      -5.872  -6.502  10.254  1.00  0.00     0.074 A 
ATOM     42  C   UNL     1      -5.931  -6.762   8.832  1.00  0.00     0.031 C 
ATOM     43  C   UNL     1      -0.967  -2.374  10.743  1.00  0.00     0.029 A 
ATOM     44  C   UNL     1      -1.818  -2.876  11.821  1.00  0.00     0.049 A 
ATOM     45  H   UNL     1      -3.359  -4.268  11.664  1.00  0.00     0.167 HD
ATOM     46  C   UNL     1      -6.684  -7.083  11.166  1.00  0.00     0.037 A 
ATOM     47  C   UNL     1      -1.741  -2.525  13.119  1.00  0.00     0.037 A 
ATOM     48  C   UNL     1      -6.639  -6.811  12.576  1.00  0.00     0.049 A 
ATOM     49  C   UNL     1      -2.707  -3.125  14.107  1.00  0.00     0.074 A 
ATOM     50  C   UNL     1      -7.427  -7.340  13.583  1.00  0.00     0.029 A 
ATOM     51  N   UNL     1      -5.761  -5.922  13.176  1.00  0.00    -0.354 N 
ATOM     52  N   UNL     1      -3.660  -4.003  13.904  1.00  0.00    -0.248 NA
ATOM     53  C   UNL     1      -2.590  -2.682  15.505  1.00  0.00     0.031 C 
ATOM     54  C   UNL     1      -7.049  -6.741  14.790  1.00  0.00     0.029 A 
ATOM     55  C   UNL     1      -6.000  -5.871  14.538  1.00  0.00     0.049 A 
ATOM     56  H   UNL     1      -5.071  -5.404  12.703  1.00  0.00     0.167 HD
ATOM     57  C   UNL     1      -4.241  -4.231  15.146  1.00  0.00     0.074 A 
ATOM     58  C   UNL     1      -3.526  -3.409  16.100  1.00  0.00     0.031 C 
ATOM     59  C   UNL     1      -5.273  -5.048  15.469  1.00  0.00     0.037 A 
BRANCH  46  60
ATOM     60  C   UNL     1      -7.716  -8.038  10.650  1.00  0.00     0.057 A 
ATOM     61  C   UNL     1      -7.380  -9.326  10.217  1.00  0.00     0.134 A 
ATOM     62  C   UNL     1      -9.064  -7.663  10.591  1.00  0.00     0.134 A 
ATOM     63  F   UNL     1      -6.103  -9.736  10.229  1.00  0.00    -0.206 F 
ATOM     64  C   UNL     1      -8.348 -10.204   9.727  1.00  0.00     0.040 A 
ATOM     65  C   UNL     1     -10.043  -8.539  10.122  1.00  0.00     0.040 A 
ATOM     66  F   UNL     1      -9.448  -6.441  10.988  1.00  0.00    -0.206 F 
ATOM     67  C   UNL     1      -9.685  -9.812   9.683  1.00  0.00     0.006 A 
ENDBRANCH  46  60
BRANCH  47  68
ATOM     68  C   UNL     1      -0.736  -1.525  13.561  1.00  0.00     0.057 A 
ATOM     69  C   UNL     1       0.352  -1.889  14.362  1.00  0.00     0.134 A 
ATOM     70  C   UNL     1      -0.858  -0.173  13.214  1.00  0.00     0.134 A 
ATOM     71  F   UNL     1       0.506  -3.163  14.752  1.00  0.00    -0.206 F 
ATOM     72  C   UNL     1       1.277  -0.945  14.812  1.00  0.00     0.040 A 
ATOM     73  C   UNL     1       0.072   0.778  13.639  1.00  0.00     0.040 A 
ATOM     74  F   UNL     1      -1.881   0.241  12.454  1.00  0.00    -0.206 F 
ATOM     75  C   UNL     1       1.141   0.393  14.445  1.00  0.00     0.006 A 
ENDBRANCH  47  68
BRANCH  59  76
ATOM     76  C   UNL     1      -5.671  -5.115  16.913  1.00  0.00     0.057 A 
ATOM     77  C   UNL     1      -6.395  -4.085  17.525  1.00  0.00     0.134 A 
ATOM     78  C   UNL     1      -5.371  -6.245  17.683  1.00  0.00     0.134 A 
ATOM     79  F   UNL     1      -6.703  -2.972  16.843  1.00  0.00    -0.206 F 
ATOM     80  C   UNL     1      -6.792  -4.170  18.860  1.00  0.00     0.040 A 
ATOM     81  C   UNL     1      -5.781  -6.351  19.012  1.00  0.00     0.040 A 
ATOM     82  F   UNL     1      -4.689  -7.271  17.151  1.00  0.00    -0.206 F 
ATOM     83  C   UNL     1      -6.491  -5.309  19.606  1.00  0.00     0.006 A 
ENDBRANCH  59  76
ENDBRANCH  33  34
ENDBRANCH  26  28
ENDBRANCH  25  26
ENDBRANCH  24  25
ENDBRANCH  23  24
ENDBRANCH  22  23
ENDBRANCH   1  22
TORSDOF 17
