REMARK SMILES Cc1cnn([C@H]2CC[C@@]([NH3+])(C(=O)OCCOCCOC(=O)c3ccc(-c4c5nc(c(-c6c(F)cccc6F)c6ccc([nH]6)c(-c6c(F)cccc6F)c6nc(c(-c7c(F)cccc7F)c7ccc4[nH]7)C=C6)C=C5)cc3)C2)c1
REMARK SMILES IDX 17 1 16 2 15 3 14 4 13 5 11 6 12 7 9 8 6 9 7 10 76 11 8 12
REMARK SMILES IDX 5 13 1 14 2 15 3 16 77 17 4 18 10 19 18 23 19 24 20 25 21 26
REMARK SMILES IDX 22 27 23 28 75 29 24 30 74 31 25 32 26 33 27 34 68 35 28 36
REMARK SMILES IDX 73 37 67 38 69 39 29 40 72 41 66 42 65 43 30 45 56 46 39 47
REMARK SMILES IDX 55 48 40 49 43 50 54 51 70 52 41 53 42 54 53 56 71 57 44 58
REMARK SMILES IDX 31 59 32 60 37 61 33 62 34 63 36 64 38 65 35 66 57 67 58 68
REMARK SMILES IDX 63 69 59 70 60 71 62 72 64 73 61 74 45 75 46 76 51 77 47 78
REMARK SMILES IDX 48 79 50 80 52 81 49 82
REMARK H PARENT 10 20 10 21 10 22 69 44 43 55
REMARK Flexibility Score: inf
ROOT
ATOM      1  C   UNL     1      -1.057   4.840   6.604  1.00  0.00     0.202 C 
ENDROOT
BRANCH   1   2
ATOM      2  O   UNL     1      -0.498   5.046   7.897  1.00  0.00    -0.374 OA
BRANCH   2   3
ATOM      3  C   UNL     1      -0.049   6.386   8.109  1.00  0.00     0.202 C 
BRANCH   3   4
ATOM      4  C   UNL     1       1.243   6.735   7.364  1.00  0.00     0.261 C 
BRANCH   4   5
ATOM      5  O   UNL     1       1.150   6.452   5.949  1.00  0.00    -0.459 OA
BRANCH   5   6
ATOM      6  C   UNL     1       1.835   5.351   5.519  1.00  0.00     0.368 C 
ATOM      7  O   UNL     1       2.601   4.701   6.224  1.00  0.00    -0.245 OA
BRANCH   6   8
ATOM      8  C   UNL     1       1.642   5.063   3.994  1.00  0.00     0.194 C 
ATOM      9  C   UNL     1       0.670   2.801   3.645  1.00  0.00     0.114 C 
ATOM     10  C   UNL     1      -0.334   3.843   3.116  1.00  0.00     0.034 C 
ATOM     11  C   UNL     1       1.991   3.592   3.660  1.00  0.00     0.108 C 
ATOM     12  C   UNL     1       0.220   5.239   3.437  1.00  0.00     0.083 C 
BRANCH   9  13
ATOM     13  N   UNL     1       0.242   2.132   4.866  1.00  0.00    -0.269 N 
ATOM     14  C   UNL     1       0.093   1.491   8.448  1.00  0.00     0.048 C 
ATOM     15  C   UNL     1      -0.035   1.550   6.973  1.00  0.00    -0.013 A 
ATOM     16  C   UNL     1      -1.167   1.255   6.188  1.00  0.00     0.138 A 
ATOM     17  C   UNL     1       0.901   1.981   6.054  1.00  0.00     0.112 A 
ATOM     18  N   UNL     1      -0.997   1.588   4.905  1.00  0.00    -0.181 NA
ENDBRANCH   9  13
BRANCH   8  19
ATOM     19  N   UNL     1       2.558   5.987   3.287  1.00  0.00    -0.343 N 
ATOM     20  H   UNL     1       2.315   6.951   3.518  1.00  0.00     0.345 HD
ATOM     21  H   UNL     1       2.473   5.847   2.280  1.00  0.00     0.345 HD
ATOM     22  H   UNL     1       3.519   5.801   3.576  1.00  0.00     0.345 HD
ENDBRANCH   8  19
ENDBRANCH   6   8
ENDBRANCH   5   6
ENDBRANCH   4   5
ENDBRANCH   3   4
ENDBRANCH   2   3
ENDBRANCH   1   2
BRANCH   1  23
ATOM     23  C   UNL     1      -2.426   4.183   6.632  1.00  0.00     0.261 C 
BRANCH  23  24
ATOM     24  O   UNL     1      -3.400   5.213   6.617  1.00  0.00    -0.460 OA
BRANCH  24  25
ATOM     25  C   UNL     1      -3.327   6.070   7.664  1.00  0.00     0.338 C 
ATOM     26  O   UNL     1      -3.028   5.849   8.809  1.00  0.00    -0.246 OA
BRANCH  25  27
ATOM     27  C   UNL     1      -3.837   7.327   7.114  1.00  0.00     0.060 A 
ATOM     28  C   UNL     1      -4.904   7.823   7.841  1.00  0.00     0.016 A 
ATOM     29  C   UNL     1      -3.618   7.617   5.751  1.00  0.00     0.016 A 
ATOM     30  C   UNL     1      -5.949   8.316   7.110  1.00  0.00     0.010 A 
ATOM     31  C   UNL     1      -4.667   8.118   5.024  1.00  0.00     0.010 A 
ATOM     32  C   UNL     1      -5.852   8.354   5.707  1.00  0.00    -0.014 A 
BRANCH  32  33
ATOM     33  C   UNL     1      -7.015   8.836   5.009  1.00  0.00     0.031 A 
ATOM     34  C   UNL     1      -7.181  10.281   5.233  1.00  0.00     0.074 A 
ATOM     35  C   UNL     1      -7.849   8.072   4.287  1.00  0.00     0.049 A 
ATOM     36  N   UNL     1      -7.967  10.830   6.094  1.00  0.00    -0.248 NA
ATOM     37  C   UNL     1      -6.173  11.182   4.659  1.00  0.00     0.031 C 
ATOM     38  C   UNL     1      -7.682   6.711   3.785  1.00  0.00     0.029 A 
ATOM     39  N   UNL     1      -9.060   8.438   3.795  1.00  0.00    -0.354 N 
ATOM     40  C   UNL     1      -7.694  12.186   6.022  1.00  0.00     0.074 A 
ATOM     41  C   UNL     1      -6.454  12.315   5.304  1.00  0.00     0.031 C 
ATOM     42  C   UNL     1      -8.647   6.461   2.865  1.00  0.00     0.029 A 
ATOM     43  C   UNL     1      -9.570   7.584   2.828  1.00  0.00     0.049 A 
ATOM     44  H   UNL     1      -9.538   9.244   4.098  1.00  0.00     0.167 HD
ATOM     45  C   UNL     1      -8.652  13.097   6.329  1.00  0.00     0.037 A 
ATOM     46  C   UNL     1     -10.618   7.883   2.020  1.00  0.00     0.037 A 
ATOM     47  C   UNL     1      -9.733  12.488   7.066  1.00  0.00     0.049 A 
ATOM     48  C   UNL     1     -11.387   8.981   2.677  1.00  0.00     0.074 A 
ATOM     49  C   UNL     1      -9.831  11.844   8.285  1.00  0.00     0.029 A 
ATOM     50  N   UNL     1     -10.857  12.132   6.359  1.00  0.00    -0.354 N 
ATOM     51  N   UNL     1     -12.083   8.819   3.768  1.00  0.00    -0.248 NA
ATOM     52  C   UNL     1     -10.977  10.353   2.402  1.00  0.00     0.031 C 
ATOM     53  C   UNL     1     -10.753  10.778   8.069  1.00  0.00     0.029 A 
ATOM     54  C   UNL     1     -11.217  10.870   6.757  1.00  0.00     0.049 A 
ATOM     55  H   UNL     1     -11.320  12.684   5.688  1.00  0.00     0.167 HD
ATOM     56  C   UNL     1     -11.825   9.953   4.527  1.00  0.00     0.074 A 
ATOM     57  C   UNL     1     -11.193  10.894   3.605  1.00  0.00     0.031 C 
ATOM     58  C   UNL     1     -11.873   9.917   5.891  1.00  0.00     0.037 A 
BRANCH  45  59
ATOM     59  C   UNL     1      -8.799  14.408   5.611  1.00  0.00     0.057 A 
ATOM     60  C   UNL     1      -9.732  15.340   6.091  1.00  0.00     0.134 A 
ATOM     61  C   UNL     1      -8.289  14.672   4.322  1.00  0.00     0.134 A 
ATOM     62  F   UNL     1     -10.298  15.189   7.298  1.00  0.00    -0.206 F 
ATOM     63  C   UNL     1     -10.182  16.411   5.312  1.00  0.00     0.040 A 
ATOM     64  C   UNL     1      -8.690  15.769   3.560  1.00  0.00     0.040 A 
ATOM     65  F   UNL     1      -7.463  13.837   3.683  1.00  0.00    -0.206 F 
ATOM     66  C   UNL     1      -9.666  16.624   4.040  1.00  0.00     0.006 A 
ENDBRANCH  45  59
BRANCH  46  67
ATOM     67  C   UNL     1     -10.792   7.560   0.585  1.00  0.00     0.057 A 
ATOM     68  C   UNL     1     -12.031   7.737  -0.049  1.00  0.00     0.134 A 
ATOM     69  C   UNL     1      -9.690   7.355  -0.263  1.00  0.00     0.134 A 
ATOM     70  F   UNL     1     -13.136   7.979   0.671  1.00  0.00    -0.206 F 
ATOM     71  C   UNL     1     -12.160   7.742  -1.445  1.00  0.00     0.040 A 
ATOM     72  C   UNL     1      -9.806   7.352  -1.656  1.00  0.00     0.040 A 
ATOM     73  F   UNL     1      -8.447   7.245   0.228  1.00  0.00    -0.206 F 
ATOM     74  C   UNL     1     -11.043   7.562  -2.253  1.00  0.00     0.006 A 
ENDBRANCH  46  67
BRANCH  58  75
ATOM     75  C   UNL     1     -12.450   8.692   6.545  1.00  0.00     0.057 A 
ATOM     76  C   UNL     1     -11.918   7.399   6.416  1.00  0.00     0.134 A 
ATOM     77  C   UNL     1     -13.503   8.854   7.452  1.00  0.00     0.134 A 
ATOM     78  F   UNL     1     -10.842   7.165   5.652  1.00  0.00    -0.206 F 
ATOM     79  C   UNL     1     -12.445   6.312   7.121  1.00  0.00     0.040 A 
ATOM     80  C   UNL     1     -14.014   7.784   8.190  1.00  0.00     0.040 A 
ATOM     81  F   UNL     1     -14.025  10.071   7.671  1.00  0.00    -0.206 F 
ATOM     82  C   UNL     1     -13.494   6.505   8.016  1.00  0.00     0.006 A 
ENDBRANCH  58  75
ENDBRANCH  32  33
ENDBRANCH  25  27
ENDBRANCH  24  25
ENDBRANCH  23  24
ENDBRANCH   1  23
TORSDOF 16
