REMARK SMILES CC(C)(Cn1ccc2ccc([N+](=O)[O-])cc21)C(=O)OCCOCCOC(=O)c1ccc(-c2c3nc(c(-c4c(F)cccc4F)c4ccc([nH]4)c(-c4c(F)cccc4F)c4nc(c(-c5c(F)cccc5F)c5ccc2[nH]5)C=C4)C=C3)cc1
REMARK SMILES IDX 21 1 20 2 19 3 17 4 18 5 2 6 1 7 3 8 4 9 5 10 6 11 16 12
REMARK SMILES IDX 7 13 8 14 15 15 9 16 11 17 10 18 12 19 13 20 14 21 22 22
REMARK SMILES IDX 23 23 24 24 25 25 26 26 27 27 28 28 29 29 81 30 30 31 80 32
REMARK SMILES IDX 31 33 32 34 33 35 74 36 34 37 79 38 73 39 75 40 35 41 78 42
REMARK SMILES IDX 72 43 71 44 36 46 62 47 45 48 61 49 46 50 49 51 60 52 76 53
REMARK SMILES IDX 47 54 48 55 59 57 77 58 50 59 37 60 38 61 43 62 39 63 40 64
REMARK SMILES IDX 42 65 44 66 41 67 63 68 64 69 69 70 65 71 66 72 68 73 70 74
REMARK SMILES IDX 67 75 51 76 52 77 57 78 53 79 54 80 56 81 58 82 55 83
REMARK H PARENT 75 45 49 56
REMARK Flexibility Score: inf
ROOT
ATOM      1  C   UNL     1       1.951   1.792  -4.423  1.00  0.00     0.202 C 
ENDROOT
BRANCH   1   2
ATOM      2  C   UNL     1       2.142   0.286  -4.195  1.00  0.00     0.261 C 
BRANCH   2   3
ATOM      3  O   UNL     1       1.477  -0.229  -3.034  1.00  0.00    -0.463 OA
BRANCH   3   4
ATOM      4  C   UNL     1       1.898   0.223  -1.824  1.00  0.00     0.313 C 
ATOM      5  O   UNL     1       2.849   0.974  -1.667  1.00  0.00    -0.252 OA
BRANCH   4   6
ATOM      6  C   UNL     1       1.043  -0.359  -0.699  1.00  0.00     0.080 C 
ATOM      7  C   UNL     1       1.797  -0.213   0.624  1.00  0.00     0.025 C 
ATOM      8  C   UNL     1       0.899  -1.881  -1.007  1.00  0.00     0.025 C 
BRANCH   6   9
ATOM      9  C   UNL     1      -0.403   0.192  -0.597  1.00  0.00     0.140 C 
BRANCH   9  10
ATOM     10  N   UNL     1      -0.850   1.494  -0.104  1.00  0.00    -0.346 N 
ATOM     11  C   UNL     1      -2.069   1.526   0.567  1.00  0.00     0.087 A 
ATOM     12  C   UNL     1      -0.491   2.808  -0.406  1.00  0.00     0.055 A 
ATOM     13  C   UNL     1      -2.493   2.818   0.699  1.00  0.00     0.028 A 
ATOM     14  C   UNL     1      -1.526   3.638   0.082  1.00  0.00     0.000 A 
ATOM     15  C   UNL     1       0.592   3.403  -1.093  1.00  0.00     0.112 A 
ATOM     16  C   UNL     1      -1.492   5.036  -0.121  1.00  0.00     0.017 A 
ATOM     17  C   UNL     1       0.566   4.799  -1.330  1.00  0.00     0.271 A 
ATOM     18  C   UNL     1      -0.454   5.612  -0.842  1.00  0.00     0.086 A 
BRANCH  17  19
ATOM     19  N   UNL     1       1.616   5.421  -2.151  1.00  0.00     0.062 N 
ATOM     20  O   UNL     1       2.688   4.814  -2.282  1.00  0.00    -0.258 OA
ATOM     21  O   UNL     1       1.370   6.527  -2.658  1.00  0.00    -0.258 OA
ENDBRANCH  17  19
ENDBRANCH   9  10
ENDBRANCH   6   9
ENDBRANCH   4   6
ENDBRANCH   3   4
ENDBRANCH   2   3
ENDBRANCH   1   2
BRANCH   1  22
ATOM     22  O   UNL     1       0.687   2.430  -4.190  1.00  0.00    -0.374 OA
BRANCH  22  23
ATOM     23  C   UNL     1      -0.416   1.617  -3.814  1.00  0.00     0.202 C 
BRANCH  23  24
ATOM     24  C   UNL     1      -1.729   2.401  -3.723  1.00  0.00     0.261 C 
BRANCH  24  25
ATOM     25  O   UNL     1      -2.345   2.500  -5.011  1.00  0.00    -0.460 OA
BRANCH  25  26
ATOM     26  C   UNL     1      -1.929   3.615  -5.673  1.00  0.00     0.338 C 
ATOM     27  O   UNL     1      -2.316   4.733  -5.459  1.00  0.00    -0.246 OA
BRANCH  26  28
ATOM     28  C   UNL     1      -0.814   3.248  -6.579  1.00  0.00     0.060 A 
ATOM     29  C   UNL     1      -0.670   1.936  -7.040  1.00  0.00     0.016 A 
ATOM     30  C   UNL     1       0.181   4.209  -6.806  1.00  0.00     0.016 A 
ATOM     31  C   UNL     1       0.513   1.573  -7.654  1.00  0.00     0.010 A 
ATOM     32  C   UNL     1       1.356   3.852  -7.461  1.00  0.00     0.010 A 
ATOM     33  C   UNL     1       1.530   2.529  -7.864  1.00  0.00    -0.014 A 
BRANCH  33  34
ATOM     34  C   UNL     1       2.624   2.106  -8.739  1.00  0.00     0.031 A 
ATOM     35  C   UNL     1       2.094   1.597 -10.032  1.00  0.00     0.074 A 
ATOM     36  C   UNL     1       3.951   2.217  -8.545  1.00  0.00     0.049 A 
ATOM     37  N   UNL     1       2.167   0.394 -10.496  1.00  0.00    -0.248 NA
ATOM     38  C   UNL     1       1.189   2.488 -10.780  1.00  0.00     0.031 C 
ATOM     39  C   UNL     1       4.670   2.917  -7.483  1.00  0.00     0.029 A 
ATOM     40  N   UNL     1       4.957   1.776  -9.360  1.00  0.00    -0.354 N 
ATOM     41  C   UNL     1       1.456   0.419 -11.690  1.00  0.00     0.074 A 
ATOM     42  C   UNL     1       0.732   1.662 -11.718  1.00  0.00     0.031 C 
ATOM     43  C   UNL     1       5.970   3.044  -7.842  1.00  0.00     0.029 A 
ATOM     44  C   UNL     1       6.195   2.348  -9.101  1.00  0.00     0.049 A 
ATOM     45  H   UNL     1       4.815   1.109 -10.070  1.00  0.00     0.167 HD
ATOM     46  C   UNL     1       1.712  -0.470 -12.683  1.00  0.00     0.037 A 
ATOM     47  C   UNL     1       7.288   2.316  -9.907  1.00  0.00     0.037 A 
ATOM     48  C   UNL     1       2.365  -1.653 -12.185  1.00  0.00     0.049 A 
ATOM     49  C   UNL     1       7.117   1.201 -10.872  1.00  0.00     0.074 A 
ATOM     50  C   UNL     1       2.056  -2.615 -11.241  1.00  0.00     0.029 A 
ATOM     51  N   UNL     1       3.706  -1.806 -12.437  1.00  0.00    -0.354 N 
ATOM     52  N   UNL     1       7.217  -0.058 -10.562  1.00  0.00    -0.248 NA
ATOM     53  C   UNL     1       6.438   1.478 -12.130  1.00  0.00     0.031 C 
ATOM     54  C   UNL     1       3.301  -2.961 -10.636  1.00  0.00     0.029 A 
ATOM     55  C   UNL     1       4.294  -2.217 -11.270  1.00  0.00     0.049 A 
ATOM     56  H   UNL     1       4.160  -1.649 -13.297  1.00  0.00     0.167 HD
ATOM     57  C   UNL     1       6.236  -0.681 -11.316  1.00  0.00     0.074 A 
ATOM     58  C   UNL     1       5.872   0.289 -12.344  1.00  0.00     0.031 C 
ATOM     59  C   UNL     1       5.614  -1.808 -10.861  1.00  0.00     0.037 A 
BRANCH  46  60
ATOM     60  C   UNL     1       1.754  -0.057 -14.133  1.00  0.00     0.057 A 
ATOM     61  C   UNL     1       1.954   1.270 -14.575  1.00  0.00     0.134 A 
ATOM     62  C   UNL     1       1.922  -1.045 -15.117  1.00  0.00     0.134 A 
ATOM     63  F   UNL     1       1.903   2.324 -13.753  1.00  0.00    -0.206 F 
ATOM     64  C   UNL     1       2.331   1.587 -15.879  1.00  0.00     0.040 A 
ATOM     65  C   UNL     1       2.354  -0.741 -16.413  1.00  0.00     0.040 A 
ATOM     66  F   UNL     1       1.767  -2.344 -14.820  1.00  0.00    -0.206 F 
ATOM     67  C   UNL     1       2.572   0.578 -16.793  1.00  0.00     0.006 A 
ENDBRANCH  46  60
BRANCH  47  68
ATOM     68  C   UNL     1       8.372   3.314 -10.074  1.00  0.00     0.057 A 
ATOM     69  C   UNL     1       8.163   4.679  -9.817  1.00  0.00     0.134 A 
ATOM     70  C   UNL     1       9.557   2.995 -10.757  1.00  0.00     0.134 A 
ATOM     71  F   UNL     1       7.032   5.112  -9.242  1.00  0.00    -0.206 F 
ATOM     72  C   UNL     1       9.064   5.668 -10.226  1.00  0.00     0.040 A 
ATOM     73  C   UNL     1      10.462   3.977 -11.184  1.00  0.00     0.040 A 
ATOM     74  F   UNL     1       9.835   1.726 -11.089  1.00  0.00    -0.206 F 
ATOM     75  C   UNL     1      10.211   5.320 -10.928  1.00  0.00     0.006 A 
ENDBRANCH  47  68
BRANCH  59  76
ATOM     76  C   UNL     1       6.239  -2.516  -9.693  1.00  0.00     0.057 A 
ATOM     77  C   UNL     1       6.583  -3.865  -9.829  1.00  0.00     0.134 A 
ATOM     78  C   UNL     1       6.444  -1.932  -8.433  1.00  0.00     0.134 A 
ATOM     79  F   UNL     1       6.357  -4.509 -10.985  1.00  0.00    -0.206 F 
ATOM     80  C   UNL     1       7.143  -4.592  -8.777  1.00  0.00     0.040 A 
ATOM     81  C   UNL     1       7.042  -2.637  -7.385  1.00  0.00     0.040 A 
ATOM     82  F   UNL     1       6.038  -0.682  -8.171  1.00  0.00    -0.206 F 
ATOM     83  C   UNL     1       7.394  -3.972  -7.556  1.00  0.00     0.006 A 
ENDBRANCH  59  76
ENDBRANCH  33  34
ENDBRANCH  26  28
ENDBRANCH  25  26
ENDBRANCH  24  25
ENDBRANCH  23  24
ENDBRANCH  22  23
ENDBRANCH   1  22
TORSDOF 17
