REMARK SMILES CS(=O)(=O)c1ccc(-c2cc(Cl)cc3c2O[C@@H](C(F)(F)F)C(C(=O)OCCOCCOC(=O)c2ccc(-c4c5nc(c(-c6c(F)cccc6F)c6ccc([nH]6)c(-c6c(F)cccc6F)c6nc(c(-c7c(F)cccc7F)c7ccc4[nH]7)C=C6)C=C5)cc2)=C3)cc1
REMARK SMILES IDX 28 1 27 2 26 3 25 4 23 5 24 6 22 7 9 8 10 9 15 10 11 11
REMARK SMILES IDX 14 12 16 13 12 14 13 15 88 16 17 17 8 18 5 19 6 20 90 21
REMARK SMILES IDX 7 22 89 23 2 24 1 25 3 26 4 27 18 28 19 29 20 30 21 31 29 32
REMARK SMILES IDX 30 33 31 34 32 35 33 36 34 37 35 38 87 39 36 40 86 41 37 42
REMARK SMILES IDX 38 43 39 44 80 45 40 46 85 47 79 48 81 49 41 50 84 51 78 52
REMARK SMILES IDX 77 53 42 55 68 56 51 57 67 58 52 59 55 60 66 61 82 62 53 63
REMARK SMILES IDX 54 64 65 66 83 67 56 68 43 69 44 70 49 71 45 72 46 73 48 74
REMARK SMILES IDX 50 75 47 76 69 77 70 78 75 79 71 80 72 81 74 82 76 83 73 84
REMARK SMILES IDX 57 85 58 86 63 87 59 88 60 89 62 90 64 91 61 92
REMARK H PARENT 81 54 55 65
REMARK Flexibility Score: inf
ROOT
ATOM      1  O   UNL     1       1.910  -8.679  -8.589  1.00  0.00    -0.374 OA
ENDROOT
BRANCH   1   2
ATOM      2  C   UNL     1       2.239  -8.808  -9.965  1.00  0.00     0.202 C 
BRANCH   2   3
ATOM      3  C   UNL     1       3.241  -7.814 -10.574  1.00  0.00     0.261 C 
BRANCH   3   4
ATOM      4  O   UNL     1       4.036  -7.140  -9.586  1.00  0.00    -0.460 OA
BRANCH   4   5
ATOM      5  C   UNL     1       4.373  -5.868  -9.870  1.00  0.00     0.338 C 
ATOM      6  O   UNL     1       4.175  -5.304 -10.937  1.00  0.00    -0.246 OA
BRANCH   5   7
ATOM      7  C   UNL     1       4.871  -5.142  -8.678  1.00  0.00     0.087 C 
ATOM      8  C   UNL     1       2.714  -5.563  -5.145  1.00  0.00     0.026 A 
ATOM      9  C   UNL     1       1.455  -6.032  -5.582  1.00  0.00     0.033 A 
ATOM     10  C   UNL     1       3.610  -5.231  -6.184  1.00  0.00     0.135 A 
ATOM     11  C   UNL     1       1.004  -5.761  -6.874  1.00  0.00     0.042 A 
ATOM     12  C   UNL     1       3.094  -4.718  -7.385  1.00  0.00     0.019 A 
ATOM     13  O   UNL     1       4.815  -5.969  -6.298  1.00  0.00    -0.475 OA
ATOM     14  Cl  UNL     1      -0.570  -6.258  -7.347  1.00  0.00    -0.084 Cl
ATOM     15  C   UNL     1       1.783  -5.010  -7.744  1.00  0.00     0.032 A 
ATOM     16  C   UNL     1       4.033  -4.138  -8.368  1.00  0.00     0.027 C 
ATOM     17  C   UNL     1       5.644  -5.712  -7.506  1.00  0.00     0.316 C 
BRANCH   8  18
ATOM     18  C   UNL     1       2.610  -4.784  -3.845  1.00  0.00    -0.015 A 
ATOM     19  C   UNL     1       1.589  -3.135  -1.743  1.00  0.00     0.067 A 
ATOM     20  C   UNL     1       1.429  -4.523  -1.700  1.00  0.00     0.021 A 
ATOM     21  C   UNL     1       2.333  -2.565  -2.773  1.00  0.00     0.021 A 
ATOM     22  C   UNL     1       1.947  -5.332  -2.726  1.00  0.00     0.010 A 
ATOM     23  C   UNL     1       2.839  -3.387  -3.808  1.00  0.00     0.010 A 
BRANCH  19  24
ATOM     24  S   UNL     1       0.746  -2.183  -0.491  1.00  0.00     0.175 S 
ATOM     25  C   UNL     1       1.284  -0.502  -0.585  1.00  0.00     0.163 C 
ATOM     26  O   UNL     1       1.198  -2.701   0.787  1.00  0.00    -0.224 OA
ATOM     27  O   UNL     1      -0.661  -2.202  -0.847  1.00  0.00    -0.224 OA
ENDBRANCH  19  24
ENDBRANCH   8  18
BRANCH  17  28
ATOM     28  C   UNL     1       6.676  -6.803  -7.875  1.00  0.00     0.430 C 
ATOM     29  F   UNL     1       7.683  -6.237  -8.598  1.00  0.00    -0.167 F 
ATOM     30  F   UNL     1       7.253  -7.343  -6.777  1.00  0.00    -0.167 F 
ATOM     31  F   UNL     1       6.197  -7.821  -8.614  1.00  0.00    -0.167 F 
ENDBRANCH  17  28
ENDBRANCH   5   7
ENDBRANCH   4   5
ENDBRANCH   3   4
ENDBRANCH   2   3
ENDBRANCH   1   2
BRANCH   1  32
ATOM     32  C   UNL     1       2.929  -8.938  -7.626  1.00  0.00     0.202 C 
BRANCH  32  33
ATOM     33  C   UNL     1       3.461 -10.369  -7.498  1.00  0.00     0.261 C 
BRANCH  33  34
ATOM     34  O   UNL     1       4.089 -10.853  -8.695  1.00  0.00    -0.460 OA
BRANCH  34  35
ATOM     35  C   UNL     1       3.485 -11.922  -9.267  1.00  0.00     0.338 C 
ATOM     36  O   UNL     1       2.483 -12.511  -8.885  1.00  0.00    -0.246 OA
BRANCH  35  37
ATOM     37  C   UNL     1       4.131 -12.216 -10.552  1.00  0.00     0.060 A 
ATOM     38  C   UNL     1       3.391 -12.046 -11.729  1.00  0.00     0.016 A 
ATOM     39  C   UNL     1       5.431 -12.722 -10.590  1.00  0.00     0.016 A 
ATOM     40  C   UNL     1       3.952 -12.388 -12.957  1.00  0.00     0.010 A 
ATOM     41  C   UNL     1       5.986 -13.075 -11.820  1.00  0.00     0.010 A 
ATOM     42  C   UNL     1       5.246 -12.923 -13.007  1.00  0.00    -0.014 A 
BRANCH  42  43
ATOM     43  C   UNL     1       5.809 -13.403 -14.288  1.00  0.00     0.031 A 
ATOM     44  C   UNL     1       5.844 -14.876 -14.571  1.00  0.00     0.074 A 
ATOM     45  C   UNL     1       6.318 -12.527 -15.171  1.00  0.00     0.049 A 
ATOM     46  N   UNL     1       6.400 -15.516 -15.566  1.00  0.00    -0.248 NA
ATOM     47  C   UNL     1       5.168 -15.744 -13.594  1.00  0.00     0.031 C 
ATOM     48  C   UNL     1       6.312 -11.073 -15.013  1.00  0.00     0.029 A 
ATOM     49  N   UNL     1       6.964 -12.736 -16.363  1.00  0.00    -0.354 N 
ATOM     50  C   UNL     1       6.156 -16.863 -15.330  1.00  0.00     0.074 A 
ATOM     51  C   UNL     1       5.422 -16.948 -14.085  1.00  0.00     0.031 C 
ATOM     52  C   UNL     1       6.953 -10.521 -16.056  1.00  0.00     0.029 A 
ATOM     53  C   UNL     1       7.449 -11.583 -16.928  1.00  0.00     0.049 A 
ATOM     54  H   UNL     1       7.069 -13.625 -16.772  1.00  0.00     0.167 HD
ATOM     55  C   UNL     1       6.513 -17.928 -16.087  1.00  0.00     0.037 A 
ATOM     56  C   UNL     1       8.241 -11.409 -18.004  1.00  0.00     0.037 A 
ATOM     57  C   UNL     1       7.249 -17.829 -17.320  1.00  0.00     0.049 A 
ATOM     58  C   UNL     1       8.689 -12.613 -18.789  1.00  0.00     0.074 A 
ATOM     59  C   UNL     1       7.626 -18.843 -18.183  1.00  0.00     0.029 A 
ATOM     60  N   UNL     1       7.736 -16.646 -17.857  1.00  0.00    -0.354 N 
ATOM     61  N   UNL     1       8.420 -13.880 -18.585  1.00  0.00    -0.248 NA
ATOM     62  C   UNL     1       9.552 -12.363 -19.952  1.00  0.00     0.031 C 
ATOM     63  C   UNL     1       8.396 -18.280 -19.206  1.00  0.00     0.029 A 
ATOM     64  C   UNL     1       8.446 -16.908 -19.017  1.00  0.00     0.049 A 
ATOM     65  H   UNL     1       7.596 -15.751 -17.470  1.00  0.00     0.167 HD
ATOM     66  C   UNL     1       9.061 -14.576 -19.602  1.00  0.00     0.074 A 
ATOM     67  C   UNL     1       9.720 -13.588 -20.431  1.00  0.00     0.031 C 
ATOM     68  C   UNL     1       9.100 -15.913 -19.829  1.00  0.00     0.037 A 
BRANCH  55  69
ATOM     69  C   UNL     1       6.146 -19.293 -15.578  1.00  0.00     0.057 A 
ATOM     70  C   UNL     1       4.820 -19.742 -15.536  1.00  0.00     0.134 A 
ATOM     71  C   UNL     1       7.140 -20.178 -15.139  1.00  0.00     0.134 A 
ATOM     72  F   UNL     1       3.817 -18.942 -15.929  1.00  0.00    -0.206 F 
ATOM     73  C   UNL     1       4.493 -21.010 -15.049  1.00  0.00     0.040 A 
ATOM     74  C   UNL     1       6.829 -21.458 -14.678  1.00  0.00     0.040 A 
ATOM     75  F   UNL     1       8.432 -19.815 -15.157  1.00  0.00    -0.206 F 
ATOM     76  C   UNL     1       5.500 -21.874 -14.624  1.00  0.00     0.006 A 
ENDBRANCH  55  69
BRANCH  56  77
ATOM     77  C   UNL     1       8.688 -10.043 -18.376  1.00  0.00     0.057 A 
ATOM     78  C   UNL     1       8.231  -9.421 -19.543  1.00  0.00     0.134 A 
ATOM     79  C   UNL     1       9.580  -9.325 -17.569  1.00  0.00     0.134 A 
ATOM     80  F   UNL     1       7.394 -10.066 -20.368  1.00  0.00    -0.206 F 
ATOM     81  C   UNL     1       8.653  -8.139 -19.901  1.00  0.00     0.040 A 
ATOM     82  C   UNL     1       9.989  -8.033 -17.900  1.00  0.00     0.040 A 
ATOM     83  F   UNL     1      10.053  -9.864 -16.436  1.00  0.00    -0.206 F 
ATOM     84  C   UNL     1       9.529  -7.438 -19.073  1.00  0.00     0.006 A 
ENDBRANCH  56  77
BRANCH  68  85
ATOM     85  C   UNL     1       9.863 -16.387 -21.032  1.00  0.00     0.057 A 
ATOM     86  C   UNL     1      11.263 -16.359 -21.079  1.00  0.00     0.134 A 
ATOM     87  C   UNL     1       9.191 -16.931 -22.135  1.00  0.00     0.134 A 
ATOM     88  F   UNL     1      11.967 -15.839 -20.063  1.00  0.00    -0.206 F 
ATOM     89  C   UNL     1      11.965 -16.842 -22.186  1.00  0.00     0.040 A 
ATOM     90  C   UNL     1       9.882 -17.443 -23.233  1.00  0.00     0.040 A 
ATOM     91  F   UNL     1       7.851 -16.997 -22.151  1.00  0.00    -0.206 F 
ATOM     92  C   UNL     1      11.274 -17.394 -23.262  1.00  0.00     0.006 A 
ENDBRANCH  68  85
ENDBRANCH  42  43
ENDBRANCH  35  37
ENDBRANCH  34  35
ENDBRANCH  33  34
ENDBRANCH  32  33
ENDBRANCH   1  32
TORSDOF 17
