REMARK SMILES O=C(OCCOCCOC(=O)c1cc(Br)cn(Cc2cccc(F)c2)c1=O)c1ccc(-c2c3nc(c(-c4c(F)cccc4F)c4ccc([nH]4)c(-c4c(F)cccc4F)c4nc(c(-c5c(F)cccc5F)c5ccc2[nH]5)C=C4)C=C3)cc1
REMARK SMILES IDX 6 1 5 2 4 3 3 4 2 5 1 6 28 7 29 8 81 9 30 10 80 11 31 12
REMARK SMILES IDX 32 13 33 14 74 15 34 16 79 17 73 18 75 19 35 20 78 21 72 22
REMARK SMILES IDX 71 23 36 25 62 26 45 27 61 28 46 29 49 30 60 31 76 32 47 33
REMARK SMILES IDX 48 34 59 36 77 37 50 38 37 39 38 40 43 41 39 42 40 43 42 44
REMARK SMILES IDX 44 45 41 46 63 47 64 48 69 49 65 50 66 51 68 52 70 53 67 54
REMARK SMILES IDX 51 55 52 56 57 57 53 58 54 59 56 60 58 61 55 62 7 63 8 64
REMARK SMILES IDX 9 65 10 66 11 67 12 68 13 69 26 70 14 71 17 72 27 73 15 74
REMARK SMILES IDX 16 75 18 76 19 77 20 78 25 79 21 80 23 81 22 82 24 83
REMARK H PARENT 75 24 49 35
REMARK Flexibility Score: inf
ROOT
ATOM      1  O   UNL     1       4.099  -0.811  -1.124  1.00  0.00    -0.374 OA
ENDROOT
BRANCH   1   2
ATOM      2  C   UNL     1       4.457  -1.278   0.176  1.00  0.00     0.202 C 
BRANCH   2   3
ATOM      3  C   UNL     1       4.322  -0.226   1.276  1.00  0.00     0.261 C 
BRANCH   3   4
ATOM      4  O   UNL     1       2.967   0.221   1.405  1.00  0.00    -0.460 OA
BRANCH   4   5
ATOM      5  C   UNL     1       2.323   1.226   0.774  1.00  0.00     0.338 C 
ATOM      6  O   UNL     1       1.132   1.387   1.049  1.00  0.00    -0.246 OA
BRANCH   5   7
ATOM      7  C   UNL     1       2.919   2.143  -0.259  1.00  0.00     0.060 A 
ATOM      8  C   UNL     1       2.076   3.176  -0.721  1.00  0.00     0.016 A 
ATOM      9  C   UNL     1       4.176   2.032  -0.858  1.00  0.00     0.016 A 
ATOM     10  C   UNL     1       2.456   4.021  -1.768  1.00  0.00     0.010 A 
ATOM     11  C   UNL     1       4.559   2.859  -1.912  1.00  0.00     0.010 A 
ATOM     12  C   UNL     1       3.696   3.847  -2.380  1.00  0.00    -0.014 A 
BRANCH  12  13
ATOM     13  C   UNL     1       4.170   4.725  -3.461  1.00  0.00     0.031 A 
ATOM     14  C   UNL     1       4.098   4.276  -4.888  1.00  0.00     0.074 A 
ATOM     15  C   UNL     1       4.802   5.856  -3.104  1.00  0.00     0.049 A 
ATOM     16  N   UNL     1       4.522   4.887  -5.963  1.00  0.00    -0.248 NA
ATOM     17  C   UNL     1       3.490   2.959  -5.143  1.00  0.00     0.031 C 
ATOM     18  C   UNL     1       4.989   6.311  -1.724  1.00  0.00     0.029 A 
ATOM     19  N   UNL     1       5.447   6.796  -3.859  1.00  0.00    -0.354 N 
ATOM     20  C   UNL     1       4.221   4.041  -7.023  1.00  0.00     0.074 A 
ATOM     21  C   UNL     1       3.614   2.854  -6.460  1.00  0.00     0.031 C 
ATOM     22  C   UNL     1       5.732   7.429  -1.729  1.00  0.00     0.029 A 
ATOM     23  C   UNL     1       6.073   7.759  -3.108  1.00  0.00     0.049 A 
ATOM     24  H   UNL     1       5.460   6.783  -4.843  1.00  0.00     0.167 HD
ATOM     25  C   UNL     1       4.431   4.254  -8.343  1.00  0.00     0.037 A 
ATOM     26  C   UNL     1       6.846   8.786  -3.499  1.00  0.00     0.037 A 
ATOM     27  C   UNL     1       5.063   5.439  -8.865  1.00  0.00     0.049 A 
ATOM     28  C   UNL     1       7.062   8.996  -4.970  1.00  0.00     0.074 A 
ATOM     29  C   UNL     1       5.250   5.811 -10.184  1.00  0.00     0.029 A 
ATOM     30  N   UNL     1       5.632   6.435  -8.083  1.00  0.00    -0.354 N 
ATOM     31  N   UNL     1       6.645   8.266  -5.976  1.00  0.00    -0.248 NA
ATOM     32  C   UNL     1       7.833  10.181  -5.362  1.00  0.00     0.031 C 
ATOM     33  C   UNL     1       5.979   7.005 -10.200  1.00  0.00     0.029 A 
ATOM     34  C   UNL     1       6.198   7.405  -8.891  1.00  0.00     0.049 A 
ATOM     35  H   UNL     1       5.634   6.448  -7.098  1.00  0.00     0.167 HD
ATOM     36  C   UNL     1       7.064   8.925  -7.122  1.00  0.00     0.074 A 
ATOM     37  C   UNL     1       7.767  10.114  -6.684  1.00  0.00     0.031 C 
ATOM     38  C   UNL     1       6.878   8.584  -8.421  1.00  0.00     0.037 A 
BRANCH  25  39
ATOM     39  C   UNL     1       3.974   3.206  -9.317  1.00  0.00     0.057 A 
ATOM     40  C   UNL     1       4.900   2.473 -10.072  1.00  0.00     0.134 A 
ATOM     41  C   UNL     1       2.615   2.986  -9.576  1.00  0.00     0.134 A 
ATOM     42  F   UNL     1       6.217   2.640  -9.883  1.00  0.00    -0.206 F 
ATOM     43  C   UNL     1       4.491   1.570 -11.056  1.00  0.00     0.040 A 
ATOM     44  C   UNL     1       2.193   2.070 -10.543  1.00  0.00     0.040 A 
ATOM     45  F   UNL     1       1.675   3.651  -8.889  1.00  0.00    -0.206 F 
ATOM     46  C   UNL     1       3.133   1.366 -11.293  1.00  0.00     0.006 A 
ENDBRANCH  25  39
BRANCH  26  47
ATOM     47  C   UNL     1       7.430   9.704  -2.492  1.00  0.00     0.057 A 
ATOM     48  C   UNL     1       8.462   9.294  -1.640  1.00  0.00     0.134 A 
ATOM     49  C   UNL     1       6.964  11.016  -2.358  1.00  0.00     0.134 A 
ATOM     50  F   UNL     1       8.940   8.042  -1.705  1.00  0.00    -0.206 F 
ATOM     51  C   UNL     1       9.015  10.160  -0.694  1.00  0.00     0.040 A 
ATOM     52  C   UNL     1       7.524  11.900  -1.434  1.00  0.00     0.040 A 
ATOM     53  F   UNL     1       5.981  11.466  -3.151  1.00  0.00    -0.206 F 
ATOM     54  C   UNL     1       8.552  11.471  -0.597  1.00  0.00     0.006 A 
ENDBRANCH  26  47
BRANCH  38  55
ATOM     55  C   UNL     1       7.400   9.539  -9.451  1.00  0.00     0.057 A 
ATOM     56  C   UNL     1       6.514  10.320 -10.203  1.00  0.00     0.134 A 
ATOM     57  C   UNL     1       8.767   9.659  -9.723  1.00  0.00     0.134 A 
ATOM     58  F   UNL     1       5.191  10.243  -9.993  1.00  0.00    -0.206 F 
ATOM     59  C   UNL     1       6.970  11.184 -11.197  1.00  0.00     0.040 A 
ATOM     60  C   UNL     1       9.238  10.541 -10.696  1.00  0.00     0.040 A 
ATOM     61  F   UNL     1       9.665   8.950  -9.023  1.00  0.00    -0.206 F 
ATOM     62  C   UNL     1       8.337  11.300 -11.441  1.00  0.00     0.006 A 
ENDBRANCH  38  55
ENDBRANCH  12  13
ENDBRANCH   5   7
ENDBRANCH   4   5
ENDBRANCH   3   4
ENDBRANCH   2   3
ENDBRANCH   1   2
BRANCH   1  63
ATOM     63  C   UNL     1       2.791  -1.180  -1.575  1.00  0.00     0.202 C 
BRANCH  63  64
ATOM     64  C   UNL     1       2.890  -2.201  -2.710  1.00  0.00     0.261 C 
BRANCH  64  65
ATOM     65  O   UNL     1       3.364  -3.443  -2.173  1.00  0.00    -0.459 OA
BRANCH  65  66
ATOM     66  C   UNL     1       4.704  -3.649  -2.215  1.00  0.00     0.343 C 
ATOM     67  O   UNL     1       5.532  -2.997  -2.832  1.00  0.00    -0.246 OA
BRANCH  66  68
ATOM     68  C   UNL     1       5.028  -4.615  -1.153  1.00  0.00     0.126 A 
ATOM     69  C   UNL     1       5.980  -4.258  -0.274  1.00  0.00     0.038 A 
ATOM     70  C   UNL     1       4.245  -5.862  -0.950  1.00  0.00     0.265 A 
ATOM     71  C   UNL     1       6.153  -4.982   0.961  1.00  0.00     0.035 A 
ATOM     72  N   UNL     1       4.521  -6.554   0.234  1.00  0.00    -0.309 N 
ATOM     73  O   UNL     1       3.458  -6.260  -1.804  1.00  0.00    -0.268 OA
ATOM     74  Br  UNL     1       7.354  -4.314   2.216  1.00  0.00    -0.049 Br
ATOM     75  C   UNL     1       5.419  -6.080   1.181  1.00  0.00     0.105 A 
BRANCH  72  76
ATOM     76  C   UNL     1       3.996  -7.912   0.370  1.00  0.00     0.161 C 
BRANCH  76  77
ATOM     77  C   UNL     1       5.027  -8.887  -0.161  1.00  0.00    -0.025 A 
ATOM     78  C   UNL     1       6.070  -9.340   0.665  1.00  0.00     0.006 A 
ATOM     79  C   UNL     1       5.051  -9.214  -1.525  1.00  0.00     0.044 A 
ATOM     80  C   UNL     1       7.126 -10.082   0.134  1.00  0.00     0.003 A 
ATOM     81  C   UNL     1       6.104  -9.961  -2.040  1.00  0.00     0.123 A 
ATOM     82  C   UNL     1       7.145 -10.390  -1.225  1.00  0.00     0.039 A 
ATOM     83  F   UNL     1       6.132 -10.247  -3.348  1.00  0.00    -0.207 F 
ENDBRANCH  76  77
ENDBRANCH  72  76
ENDBRANCH  66  68
ENDBRANCH  65  66
ENDBRANCH  64  65
ENDBRANCH  63  64
ENDBRANCH   1  63
TORSDOF 16
