REMARK SMILES CC[C@H]1CC[C@](O)([C@H](F)C(=O)OCCOCCOC(=O)c2ccc(-c3c4nc(c(-c5c(F)cccc5F)c5ccc([nH]5)c(-c5c(F)cccc5F)c5nc(c(-c6c(F)cccc6F)c6ccc3[nH]6)C=C5)C=C4)cc2)CC1
REMARK SMILES IDX 15 1 14 2 13 3 12 4 10 5 11 6 8 7 9 8 6 9 3 10 4 11 76 12
REMARK SMILES IDX 5 13 75 14 2 15 1 16 7 17 16 19 17 20 18 21 19 22 20 23
REMARK SMILES IDX 21 24 22 25 74 26 23 27 73 28 24 29 25 30 26 31 67 32 27 33
REMARK SMILES IDX 72 34 66 35 68 36 28 37 71 38 65 39 64 40 29 42 55 43 38 44
REMARK SMILES IDX 54 45 39 46 42 47 53 48 69 49 40 50 41 51 52 53 70 54 43 55
REMARK SMILES IDX 30 56 31 57 36 58 32 59 33 60 35 61 37 62 34 63 56 64 57 65
REMARK SMILES IDX 62 66 58 67 59 68 61 69 63 70 60 71 44 72 45 73 50 74 46 75
REMARK SMILES IDX 47 76 49 77 51 78 48 79
REMARK H PARENT 7 18 68 41 42 52
REMARK Flexibility Score: inf
ROOT
ATOM      1  O   UNL     1      -2.644   6.354   4.267  1.00  0.00    -0.374 OA
ENDROOT
BRANCH   1   2
ATOM      2  C   UNL     1      -1.303   6.688   3.938  1.00  0.00     0.202 C 
BRANCH   2   3
ATOM      3  C   UNL     1      -0.197   5.800   4.506  1.00  0.00     0.261 C 
BRANCH   3   4
ATOM      4  O   UNL     1      -0.242   4.437   4.051  1.00  0.00    -0.461 OA
BRANCH   4   5
ATOM      5  C   UNL     1      -0.497   3.494   5.008  1.00  0.00     0.343 C 
ATOM      6  O   UNL     1      -0.892   3.745   6.140  1.00  0.00    -0.249 OA
BRANCH   5   7
ATOM      7  C   UNL     1      -0.234   2.091   4.500  1.00  0.00     0.307 C 
ATOM      8  F   UNL     1      -0.339   2.034   3.130  1.00  0.00    -0.232 F 
BRANCH   7   9
ATOM      9  C   UNL     1       1.124   1.458   4.910  1.00  0.00     0.107 C 
ATOM     10  C   UNL     1       2.975   3.486   6.229  1.00  0.00    -0.011 C 
ATOM     11  C   UNL     1       1.915   2.720   7.041  1.00  0.00     0.006 C 
ATOM     12  C   UNL     1       2.768   3.418   4.709  1.00  0.00     0.006 C 
ATOM     13  C   UNL     1       1.410   1.420   6.420  1.00  0.00     0.039 C 
ATOM     14  C   UNL     1       2.331   2.061   4.177  1.00  0.00     0.039 C 
BRANCH  10  15
ATOM     15  C   UNL     1       4.394   3.077   6.669  1.00  0.00    -0.000 C 
ATOM     16  C   UNL     1       5.489   3.921   6.028  1.00  0.00     0.004 C 
ENDBRANCH  10  15
BRANCH   9  17
ATOM     17  O   UNL     1       1.028   0.067   4.503  1.00  0.00    -0.386 OA
ATOM     18  H   UNL     1       1.850  -0.394   4.730  1.00  0.00     0.211 HD
ENDBRANCH   9  17
ENDBRANCH   7   9
ENDBRANCH   5   7
ENDBRANCH   4   5
ENDBRANCH   3   4
ENDBRANCH   2   3
ENDBRANCH   1   2
BRANCH   1  19
ATOM     19  C   UNL     1      -3.182   5.138   3.755  1.00  0.00     0.202 C 
BRANCH  19  20
ATOM     20  C   UNL     1      -3.380   5.028   2.238  1.00  0.00     0.261 C 
BRANCH  20  21
ATOM     21  O   UNL     1      -2.157   5.100   1.481  1.00  0.00    -0.460 OA
BRANCH  21  22
ATOM     22  C   UNL     1      -2.066   6.170   0.656  1.00  0.00     0.338 C 
ATOM     23  O   UNL     1      -2.884   7.069   0.513  1.00  0.00    -0.246 OA
BRANCH  22  24
ATOM     24  C   UNL     1      -0.758   6.213  -0.018  1.00  0.00     0.060 A 
ATOM     25  C   UNL     1       0.043   7.347   0.170  1.00  0.00     0.016 A 
ATOM     26  C   UNL     1      -0.415   5.251  -0.969  1.00  0.00     0.016 A 
ATOM     27  C   UNL     1       1.161   7.553  -0.638  1.00  0.00     0.010 A 
ATOM     28  C   UNL     1       0.700   5.465  -1.786  1.00  0.00     0.010 A 
ATOM     29  C   UNL     1       1.465   6.638  -1.654  1.00  0.00    -0.014 A 
BRANCH  29  30
ATOM     30  C   UNL     1       2.473   6.991  -2.685  1.00  0.00     0.031 A 
ATOM     31  C   UNL     1       2.006   7.578  -3.990  1.00  0.00     0.074 A 
ATOM     32  C   UNL     1       3.785   6.811  -2.459  1.00  0.00     0.049 A 
ATOM     33  N   UNL     1       2.701   7.904  -5.050  1.00  0.00    -0.248 NA
ATOM     34  C   UNL     1       0.562   7.832  -4.116  1.00  0.00     0.031 C 
ATOM     35  C   UNL     1       4.368   6.297  -1.222  1.00  0.00     0.029 A 
ATOM     36  N   UNL     1       4.866   7.037  -3.275  1.00  0.00    -0.354 N 
ATOM     37  C   UNL     1       1.782   8.398  -5.967  1.00  0.00     0.074 A 
ATOM     38  C   UNL     1       0.476   8.307  -5.350  1.00  0.00     0.031 C 
ATOM     39  C   UNL     1       5.703   6.231  -1.366  1.00  0.00     0.029 A 
ATOM     40  C   UNL     1       6.063   6.670  -2.713  1.00  0.00     0.049 A 
ATOM     41  H   UNL     1       4.789   7.425  -4.176  1.00  0.00     0.167 HD
ATOM     42  C   UNL     1       2.005   8.888  -7.210  1.00  0.00     0.037 A 
ATOM     43  C   UNL     1       7.304   6.665  -3.238  1.00  0.00     0.037 A 
ATOM     44  C   UNL     1       3.301   8.978  -7.828  1.00  0.00     0.049 A 
ATOM     45  C   UNL     1       7.516   7.141  -4.650  1.00  0.00     0.074 A 
ATOM     46  C   UNL     1       3.627   9.466  -9.082  1.00  0.00     0.029 A 
ATOM     47  N   UNL     1       4.484   8.565  -7.238  1.00  0.00    -0.354 N 
ATOM     48  N   UNL     1       6.642   7.614  -5.505  1.00  0.00    -0.248 NA
ATOM     49  C   UNL     1       8.890   7.079  -5.172  1.00  0.00     0.031 C 
ATOM     50  C   UNL     1       5.006   9.314  -9.264  1.00  0.00     0.029 A 
ATOM     51  C   UNL     1       5.542   8.768  -8.109  1.00  0.00     0.049 A 
ATOM     52  H   UNL     1       4.562   8.184  -6.334  1.00  0.00     0.167 HD
ATOM     53  C   UNL     1       7.361   7.930  -6.651  1.00  0.00     0.074 A 
ATOM     54  C   UNL     1       8.745   7.602  -6.381  1.00  0.00     0.031 C 
ATOM     55  C   UNL     1       6.915   8.447  -7.821  1.00  0.00     0.037 A 
BRANCH  42  56
ATOM     56  C   UNL     1       0.813   9.349  -7.993  1.00  0.00     0.057 A 
ATOM     57  C   UNL     1       0.160  10.553  -7.700  1.00  0.00     0.134 A 
ATOM     58  C   UNL     1       0.335   8.599  -9.075  1.00  0.00     0.134 A 
ATOM     59  F   UNL     1       0.562  11.310  -6.668  1.00  0.00    -0.206 F 
ATOM     60  C   UNL     1      -0.938  10.986  -8.446  1.00  0.00     0.040 A 
ATOM     61  C   UNL     1      -0.748   9.032  -9.841  1.00  0.00     0.040 A 
ATOM     62  F   UNL     1       0.919   7.439  -9.410  1.00  0.00    -0.206 F 
ATOM     63  C   UNL     1      -1.391  10.228  -9.524  1.00  0.00     0.006 A 
ENDBRANCH  42  56
BRANCH  43  64
ATOM     64  C   UNL     1       8.448   6.174  -2.432  1.00  0.00     0.057 A 
ATOM     65  C   UNL     1       9.435   7.050  -1.966  1.00  0.00     0.134 A 
ATOM     66  C   UNL     1       8.596   4.815  -2.132  1.00  0.00     0.134 A 
ATOM     67  F   UNL     1       9.361   8.360  -2.244  1.00  0.00    -0.206 F 
ATOM     68  C   UNL     1      10.538   6.590  -1.244  1.00  0.00     0.040 A 
ATOM     69  C   UNL     1       9.682   4.344  -1.392  1.00  0.00     0.040 A 
ATOM     70  F   UNL     1       7.684   3.925  -2.552  1.00  0.00    -0.206 F 
ATOM     71  C   UNL     1      10.660   5.232  -0.952  1.00  0.00     0.006 A 
ENDBRANCH  43  64
BRANCH  55  72
ATOM     72  C   UNL     1       7.935   8.725  -8.885  1.00  0.00     0.057 A 
ATOM     73  C   UNL     1       8.511   7.697  -9.641  1.00  0.00     0.134 A 
ATOM     74  C   UNL     1       8.309  10.040  -9.187  1.00  0.00     0.134 A 
ATOM     75  F   UNL     1       8.203   6.415  -9.392  1.00  0.00    -0.206 F 
ATOM     76  C   UNL     1       9.438   7.967 -10.650  1.00  0.00     0.040 A 
ATOM     77  C   UNL     1       9.218  10.324 -10.207  1.00  0.00     0.040 A 
ATOM     78  F   UNL     1       7.787  11.070  -8.504  1.00  0.00    -0.206 F 
ATOM     79  C   UNL     1       9.788   9.284 -10.939  1.00  0.00     0.006 A 
ENDBRANCH  55  72
ENDBRANCH  29  30
ENDBRANCH  22  24
ENDBRANCH  21  22
ENDBRANCH  20  21
ENDBRANCH  19  20
ENDBRANCH   1  19
TORSDOF 17
