REMARK SMILES CC(=O)Oc1ccccc1SCCCCCC(=O)OCCOCCOC(=O)c1ccc(-c2c3nc(c(-c4c(F)cccc4F)c4ccc([nH]4)c(-c4c(F)cccc4F)c4nc(c(-c5c(F)cccc5F)c5ccc2[nH]5)C=C4)C=C3)cc1
REMARK SMILES IDX 19 1 17 2 18 3 16 4 15 5 14 6 13 7 12 8 11 9 10 10 5 11 6 12
REMARK SMILES IDX 7 13 9 14 8 15 4 16 2 17 1 18 3 19 20 20 21 21 22 22 23 23
REMARK SMILES IDX 24 24 25 25 26 26 27 27 28 28 29 29 81 30 30 31 80 32 31 33
REMARK SMILES IDX 32 34 33 35 74 36 34 37 79 38 73 39 75 40 35 41 78 42 72 43
REMARK SMILES IDX 71 44 36 46 62 47 45 48 61 49 46 50 49 51 60 52 76 53 47 54
REMARK SMILES IDX 48 55 59 57 77 58 50 59 37 60 38 61 43 62 39 63 40 64 42 65
REMARK SMILES IDX 44 66 41 67 63 68 64 69 69 70 65 71 66 72 68 73 70 74 67 75
REMARK SMILES IDX 51 76 52 77 57 78 53 79 54 80 56 81 58 82 55 83
REMARK H PARENT 75 45 49 56
REMARK Flexibility Score: inf
ROOT
ATOM      1  O   UNL     1       4.184   0.411  -1.619  1.00  0.00    -0.463 OA
ENDROOT
BRANCH   1   2
ATOM      2  C   UNL     1       4.048  -0.232  -0.435  1.00  0.00     0.305 C 
ATOM      3  O   UNL     1       4.889  -0.957   0.079  1.00  0.00    -0.252 OA
BRANCH   2   4
ATOM      4  C   UNL     1       2.730   0.138   0.208  1.00  0.00     0.123 C 
BRANCH   4   5
ATOM      5  C   UNL     1       2.410   1.642   0.070  1.00  0.00     0.012 C 
BRANCH   5   6
ATOM      6  C   UNL     1       1.421   2.176  -0.993  1.00  0.00     0.001 C 
BRANCH   6   7
ATOM      7  C   UNL     1       0.134   1.490  -1.484  1.00  0.00     0.011 C 
BRANCH   7   8
ATOM      8  C   UNL     1      -1.248   1.410  -0.782  1.00  0.00     0.075 C 
BRANCH   8   9
ATOM      9  S   UNL     1      -2.319   2.774  -0.145  1.00  0.00    -0.122 SA
BRANCH   9  10
ATOM     10  C   UNL     1      -1.494   3.597   1.201  1.00  0.00     0.050 A 
ATOM     11  C   UNL     1      -0.957   3.049   2.376  1.00  0.00     0.144 A 
ATOM     12  C   UNL     1      -0.180   3.841   3.242  1.00  0.00     0.048 A 
ATOM     13  C   UNL     1      -0.041   5.211   3.005  1.00  0.00     0.004 A 
ATOM     14  C   UNL     1      -1.465   4.999   1.077  1.00  0.00     0.019 A 
ATOM     15  C   UNL     1      -0.746   5.801   1.964  1.00  0.00     0.001 A 
BRANCH  11  16
ATOM     16  O   UNL     1      -1.279   1.747   2.819  1.00  0.00    -0.426 OA
BRANCH  16  17
ATOM     17  C   UNL     1      -0.479   0.826   2.218  1.00  0.00     0.308 C 
ATOM     18  C   UNL     1      -0.744  -0.592   2.547  1.00  0.00     0.139 C 
ATOM     19  O   UNL     1       0.410   1.093   1.427  1.00  0.00    -0.252 OA
ENDBRANCH  16  17
ENDBRANCH  11  16
ENDBRANCH   9  10
ENDBRANCH   8   9
ENDBRANCH   7   8
ENDBRANCH   6   7
ENDBRANCH   5   6
ENDBRANCH   4   5
ENDBRANCH   2   4
ENDBRANCH   1   2
BRANCH   1  20
ATOM     20  C   UNL     1       5.528   0.662  -2.059  1.00  0.00     0.261 C 
BRANCH  20  21
ATOM     21  C   UNL     1       5.892   2.110  -1.714  1.00  0.00     0.202 C 
BRANCH  21  22
ATOM     22  O   UNL     1       6.568   2.315  -0.473  1.00  0.00    -0.374 OA
BRANCH  22  23
ATOM     23  C   UNL     1       5.780   2.610   0.680  1.00  0.00     0.202 C 
BRANCH  23  24
ATOM     24  C   UNL     1       5.161   4.024   0.776  1.00  0.00     0.261 C 
BRANCH  24  25
ATOM     25  O   UNL     1       4.329   4.391  -0.343  1.00  0.00    -0.460 OA
BRANCH  25  26
ATOM     26  C   UNL     1       4.911   5.221  -1.242  1.00  0.00     0.338 C 
ATOM     27  O   UNL     1       6.008   5.748  -1.156  1.00  0.00    -0.246 OA
BRANCH  26  28
ATOM     28  C   UNL     1       4.115   5.270  -2.487  1.00  0.00     0.060 A 
ATOM     29  C   UNL     1       4.757   4.881  -3.670  1.00  0.00     0.016 A 
ATOM     30  C   UNL     1       2.810   5.764  -2.524  1.00  0.00     0.016 A 
ATOM     31  C   UNL     1       4.112   5.014  -4.898  1.00  0.00     0.010 A 
ATOM     32  C   UNL     1       2.168   5.913  -3.762  1.00  0.00     0.010 A 
ATOM     33  C   UNL     1       2.826   5.566  -4.958  1.00  0.00    -0.014 A 
BRANCH  33  34
ATOM     34  C   UNL     1       2.233   5.886  -6.281  1.00  0.00     0.031 A 
ATOM     35  C   UNL     1       2.258   7.306  -6.779  1.00  0.00     0.074 A 
ATOM     36  C   UNL     1       1.717   4.915  -7.056  1.00  0.00     0.049 A 
ATOM     37  N   UNL     1       1.767   7.809  -7.883  1.00  0.00    -0.248 NA
ATOM     38  C   UNL     1       2.931   8.290  -5.916  1.00  0.00     0.031 C 
ATOM     39  C   UNL     1       1.681   3.494  -6.715  1.00  0.00     0.029 A 
ATOM     40  N   UNL     1       1.117   4.981  -8.290  1.00  0.00    -0.354 N 
ATOM     41  C   UNL     1       2.061   9.167  -7.844  1.00  0.00     0.074 A 
ATOM     42  C   UNL     1       2.751   9.413  -6.596  1.00  0.00     0.031 C 
ATOM     43  C   UNL     1       1.077   2.823  -7.710  1.00  0.00     0.029 A 
ATOM     44  C   UNL     1       0.649   3.771  -8.738  1.00  0.00     0.049 A 
ATOM     45  H   UNL     1       1.031   5.817  -8.803  1.00  0.00     0.167 HD
ATOM     46  C   UNL     1       1.786  10.119  -8.768  1.00  0.00     0.037 A 
ATOM     47  C   UNL     1      -0.071   3.466  -9.836  1.00  0.00     0.037 A 
ATOM     48  C   UNL     1       1.100   9.871 -10.010  1.00  0.00     0.049 A 
ATOM     49  C   UNL     1      -0.445   4.558 -10.804  1.00  0.00     0.074 A 
ATOM     50  C   UNL     1       0.796  10.768 -11.020  1.00  0.00     0.029 A 
ATOM     51  N   UNL     1       0.600   8.640 -10.406  1.00  0.00    -0.354 N 
ATOM     52  N   UNL     1      -0.142   5.833 -10.771  1.00  0.00    -0.248 NA
ATOM     53  C   UNL     1      -1.263   4.168 -11.962  1.00  0.00     0.031 C 
ATOM     54  C   UNL     1       0.057  10.093 -11.997  1.00  0.00     0.029 A 
ATOM     55  C   UNL     1      -0.043   8.761 -11.627  1.00  0.00     0.049 A 
ATOM     56  H   UNL     1       0.689   7.803  -9.895  1.00  0.00     0.167 HD
ATOM     57  C   UNL     1      -0.707   6.391 -11.912  1.00  0.00     0.074 A 
ATOM     58  C   UNL     1      -1.360   5.313 -12.624  1.00  0.00     0.031 C 
ATOM     59  C   UNL     1      -0.687   7.680 -12.331  1.00  0.00     0.037 A 
BRANCH  46  60
ATOM     60  C   UNL     1       2.195  11.530  -8.455  1.00  0.00     0.057 A 
ATOM     61  C   UNL     1       3.537  11.933  -8.448  1.00  0.00     0.134 A 
ATOM     62  C   UNL     1       1.227  12.510  -8.196  1.00  0.00     0.134 A 
ATOM     63  F   UNL     1       4.515  11.044  -8.678  1.00  0.00    -0.206 F 
ATOM     64  C   UNL     1       3.902  13.252  -8.171  1.00  0.00     0.040 A 
ATOM     65  C   UNL     1       1.578  13.837  -7.946  1.00  0.00     0.040 A 
ATOM     66  F   UNL     1      -0.077  12.195  -8.195  1.00  0.00    -0.206 F 
ATOM     67  C   UNL     1       2.920  14.210  -7.926  1.00  0.00     0.006 A 
ENDBRANCH  46  60
BRANCH  47  68
ATOM     68  C   UNL     1      -0.518   2.068 -10.066  1.00  0.00     0.057 A 
ATOM     69  C   UNL     1      -0.022   1.310 -11.133  1.00  0.00     0.134 A 
ATOM     70  C   UNL     1      -1.470   1.464  -9.235  1.00  0.00     0.134 A 
ATOM     71  F   UNL     1       0.872   1.840 -11.980  1.00  0.00    -0.206 F 
ATOM     72  C   UNL     1      -0.469   0.009 -11.375  1.00  0.00     0.040 A 
ATOM     73  C   UNL     1      -1.904   0.155  -9.447  1.00  0.00     0.040 A 
ATOM     74  F   UNL     1      -1.986   2.136  -8.195  1.00  0.00    -0.206 F 
ATOM     75  C   UNL     1      -1.408  -0.574 -10.526  1.00  0.00     0.006 A 
ENDBRANCH  47  68
BRANCH  59  76
ATOM     76  C   UNL     1      -1.360   7.997 -13.636  1.00  0.00     0.057 A 
ATOM     77  C   UNL     1      -2.754   7.994 -13.772  1.00  0.00     0.134 A 
ATOM     78  C   UNL     1      -0.604   8.363 -14.758  1.00  0.00     0.134 A 
ATOM     79  F   UNL     1      -3.537   7.641 -12.741  1.00  0.00    -0.206 F 
ATOM     80  C   UNL     1      -3.371   8.324 -14.980  1.00  0.00     0.040 A 
ATOM     81  C   UNL     1      -1.210   8.723 -15.963  1.00  0.00     0.040 A 
ATOM     82  F   UNL     1       0.736   8.397 -14.695  1.00  0.00    -0.206 F 
ATOM     83  C   UNL     1      -2.598   8.699 -16.078  1.00  0.00     0.006 A 
ENDBRANCH  59  76
ENDBRANCH  33  34
ENDBRANCH  26  28
ENDBRANCH  25  26
ENDBRANCH  24  25
ENDBRANCH  23  24
ENDBRANCH  22  23
ENDBRANCH  21  22
ENDBRANCH  20  21
ENDBRANCH   1  20
TORSDOF 22
