REMARK SMILES Cc1cc(C(=O)OCCOCCOC(=O)c2ccc(-c3c4nc(c(-c5c(F)cccc5F)c5ccc([nH]5)c(-c5c(F)cccc5F)c5nc(c(-c6c(F)cccc6F)c6ccc3[nH]6)C=C5)C=C4)cc2)ccc1NC(=O)N1C[C@@H](C)[C@H](C)C1
REMARK SMILES IDX 11 1 10 2 9 3 8 4 7 5 5 6 6 7 4 8 1 9 2 10 3 11 72 12 71 13
REMARK SMILES IDX 70 14 73 15 74 16 75 18 76 19 77 20 82 21 78 22 80 23 79 24
REMARK SMILES IDX 81 25 12 26 13 27 14 28 15 29 16 30 17 31 69 32 18 33 68 34
REMARK SMILES IDX 19 35 20 36 21 37 62 38 22 39 67 40 61 41 63 42 23 43 66 44
REMARK SMILES IDX 60 45 59 46 24 48 50 49 33 50 49 51 34 52 37 53 48 54 64 55
REMARK SMILES IDX 35 56 36 57 47 59 65 60 38 61 25 62 26 63 31 64 27 65 28 66
REMARK SMILES IDX 30 67 32 68 29 69 51 70 52 71 57 72 53 73 54 74 56 75 58 76
REMARK SMILES IDX 55 77 39 78 40 79 45 80 41 81 42 82 44 83 46 84 43 85
REMARK H PARENT 73 17 63 47 37 58
REMARK Flexibility Score: inf
ROOT
ATOM      1  C   UNL     1      -1.171  -3.380  -3.598  1.00  0.00     0.202 C 
ENDROOT
BRANCH   1   2
ATOM      2  O   UNL     1      -1.831  -3.156  -2.369  1.00  0.00    -0.374 OA
BRANCH   2   3
ATOM      3  C   UNL     1      -2.969  -2.314  -2.425  1.00  0.00     0.202 C 
BRANCH   3   4
ATOM      4  C   UNL     1      -3.524  -2.286  -1.031  1.00  0.00     0.261 C 
BRANCH   4   5
ATOM      5  O   UNL     1      -2.699  -1.558  -0.105  1.00  0.00    -0.460 OA
BRANCH   5   6
ATOM      6  C   UNL     1      -1.398  -1.933   0.055  1.00  0.00     0.338 C 
ATOM      7  O   UNL     1      -0.967  -3.015   0.386  1.00  0.00    -0.246 OA
BRANCH   6   8
ATOM      8  C   UNL     1      -0.600  -0.720  -0.205  1.00  0.00     0.060 A 
ATOM      9  C   UNL     1       2.889   0.630   0.297  1.00  0.00     0.046 C 
ATOM     10  C   UNL     1       1.406   0.613   0.056  1.00  0.00    -0.027 A 
ATOM     11  C   UNL     1       0.736  -0.620   0.180  1.00  0.00     0.021 A 
ATOM     12  C   UNL     1       0.666   1.731  -0.370  1.00  0.00     0.045 A 
ATOM     13  C   UNL     1      -0.545   1.528  -1.018  1.00  0.00     0.027 A 
ATOM     14  C   UNL     1      -1.199   0.332  -0.892  1.00  0.00     0.018 A 
BRANCH  12  15
ATOM     15  N   UNL     1       1.073   3.053  -0.118  1.00  0.00    -0.308 N 
ATOM     16  C   UNL     1       0.311   4.196  -0.179  1.00  0.00     0.321 C 
ATOM     17  H   UNL     1       2.018   3.175   0.131  1.00  0.00     0.171 HD
ATOM     18  O   UNL     1       0.864   5.267  -0.428  1.00  0.00    -0.248 OA
ATOM     19  N   UNL     1      -1.050   4.105   0.023  1.00  0.00    -0.324 N 
ATOM     20  C   UNL     1      -1.976   4.949  -0.706  1.00  0.00     0.125 C 
ATOM     21  C   UNL     1      -1.695   3.497   1.189  1.00  0.00     0.125 C 
ATOM     22  C   UNL     1      -3.147   5.176   0.242  1.00  0.00     0.010 C 
ATOM     23  C   UNL     1      -3.179   3.886   1.083  1.00  0.00     0.010 C 
ATOM     24  C   UNL     1      -4.450   5.450  -0.495  1.00  0.00     0.010 C 
ATOM     25  C   UNL     1      -3.857   4.081   2.437  1.00  0.00     0.010 C 
ENDBRANCH  12  15
ENDBRANCH   6   8
ENDBRANCH   5   6
ENDBRANCH   4   5
ENDBRANCH   3   4
ENDBRANCH   2   3
ENDBRANCH   1   2
BRANCH   1  26
ATOM     26  C   UNL     1      -2.071  -4.078  -4.625  1.00  0.00     0.261 C 
BRANCH  26  27
ATOM     27  O   UNL     1      -2.515  -5.344  -4.090  1.00  0.00    -0.460 OA
BRANCH  27  28
ATOM     28  C   UNL     1      -3.791  -5.388  -3.612  1.00  0.00     0.338 C 
ATOM     29  O   UNL     1      -4.772  -4.922  -4.168  1.00  0.00    -0.246 OA
BRANCH  28  30
ATOM     30  C   UNL     1      -3.780  -5.812  -2.179  1.00  0.00     0.060 A 
ATOM     31  C   UNL     1      -4.948  -5.689  -1.398  1.00  0.00     0.016 A 
ATOM     32  C   UNL     1      -2.547  -5.985  -1.553  1.00  0.00     0.016 A 
ATOM     33  C   UNL     1      -4.857  -5.572   0.000  1.00  0.00     0.010 A 
ATOM     34  C   UNL     1      -2.456  -5.772  -0.194  1.00  0.00     0.010 A 
ATOM     35  C   UNL     1      -3.596  -5.524   0.591  1.00  0.00    -0.014 A 
BRANCH  35  36
ATOM     36  C   UNL     1      -3.290  -5.085   1.959  1.00  0.00     0.031 A 
ATOM     37  C   UNL     1      -2.524  -5.998   2.838  1.00  0.00     0.074 A 
ATOM     38  C   UNL     1      -3.391  -3.775   2.302  1.00  0.00     0.049 A 
ATOM     39  N   UNL     1      -2.263  -5.740   4.069  1.00  0.00    -0.248 NA
ATOM     40  C   UNL     1      -2.014  -7.308   2.429  1.00  0.00     0.031 C 
ATOM     41  C   UNL     1      -2.628  -3.035   3.314  1.00  0.00     0.029 A 
ATOM     42  N   UNL     1      -4.219  -2.781   1.768  1.00  0.00    -0.354 N 
ATOM     43  C   UNL     1      -1.284  -6.607   4.484  1.00  0.00     0.074 A 
ATOM     44  C   UNL     1      -1.279  -7.651   3.493  1.00  0.00     0.031 C 
ATOM     45  C   UNL     1      -3.199  -1.836   3.529  1.00  0.00     0.029 A 
ATOM     46  C   UNL     1      -4.422  -1.798   2.750  1.00  0.00     0.049 A 
ATOM     47  H   UNL     1      -4.595  -2.772   0.859  1.00  0.00     0.167 HD
ATOM     48  C   UNL     1      -0.524  -6.242   5.553  1.00  0.00     0.037 A 
ATOM     49  C   UNL     1      -5.675  -1.495   3.179  1.00  0.00     0.037 A 
ATOM     50  C   UNL     1      -1.089  -5.042   6.196  1.00  0.00     0.049 A 
ATOM     51  C   UNL     1      -5.772  -1.918   4.614  1.00  0.00     0.074 A 
ATOM     52  C   UNL     1      -0.681  -3.724   6.297  1.00  0.00     0.029 A 
ATOM     53  N   UNL     1      -2.427  -5.064   6.603  1.00  0.00    -0.354 N 
ATOM     54  N   UNL     1      -4.980  -2.827   5.119  1.00  0.00    -0.248 NA
ATOM     55  C   UNL     1      -6.619  -1.290   5.620  1.00  0.00     0.031 C 
ATOM     56  C   UNL     1      -1.823  -2.944   6.659  1.00  0.00     0.029 A 
ATOM     57  C   UNL     1      -2.912  -3.790   6.825  1.00  0.00     0.049 A 
ATOM     58  H   UNL     1      -2.958  -5.886   6.716  1.00  0.00     0.167 HD
ATOM     59  C   UNL     1      -5.100  -2.830   6.469  1.00  0.00     0.074 A 
ATOM     60  C   UNL     1      -6.182  -1.899   6.739  1.00  0.00     0.031 C 
ATOM     61  C   UNL     1      -4.289  -3.574   7.271  1.00  0.00     0.037 A 
BRANCH  48  62
ATOM     62  C   UNL     1       0.802  -6.864   5.948  1.00  0.00     0.057 A 
ATOM     63  C   UNL     1       1.442  -6.467   7.139  1.00  0.00     0.134 A 
ATOM     64  C   UNL     1       1.545  -7.790   5.185  1.00  0.00     0.134 A 
ATOM     65  F   UNL     1       0.888  -5.564   7.961  1.00  0.00    -0.206 F 
ATOM     66  C   UNL     1       2.693  -6.964   7.544  1.00  0.00     0.040 A 
ATOM     67  C   UNL     1       2.771  -8.333   5.603  1.00  0.00     0.040 A 
ATOM     68  F   UNL     1       1.169  -8.185   3.966  1.00  0.00    -0.206 F 
ATOM     69  C   UNL     1       3.355  -7.916   6.785  1.00  0.00     0.006 A 
ENDBRANCH  48  62
BRANCH  49  70
ATOM     70  C   UNL     1      -6.667  -1.568   2.066  1.00  0.00     0.057 A 
ATOM     71  C   UNL     1      -6.598  -0.547   1.092  1.00  0.00     0.134 A 
ATOM     72  C   UNL     1      -7.246  -2.776   1.658  1.00  0.00     0.134 A 
ATOM     73  F   UNL     1      -6.032   0.634   1.395  1.00  0.00    -0.206 F 
ATOM     74  C   UNL     1      -6.961  -0.758  -0.245  1.00  0.00     0.040 A 
ATOM     75  C   UNL     1      -7.600  -3.001   0.316  1.00  0.00     0.040 A 
ATOM     76  F   UNL     1      -7.335  -3.809   2.507  1.00  0.00    -0.206 F 
ATOM     77  C   UNL     1      -7.421  -2.007  -0.646  1.00  0.00     0.006 A 
ENDBRANCH  49  70
BRANCH  61  78
ATOM     78  C   UNL     1      -4.758  -4.116   8.588  1.00  0.00     0.057 A 
ATOM     79  C   UNL     1      -6.115  -4.315   8.893  1.00  0.00     0.134 A 
ATOM     80  C   UNL     1      -3.844  -4.653   9.515  1.00  0.00     0.134 A 
ATOM     81  F   UNL     1      -7.092  -3.970   8.041  1.00  0.00    -0.206 F 
ATOM     82  C   UNL     1      -6.535  -4.938  10.068  1.00  0.00     0.040 A 
ATOM     83  C   UNL     1      -4.253  -5.335  10.661  1.00  0.00     0.040 A 
ATOM     84  F   UNL     1      -2.518  -4.577   9.329  1.00  0.00    -0.206 F 
ATOM     85  C   UNL     1      -5.603  -5.463  10.951  1.00  0.00     0.006 A 
ENDBRANCH  61  78
ENDBRANCH  35  36
ENDBRANCH  28  30
ENDBRANCH  27  28
ENDBRANCH  26  27
ENDBRANCH   1  26
TORSDOF 15
