REMARK SMILES C[NH2+][C@@]1(C(=O)OCCOCCOC(=O)c2ccc(-c3c4nc(c(-c5c(F)cccc5F)c5ccc([nH]5)c(-c5c(F)cccc5F)c5nc(c(-c6c(F)cccc6F)c6ccc3[nH]6)C=C5)C=C4)cc2)CC[C@H]([NH+]2CC[NH+](C)CC2)C1
REMARK SMILES IDX 10 1 9 2 8 3 7 4 6 5 4 6 5 7 3 8 69 9 79 10 70 11 71 12 2 13
REMARK SMILES IDX 1 14 72 17 73 18 78 19 74 21 77 22 75 23 76 24 11 26 12 27
REMARK SMILES IDX 13 28 14 29 15 30 16 31 68 32 17 33 67 34 18 35 19 36 20 37
REMARK SMILES IDX 61 38 21 39 66 40 60 41 62 42 22 43 65 44 59 45 58 46 23 48
REMARK SMILES IDX 49 49 32 50 48 51 33 52 36 53 47 54 63 55 34 56 35 57 46 59
REMARK SMILES IDX 64 60 37 61 24 62 25 63 30 64 26 65 27 66 29 67 31 68 28 69
REMARK SMILES IDX 50 70 51 71 56 72 52 73 53 74 55 75 57 76 54 77 38 78 39 79
REMARK SMILES IDX 44 80 40 81 41 82 43 83 45 84 42 85
REMARK H PARENT 2 15 2 16 72 20 75 25 62 47 36 58
REMARK Flexibility Score: inf
ROOT
ATOM      1  C   UNL     1      -0.436  -2.741   4.158  1.00  0.00     0.202 C 
ENDROOT
BRANCH   1   2
ATOM      2  O   UNL     1      -0.699  -2.013   5.355  1.00  0.00    -0.374 OA
BRANCH   2   3
ATOM      3  C   UNL     1      -1.830  -1.139   5.343  1.00  0.00     0.202 C 
BRANCH   3   4
ATOM      4  C   UNL     1      -1.631   0.151   4.541  1.00  0.00     0.261 C 
BRANCH   4   5
ATOM      5  O   UNL     1      -1.673  -0.170   3.136  1.00  0.00    -0.459 OA
BRANCH   5   6
ATOM      6  C   UNL     1      -0.804   0.477   2.326  1.00  0.00     0.368 C 
ATOM      7  O   UNL     1      -0.154   1.456   2.681  1.00  0.00    -0.245 OA
BRANCH   6   8
ATOM      8  C   UNL     1      -0.690  -0.181   0.902  1.00  0.00     0.200 C 
ATOM      9  C   UNL     1      -1.289   0.816  -0.108  1.00  0.00     0.087 C 
ATOM     10  C   UNL     1      -1.516  -1.462   0.634  1.00  0.00     0.146 C 
ATOM     11  C   UNL     1      -2.774   0.467  -0.203  1.00  0.00     0.072 C 
ATOM     12  C   UNL     1      -2.875  -1.044   0.033  1.00  0.00     0.191 C 
BRANCH   8  13
ATOM     13  N   UNL     1       0.746  -0.534   0.781  1.00  0.00    -0.334 N 
ATOM     14  C   UNL     1       1.505   0.126  -0.258  1.00  0.00     0.331 C 
ATOM     15  H   UNL     1       1.192  -0.316   1.672  1.00  0.00     0.347 HD
ATOM     16  H   UNL     1       0.753  -1.522   0.524  1.00  0.00     0.347 HD
ENDBRANCH   8  13
BRANCH  12  17
ATOM     17  N   UNL     1      -4.058  -1.630   0.675  1.00  0.00    -0.323 N 
ATOM     18  C   UNL     1      -5.353  -1.301   0.054  1.00  0.00     0.324 C 
ATOM     19  C   UNL     1      -4.208  -1.460   2.122  1.00  0.00     0.324 C 
ATOM     20  H   UNL     1      -3.826  -2.609   0.505  1.00  0.00     0.348 HD
ATOM     21  C   UNL     1      -5.996   0.038   0.505  1.00  0.00     0.324 C 
ATOM     22  C   UNL     1      -4.697  -0.077   2.579  1.00  0.00     0.324 C 
ATOM     23  N   UNL     1      -5.973   0.304   1.958  1.00  0.00    -0.328 N 
ATOM     24  C   UNL     1      -6.261   1.713   2.229  1.00  0.00     0.333 C 
ATOM     25  H   UNL     1      -6.700  -0.276   2.376  1.00  0.00     0.348 HD
ENDBRANCH  12  17
ENDBRANCH   6   8
ENDBRANCH   5   6
ENDBRANCH   4   5
ENDBRANCH   3   4
ENDBRANCH   2   3
ENDBRANCH   1   2
BRANCH   1  26
ATOM     26  C   UNL     1      -1.187  -4.070   4.009  1.00  0.00     0.261 C 
BRANCH  26  27
ATOM     27  O   UNL     1      -2.616  -3.912   3.935  1.00  0.00    -0.460 OA
BRANCH  27  28
ATOM     28  C   UNL     1      -3.280  -4.154   5.089  1.00  0.00     0.338 C 
ATOM     29  O   UNL     1      -2.799  -4.499   6.160  1.00  0.00    -0.246 OA
BRANCH  28  30
ATOM     30  C   UNL     1      -4.705  -3.795   4.947  1.00  0.00     0.060 A 
ATOM     31  C   UNL     1      -5.265  -2.950   5.912  1.00  0.00     0.016 A 
ATOM     32  C   UNL     1      -5.501  -4.319   3.924  1.00  0.00     0.016 A 
ATOM     33  C   UNL     1      -6.631  -2.665   5.888  1.00  0.00     0.010 A 
ATOM     34  C   UNL     1      -6.870  -4.018   3.893  1.00  0.00     0.010 A 
ATOM     35  C   UNL     1      -7.452  -3.225   4.900  1.00  0.00    -0.014 A 
BRANCH  35  36
ATOM     36  C   UNL     1      -8.932  -3.116   5.019  1.00  0.00     0.031 A 
ATOM     37  C   UNL     1      -9.722  -4.327   5.449  1.00  0.00     0.074 A 
ATOM     38  C   UNL     1      -9.572  -1.954   4.795  1.00  0.00     0.049 A 
ATOM     39  N   UNL     1     -11.016  -4.468   5.600  1.00  0.00    -0.248 NA
ATOM     40  C   UNL     1      -8.949  -5.544   5.742  1.00  0.00     0.031 C 
ATOM     41  C   UNL     1      -8.935  -0.699   4.400  1.00  0.00     0.029 A 
ATOM     42  N   UNL     1     -10.910  -1.645   4.866  1.00  0.00    -0.354 N 
ATOM     43  C   UNL     1     -11.209  -5.787   5.992  1.00  0.00     0.074 A 
ATOM     44  C   UNL     1      -9.907  -6.416   6.016  1.00  0.00     0.031 C 
ATOM     45  C   UNL     1      -9.882   0.247   4.269  1.00  0.00     0.029 A 
ATOM     46  C   UNL     1     -11.194  -0.343   4.529  1.00  0.00     0.049 A 
ATOM     47  H   UNL     1     -11.599  -2.295   5.133  1.00  0.00     0.167 HD
ATOM     48  C   UNL     1     -12.363  -6.419   6.317  1.00  0.00     0.037 A 
ATOM     49  C   UNL     1     -12.378   0.293   4.423  1.00  0.00     0.037 A 
ATOM     50  C   UNL     1     -13.662  -5.798   6.305  1.00  0.00     0.049 A 
ATOM     51  C   UNL     1     -13.656  -0.450   4.722  1.00  0.00     0.074 A 
ATOM     52  C   UNL     1     -14.884  -6.352   6.644  1.00  0.00     0.029 A 
ATOM     53  N   UNL     1     -13.909  -4.488   5.926  1.00  0.00    -0.354 N 
ATOM     54  N   UNL     1     -13.824  -1.687   5.121  1.00  0.00    -0.248 NA
ATOM     55  C   UNL     1     -14.913   0.298   4.556  1.00  0.00     0.031 C 
ATOM     56  C   UNL     1     -15.878  -5.396   6.413  1.00  0.00     0.029 A 
ATOM     57  C   UNL     1     -15.268  -4.225   5.994  1.00  0.00     0.049 A 
ATOM     58  H   UNL     1     -13.222  -3.840   5.651  1.00  0.00     0.167 HD
ATOM     59  C   UNL     1     -15.195  -1.855   5.285  1.00  0.00     0.074 A 
ATOM     60  C   UNL     1     -15.813  -0.589   4.955  1.00  0.00     0.031 C 
ATOM     61  C   UNL     1     -15.878  -2.959   5.675  1.00  0.00     0.037 A 
BRANCH  48  62
ATOM     62  C   UNL     1     -12.276  -7.870   6.694  1.00  0.00     0.057 A 
ATOM     63  C   UNL     1     -11.691  -8.294   7.894  1.00  0.00     0.134 A 
ATOM     64  C   UNL     1     -12.818  -8.856   5.858  1.00  0.00     0.134 A 
ATOM     65  F   UNL     1     -11.143  -7.404   8.735  1.00  0.00    -0.206 F 
ATOM     66  C   UNL     1     -11.623  -9.646   8.236  1.00  0.00     0.040 A 
ATOM     67  C   UNL     1     -12.783 -10.208   6.204  1.00  0.00     0.040 A 
ATOM     68  F   UNL     1     -13.400  -8.520   4.697  1.00  0.00    -0.206 F 
ATOM     69  C   UNL     1     -12.177 -10.607   7.393  1.00  0.00     0.006 A 
ENDBRANCH  48  62
BRANCH  49  70
ATOM     70  C   UNL     1     -12.424   1.717   3.997  1.00  0.00     0.057 A 
ATOM     71  C   UNL     1     -12.850   2.725   4.870  1.00  0.00     0.134 A 
ATOM     72  C   UNL     1     -12.081   2.099   2.694  1.00  0.00     0.134 A 
ATOM     73  F   UNL     1     -13.220   2.421   6.123  1.00  0.00    -0.206 F 
ATOM     74  C   UNL     1     -12.952   4.056   4.459  1.00  0.00     0.040 A 
ATOM     75  C   UNL     1     -12.150   3.430   2.278  1.00  0.00     0.040 A 
ATOM     76  F   UNL     1     -11.669   1.183   1.805  1.00  0.00    -0.206 F 
ATOM     77  C   UNL     1     -12.596   4.411   3.160  1.00  0.00     0.006 A 
ENDBRANCH  49  70
BRANCH  61  78
ATOM     78  C   UNL     1     -17.371  -2.843   5.814  1.00  0.00     0.057 A 
ATOM     79  C   UNL     1     -18.216  -2.715   4.705  1.00  0.00     0.134 A 
ATOM     80  C   UNL     1     -17.974  -2.906   7.078  1.00  0.00     0.134 A 
ATOM     81  F   UNL     1     -17.706  -2.639   3.466  1.00  0.00    -0.206 F 
ATOM     82  C   UNL     1     -19.603  -2.628   4.848  1.00  0.00     0.040 A 
ATOM     83  C   UNL     1     -19.360  -2.852   7.232  1.00  0.00     0.040 A 
ATOM     84  F   UNL     1     -17.227  -3.041   8.184  1.00  0.00    -0.206 F 
ATOM     85  C   UNL     1     -20.179  -2.704   6.115  1.00  0.00     0.006 A 
ENDBRANCH  61  78
ENDBRANCH  35  36
ENDBRANCH  28  30
ENDBRANCH  27  28
ENDBRANCH  26  27
ENDBRANCH   1  26
TORSDOF 16
