REMARK SMILES CCNC(=O)NC(=O)[C@@H](C)[NH2+][C@](C)(CC)C(=O)OCCOCCOC(=O)c1ccc(-c2c3nc(c(-c4c(F)cccc4F)c4ccc([nH]4)c(-c4c(F)cccc4F)c4nc(c(-c5c(F)cccc5F)c5ccc2[nH]5)C=C4)C=C3)cc1
REMARK SMILES IDX 20 1 19 2 18 3 16 4 17 5 12 6 13 7 11 8 9 11 10 12 7 13 3 14
REMARK SMILES IDX 4 15 5 17 6 18 8 20 2 21 1 22 14 23 15 24 21 25 22 26 23 27
REMARK SMILES IDX 24 28 25 29 26 30 27 31 28 32 80 33 29 34 79 35 30 36 31 37
REMARK SMILES IDX 32 38 73 39 33 40 78 41 72 42 74 43 34 44 77 45 71 46 70 47
REMARK SMILES IDX 35 49 61 50 44 51 60 52 45 53 48 54 59 55 75 56 46 57 47 58
REMARK SMILES IDX 58 60 76 61 49 62 36 63 37 64 42 65 38 66 39 67 41 68 43 69
REMARK SMILES IDX 40 70 62 71 63 72 68 73 64 74 65 75 67 76 69 77 66 78 50 79
REMARK SMILES IDX 51 80 56 81 52 82 53 83 55 84 57 85 54 86
REMARK H PARENT 11 9 11 10 3 16 6 19 74 48 48 59
REMARK Flexibility Score: inf
ROOT
ATOM      1  C   UNL     1      -1.602  -5.408  -1.580  1.00  0.00     0.202 C 
ENDROOT
BRANCH   1   2
ATOM      2  C   UNL     1      -0.355  -4.533  -1.782  1.00  0.00     0.261 C 
BRANCH   2   3
ATOM      3  O   UNL     1       0.357  -4.070  -0.624  1.00  0.00    -0.459 OA
BRANCH   3   4
ATOM      4  C   UNL     1      -0.075  -2.869  -0.139  1.00  0.00     0.367 C 
ATOM      5  O   UNL     1      -1.111  -2.333  -0.518  1.00  0.00    -0.245 OA
BRANCH   4   6
ATOM      6  C   UNL     1       0.931  -2.200   0.853  1.00  0.00     0.191 C 
ATOM      7  C   UNL     1       0.113  -1.479   1.942  1.00  0.00     0.092 C 
BRANCH   6   8
ATOM      8  N   UNL     1       1.850  -1.290   0.088  1.00  0.00    -0.322 N 
ATOM      9  H   UNL     1       2.708  -1.214   0.634  1.00  0.00     0.347 HD
ATOM     10  H   UNL     1       1.907  -1.737  -0.827  1.00  0.00     0.347 HD
BRANCH   8  11
ATOM     11  C   UNL     1       1.436   0.085  -0.241  1.00  0.00     0.270 C 
ATOM     12  C   UNL     1       0.206   0.378  -1.099  1.00  0.00     0.086 C 
BRANCH  11  13
ATOM     13  C   UNL     1       2.613   0.847  -0.873  1.00  0.00     0.285 C 
ATOM     14  N   UNL     1       3.241  -1.757  -2.992  1.00  0.00    -0.338 N 
ATOM     15  C   UNL     1       3.938  -0.702  -2.580  1.00  0.00     0.321 C 
ATOM     16  H   UNL     1       3.812  -2.430  -3.429  1.00  0.00     0.165 HD
ATOM     17  O   UNL     1       5.125  -0.660  -2.929  1.00  0.00    -0.248 OA
ATOM     18  N   UNL     1       3.486   0.348  -1.833  1.00  0.00    -0.273 N 
ATOM     19  H   UNL     1       4.041   1.116  -2.102  1.00  0.00     0.175 HD
ATOM     20  O   UNL     1       2.836   2.010  -0.502  1.00  0.00    -0.268 OA
BRANCH  14  21
ATOM     21  C   UNL     1       1.862  -2.157  -2.958  1.00  0.00     0.114 C 
ATOM     22  C   UNL     1       1.107  -1.829  -4.229  1.00  0.00     0.027 C 
ENDBRANCH  14  21
ENDBRANCH  11  13
ENDBRANCH   8  11
ENDBRANCH   6   8
BRANCH   6  23
ATOM     23  C   UNL     1       1.917  -3.205   1.532  1.00  0.00     0.077 C 
ATOM     24  C   UNL     1       1.337  -4.341   2.361  1.00  0.00     0.011 C 
ENDBRANCH   6  23
ENDBRANCH   4   6
ENDBRANCH   3   4
ENDBRANCH   2   3
ENDBRANCH   1   2
BRANCH   1  25
ATOM     25  O   UNL     1      -2.321  -5.325  -0.363  1.00  0.00    -0.374 OA
BRANCH  25  26
ATOM     26  C   UNL     1      -1.671  -5.769   0.824  1.00  0.00     0.202 C 
BRANCH  26  27
ATOM     27  C   UNL     1      -1.006  -7.152   0.794  1.00  0.00     0.261 C 
BRANCH  27  28
ATOM     28  O   UNL     1       0.146  -7.189  -0.078  1.00  0.00    -0.460 OA
BRANCH  28  29
ATOM     29  C   UNL     1       0.220  -8.296  -0.858  1.00  0.00     0.338 C 
ATOM     30  O   UNL     1      -0.531  -9.257  -0.848  1.00  0.00    -0.246 OA
BRANCH  29  31
ATOM     31  C   UNL     1       1.280  -8.157  -1.873  1.00  0.00     0.060 A 
ATOM     32  C   UNL     1       0.897  -8.143  -3.221  1.00  0.00     0.016 A 
ATOM     33  C   UNL     1       2.628  -8.227  -1.520  1.00  0.00     0.016 A 
ATOM     34  C   UNL     1       1.863  -8.258  -4.222  1.00  0.00     0.010 A 
ATOM     35  C   UNL     1       3.595  -8.351  -2.527  1.00  0.00     0.010 A 
ATOM     36  C   UNL     1       3.213  -8.413  -3.881  1.00  0.00    -0.014 A 
BRANCH  36  37
ATOM     37  C   UNL     1       4.195  -8.811  -4.923  1.00  0.00     0.031 A 
ATOM     38  C   UNL     1       4.554 -10.265  -5.077  1.00  0.00     0.074 A 
ATOM     39  C   UNL     1       4.745  -7.901  -5.746  1.00  0.00     0.049 A 
ATOM     40  N   UNL     1       5.402 -10.830  -5.898  1.00  0.00    -0.248 NA
ATOM     41  C   UNL     1       3.861 -11.207  -4.184  1.00  0.00     0.031 C 
ATOM     42  C   UNL     1       4.463  -6.468  -5.732  1.00  0.00     0.029 A 
ATOM     43  N   UNL     1       5.671  -8.056  -6.749  1.00  0.00    -0.354 N 
ATOM     44  C   UNL     1       5.346 -12.191  -5.624  1.00  0.00     0.074 A 
ATOM     45  C   UNL     1       4.402 -12.364  -4.539  1.00  0.00     0.031 C 
ATOM     46  C   UNL     1       5.218  -5.869  -6.669  1.00  0.00     0.029 A 
ATOM     47  C   UNL     1       6.054  -6.872  -7.329  1.00  0.00     0.049 A 
ATOM     48  H   UNL     1       6.026  -8.931  -7.025  1.00  0.00     0.167 HD
ATOM     49  C   UNL     1       6.010 -13.208  -6.224  1.00  0.00     0.037 A 
ATOM     50  C   UNL     1       6.989  -6.622  -8.267  1.00  0.00     0.037 A 
ATOM     51  C   UNL     1       6.954 -13.046  -7.298  1.00  0.00     0.049 A 
ATOM     52  C   UNL     1       7.774  -7.758  -8.866  1.00  0.00     0.074 A 
ATOM     53  C   UNL     1       7.656 -14.023  -7.984  1.00  0.00     0.029 A 
ATOM     54  N   UNL     1       7.340 -11.828  -7.833  1.00  0.00    -0.354 N 
ATOM     55  N   UNL     1       7.687  -9.043  -8.623  1.00  0.00    -0.248 NA
ATOM     56  C   UNL     1       8.789  -7.407  -9.872  1.00  0.00     0.031 C 
ATOM     57  C   UNL     1       8.501 -13.391  -8.903  1.00  0.00     0.029 A 
ATOM     58  C   UNL     1       8.293 -12.024  -8.819  1.00  0.00     0.049 A 
ATOM     59  H   UNL     1       6.988 -10.951  -7.553  1.00  0.00     0.167 HD
ATOM     60  C   UNL     1       8.619  -9.654  -9.455  1.00  0.00     0.074 A 
ATOM     61  C   UNL     1       9.252  -8.600 -10.220  1.00  0.00     0.031 C 
ATOM     62  C   UNL     1       8.921 -10.970  -9.574  1.00  0.00     0.037 A 
BRANCH  49  63
ATOM     63  C   UNL     1       5.752 -14.593  -5.709  1.00  0.00     0.057 A 
ATOM     64  C   UNL     1       4.551 -15.265  -5.970  1.00  0.00     0.134 A 
ATOM     65  C   UNL     1       6.724 -15.269  -4.963  1.00  0.00     0.134 A 
ATOM     66  F   UNL     1       3.575 -14.666  -6.668  1.00  0.00    -0.206 F 
ATOM     67  C   UNL     1       4.317 -16.553  -5.484  1.00  0.00     0.040 A 
ATOM     68  C   UNL     1       6.511 -16.565  -4.491  1.00  0.00     0.040 A 
ATOM     69  F   UNL     1       7.898 -14.683  -4.683  1.00  0.00    -0.206 F 
ATOM     70  C   UNL     1       5.301 -17.208  -4.746  1.00  0.00     0.006 A 
ENDBRANCH  49  63
BRANCH  50  71
ATOM     71  C   UNL     1       7.258  -5.223  -8.680  1.00  0.00     0.057 A 
ATOM     72  C   UNL     1       6.895  -4.753  -9.946  1.00  0.00     0.134 A 
ATOM     73  C   UNL     1       7.900  -4.326  -7.816  1.00  0.00     0.134 A 
ATOM     74  F   UNL     1       6.301  -5.573 -10.825  1.00  0.00    -0.206 F 
ATOM     75  C   UNL     1       7.168  -3.443 -10.344  1.00  0.00     0.040 A 
ATOM     76  C   UNL     1       8.158  -3.008  -8.191  1.00  0.00     0.040 A 
ATOM     77  F   UNL     1       8.276  -4.720  -6.590  1.00  0.00    -0.206 F 
ATOM     78  C   UNL     1       7.796  -2.565  -9.462  1.00  0.00     0.006 A 
ENDBRANCH  50  71
BRANCH  62  79
ATOM     79  C   UNL     1       9.969 -11.353 -10.577  1.00  0.00     0.057 A 
ATOM     80  C   UNL     1      11.330 -11.116 -10.347  1.00  0.00     0.134 A 
ATOM     81  C   UNL     1       9.619 -12.008 -11.764  1.00  0.00     0.134 A 
ATOM     82  F   UNL     1      11.731 -10.482  -9.235  1.00  0.00    -0.206 F 
ATOM     83  C   UNL     1      12.304 -11.505 -11.269  1.00  0.00     0.040 A 
ATOM     84  C   UNL     1      10.585 -12.421 -12.683  1.00  0.00     0.040 A 
ATOM     85  F   UNL     1       8.333 -12.273 -12.042  1.00  0.00    -0.206 F 
ATOM     86  C   UNL     1      11.933 -12.166 -12.438  1.00  0.00     0.006 A 
ENDBRANCH  62  79
ENDBRANCH  36  37
ENDBRANCH  29  31
ENDBRANCH  28  29
ENDBRANCH  27  28
ENDBRANCH  26  27
ENDBRANCH  25  26
ENDBRANCH   1  25
TORSDOF 19
