REMARK SMILES Cc1cc(C(=O)N[C@H](C(=O)OCCOCCOC(=O)c2ccc(-c3c4nc(c(-c5c(F)cccc5F)c5ccc([nH]5)c(-c5c(F)cccc5F)c5nc(c(-c6c(F)cccc6F)c6ccc3[nH]6)C=C5)C=C4)cc2)c2c(C)n[nH]c2C)c2ccc(C)c(C)c2n1
REMARK SMILES IDX 14 1 13 2 12 3 11 4 9 5 10 6 8 7 7 8 5 9 6 10 4 12 1 13 2 14
REMARK SMILES IDX 3 15 89 16 88 17 81 18 86 19 82 20 84 21 87 22 83 23 85 24
REMARK SMILES IDX 74 25 75 26 79 27 76 28 77 29 78 30 80 31 15 33 16 34 17 35
REMARK SMILES IDX 18 36 19 37 20 38 21 39 73 40 22 41 72 42 23 43 24 44 25 45
REMARK SMILES IDX 66 46 26 47 71 48 65 49 67 50 27 51 70 52 64 53 63 54 28 56
REMARK SMILES IDX 54 57 37 58 53 59 38 60 41 61 52 62 68 63 39 64 40 65 51 67
REMARK SMILES IDX 69 68 42 69 29 70 30 71 35 72 31 73 32 74 34 75 36 76 33 77
REMARK SMILES IDX 55 78 56 79 61 80 57 81 58 82 60 83 62 84 59 85 43 86 44 87
REMARK SMILES IDX 49 88 45 89 46 90 48 91 50 92 47 93
REMARK H PARENT 7 11 78 32 67 55 41 66
REMARK Flexibility Score: inf
ROOT
ATOM      1  O   UNL     1       2.567   5.850   0.760  1.00  0.00    -0.374 OA
ENDROOT
BRANCH   1   2
ATOM      2  C   UNL     1       1.159   5.709   0.650  1.00  0.00     0.202 C 
BRANCH   2   3
ATOM      3  C   UNL     1       0.661   4.580  -0.257  1.00  0.00     0.261 C 
BRANCH   3   4
ATOM      4  O   UNL     1       1.719   3.655  -0.566  1.00  0.00    -0.461 OA
BRANCH   4   5
ATOM      5  C   UNL     1       2.282   3.866  -1.779  1.00  0.00     0.333 C 
ATOM      6  O   UNL     1       1.717   4.519  -2.658  1.00  0.00    -0.249 OA
BRANCH   5   7
ATOM      7  C   UNL     1       3.600   3.121  -2.039  1.00  0.00     0.227 C 
BRANCH   7   8
ATOM      8  N   UNL     1       4.262   3.595  -3.244  1.00  0.00    -0.335 N 
ATOM      9  C   UNL     1       4.458   4.831  -3.803  1.00  0.00     0.252 C 
ATOM     10  O   UNL     1       5.028   4.819  -4.897  1.00  0.00    -0.269 OA
ATOM     11  H   UNL     1       4.657   2.867  -3.776  1.00  0.00     0.165 HD
BRANCH   9  12
ATOM     12  C   UNL     1       4.074   6.153  -3.193  1.00  0.00     0.051 A 
ATOM     13  C   UNL     1       4.478   7.994   0.110  1.00  0.00     0.067 C 
ATOM     14  C   UNL     1       4.211   7.667  -1.327  1.00  0.00     0.039 A 
ATOM     15  C   UNL     1       4.211   6.376  -1.824  1.00  0.00     0.038 A 
ATOM     16  N   UNL     1       3.992   8.719  -2.121  1.00  0.00    -0.253 NA
ATOM     17  C   UNL     1       3.746   8.534  -3.423  1.00  0.00     0.074 A 
ATOM     18  C   UNL     1       3.750   7.257  -4.024  1.00  0.00     0.013 A 
ATOM     19  C   UNL     1       3.508   9.681  -4.184  1.00  0.00    -0.022 A 
ATOM     20  C   UNL     1       3.416   7.172  -5.393  1.00  0.00     0.011 A 
ATOM     21  C   UNL     1       3.216   9.580  -5.557  1.00  0.00    -0.046 A 
ATOM     22  C   UNL     1       3.575  11.012  -3.469  1.00  0.00     0.047 C 
ATOM     23  C   UNL     1       3.151   8.315  -6.145  1.00  0.00     0.004 A 
ATOM     24  C   UNL     1       3.000  10.799  -6.406  1.00  0.00     0.044 C 
ENDBRANCH   9  12
ENDBRANCH   7   8
BRANCH   7  25
ATOM     25  C   UNL     1       4.631   2.697  -0.987  1.00  0.00     0.029 A 
ATOM     26  C   UNL     1       5.842   3.309  -0.462  1.00  0.00     0.065 A 
ATOM     27  C   UNL     1       4.740   1.395  -0.478  1.00  0.00     0.038 A 
ATOM     28  C   UNL     1       6.556   4.588  -0.726  1.00  0.00     0.069 C 
ATOM     29  N   UNL     1       6.457   2.522   0.430  1.00  0.00    -0.180 NA
ATOM     30  N   UNL     1       5.832   1.360   0.338  1.00  0.00    -0.282 N 
ATOM     31  C   UNL     1       3.993   0.140  -0.740  1.00  0.00     0.066 C 
ATOM     32  H   UNL     1       6.126   0.549   0.812  1.00  0.00     0.190 HD
ENDBRANCH   7  25
ENDBRANCH   5   7
ENDBRANCH   4   5
ENDBRANCH   3   4
ENDBRANCH   2   3
ENDBRANCH   1   2
BRANCH   1  33
ATOM     33  C   UNL     1       3.288   4.864   1.500  1.00  0.00     0.202 C 
BRANCH  33  34
ATOM     34  C   UNL     1       3.403   5.118   2.998  1.00  0.00     0.261 C 
BRANCH  34  35
ATOM     35  O   UNL     1       2.287   4.492   3.640  1.00  0.00    -0.460 OA
BRANCH  35  36
ATOM     36  C   UNL     1       1.281   5.324   3.994  1.00  0.00     0.338 C 
ATOM     37  O   UNL     1       1.323   6.528   4.111  1.00  0.00    -0.246 OA
BRANCH  36  38
ATOM     38  C   UNL     1       0.029   4.538   3.899  1.00  0.00     0.060 A 
ATOM     39  C   UNL     1      -1.091   5.183   3.353  1.00  0.00     0.016 A 
ATOM     40  C   UNL     1      -0.022   3.183   4.243  1.00  0.00     0.016 A 
ATOM     41  C   UNL     1      -2.276   4.485   3.176  1.00  0.00     0.010 A 
ATOM     42  C   UNL     1      -1.221   2.492   4.104  1.00  0.00     0.010 A 
ATOM     43  C   UNL     1      -2.355   3.158   3.613  1.00  0.00    -0.014 A 
BRANCH  43  44
ATOM     44  C   UNL     1      -3.689   2.590   3.867  1.00  0.00     0.031 A 
ATOM     45  C   UNL     1      -4.279   2.845   5.226  1.00  0.00     0.074 A 
ATOM     46  C   UNL     1      -4.347   1.898   2.925  1.00  0.00     0.049 A 
ATOM     47  N   UNL     1      -5.412   2.438   5.729  1.00  0.00    -0.248 NA
ATOM     48  C   UNL     1      -3.475   3.675   6.144  1.00  0.00     0.031 C 
ATOM     49  C   UNL     1      -3.869   1.641   1.568  1.00  0.00     0.029 A 
ATOM     50  N   UNL     1      -5.563   1.272   2.982  1.00  0.00    -0.354 N 
ATOM     51  C   UNL     1      -5.454   2.961   7.016  1.00  0.00     0.074 A 
ATOM     52  C   UNL     1      -4.228   3.692   7.230  1.00  0.00     0.031 C 
ATOM     53  C   UNL     1      -4.778   0.885   0.925  1.00  0.00     0.029 A 
ATOM     54  C   UNL     1      -5.880   0.586   1.837  1.00  0.00     0.049 A 
ATOM     55  H   UNL     1      -6.154   1.312   3.769  1.00  0.00     0.167 HD
ATOM     56  C   UNL     1      -6.435   2.840   7.936  1.00  0.00     0.037 A 
ATOM     57  C   UNL     1      -6.932  -0.215   1.585  1.00  0.00     0.037 A 
ATOM     58  C   UNL     1      -7.638   2.090   7.714  1.00  0.00     0.049 A 
ATOM     59  C   UNL     1      -7.967  -0.406   2.667  1.00  0.00     0.074 A 
ATOM     60  C   UNL     1      -8.711   1.907   8.564  1.00  0.00     0.029 A 
ATOM     61  N   UNL     1      -7.911   1.379   6.554  1.00  0.00    -0.354 N 
ATOM     62  N   UNL     1      -8.027   0.129   3.864  1.00  0.00    -0.248 NA
ATOM     63  C   UNL     1      -9.082  -1.312   2.360  1.00  0.00     0.031 C 
ATOM     64  C   UNL     1      -9.607   1.032   7.943  1.00  0.00     0.029 A 
ATOM     65  C   UNL     1      -9.121   0.723   6.681  1.00  0.00     0.049 A 
ATOM     66  H   UNL     1      -7.330   1.346   5.760  1.00  0.00     0.167 HD
ATOM     67  C   UNL     1      -9.199  -0.349   4.439  1.00  0.00     0.074 A 
ATOM     68  C   UNL     1      -9.827  -1.200   3.449  1.00  0.00     0.031 C 
ATOM     69  C   UNL     1      -9.716  -0.113   5.670  1.00  0.00     0.037 A 
BRANCH  56  70
ATOM     70  C   UNL     1      -6.218   3.491   9.269  1.00  0.00     0.057 A 
ATOM     71  C   UNL     1      -5.993   2.711  10.409  1.00  0.00     0.134 A 
ATOM     72  C   UNL     1      -6.243   4.883   9.431  1.00  0.00     0.134 A 
ATOM     73  F   UNL     1      -5.946   1.373  10.320  1.00  0.00    -0.206 F 
ATOM     74  C   UNL     1      -5.814   3.290  11.666  1.00  0.00     0.040 A 
ATOM     75  C   UNL     1      -6.038   5.475  10.679  1.00  0.00     0.040 A 
ATOM     76  F   UNL     1      -6.424   5.688   8.374  1.00  0.00    -0.206 F 
ATOM     77  C   UNL     1      -5.832   4.676  11.802  1.00  0.00     0.006 A 
ENDBRANCH  56  70
BRANCH  57  78
ATOM     78  C   UNL     1      -7.054  -0.930   0.289  1.00  0.00     0.057 A 
ATOM     79  C   UNL     1      -6.163  -1.951  -0.066  1.00  0.00     0.134 A 
ATOM     80  C   UNL     1      -8.110  -0.667  -0.593  1.00  0.00     0.134 A 
ATOM     81  F   UNL     1      -5.126  -2.253   0.730  1.00  0.00    -0.206 F 
ATOM     82  C   UNL     1      -6.323  -2.689  -1.240  1.00  0.00     0.040 A 
ATOM     83  C   UNL     1      -8.300  -1.417  -1.754  1.00  0.00     0.040 A 
ATOM     84  F   UNL     1      -9.010   0.284  -0.301  1.00  0.00    -0.206 F 
ATOM     85  C   UNL     1      -7.404  -2.434  -2.080  1.00  0.00     0.006 A 
ENDBRANCH  57  78
BRANCH  69  86
ATOM     86  C   UNL     1     -11.037  -0.751   5.988  1.00  0.00     0.057 A 
ATOM     87  C   UNL     1     -12.189   0.033   6.123  1.00  0.00     0.134 A 
ATOM     88  C   UNL     1     -11.164  -2.131   6.188  1.00  0.00     0.134 A 
ATOM     89  F   UNL     1     -12.132   1.364   5.960  1.00  0.00    -0.206 F 
ATOM     90  C   UNL     1     -13.422  -0.533   6.444  1.00  0.00     0.040 A 
ATOM     91  C   UNL     1     -12.399  -2.713   6.475  1.00  0.00     0.040 A 
ATOM     92  F   UNL     1     -10.100  -2.938   6.062  1.00  0.00    -0.206 F 
ATOM     93  C   UNL     1     -13.531  -1.912   6.610  1.00  0.00     0.006 A 
ENDBRANCH  69  86
ENDBRANCH  43  44
ENDBRANCH  36  38
ENDBRANCH  35  36
ENDBRANCH  34  35
ENDBRANCH  33  34
ENDBRANCH   1  33
TORSDOF 17
