REMARK SMILES C[C@H]1[C@H](C)CC[C@@]2(C(=O)OCCOCCOC(=O)c3ccc(-c4c5nc(c(-c6c(F)cccc6F)c6ccc([nH]6)c(-c6c(F)cccc6F)c6nc(c(-c7c(F)cccc7F)c7ccc4[nH]7)C=C6)C=C5)cc3)CC[C@@]3(C)C(=CC[C@@H]4[C@@]5(C)CC[C@H](O)C(C)(C)[C@@H]5CC[C@]43C)[C@H]12
REMARK SMILES IDX 14 1 13 2 12 3 11 4 10 5 8 6 9 7 7 8 1 9 2 10 3 11 95 12
REMARK SMILES IDX 4 13 5 14 77 15 6 16 73 17 75 18 78 19 74 20 76 21 93 22
REMARK SMILES IDX 79 23 80 24 92 25 94 26 81 27 91 28 82 29 83 30 90 31 84 32
REMARK SMILES IDX 87 33 85 34 88 35 89 36 86 37 15 39 16 40 17 41 18 42 19 43
REMARK SMILES IDX 20 44 72 45 21 46 71 47 22 48 23 49 24 50 65 51 25 52 70 53
REMARK SMILES IDX 64 54 66 55 26 56 69 57 63 58 62 59 27 61 53 62 36 63 52 64
REMARK SMILES IDX 37 65 40 66 51 67 67 68 38 69 39 70 50 72 68 73 41 74 28 75
REMARK SMILES IDX 29 76 34 77 30 78 31 79 33 80 35 81 32 82 54 83 55 84 60 85
REMARK SMILES IDX 56 86 57 87 59 88 61 89 58 90 42 91 43 92 48 93 44 94 45 95
REMARK SMILES IDX 47 96 49 97 46 98
REMARK H PARENT 86 38 66 60 40 71
REMARK Flexibility Score: inf
ROOT
ATOM      1  C   UNL     1      -4.388  -1.581   1.780  1.00  0.00     0.202 C 
ENDROOT
BRANCH   1   2
ATOM      2  O   UNL     1      -4.477  -0.230   1.370  1.00  0.00    -0.374 OA
BRANCH   2   3
ATOM      3  C   UNL     1      -3.253   0.453   1.147  1.00  0.00     0.202 C 
BRANCH   3   4
ATOM      4  C   UNL     1      -1.968  -0.312   0.778  1.00  0.00     0.261 C 
BRANCH   4   5
ATOM      5  O   UNL     1      -1.341  -1.010   1.883  1.00  0.00    -0.463 OA
BRANCH   5   6
ATOM      6  C   UNL     1      -0.979  -2.319   1.813  1.00  0.00     0.312 C 
ATOM      7  O   UNL     1      -1.773  -3.208   1.530  1.00  0.00    -0.252 OA
BRANCH   6   8
ATOM      8  C   UNL     1       0.523  -2.602   2.155  1.00  0.00     0.075 C 
ATOM      9  C   UNL     1       2.364   0.260   0.138  1.00  0.00     0.008 C 
ATOM     10  C   UNL     1       1.445  -0.924   0.456  1.00  0.00    -0.003 C 
ATOM     11  C   UNL     1       1.803  -2.122  -0.503  1.00  0.00    -0.011 C 
ATOM     12  C   UNL     1       1.419  -1.323   2.010  1.00  0.00     0.036 C 
ATOM     13  C   UNL     1       1.620  -1.805  -1.999  1.00  0.00     0.008 C 
ATOM     14  C   UNL     1       0.970  -3.373  -0.240  1.00  0.00     0.005 C 
ATOM     15  C   UNL     1       0.924  -0.329   3.153  1.00  0.00    -0.063 C 
ATOM     16  C   UNL     1       0.982  -3.747   1.217  1.00  0.00     0.020 C 
ATOM     17  C   UNL     1       0.719  -3.205   3.558  1.00  0.00     0.020 C 
ATOM     18  C   UNL     1       0.893  -0.856   4.645  1.00  0.00    -0.006 C 
ATOM     19  C   UNL     1       0.289   0.828   2.861  1.00  0.00    -0.027 C 
ATOM     20  C   UNL     1       0.318  -2.299   4.695  1.00  0.00     0.013 C 
ATOM     21  C   UNL     1       2.360  -0.894   5.137  1.00  0.00     0.017 C 
ATOM     22  C   UNL     1      -0.018   0.086   5.649  1.00  0.00    -0.020 C 
ATOM     23  C   UNL     1      -0.828   1.397   3.720  1.00  0.00     0.032 C 
ATOM     24  C   UNL     1      -1.318   0.415   4.832  1.00  0.00     0.006 C 
ATOM     25  C   UNL     1      -0.377  -0.588   6.999  1.00  0.00     0.008 C 
ATOM     26  C   UNL     1       0.754   1.385   6.043  1.00  0.00     0.012 C 
ATOM     27  C   UNL     1      -2.683   0.780   5.605  1.00  0.00    -0.025 C 
ATOM     28  C   UNL     1      -1.448   0.182   7.790  1.00  0.00     0.005 C 
ATOM     29  C   UNL     1      -2.869   2.307   5.566  1.00  0.00     0.012 C 
ATOM     30  C   UNL     1      -3.912   0.146   4.859  1.00  0.00     0.010 C 
ATOM     31  C   UNL     1      -2.775   0.114   7.033  1.00  0.00     0.003 C 
ATOM     32  C   UNL     1      -5.271   0.361   5.544  1.00  0.00     0.033 C 
ATOM     33  C   UNL     1      -4.077   0.459   7.867  1.00  0.00    -0.006 C 
ATOM     34  C   UNL     1      -5.306  -0.016   7.029  1.00  0.00     0.120 C 
ATOM     35  C   UNL     1      -4.197   1.936   8.300  1.00  0.00     0.014 C 
ATOM     36  C   UNL     1      -4.110  -0.343   9.200  1.00  0.00     0.014 C 
BRANCH  34  37
ATOM     37  O   UNL     1      -6.535   0.433   7.601  1.00  0.00    -0.393 OA
ATOM     38  H   UNL     1      -6.577   1.401   7.558  1.00  0.00     0.210 HD
ENDBRANCH  34  37
ENDBRANCH   6   8
ENDBRANCH   5   6
ENDBRANCH   4   5
ENDBRANCH   3   4
ENDBRANCH   2   3
ENDBRANCH   1   2
BRANCH   1  39
ATOM     39  C   UNL     1      -4.534  -2.544   0.594  1.00  0.00     0.261 C 
BRANCH  39  40
ATOM     40  O   UNL     1      -3.842  -2.123  -0.599  1.00  0.00    -0.460 OA
BRANCH  40  41
ATOM     41  C   UNL     1      -4.473  -1.191  -1.347  1.00  0.00     0.338 C 
ATOM     42  O   UNL     1      -5.603  -0.739  -1.196  1.00  0.00    -0.246 OA
BRANCH  41  43
ATOM     43  C   UNL     1      -3.559  -0.686  -2.386  1.00  0.00     0.060 A 
ATOM     44  C   UNL     1      -3.301   0.692  -2.473  1.00  0.00     0.016 A 
ATOM     45  C   UNL     1      -3.071  -1.564  -3.353  1.00  0.00     0.016 A 
ATOM     46  C   UNL     1      -2.611   1.207  -3.566  1.00  0.00     0.010 A 
ATOM     47  C   UNL     1      -2.418  -1.046  -4.469  1.00  0.00     0.010 A 
ATOM     48  C   UNL     1      -2.242   0.343  -4.601  1.00  0.00    -0.014 A 
BRANCH  48  49
ATOM     49  C   UNL     1      -1.938   0.895  -5.936  1.00  0.00     0.031 A 
ATOM     50  C   UNL     1      -3.063   0.964  -6.931  1.00  0.00     0.074 A 
ATOM     51  C   UNL     1      -0.698   1.298  -6.250  1.00  0.00     0.049 A 
ATOM     52  N   UNL     1      -3.029   1.228  -8.209  1.00  0.00    -0.248 NA
ATOM     53  C   UNL     1      -4.413   0.681  -6.410  1.00  0.00     0.031 C 
ATOM     54  C   UNL     1       0.435   1.337  -5.327  1.00  0.00     0.029 A 
ATOM     55  N   UNL     1      -0.182   1.723  -7.444  1.00  0.00    -0.354 N 
ATOM     56  C   UNL     1      -4.343   1.118  -8.649  1.00  0.00     0.074 A 
ATOM     57  C   UNL     1      -5.149   0.749  -7.508  1.00  0.00     0.031 C 
ATOM     58  C   UNL     1       1.528   1.730  -6.003  1.00  0.00     0.029 A 
ATOM     59  C   UNL     1       1.176   1.918  -7.408  1.00  0.00     0.049 A 
ATOM     60  H   UNL     1      -0.730   1.874  -8.248  1.00  0.00     0.167 HD
ATOM     61  C   UNL     1      -4.827   1.305  -9.898  1.00  0.00     0.037 A 
ATOM     62  C   UNL     1       2.033   2.171  -8.415  1.00  0.00     0.037 A 
ATOM     63  C   UNL     1      -3.998   1.665 -11.017  1.00  0.00     0.049 A 
ATOM     64  C   UNL     1       1.488   2.289  -9.814  1.00  0.00     0.074 A 
ATOM     65  C   UNL     1      -4.366   1.889 -12.330  1.00  0.00     0.029 A 
ATOM     66  N   UNL     1      -2.623   1.843 -10.946  1.00  0.00    -0.354 N 
ATOM     67  N   UNL     1       0.247   2.184 -10.230  1.00  0.00    -0.248 NA
ATOM     68  C   UNL     1       2.458   2.556 -10.883  1.00  0.00     0.031 C 
ATOM     69  C   UNL     1      -3.205   2.147 -13.065  1.00  0.00     0.029 A 
ATOM     70  C   UNL     1      -2.122   2.149 -12.198  1.00  0.00     0.049 A 
ATOM     71  H   UNL     1      -2.084   1.764 -10.126  1.00  0.00     0.167 HD
ATOM     72  C   UNL     1       0.282   2.406 -11.601  1.00  0.00     0.074 A 
ATOM     73  C   UNL     1       1.668   2.657 -11.943  1.00  0.00     0.031 C 
ATOM     74  C   UNL     1      -0.735   2.407 -12.498  1.00  0.00     0.037 A 
BRANCH  61  75
ATOM     75  C   UNL     1      -6.294   1.079 -10.121  1.00  0.00     0.057 A 
ATOM     76  C   UNL     1      -7.271   1.938  -9.600  1.00  0.00     0.134 A 
ATOM     77  C   UNL     1      -6.738  -0.010 -10.884  1.00  0.00     0.134 A 
ATOM     78  F   UNL     1      -6.918   2.989  -8.845  1.00  0.00    -0.206 F 
ATOM     79  C   UNL     1      -8.633   1.709  -9.808  1.00  0.00     0.040 A 
ATOM     80  C   UNL     1      -8.095  -0.233 -11.123  1.00  0.00     0.040 A 
ATOM     81  F   UNL     1      -5.859  -0.875 -11.413  1.00  0.00    -0.206 F 
ATOM     82  C   UNL     1      -9.048   0.625 -10.579  1.00  0.00     0.006 A 
ENDBRANCH  61  75
BRANCH  62  83
ATOM     83  C   UNL     1       3.487   2.297  -8.139  1.00  0.00     0.057 A 
ATOM     84  C   UNL     1       4.149   3.520  -8.288  1.00  0.00     0.134 A 
ATOM     85  C   UNL     1       4.250   1.200  -7.719  1.00  0.00     0.134 A 
ATOM     86  F   UNL     1       3.477   4.604  -8.704  1.00  0.00    -0.206 F 
ATOM     87  C   UNL     1       5.518   3.647  -8.044  1.00  0.00     0.040 A 
ATOM     88  C   UNL     1       5.614   1.317  -7.445  1.00  0.00     0.040 A 
ATOM     89  F   UNL     1       3.677  -0.001  -7.550  1.00  0.00    -0.206 F 
ATOM     90  C   UNL     1       6.253   2.543  -7.615  1.00  0.00     0.006 A 
ENDBRANCH  62  83
BRANCH  74  91
ATOM     91  C   UNL     1      -0.395   2.739 -13.921  1.00  0.00     0.057 A 
ATOM     92  C   UNL     1       0.290   1.844 -14.749  1.00  0.00     0.134 A 
ATOM     93  C   UNL     1      -0.822   3.950 -14.484  1.00  0.00     0.134 A 
ATOM     94  F   UNL     1       0.735   0.673 -14.267  1.00  0.00    -0.206 F 
ATOM     95  C   UNL     1       0.556   2.148 -16.085  1.00  0.00     0.040 A 
ATOM     96  C   UNL     1      -0.589   4.251 -15.825  1.00  0.00     0.040 A 
ATOM     97  F   UNL     1      -1.494   4.846 -13.746  1.00  0.00    -0.206 F 
ATOM     98  C   UNL     1       0.107   3.351 -16.628  1.00  0.00     0.006 A 
ENDBRANCH  74  91
ENDBRANCH  48  49
ENDBRANCH  41  43
ENDBRANCH  40  41
ENDBRANCH  39  40
ENDBRANCH   1  39
TORSDOF 15
