REMARK SMILES CS(=O)(=O)c1ccc(C2=NN(c3ccc(C(=O)OCCOCCOC(=O)c4ccc(-c5c6nc(c(-c7c(F)cccc7F)c7ccc([nH]7)c(-c7c(F)cccc7F)c7nc(c(-c8c(F)cccc8F)c8ccc5[nH]8)C=C7)C=C6)cc4)cc3)[C@H](c3cccs3)C2)cc1
REMARK SMILES IDX 20 1 19 2 18 3 16 4 17 5 15 6 12 7 13 8 82 9 14 10 81 11
REMARK SMILES IDX 11 12 9 13 10 14 89 15 83 16 8 17 5 18 6 19 91 20 7 21 90 22
REMARK SMILES IDX 2 23 1 24 3 25 4 26 84 27 85 28 88 29 86 30 87 31 21 32
REMARK SMILES IDX 22 33 23 34 24 35 25 36 26 37 27 38 28 39 80 40 29 41 79 42
REMARK SMILES IDX 30 43 31 44 32 45 73 46 33 47 78 48 72 49 74 50 34 51 77 52
REMARK SMILES IDX 71 53 70 54 35 56 61 57 44 58 60 59 45 60 48 61 59 62 75 63
REMARK SMILES IDX 46 64 47 65 58 67 76 68 49 69 36 70 37 71 42 72 38 73 39 74
REMARK SMILES IDX 41 75 43 76 40 77 62 78 63 79 68 80 64 81 65 82 67 83 69 84
REMARK SMILES IDX 66 85 50 86 51 87 56 88 52 89 53 90 55 91 57 92 54 93
REMARK H PARENT 74 55 48 66
REMARK Flexibility Score: inf
ROOT
ATOM      1  C   UNL     1       7.080  11.975  -9.818  1.00  0.00     0.202 C 
ENDROOT
BRANCH   1   2
ATOM      2  C   UNL     1       6.374  12.767  -8.714  1.00  0.00     0.261 C 
BRANCH   2   3
ATOM      3  O   UNL     1       6.040  11.907  -7.614  1.00  0.00    -0.460 OA
BRANCH   3   4
ATOM      4  C   UNL     1       4.716  11.691  -7.425  1.00  0.00     0.338 C 
ATOM      5  O   UNL     1       3.796  12.275  -7.979  1.00  0.00    -0.246 OA
BRANCH   4   6
ATOM      6  C   UNL     1       4.505  10.551  -6.499  1.00  0.00     0.060 A 
ATOM      7  C   UNL     1       3.918   8.510  -4.661  1.00  0.00     0.060 A 
ATOM      8  C   UNL     1       2.976   8.881  -5.625  1.00  0.00     0.029 A 
ATOM      9  C   UNL     1       5.190   9.099  -4.698  1.00  0.00     0.029 A 
ATOM     10  C   UNL     1       3.263   9.904  -6.532  1.00  0.00     0.018 A 
ATOM     11  C   UNL     1       5.489  10.116  -5.607  1.00  0.00     0.018 A 
BRANCH   7  12
ATOM     12  N   UNL     1       3.567   7.702  -3.578  1.00  0.00    -0.257 N 
ATOM     13  C   UNL     1       2.360   6.171  -2.728  1.00  0.00     0.071 C 
ATOM     14  N   UNL     1       3.099   6.442  -3.760  1.00  0.00    -0.176 NA
ATOM     15  C   UNL     1       2.096   7.316  -1.788  1.00  0.00     0.091 C 
ATOM     16  C   UNL     1       3.032   8.371  -2.381  1.00  0.00     0.154 C 
BRANCH  13  17
ATOM     17  C   UNL     1       1.814   4.828  -2.466  1.00  0.00    -0.002 A 
ATOM     18  C   UNL     1       0.879   2.255  -1.967  1.00  0.00     0.067 A 
ATOM     19  C   UNL     1       2.177   2.434  -2.453  1.00  0.00     0.021 A 
ATOM     20  C   UNL     1       0.040   3.353  -1.744  1.00  0.00     0.021 A 
ATOM     21  C   UNL     1       2.642   3.725  -2.705  1.00  0.00     0.011 A 
ATOM     22  C   UNL     1       0.514   4.647  -1.982  1.00  0.00     0.011 A 
BRANCH  18  23
ATOM     23  S   UNL     1       0.272   0.604  -1.705  1.00  0.00     0.175 S 
ATOM     24  C   UNL     1       0.916   0.172  -0.110  1.00  0.00     0.163 C 
ATOM     25  O   UNL     1       0.907  -0.249  -2.695  1.00  0.00    -0.224 OA
ATOM     26  O   UNL     1      -1.170   0.678  -1.601  1.00  0.00    -0.224 OA
ENDBRANCH  18  23
ENDBRANCH  13  17
BRANCH  16  27
ATOM     27  C   UNL     1       4.105   8.925  -1.466  1.00  0.00     0.030 A 
ATOM     28  C   UNL     1       4.671  10.189  -1.548  1.00  0.00     0.017 A 
ATOM     29  S   UNL     1       4.883   7.987  -0.261  1.00  0.00    -0.147 S 
ATOM     30  C   UNL     1       5.755  10.368  -0.645  1.00  0.00     0.012 A 
ATOM     31  C   UNL     1       5.960   9.253   0.134  1.00  0.00     0.065 A 
ENDBRANCH  16  27
ENDBRANCH   7  12
ENDBRANCH   4   6
ENDBRANCH   3   4
ENDBRANCH   2   3
ENDBRANCH   1   2
BRANCH   1  32
ATOM     32  O   UNL     1       6.276  11.001 -10.485  1.00  0.00    -0.374 OA
BRANCH  32  33
ATOM     33  C   UNL     1       6.124   9.735  -9.838  1.00  0.00     0.202 C 
BRANCH  33  34
ATOM     34  C   UNL     1       7.273   8.742 -10.043  1.00  0.00     0.261 C 
BRANCH  34  35
ATOM     35  O   UNL     1       8.478   9.183  -9.390  1.00  0.00    -0.460 OA
BRANCH  35  36
ATOM     36  C   UNL     1       9.460   9.594 -10.225  1.00  0.00     0.338 C 
ATOM     37  O   UNL     1       9.464   9.548 -11.447  1.00  0.00    -0.246 OA
BRANCH  36  38
ATOM     38  C   UNL     1      10.515  10.287  -9.462  1.00  0.00     0.060 A 
ATOM     39  C   UNL     1      10.934  11.538  -9.932  1.00  0.00     0.016 A 
ATOM     40  C   UNL     1      11.137   9.701  -8.357  1.00  0.00     0.016 A 
ATOM     41  C   UNL     1      12.014  12.184  -9.335  1.00  0.00     0.010 A 
ATOM     42  C   UNL     1      12.228  10.347  -7.763  1.00  0.00     0.010 A 
ATOM     43  C   UNL     1      12.693  11.573  -8.272  1.00  0.00    -0.014 A 
BRANCH  43  44
ATOM     44  C   UNL     1      13.979  12.145  -7.805  1.00  0.00     0.031 A 
ATOM     45  C   UNL     1      15.266  11.553  -8.315  1.00  0.00     0.074 A 
ATOM     46  C   UNL     1      14.005  13.204  -6.976  1.00  0.00     0.049 A 
ATOM     47  N   UNL     1      16.501  11.872  -8.021  1.00  0.00    -0.248 NA
ATOM     48  C   UNL     1      15.143  10.458  -9.291  1.00  0.00     0.031 C 
ATOM     49  C   UNL     1      12.830  13.899  -6.454  1.00  0.00     0.029 A 
ATOM     50  N   UNL     1      15.068  13.879  -6.429  1.00  0.00    -0.354 N 
ATOM     51  C   UNL     1      17.299  11.025  -8.779  1.00  0.00     0.074 A 
ATOM     52  C   UNL     1      16.412  10.153  -9.518  1.00  0.00     0.031 C 
ATOM     53  C   UNL     1      13.237  14.900  -5.654  1.00  0.00     0.029 A 
ATOM     54  C   UNL     1      14.697  14.898  -5.586  1.00  0.00     0.049 A 
ATOM     55  H   UNL     1      16.006  13.654  -6.622  1.00  0.00     0.167 HD
ATOM     56  C   UNL     1      18.650  10.986  -8.864  1.00  0.00     0.037 A 
ATOM     57  C   UNL     1      15.453  15.720  -4.833  1.00  0.00     0.037 A 
ATOM     58  C   UNL     1      19.536  11.846  -8.125  1.00  0.00     0.049 A 
ATOM     59  C   UNL     1      16.953  15.592  -4.875  1.00  0.00     0.074 A 
ATOM     60  C   UNL     1      20.920  11.866  -8.126  1.00  0.00     0.029 A 
ATOM     61  N   UNL     1      19.121  12.840  -7.253  1.00  0.00    -0.354 N 
ATOM     62  N   UNL     1      17.697  14.788  -5.595  1.00  0.00    -0.248 NA
ATOM     63  C   UNL     1      17.720  16.490  -3.998  1.00  0.00     0.031 C 
ATOM     64  C   UNL     1      21.343  12.852  -7.229  1.00  0.00     0.029 A 
ATOM     65  C   UNL     1      20.223  13.473  -6.702  1.00  0.00     0.049 A 
ATOM     66  H   UNL     1      18.183  13.064  -7.055  1.00  0.00     0.167 HD
ATOM     67  C   UNL     1      19.014  15.108  -5.286  1.00  0.00     0.074 A 
ATOM     68  C   UNL     1      18.968  16.185  -4.320  1.00  0.00     0.031 C 
ATOM     69  C   UNL     1      20.159  14.560  -5.760  1.00  0.00     0.037 A 
BRANCH  56  70
ATOM     70  C   UNL     1      19.255   9.972  -9.787  1.00  0.00     0.057 A 
ATOM     71  C   UNL     1      19.216  10.132 -11.178  1.00  0.00     0.134 A 
ATOM     72  C   UNL     1      19.922   8.849  -9.283  1.00  0.00     0.134 A 
ATOM     73  F   UNL     1      18.579  11.179 -11.724  1.00  0.00    -0.206 F 
ATOM     74  C   UNL     1      19.807   9.203 -12.036  1.00  0.00     0.040 A 
ATOM     75  C   UNL     1      20.536   7.925 -10.129  1.00  0.00     0.040 A 
ATOM     76  F   UNL     1      19.999   8.639  -7.960  1.00  0.00    -0.206 F 
ATOM     77  C   UNL     1      20.477   8.099 -11.511  1.00  0.00     0.006 A 
ENDBRANCH  56  70
BRANCH  57  78
ATOM     78  C   UNL     1      14.816  16.735  -3.955  1.00  0.00     0.057 A 
ATOM     79  C   UNL     1      14.956  18.104  -4.210  1.00  0.00     0.134 A 
ATOM     80  C   UNL     1      14.103  16.361  -2.810  1.00  0.00     0.134 A 
ATOM     81  F   UNL     1      15.651  18.524  -5.277  1.00  0.00    -0.206 F 
ATOM     82  C   UNL     1      14.435  19.066  -3.343  1.00  0.00     0.040 A 
ATOM     83  C   UNL     1      13.554  17.312  -1.948  1.00  0.00     0.040 A 
ATOM     84  F   UNL     1      13.934  15.066  -2.508  1.00  0.00    -0.206 F 
ATOM     85  C   UNL     1      13.729  18.670  -2.209  1.00  0.00     0.006 A 
ENDBRANCH  57  78
BRANCH  69  86
ATOM     86  C   UNL     1      21.454  15.151  -5.285  1.00  0.00     0.057 A 
ATOM     87  C   UNL     1      21.937  14.931  -3.989  1.00  0.00     0.134 A 
ATOM     88  C   UNL     1      22.244  15.919  -6.150  1.00  0.00     0.134 A 
ATOM     89  F   UNL     1      21.222  14.214  -3.109  1.00  0.00    -0.206 F 
ATOM     90  C   UNL     1      23.151  15.473  -3.563  1.00  0.00     0.040 A 
ATOM     91  C   UNL     1      23.470  16.446  -5.743  1.00  0.00     0.040 A 
ATOM     92  F   UNL     1      21.842  16.159  -7.407  1.00  0.00    -0.206 F 
ATOM     93  C   UNL     1      23.924  16.229  -4.444  1.00  0.00     0.006 A 
ENDBRANCH  69  86
ENDBRANCH  43  44
ENDBRANCH  36  38
ENDBRANCH  35  36
ENDBRANCH  34  35
ENDBRANCH  33  34
ENDBRANCH  32  33
ENDBRANCH   1  32
TORSDOF 18
