REMARK SMILES C[C@]1(Cn2c(=O)[nH]c3cc(C(=O)OCCOCCOC(=O)c4ccc(-c5c6nc(c(-c7c(F)cccc7F)c7ccc([nH]7)c(-c7c(F)cccc7F)c7nc(c(-c8c(F)cccc8F)c8ccc5[nH]8)C=C7)C=C6)cc4)ccc32)CCCO1
REMARK SMILES IDX 16 1 15 2 14 3 13 4 11 5 12 6 10 7 4 8 5 9 78 10 6 11 7 12
REMARK SMILES IDX 8 13 77 14 9 16 76 17 3 18 2 19 1 20 79 21 82 22 80 23 81 24
REMARK SMILES IDX 17 25 18 26 19 27 20 28 21 29 22 30 23 31 75 32 24 33 74 34
REMARK SMILES IDX 25 35 26 36 27 37 68 38 28 39 73 40 67 41 69 42 29 43 72 44
REMARK SMILES IDX 66 45 65 46 30 48 56 49 39 50 55 51 40 52 43 53 54 54 70 55
REMARK SMILES IDX 41 56 42 57 53 59 71 60 44 61 31 62 32 63 37 64 33 65 34 66
REMARK SMILES IDX 36 67 38 68 35 69 57 70 58 71 63 72 59 73 60 74 62 75 64 76
REMARK SMILES IDX 61 77 45 78 46 79 51 80 47 81 48 82 50 83 52 84 49 85
REMARK H PARENT 7 15 69 47 43 58
REMARK Flexibility Score: inf
ROOT
ATOM      1  O   UNL     1       9.023  -3.991  -0.423  1.00  0.00    -0.374 OA
ENDROOT
BRANCH   1   2
ATOM      2  C   UNL     1       9.327  -3.955  -1.813  1.00  0.00     0.202 C 
BRANCH   2   3
ATOM      3  C   UNL     1       8.175  -4.130  -2.807  1.00  0.00     0.261 C 
BRANCH   3   4
ATOM      4  O   UNL     1       7.090  -3.257  -2.502  1.00  0.00    -0.460 OA
BRANCH   4   5
ATOM      5  C   UNL     1       6.008  -3.902  -2.017  1.00  0.00     0.338 C 
ATOM      6  O   UNL     1       5.799  -5.104  -2.012  1.00  0.00    -0.246 OA
BRANCH   5   7
ATOM      7  C   UNL     1       5.126  -2.943  -1.330  1.00  0.00     0.062 A 
ATOM      8  N   UNL     1       2.029  -0.886   0.382  1.00  0.00    -0.289 N 
ATOM      9  C   UNL     1       1.591  -1.847   1.331  1.00  0.00     0.326 A 
ATOM     10  C   UNL     1       3.219  -1.337  -0.202  1.00  0.00     0.069 A 
ATOM     11  O   UNL     1       0.597  -1.829   2.014  1.00  0.00    -0.248 OA
ATOM     12  N   UNL     1       2.519  -2.902   1.270  1.00  0.00    -0.306 N 
ATOM     13  C   UNL     1       3.459  -2.617   0.294  1.00  0.00     0.067 A 
ATOM     14  C   UNL     1       4.029  -0.774  -1.165  1.00  0.00     0.029 A 
ATOM     15  H   UNL     1       2.503  -3.711   1.830  1.00  0.00     0.171 HD
ATOM     16  C   UNL     1       4.406  -3.446  -0.241  1.00  0.00     0.044 A 
ATOM     17  C   UNL     1       4.987  -1.602  -1.756  1.00  0.00     0.018 A 
BRANCH   8  18
ATOM     18  C   UNL     1       1.198   0.192  -0.111  1.00  0.00     0.162 C 
BRANCH  18  19
ATOM     19  C   UNL     1       0.471  -0.099  -1.458  1.00  0.00     0.083 C 
ATOM     20  C   UNL     1       1.381   0.128  -2.679  1.00  0.00     0.044 C 
ATOM     21  C   UNL     1      -0.207  -1.468  -1.512  1.00  0.00     0.039 C 
ATOM     22  O   UNL     1      -0.627   0.834  -1.612  1.00  0.00    -0.373 OA
ATOM     23  C   UNL     1      -1.272  -1.265  -2.563  1.00  0.00     0.031 C 
ATOM     24  C   UNL     1      -1.681   0.180  -2.346  1.00  0.00     0.161 C 
ENDBRANCH  18  19
ENDBRANCH   8  18
ENDBRANCH   5   7
ENDBRANCH   4   5
ENDBRANCH   3   4
ENDBRANCH   2   3
ENDBRANCH   1   2
BRANCH   1  25
ATOM     25  C   UNL     1       8.490  -2.802   0.176  1.00  0.00     0.202 C 
BRANCH  25  26
ATOM     26  C   UNL     1       9.390  -1.554   0.230  1.00  0.00     0.261 C 
BRANCH  26  27
ATOM     27  O   UNL     1       9.500  -0.961  -1.074  1.00  0.00    -0.460 OA
BRANCH  27  28
ATOM     28  C   UNL     1      10.741  -0.507  -1.400  1.00  0.00     0.338 C 
ATOM     29  O   UNL     1      11.619  -0.141  -0.645  1.00  0.00    -0.246 OA
BRANCH  28  30
ATOM     30  C   UNL     1      10.951  -0.958  -2.791  1.00  0.00     0.060 A 
ATOM     31  C   UNL     1       9.964  -0.749  -3.760  1.00  0.00     0.016 A 
ATOM     32  C   UNL     1      11.970  -1.906  -2.980  1.00  0.00     0.016 A 
ATOM     33  C   UNL     1       9.946  -1.567  -4.882  1.00  0.00     0.010 A 
ATOM     34  C   UNL     1      11.925  -2.745  -4.086  1.00  0.00     0.010 A 
ATOM     35  C   UNL     1      10.891  -2.598  -5.015  1.00  0.00    -0.014 A 
BRANCH  35  36
ATOM     36  C   UNL     1      10.851  -3.403  -6.237  1.00  0.00     0.031 A 
ATOM     37  C   UNL     1      11.322  -2.672  -7.444  1.00  0.00     0.074 A 
ATOM     38  C   UNL     1      10.579  -4.723  -6.300  1.00  0.00     0.049 A 
ATOM     39  N   UNL     1      10.703  -2.459  -8.559  1.00  0.00    -0.248 NA
ATOM     40  C   UNL     1      12.638  -2.019  -7.347  1.00  0.00     0.031 C 
ATOM     41  C   UNL     1      10.428  -5.661  -5.189  1.00  0.00     0.029 A 
ATOM     42  N   UNL     1      10.478  -5.531  -7.400  1.00  0.00    -0.354 N 
ATOM     43  C   UNL     1      11.616  -1.789  -9.370  1.00  0.00     0.074 A 
ATOM     44  C   UNL     1      12.728  -1.424  -8.534  1.00  0.00     0.031 C 
ATOM     45  C   UNL     1      10.426  -6.926  -5.663  1.00  0.00     0.029 A 
ATOM     46  C   UNL     1      10.514  -6.889  -7.112  1.00  0.00     0.049 A 
ATOM     47  H   UNL     1      10.389  -5.180  -8.315  1.00  0.00     0.167 HD
ATOM     48  C   UNL     1      11.505  -1.769 -10.724  1.00  0.00     0.037 A 
ATOM     49  C   UNL     1      10.695  -7.914  -7.982  1.00  0.00     0.037 A 
ATOM     50  C   UNL     1      10.168  -2.056 -11.163  1.00  0.00     0.049 A 
ATOM     51  C   UNL     1      10.439  -7.415  -9.352  1.00  0.00     0.074 A 
ATOM     52  C   UNL     1       8.928  -1.480 -10.967  1.00  0.00     0.029 A 
ATOM     53  N   UNL     1       9.919  -3.281 -11.727  1.00  0.00    -0.354 N 
ATOM     54  N   UNL     1       9.262  -7.128  -9.828  1.00  0.00    -0.248 NA
ATOM     55  C   UNL     1      11.562  -6.862 -10.095  1.00  0.00     0.031 C 
ATOM     56  C   UNL     1       8.004  -2.566 -10.983  1.00  0.00     0.029 A 
ATOM     57  C   UNL     1       8.739  -3.731 -11.199  1.00  0.00     0.049 A 
ATOM     58  H   UNL     1      10.482  -3.748 -12.386  1.00  0.00     0.167 HD
ATOM     59  C   UNL     1       9.472  -6.034 -10.653  1.00  0.00     0.074 A 
ATOM     60  C   UNL     1      10.914  -5.988 -10.867  1.00  0.00     0.031 C 
ATOM     61  C   UNL     1       8.490  -5.108 -10.856  1.00  0.00     0.037 A 
BRANCH  48  62
ATOM     62  C   UNL     1      12.693  -1.848 -11.651  1.00  0.00     0.057 A 
ATOM     63  C   UNL     1      13.941  -2.398 -11.288  1.00  0.00     0.134 A 
ATOM     64  C   UNL     1      12.502  -1.659 -13.031  1.00  0.00     0.134 A 
ATOM     65  F   UNL     1      14.246  -2.715 -10.023  1.00  0.00    -0.206 F 
ATOM     66  C   UNL     1      14.913  -2.754 -12.224  1.00  0.00     0.040 A 
ATOM     67  C   UNL     1      13.447  -2.065 -13.980  1.00  0.00     0.040 A 
ATOM     68  F   UNL     1      11.352  -1.156 -13.504  1.00  0.00    -0.206 F 
ATOM     69  C   UNL     1      14.654  -2.623 -13.578  1.00  0.00     0.006 A 
ENDBRANCH  48  62
BRANCH  49  70
ATOM     70  C   UNL     1      11.313  -9.237  -7.731  1.00  0.00     0.057 A 
ATOM     71  C   UNL     1      12.317  -9.407  -6.761  1.00  0.00     0.134 A 
ATOM     72  C   UNL     1      11.105 -10.323  -8.594  1.00  0.00     0.134 A 
ATOM     73  F   UNL     1      12.672  -8.403  -5.947  1.00  0.00    -0.206 F 
ATOM     74  C   UNL     1      13.059 -10.585  -6.643  1.00  0.00     0.040 A 
ATOM     75  C   UNL     1      11.854 -11.505  -8.497  1.00  0.00     0.040 A 
ATOM     76  F   UNL     1      10.208 -10.244  -9.587  1.00  0.00    -0.206 F 
ATOM     77  C   UNL     1      12.837 -11.637  -7.521  1.00  0.00     0.006 A 
ENDBRANCH  49  70
BRANCH  61  78
ATOM     78  C   UNL     1       7.102  -5.462 -10.412  1.00  0.00     0.057 A 
ATOM     79  C   UNL     1       6.067  -5.450 -11.353  1.00  0.00     0.134 A 
ATOM     80  C   UNL     1       6.749  -5.685  -9.074  1.00  0.00     0.134 A 
ATOM     81  F   UNL     1       6.327  -5.181 -12.643  1.00  0.00    -0.206 F 
ATOM     82  C   UNL     1       4.739  -5.673 -10.985  1.00  0.00     0.040 A 
ATOM     83  C   UNL     1       5.428  -5.944  -8.698  1.00  0.00     0.040 A 
ATOM     84  F   UNL     1       7.660  -5.607  -8.094  1.00  0.00    -0.206 F 
ATOM     85  C   UNL     1       4.418  -5.934  -9.655  1.00  0.00     0.006 A 
ENDBRANCH  61  78
ENDBRANCH  35  36
ENDBRANCH  28  30
ENDBRANCH  27  28
ENDBRANCH  26  27
ENDBRANCH  25  26
ENDBRANCH   1  25
TORSDOF 16
