REMARK SMILES O=C(COC[C@@H]1CCCCO1)OCCOCCOC(=O)c1ccc(-c2c3nc(c(-c4c(F)cccc4F)c4ccc([nH]4)c(-c4c(F)cccc4F)c4nc(c(-c5c(F)cccc5F)c5ccc2[nH]5)C=C4)C=C3)cc1
REMARK SMILES IDX 14 1 13 2 12 3 2 4 1 5 3 6 4 7 5 8 6 9 7 10 11 11 8 12 10 13
REMARK SMILES IDX 9 14 15 15 16 16 17 17 18 18 19 19 20 20 21 21 22 22 74 23
REMARK SMILES IDX 23 24 73 25 24 26 25 27 26 28 67 29 27 30 72 31 66 32 68 33
REMARK SMILES IDX 28 34 71 35 65 36 64 37 29 39 55 40 38 41 54 42 39 43 42 44
REMARK SMILES IDX 53 45 69 46 40 47 41 48 52 50 70 51 43 52 30 53 31 54 36 55
REMARK SMILES IDX 32 56 33 57 35 58 37 59 34 60 56 61 57 62 62 63 58 64 59 65
REMARK SMILES IDX 61 66 63 67 60 68 44 69 45 70 50 71 46 72 47 73 49 74 51 75
REMARK SMILES IDX 48 76
REMARK H PARENT 68 38 42 49
REMARK Flexibility Score: inf
ROOT
ATOM      1  C   UNL     1       4.754   1.234   0.363  1.00  0.00     0.202 C 
ENDROOT
BRANCH   1   2
ATOM      2  C   UNL     1       4.380   0.300  -0.784  1.00  0.00     0.261 C 
BRANCH   2   3
ATOM      3  O   UNL     1       2.959   0.314  -1.018  1.00  0.00    -0.462 OA
BRANCH   3   4
ATOM      4  C   UNL     1       2.114  -0.496  -0.338  1.00  0.00     0.332 C 
ATOM      5  O   UNL     1       0.897  -0.334  -0.406  1.00  0.00    -0.250 OA
BRANCH   4   6
ATOM      6  C   UNL     1       2.724  -1.615   0.490  1.00  0.00     0.282 C 
BRANCH   6   7
ATOM      7  O   UNL     1       3.477  -2.557  -0.252  1.00  0.00    -0.367 OA
BRANCH   7   8
ATOM      8  C   UNL     1       2.702  -3.258  -1.219  1.00  0.00     0.193 C 
BRANCH   8   9
ATOM      9  C   UNL     1       1.623  -4.146  -0.572  1.00  0.00     0.144 C 
ATOM     10  C   UNL     1       2.156  -4.958   0.615  1.00  0.00     0.034 C 
ATOM     11  O   UNL     1       0.988  -4.999  -1.527  1.00  0.00    -0.376 OA
ATOM     12  C   UNL     1       3.116  -6.035   0.136  1.00  0.00     0.005 C 
ATOM     13  C   UNL     1       1.832  -6.026  -2.044  1.00  0.00     0.160 C 
ATOM     14  C   UNL     1       2.441  -6.879  -0.937  1.00  0.00     0.029 C 
ENDBRANCH   8   9
ENDBRANCH   7   8
ENDBRANCH   6   7
ENDBRANCH   4   6
ENDBRANCH   3   4
ENDBRANCH   2   3
ENDBRANCH   1   2
BRANCH   1  15
ATOM     15  O   UNL     1       4.339   0.829   1.669  1.00  0.00    -0.374 OA
BRANCH  15  16
ATOM     16  C   UNL     1       3.066   1.310   2.117  1.00  0.00     0.202 C 
BRANCH  16  17
ATOM     17  C   UNL     1       3.065   2.687   2.781  1.00  0.00     0.261 C 
BRANCH  17  18
ATOM     18  O   UNL     1       3.348   3.711   1.821  1.00  0.00    -0.460 OA
BRANCH  18  19
ATOM     19  C   UNL     1       4.650   4.066   1.730  1.00  0.00     0.338 C 
ATOM     20  O   UNL     1       5.568   3.724   2.456  1.00  0.00    -0.246 OA
BRANCH  19  21
ATOM     21  C   UNL     1       4.841   4.766   0.447  1.00  0.00     0.060 A 
ATOM     22  C   UNL     1       5.960   4.427  -0.332  1.00  0.00     0.016 A 
ATOM     23  C   UNL     1       3.922   5.718   0.006  1.00  0.00     0.016 A 
ATOM     24  C   UNL     1       6.197   5.088  -1.531  1.00  0.00     0.010 A 
ATOM     25  C   UNL     1       4.166   6.389  -1.185  1.00  0.00     0.010 A 
ATOM     26  C   UNL     1       5.329   6.109  -1.926  1.00  0.00    -0.014 A 
BRANCH  26  27
ATOM     27  C   UNL     1       5.729   7.071  -2.968  1.00  0.00     0.031 A 
ATOM     28  C   UNL     1       6.266   8.394  -2.512  1.00  0.00     0.074 A 
ATOM     29  C   UNL     1       5.535   6.803  -4.267  1.00  0.00     0.049 A 
ATOM     30  N   UNL     1       6.475   9.487  -3.193  1.00  0.00    -0.248 NA
ATOM     31  C   UNL     1       6.579   8.503  -1.077  1.00  0.00     0.031 C 
ATOM     32  C   UNL     1       5.048   5.537  -4.806  1.00  0.00     0.029 A 
ATOM     33  N   UNL     1       5.684   7.611  -5.363  1.00  0.00    -0.354 N 
ATOM     34  C   UNL     1       6.909  10.425  -2.265  1.00  0.00     0.074 A 
ATOM     35  C   UNL     1       6.908   9.780  -0.971  1.00  0.00     0.031 C 
ATOM     36  C   UNL     1       4.894   5.665  -6.134  1.00  0.00     0.029 A 
ATOM     37  C   UNL     1       5.227   7.035  -6.521  1.00  0.00     0.049 A 
ATOM     38  H   UNL     1       6.079   8.512  -5.324  1.00  0.00     0.167 HD
ATOM     39  C   UNL     1       7.268  11.711  -2.479  1.00  0.00     0.037 A 
ATOM     40  C   UNL     1       5.052   7.577  -7.741  1.00  0.00     0.037 A 
ATOM     41  C   UNL     1       7.250  12.330  -3.776  1.00  0.00     0.049 A 
ATOM     42  C   UNL     1       5.411   9.022  -7.956  1.00  0.00     0.074 A 
ATOM     43  C   UNL     1       7.629  13.611  -4.127  1.00  0.00     0.029 A 
ATOM     44  N   UNL     1       6.811  11.706  -4.937  1.00  0.00    -0.354 N 
ATOM     45  N   UNL     1       5.852   9.902  -7.087  1.00  0.00    -0.248 NA
ATOM     46  C   UNL     1       5.254   9.549  -9.317  1.00  0.00     0.031 C 
ATOM     47  C   UNL     1       7.359  13.784  -5.489  1.00  0.00     0.029 A 
ATOM     48  C   UNL     1       6.880  12.586  -6.002  1.00  0.00     0.049 A 
ATOM     49  H   UNL     1       6.496  10.775  -4.994  1.00  0.00     0.167 HD
ATOM     50  C   UNL     1       6.056  11.077  -7.801  1.00  0.00     0.074 A 
ATOM     51  C   UNL     1       5.689  10.794  -9.175  1.00  0.00     0.031 C 
ATOM     52  C   UNL     1       6.515  12.276  -7.363  1.00  0.00     0.037 A 
BRANCH  39  53
ATOM     53  C   UNL     1       7.651  12.526  -1.277  1.00  0.00     0.057 A 
ATOM     54  C   UNL     1       8.804  12.258  -0.525  1.00  0.00     0.134 A 
ATOM     55  C   UNL     1       6.837  13.583  -0.849  1.00  0.00     0.134 A 
ATOM     56  F   UNL     1       9.620  11.249  -0.867  1.00  0.00    -0.206 F 
ATOM     57  C   UNL     1       9.108  12.981   0.631  1.00  0.00     0.040 A 
ATOM     58  C   UNL     1       7.149  14.335   0.285  1.00  0.00     0.040 A 
ATOM     59  F   UNL     1       5.719  13.897  -1.520  1.00  0.00    -0.206 F 
ATOM     60  C   UNL     1       8.281  14.026   1.036  1.00  0.00     0.006 A 
ENDBRANCH  39  53
BRANCH  40  61
ATOM     61  C   UNL     1       4.497   6.740  -8.832  1.00  0.00     0.057 A 
ATOM     62  C   UNL     1       5.304   6.301  -9.886  1.00  0.00     0.134 A 
ATOM     63  C   UNL     1       3.162   6.316  -8.820  1.00  0.00     0.134 A 
ATOM     64  F   UNL     1       6.586   6.687  -9.960  1.00  0.00    -0.206 F 
ATOM     65  C   UNL     1       4.805   5.470 -10.891  1.00  0.00     0.040 A 
ATOM     66  C   UNL     1       2.656   5.466  -9.804  1.00  0.00     0.040 A 
ATOM     67  F   UNL     1       2.340   6.696  -7.831  1.00  0.00    -0.206 F 
ATOM     68  C   UNL     1       3.479   5.042 -10.845  1.00  0.00     0.006 A 
ENDBRANCH  40  61
BRANCH  52  69
ATOM     69  C   UNL     1       6.701  13.361  -8.384  1.00  0.00     0.057 A 
ATOM     70  C   UNL     1       5.619  14.037  -8.960  1.00  0.00     0.134 A 
ATOM     71  C   UNL     1       7.990  13.786  -8.733  1.00  0.00     0.134 A 
ATOM     72  F   UNL     1       4.359  13.672  -8.675  1.00  0.00    -0.206 F 
ATOM     73  C   UNL     1       5.813  15.088  -9.857  1.00  0.00     0.040 A 
ATOM     74  C   UNL     1       8.196  14.854  -9.605  1.00  0.00     0.040 A 
ATOM     75  F   UNL     1       9.070  13.188  -8.207  1.00  0.00    -0.206 F 
ATOM     76  C   UNL     1       7.105  15.506 -10.173  1.00  0.00     0.006 A 
ENDBRANCH  52  69
ENDBRANCH  26  27
ENDBRANCH  19  21
ENDBRANCH  18  19
ENDBRANCH  17  18
ENDBRANCH  16  17
ENDBRANCH  15  16
ENDBRANCH   1  15
TORSDOF 17
