REMARK SMILES C[C@@H]1C[N@@H+](CC(C)(C)C(=O)OCCOCCOC(=O)c2ccc(-c3c4nc(c(-c5c(F)cccc5F)c5ccc([nH]5)c(-c5c(F)cccc5F)c5nc(c(-c6c(F)cccc6F)c6ccc3[nH]6)C=C5)C=C4)cc2)CC[C@@H]1[NH3+]
REMARK SMILES IDX 13 1 12 2 11 3 9 4 10 5 6 6 7 7 8 8 5 9 4 10 1 11 2 12 3 13
REMARK SMILES IDX 76 14 75 15 74 16 77 18 14 22 15 23 16 24 17 25 18 26 19 27
REMARK SMILES IDX 20 28 21 29 73 30 22 31 72 32 23 33 24 34 25 35 66 36 26 37
REMARK SMILES IDX 71 38 65 39 67 40 27 41 70 42 64 43 63 44 28 46 54 47 37 48
REMARK SMILES IDX 53 49 38 50 41 51 52 52 68 53 39 54 40 55 51 57 69 58 42 59
REMARK SMILES IDX 29 60 30 61 35 62 31 63 32 64 34 65 36 66 33 67 55 68 56 69
REMARK SMILES IDX 61 70 57 71 58 72 60 73 62 74 59 75 43 76 44 77 49 78 45 79
REMARK SMILES IDX 46 80 48 81 50 82 47 83
REMARK H PARENT 4 17 77 19 77 20 77 21 67 45 41 56
REMARK Flexibility Score: inf
ROOT
ATOM      1  C   UNL     1       1.707  -4.315   4.747  1.00  0.00     0.202 C 
ENDROOT
BRANCH   1   2
ATOM      2  C   UNL     1       0.188  -4.096   4.973  1.00  0.00     0.261 C 
BRANCH   2   3
ATOM      3  O   UNL     1      -0.707  -4.573   3.954  1.00  0.00    -0.463 OA
BRANCH   3   4
ATOM      4  C   UNL     1      -0.693  -3.714   2.900  1.00  0.00     0.317 C 
ATOM      5  O   UNL     1       0.095  -2.784   2.910  1.00  0.00    -0.251 OA
BRANCH   4   6
ATOM      6  C   UNL     1      -1.685  -4.013   1.771  1.00  0.00     0.111 C 
ATOM      7  C   UNL     1      -3.078  -3.557   2.216  1.00  0.00     0.029 C 
ATOM      8  C   UNL     1      -1.756  -5.549   1.552  1.00  0.00     0.029 C 
BRANCH   6   9
ATOM      9  C   UNL     1      -1.231  -3.370   0.385  1.00  0.00     0.280 C 
BRANCH   9  10
ATOM     10  N   UNL     1      -1.052  -1.922   0.066  1.00  0.00    -0.333 N 
ATOM     11  C   UNL     1       1.022   0.434  -0.743  1.00  0.00     0.020 C 
ATOM     12  C   UNL     1       0.340   0.181   0.596  1.00  0.00     0.099 C 
ATOM     13  C   UNL     1       0.035  -1.297   0.828  1.00  0.00     0.271 C 
ATOM     14  C   UNL     1      -0.988   0.917   0.834  1.00  0.00     0.194 C 
ATOM     15  C   UNL     1      -2.058   0.379  -0.120  1.00  0.00     0.126 C 
ATOM     16  C   UNL     1      -2.281  -1.130   0.101  1.00  0.00     0.268 C 
ATOM     17  H   UNL     1      -0.768  -1.920  -0.914  1.00  0.00     0.348 HD
BRANCH  14  18
ATOM     18  N   UNL     1      -0.823   2.368   0.768  1.00  0.00    -0.355 N 
ATOM     19  H   UNL     1      -0.502   2.631  -0.164  1.00  0.00     0.344 HD
ATOM     20  H   UNL     1      -0.136   2.664   1.461  1.00  0.00     0.344 HD
ATOM     21  H   UNL     1      -1.717   2.820   0.960  1.00  0.00     0.344 HD
ENDBRANCH  14  18
ENDBRANCH   9  10
ENDBRANCH   6   9
ENDBRANCH   4   6
ENDBRANCH   3   4
ENDBRANCH   2   3
ENDBRANCH   1   2
BRANCH   1  22
ATOM     22  O   UNL     1       2.327  -4.295   3.468  1.00  0.00    -0.374 OA
BRANCH  22  23
ATOM     23  C   UNL     1       1.988  -5.242   2.463  1.00  0.00     0.202 C 
BRANCH  23  24
ATOM     24  C   UNL     1       2.089  -6.742   2.748  1.00  0.00     0.261 C 
BRANCH  24  25
ATOM     25  O   UNL     1       1.331  -7.141   3.897  1.00  0.00    -0.460 OA
BRANCH  25  26
ATOM     26  C   UNL     1       2.095  -7.577   4.928  1.00  0.00     0.338 C 
ATOM     27  O   UNL     1       3.300  -7.749   4.941  1.00  0.00    -0.246 OA
BRANCH  26  28
ATOM     28  C   UNL     1       1.290  -7.604   6.160  1.00  0.00     0.060 A 
ATOM     29  C   UNL     1       1.766  -6.859   7.248  1.00  0.00     0.016 A 
ATOM     30  C   UNL     1       0.153  -8.402   6.275  1.00  0.00     0.016 A 
ATOM     31  C   UNL     1       1.143  -6.958   8.481  1.00  0.00     0.010 A 
ATOM     32  C   UNL     1      -0.456  -8.527   7.526  1.00  0.00     0.010 A 
ATOM     33  C   UNL     1       0.074  -7.847   8.638  1.00  0.00    -0.014 A 
BRANCH  33  34
ATOM     34  C   UNL     1      -0.297  -8.235  10.014  1.00  0.00     0.031 A 
ATOM     35  C   UNL     1       0.297  -9.495  10.580  1.00  0.00     0.074 A 
ATOM     36  C   UNL     1      -1.057  -7.428  10.772  1.00  0.00     0.049 A 
ATOM     37  N   UNL     1       0.156 -10.018  11.769  1.00  0.00    -0.248 NA
ATOM     38  C   UNL     1       1.175 -10.267   9.682  1.00  0.00     0.031 C 
ATOM     39  C   UNL     1      -1.629  -6.155  10.340  1.00  0.00     0.029 A 
ATOM     40  N   UNL     1      -1.465  -7.563  12.072  1.00  0.00    -0.354 N 
ATOM     41  C   UNL     1       0.920 -11.179  11.760  1.00  0.00     0.074 A 
ATOM     42  C   UNL     1       1.492 -11.305  10.439  1.00  0.00     0.031 C 
ATOM     43  C   UNL     1      -2.321  -5.622  11.363  1.00  0.00     0.029 A 
ATOM     44  C   UNL     1      -2.259  -6.532  12.505  1.00  0.00     0.049 A 
ATOM     45  H   UNL     1      -1.213  -8.326  12.641  1.00  0.00     0.167 HD
ATOM     46  C   UNL     1       1.134 -12.055  12.770  1.00  0.00     0.037 A 
ATOM     47  C   UNL     1      -2.875  -6.356  13.689  1.00  0.00     0.037 A 
ATOM     48  C   UNL     1       0.561 -11.919  14.082  1.00  0.00     0.049 A 
ATOM     49  C   UNL     1      -2.678  -7.383  14.773  1.00  0.00     0.074 A 
ATOM     50  C   UNL     1       0.713 -12.747  15.180  1.00  0.00     0.029 A 
ATOM     51  N   UNL     1      -0.279 -10.886  14.471  1.00  0.00    -0.354 N 
ATOM     52  N   UNL     1      -1.948  -8.473  14.761  1.00  0.00    -0.248 NA
ATOM     53  C   UNL     1      -3.384  -7.147  16.039  1.00  0.00     0.031 C 
ATOM     54  C   UNL     1      -0.079 -12.243  16.217  1.00  0.00     0.029 A 
ATOM     55  C   UNL     1      -0.674 -11.067  15.786  1.00  0.00     0.049 A 
ATOM     56  H   UNL     1      -0.554 -10.134  13.897  1.00  0.00     0.167 HD
ATOM     57  C   UNL     1      -2.081  -9.035  16.025  1.00  0.00     0.074 A 
ATOM     58  C   UNL     1      -2.948  -8.154  16.781  1.00  0.00     0.031 C 
ATOM     59  C   UNL     1      -1.535 -10.175  16.520  1.00  0.00     0.037 A 
BRANCH  46  60
ATOM     60  C   UNL     1       1.994 -13.250  12.477  1.00  0.00     0.057 A 
ATOM     61  C   UNL     1       3.376 -13.140  12.267  1.00  0.00     0.134 A 
ATOM     62  C   UNL     1       1.433 -14.531  12.417  1.00  0.00     0.134 A 
ATOM     63  F   UNL     1       3.974 -11.940  12.290  1.00  0.00    -0.206 F 
ATOM     64  C   UNL     1       4.163 -14.259  11.986  1.00  0.00     0.040 A 
ATOM     65  C   UNL     1       2.214 -15.661  12.165  1.00  0.00     0.040 A 
ATOM     66  F   UNL     1       0.117 -14.708  12.606  1.00  0.00    -0.206 F 
ATOM     67  C   UNL     1       3.582 -15.525  11.942  1.00  0.00     0.006 A 
ENDBRANCH  46  60
BRANCH  47  68
ATOM     68  C   UNL     1      -3.738  -5.169  13.910  1.00  0.00     0.057 A 
ATOM     69  C   UNL     1      -3.383  -4.170  14.823  1.00  0.00     0.134 A 
ATOM     70  C   UNL     1      -4.952  -5.018  13.229  1.00  0.00     0.134 A 
ATOM     71  F   UNL     1      -2.242  -4.267  15.521  1.00  0.00    -0.206 F 
ATOM     72  C   UNL     1      -4.214  -3.075  15.068  1.00  0.00     0.040 A 
ATOM     73  C   UNL     1      -5.779  -3.915  13.443  1.00  0.00     0.040 A 
ATOM     74  F   UNL     1      -5.348  -5.939  12.337  1.00  0.00    -0.206 F 
ATOM     75  C   UNL     1      -5.415  -2.944  14.373  1.00  0.00     0.006 A 
ENDBRANCH  47  68
BRANCH  59  76
ATOM     76  C   UNL     1      -1.827 -10.504  17.956  1.00  0.00     0.057 A 
ATOM     77  C   UNL     1      -3.099 -10.906  18.384  1.00  0.00     0.134 A 
ATOM     78  C   UNL     1      -0.813 -10.435  18.920  1.00  0.00     0.134 A 
ATOM     79  F   UNL     1      -4.117 -10.983  17.514  1.00  0.00    -0.206 F 
ATOM     80  C   UNL     1      -3.361 -11.189  19.726  1.00  0.00     0.040 A 
ATOM     81  C   UNL     1      -1.054 -10.748  20.258  1.00  0.00     0.040 A 
ATOM     82  F   UNL     1       0.432 -10.071  18.576  1.00  0.00    -0.206 F 
ATOM     83  C   UNL     1      -2.334 -11.116  20.666  1.00  0.00     0.006 A 
ENDBRANCH  59  76
ENDBRANCH  33  34
ENDBRANCH  26  28
ENDBRANCH  25  26
ENDBRANCH  24  25
ENDBRANCH  23  24
ENDBRANCH  22  23
ENDBRANCH   1  22
TORSDOF 17
