REMARK SMILES O=C1CN(S(=O)(=O)c2ccc(CC(=O)OCCOCCOC(=O)c3ccc(-c4c5nc(c(-c6c(F)cccc6F)c6ccc([nH]6)c(-c6c(F)cccc6F)c6nc(c(-c7c(F)cccc7F)c7ccc4[nH]7)C=C6)C=C5)cc3)cc2)CCN1
REMARK SMILES IDX 17 1 16 2 15 3 13 4 14 5 12 6 11 7 8 8 9 9 79 10 10 11 78 12
REMARK SMILES IDX 5 13 6 14 7 15 4 16 1 17 2 18 3 19 82 20 81 21 80 23 18 24
REMARK SMILES IDX 19 25 20 26 21 27 22 28 23 29 24 30 25 31 77 32 26 33 76 34
REMARK SMILES IDX 27 35 28 36 29 37 70 38 30 39 75 40 69 41 71 42 31 43 74 44
REMARK SMILES IDX 68 45 67 46 32 48 58 49 41 50 57 51 42 52 45 53 56 54 72 55
REMARK SMILES IDX 43 56 44 57 55 59 73 60 46 61 33 62 34 63 39 64 35 65 36 66
REMARK SMILES IDX 38 67 40 68 37 69 59 70 60 71 65 72 61 73 62 74 64 75 66 76
REMARK SMILES IDX 63 77 47 78 48 79 53 80 49 81 50 82 52 83 54 84 51 85
REMARK H PARENT 82 22 71 47 45 58
REMARK Flexibility Score: inf
ROOT
ATOM      1  C   UNL     1      -0.352  -4.734   8.938  1.00  0.00     0.202 C 
ENDROOT
BRANCH   1   2
ATOM      2  C   UNL     1       0.931  -5.180   8.228  1.00  0.00     0.261 C 
BRANCH   2   3
ATOM      3  O   UNL     1       0.846  -5.098   6.793  1.00  0.00    -0.463 OA
BRANCH   3   4
ATOM      4  C   UNL     1       0.899  -6.289   6.139  1.00  0.00     0.310 C 
ATOM      5  O   UNL     1       1.085  -7.372   6.686  1.00  0.00    -0.252 OA
BRANCH   4   6
ATOM      6  C   UNL     1       0.735  -6.195   4.639  1.00  0.00     0.158 C 
BRANCH   6   7
ATOM      7  C   UNL     1       0.178  -4.925   4.032  1.00  0.00    -0.037 A 
ATOM      8  C   UNL     1      -0.819  -2.611   2.784  1.00  0.00     0.082 A 
ATOM      9  C   UNL     1      -1.691  -3.651   3.113  1.00  0.00     0.022 A 
ATOM     10  C   UNL     1       0.540  -2.709   3.101  1.00  0.00     0.022 A 
ATOM     11  C   UNL     1      -1.190  -4.804   3.731  1.00  0.00     0.006 A 
ATOM     12  C   UNL     1       1.036  -3.865   3.709  1.00  0.00     0.006 A 
BRANCH   8  13
ATOM     13  S   UNL     1      -1.457  -1.070   2.162  1.00  0.00     0.243 S 
ATOM     14  O   UNL     1      -0.605  -0.019   2.682  1.00  0.00    -0.207 OA
ATOM     15  O   UNL     1      -2.879  -1.045   2.421  1.00  0.00    -0.207 OA
BRANCH  13  16
ATOM     16  N   UNL     1      -1.265  -1.133   0.462  1.00  0.00    -0.187 NA
ATOM     17  O   UNL     1       2.191  -0.027   0.101  1.00  0.00    -0.274 OA
ATOM     18  C   UNL     1       0.965  -0.001   0.033  1.00  0.00     0.235 C 
ATOM     19  C   UNL     1       0.130  -1.270  -0.044  1.00  0.00     0.202 C 
ATOM     20  N   UNL     1       0.300   1.193  -0.101  1.00  0.00    -0.354 N 
ATOM     21  C   UNL     1      -1.143   1.333  -0.001  1.00  0.00     0.132 C 
ATOM     22  H   UNL     1       0.833   2.002  -0.274  1.00  0.00     0.163 HD
ATOM     23  C   UNL     1      -1.911   0.026  -0.250  1.00  0.00     0.124 C 
ENDBRANCH  13  16
ENDBRANCH   8  13
ENDBRANCH   6   7
ENDBRANCH   4   6
ENDBRANCH   3   4
ENDBRANCH   2   3
ENDBRANCH   1   2
BRANCH   1  24
ATOM     24  O   UNL     1      -1.566  -5.401   8.607  1.00  0.00    -0.374 OA
BRANCH  24  25
ATOM     25  C   UNL     1      -2.136  -5.158   7.324  1.00  0.00     0.202 C 
BRANCH  25  26
ATOM     26  C   UNL     1      -2.770  -3.786   7.060  1.00  0.00     0.261 C 
BRANCH  26  27
ATOM     27  O   UNL     1      -1.849  -2.693   7.205  1.00  0.00    -0.460 OA
BRANCH  27  28
ATOM     28  C   UNL     1      -2.085  -1.911   8.288  1.00  0.00     0.338 C 
ATOM     29  O   UNL     1      -2.998  -2.014   9.090  1.00  0.00    -0.246 OA
BRANCH  28  30
ATOM     30  C   UNL     1      -0.963  -0.980   8.504  1.00  0.00     0.060 A 
ATOM     31  C   UNL     1      -0.401  -0.945   9.787  1.00  0.00     0.016 A 
ATOM     32  C   UNL     1      -0.542  -0.088   7.517  1.00  0.00     0.016 A 
ATOM     33  C   UNL     1       0.532   0.035  10.113  1.00  0.00     0.010 A 
ATOM     34  C   UNL     1       0.394   0.898   7.847  1.00  0.00     0.010 A 
ATOM     35  C   UNL     1       0.895   0.994   9.159  1.00  0.00    -0.014 A 
BRANCH  35  36
ATOM     36  C   UNL     1       1.657   2.189   9.593  1.00  0.00     0.031 A 
ATOM     37  C   UNL     1       0.920   3.484   9.802  1.00  0.00     0.074 A 
ATOM     38  C   UNL     1       2.974   2.109   9.849  1.00  0.00     0.049 A 
ATOM     39  N   UNL     1       1.379   4.654  10.168  1.00  0.00    -0.248 NA
ATOM     40  C   UNL     1      -0.533   3.457   9.567  1.00  0.00     0.031 C 
ATOM     41  C   UNL     1       3.787   0.900   9.725  1.00  0.00     0.029 A 
ATOM     42  N   UNL     1       3.860   3.070  10.266  1.00  0.00    -0.354 N 
ATOM     43  C   UNL     1       0.277   5.500  10.195  1.00  0.00     0.074 A 
ATOM     44  C   UNL     1      -0.867   4.721   9.777  1.00  0.00     0.031 C 
ATOM     45  C   UNL     1       5.056   1.194  10.054  1.00  0.00     0.029 A 
ATOM     46  C   UNL     1       5.150   2.616  10.378  1.00  0.00     0.049 A 
ATOM     47  H   UNL     1       3.595   3.997  10.466  1.00  0.00     0.167 HD
ATOM     48  C   UNL     1       0.223   6.807  10.547  1.00  0.00     0.037 A 
ATOM     49  C   UNL     1       6.280   3.279  10.688  1.00  0.00     0.037 A 
ATOM     50  C   UNL     1       1.366   7.577  10.964  1.00  0.00     0.049 A 
ATOM     51  C   UNL     1       6.205   4.748  11.013  1.00  0.00     0.074 A 
ATOM     52  C   UNL     1       1.417   8.903  11.355  1.00  0.00     0.029 A 
ATOM     53  N   UNL     1       2.662   7.088  11.038  1.00  0.00    -0.354 N 
ATOM     54  N   UNL     1       5.157   5.535  11.057  1.00  0.00    -0.248 NA
ATOM     55  C   UNL     1       7.471   5.420  11.340  1.00  0.00     0.031 C 
ATOM     56  C   UNL     1       2.752   9.232  11.611  1.00  0.00     0.029 A 
ATOM     57  C   UNL     1       3.524   8.093  11.444  1.00  0.00     0.049 A 
ATOM     58  H   UNL     1       2.929   6.163  10.831  1.00  0.00     0.167 HD
ATOM     59  C   UNL     1       5.629   6.781  11.452  1.00  0.00     0.074 A 
ATOM     60  C   UNL     1       7.058   6.642  11.644  1.00  0.00     0.031 C 
ATOM     61  C   UNL     1       4.942   7.935  11.644  1.00  0.00     0.037 A 
BRANCH  48  62
ATOM     62  C   UNL     1      -1.111   7.493  10.466  1.00  0.00     0.057 A 
ATOM     63  C   UNL     1      -2.156   7.197  11.351  1.00  0.00     0.134 A 
ATOM     64  C   UNL     1      -1.345   8.484   9.503  1.00  0.00     0.134 A 
ATOM     65  F   UNL     1      -2.006   6.249  12.289  1.00  0.00    -0.206 F 
ATOM     66  C   UNL     1      -3.392   7.842  11.265  1.00  0.00     0.040 A 
ATOM     67  C   UNL     1      -2.565   9.157   9.427  1.00  0.00     0.040 A 
ATOM     68  F   UNL     1      -0.387   8.822   8.626  1.00  0.00    -0.206 F 
ATOM     69  C   UNL     1      -3.596   8.831  10.305  1.00  0.00     0.006 A 
ENDBRANCH  48  62
BRANCH  49  70
ATOM     70  C   UNL     1       7.583   2.565  10.702  1.00  0.00     0.057 A 
ATOM     71  C   UNL     1       8.289   2.359  11.893  1.00  0.00     0.134 A 
ATOM     72  C   UNL     1       8.163   2.088   9.520  1.00  0.00     0.134 A 
ATOM     73  F   UNL     1       7.797   2.811  13.056  1.00  0.00    -0.206 F 
ATOM     74  C   UNL     1       9.532   1.725  11.906  1.00  0.00     0.040 A 
ATOM     75  C   UNL     1       9.392   1.426   9.522  1.00  0.00     0.040 A 
ATOM     76  F   UNL     1       7.537   2.250   8.344  1.00  0.00    -0.206 F 
ATOM     77  C   UNL     1      10.084   1.251  10.718  1.00  0.00     0.006 A 
ENDBRANCH  49  70
BRANCH  61  78
ATOM     78  C   UNL     1       5.716   9.124  12.139  1.00  0.00     0.057 A 
ATOM     79  C   UNL     1       6.635   9.806  11.333  1.00  0.00     0.134 A 
ATOM     80  C   UNL     1       5.506   9.613  13.436  1.00  0.00     0.134 A 
ATOM     81  F   UNL     1       6.891   9.385  10.086  1.00  0.00    -0.206 F 
ATOM     82  C   UNL     1       7.340  10.915  11.809  1.00  0.00     0.040 A 
ATOM     83  C   UNL     1       6.180  10.739  13.911  1.00  0.00     0.040 A 
ATOM     84  F   UNL     1       4.630   9.015  14.258  1.00  0.00    -0.206 F 
ATOM     85  C   UNL     1       7.107  11.387  13.099  1.00  0.00     0.006 A 
ENDBRANCH  61  78
ENDBRANCH  35  36
ENDBRANCH  28  30
ENDBRANCH  27  28
ENDBRANCH  26  27
ENDBRANCH  25  26
ENDBRANCH  24  25
ENDBRANCH   1  24
TORSDOF 17
