REMARK SMILES Cc1cnn(C2(C(=O)OCCOCCOC(=O)c3ccc(-c4c5nc(c(-c6c(F)cccc6F)c6ccc([nH]6)c(-c6c(F)cccc6F)c6nc(c(-c7c(F)cccc7F)c7ccc4[nH]7)C=C6)C=C5)cc3)CCN(C(=O)c3cc4ccccc4[nH]3)CC2)c1
REMARK SMILES IDX 13 1 12 2 11 3 10 4 9 5 7 6 8 7 6 8 72 9 87 10 73 11 86 12
REMARK SMILES IDX 74 13 75 14 76 15 5 16 1 17 2 18 3 19 88 20 4 21 77 22 78 23
REMARK SMILES IDX 85 24 79 25 84 26 80 28 83 29 81 30 82 31 14 32 15 33 16 34
REMARK SMILES IDX 17 35 18 36 19 37 71 38 20 39 70 40 21 41 22 42 23 43 64 44
REMARK SMILES IDX 24 45 69 46 63 47 65 48 25 49 68 50 62 51 61 52 26 54 52 55
REMARK SMILES IDX 35 56 51 57 36 58 39 59 50 60 66 61 37 62 38 63 49 65 67 66
REMARK SMILES IDX 40 67 27 68 28 69 33 70 29 71 30 72 32 73 34 74 31 75 53 76
REMARK SMILES IDX 54 77 59 78 55 79 56 80 58 81 60 82 57 83 41 84 42 85 47 86
REMARK SMILES IDX 43 87 44 88 46 89 48 90 45 91
REMARK H PARENT 85 27 65 53 39 64
REMARK Flexibility Score: inf
ROOT
ATOM      1  C   UNL     1      -1.380   5.996  -2.482  1.00  0.00     0.202 C 
ENDROOT
BRANCH   1   2
ATOM      2  O   UNL     1      -2.142   7.148  -2.130  1.00  0.00    -0.374 OA
BRANCH   2   3
ATOM      3  C   UNL     1      -1.540   8.089  -1.233  1.00  0.00     0.202 C 
BRANCH   3   4
ATOM      4  C   UNL     1      -1.315   7.594   0.202  1.00  0.00     0.261 C 
BRANCH   4   5
ATOM      5  O   UNL     1      -0.129   6.774   0.225  1.00  0.00    -0.461 OA
BRANCH   5   6
ATOM      6  C   UNL     1      -0.170   5.538   0.806  1.00  0.00     0.334 C 
ATOM      7  O   UNL     1      -1.066   5.170   1.556  1.00  0.00    -0.249 OA
BRANCH   6   8
ATOM      8  C   UNL     1       1.082   4.690   0.430  1.00  0.00     0.163 C 
ATOM      9  C   UNL     1       2.025   5.537  -0.490  1.00  0.00     0.064 C 
ATOM     10  C   UNL     1       1.817   4.425   1.758  1.00  0.00     0.064 C 
ATOM     11  C   UNL     1       3.492   5.139  -0.545  1.00  0.00     0.123 C 
ATOM     12  C   UNL     1       3.213   3.862   1.540  1.00  0.00     0.123 C 
ATOM     13  N   UNL     1       4.026   4.758   0.750  1.00  0.00    -0.337 N 
ATOM     14  C   UNL     1       5.389   4.918   1.002  1.00  0.00     0.270 C 
ATOM     15  O   UNL     1       6.041   5.857   0.561  1.00  0.00    -0.267 OA
BRANCH   8  16
ATOM     16  N   UNL     1       0.620   3.415  -0.173  1.00  0.00    -0.255 N 
ATOM     17  C   UNL     1       0.160  -0.212  -0.381  1.00  0.00     0.048 C 
ATOM     18  C   UNL     1       0.136   1.263  -0.498  1.00  0.00    -0.013 A 
ATOM     19  C   UNL     1      -0.710   2.117  -1.223  1.00  0.00     0.138 A 
ATOM     20  C   UNL     1       0.956   2.131   0.178  1.00  0.00     0.113 A 
ATOM     21  N   UNL     1      -0.364   3.405  -1.103  1.00  0.00    -0.180 NA
ENDBRANCH   8  16
BRANCH  14  22
ATOM     22  C   UNL     1       5.980   3.847   1.774  1.00  0.00     0.105 A 
ATOM     23  C   UNL     1       6.156   2.528   1.391  1.00  0.00     0.042 A 
ATOM     24  N   UNL     1       6.406   3.949   3.076  1.00  0.00    -0.351 N 
ATOM     25  C   UNL     1       6.657   1.806   2.501  1.00  0.00     0.000 A 
ATOM     26  C   UNL     1       6.773   2.710   3.557  1.00  0.00     0.046 A 
ATOM     27  H   UNL     1       6.444   4.787   3.591  1.00  0.00     0.167 HD
ATOM     28  C   UNL     1       7.010   0.460   2.707  1.00  0.00     0.010 A 
ATOM     29  C   UNL     1       7.205   2.321   4.830  1.00  0.00     0.026 A 
ATOM     30  C   UNL     1       7.479   0.064   3.963  1.00  0.00     0.001 A 
ATOM     31  C   UNL     1       7.567   0.981   5.008  1.00  0.00     0.002 A 
ENDBRANCH  14  22
ENDBRANCH   6   8
ENDBRANCH   5   6
ENDBRANCH   4   5
ENDBRANCH   3   4
ENDBRANCH   2   3
ENDBRANCH   1   2
BRANCH   1  32
ATOM     32  C   UNL     1      -0.419   6.146  -3.651  1.00  0.00     0.261 C 
BRANCH  32  33
ATOM     33  O   UNL     1       0.567   7.132  -3.372  1.00  0.00    -0.460 OA
BRANCH  33  34
ATOM     34  C   UNL     1       0.283   8.371  -3.822  1.00  0.00     0.338 C 
ATOM     35  O   UNL     1      -0.763   8.764  -4.324  1.00  0.00    -0.246 OA
BRANCH  34  36
ATOM     36  C   UNL     1       1.524   9.151  -3.790  1.00  0.00     0.060 A 
ATOM     37  C   UNL     1       1.529  10.306  -4.572  1.00  0.00     0.016 A 
ATOM     38  C   UNL     1       2.709   8.552  -3.334  1.00  0.00     0.016 A 
ATOM     39  C   UNL     1       2.715  10.673  -5.159  1.00  0.00     0.010 A 
ATOM     40  C   UNL     1       3.888   8.908  -3.934  1.00  0.00     0.010 A 
ATOM     41  C   UNL     1       3.845   9.884  -4.923  1.00  0.00    -0.014 A 
BRANCH  41  42
ATOM     42  C   UNL     1       5.036  10.161  -5.690  1.00  0.00     0.031 A 
ATOM     43  C   UNL     1       5.728  11.369  -5.203  1.00  0.00     0.074 A 
ATOM     44  C   UNL     1       5.473   9.339  -6.662  1.00  0.00     0.049 A 
ATOM     45  N   UNL     1       5.788  12.523  -5.776  1.00  0.00    -0.248 NA
ATOM     46  C   UNL     1       6.206  11.358  -3.810  1.00  0.00     0.031 C 
ATOM     47  C   UNL     1       4.989   8.004  -7.024  1.00  0.00     0.029 A 
ATOM     48  N   UNL     1       6.534   9.512  -7.494  1.00  0.00    -0.354 N 
ATOM     49  C   UNL     1       6.520  13.320  -4.905  1.00  0.00     0.074 A 
ATOM     50  C   UNL     1       6.531  12.639  -3.639  1.00  0.00     0.031 C 
ATOM     51  C   UNL     1       5.893   7.404  -7.836  1.00  0.00     0.029 A 
ATOM     52  C   UNL     1       6.940   8.357  -8.156  1.00  0.00     0.049 A 
ATOM     53  H   UNL     1       6.978  10.382  -7.618  1.00  0.00     0.167 HD
ATOM     54  C   UNL     1       7.315  14.315  -5.378  1.00  0.00     0.037 A 
ATOM     55  C   UNL     1       8.108   8.217  -8.836  1.00  0.00     0.037 A 
ATOM     56  C   UNL     1       6.943  14.681  -6.722  1.00  0.00     0.049 A 
ATOM     57  C   UNL     1       8.608   9.588  -9.135  1.00  0.00     0.074 A 
ATOM     58  C   UNL     1       5.797  15.184  -7.308  1.00  0.00     0.029 A 
ATOM     59  N   UNL     1       7.694  14.164  -7.749  1.00  0.00    -0.354 N 
ATOM     60  N   UNL     1       8.016  10.402  -9.965  1.00  0.00    -0.248 NA
ATOM     61  C   UNL     1       9.457  10.222  -8.136  1.00  0.00     0.031 C 
ATOM     62  C   UNL     1       5.705  14.524  -8.568  1.00  0.00     0.029 A 
ATOM     63  C   UNL     1       6.831  13.714  -8.715  1.00  0.00     0.049 A 
ATOM     64  H   UNL     1       8.677  14.124  -7.786  1.00  0.00     0.167 HD
ATOM     65  C   UNL     1       8.064  11.642  -9.341  1.00  0.00     0.074 A 
ATOM     66  C   UNL     1       9.015  11.479  -8.242  1.00  0.00     0.031 C 
ATOM     67  C   UNL     1       7.113  12.592  -9.581  1.00  0.00     0.037 A 
BRANCH  54  68
ATOM     68  C   UNL     1       8.665  14.641  -4.790  1.00  0.00     0.057 A 
ATOM     69  C   UNL     1       9.359  15.762  -5.274  1.00  0.00     0.134 A 
ATOM     70  C   UNL     1       9.432  13.760  -3.997  1.00  0.00     0.134 A 
ATOM     71  F   UNL     1       8.746  16.669  -6.050  1.00  0.00    -0.206 F 
ATOM     72  C   UNL     1      10.729  15.947  -5.052  1.00  0.00     0.040 A 
ATOM     73  C   UNL     1      10.785  13.964  -3.724  1.00  0.00     0.040 A 
ATOM     74  F   UNL     1       8.957  12.602  -3.526  1.00  0.00    -0.206 F 
ATOM     75  C   UNL     1      11.448  15.043  -4.282  1.00  0.00     0.006 A 
ENDBRANCH  54  68
BRANCH  55  76
ATOM     76  C   UNL     1       8.988   7.028  -8.915  1.00  0.00     0.057 A 
ATOM     77  C   UNL     1       9.989   6.921  -9.892  1.00  0.00     0.134 A 
ATOM     78  C   UNL     1       9.056   6.100  -7.860  1.00  0.00     0.134 A 
ATOM     79  F   UNL     1      10.040   7.791 -10.911  1.00  0.00    -0.206 F 
ATOM     80  C   UNL     1      11.005   5.956  -9.817  1.00  0.00     0.040 A 
ATOM     81  C   UNL     1      10.063   5.132  -7.775  1.00  0.00     0.040 A 
ATOM     82  F   UNL     1       8.201   6.162  -6.830  1.00  0.00    -0.206 F 
ATOM     83  C   UNL     1      11.050   5.064  -8.750  1.00  0.00     0.006 A 
ENDBRANCH  55  76
BRANCH  67  84
ATOM     84  C   UNL     1       6.138  12.341 -10.701  1.00  0.00     0.057 A 
ATOM     85  C   UNL     1       5.199  11.297 -10.709  1.00  0.00     0.134 A 
ATOM     86  C   UNL     1       6.042  13.284 -11.728  1.00  0.00     0.134 A 
ATOM     87  F   UNL     1       5.150  10.401  -9.716  1.00  0.00    -0.206 F 
ATOM     88  C   UNL     1       4.235  11.179 -11.716  1.00  0.00     0.040 A 
ATOM     89  C   UNL     1       5.063  13.197 -12.720  1.00  0.00     0.040 A 
ATOM     90  F   UNL     1       6.869  14.341 -11.753  1.00  0.00    -0.206 F 
ATOM     91  C   UNL     1       4.160  12.137 -12.723  1.00  0.00     0.006 A 
ENDBRANCH  67  84
ENDBRANCH  41  42
ENDBRANCH  34  36
ENDBRANCH  33  34
ENDBRANCH  32  33
ENDBRANCH   1  32
TORSDOF 16
