REMARK SMILES C[C@H](Nc1cccc(F)c1C(=O)OCCOCCOC(=O)c1ccc(-c2c3nc(c(-c4c(F)cccc4F)c4ccc([nH]4)c(-c4c(F)cccc4F)c4nc(c(-c5c(F)cccc5F)c5ccc2[nH]5)C=C4)C=C3)cc1)c1nccs1
REMARK SMILES IDX 15 1 14 2 13 3 11 4 12 5 10 6 4 7 5 8 6 9 8 10 7 11 9 12
REMARK SMILES IDX 3 13 2 15 1 16 76 17 77 18 80 19 78 20 79 21 16 22 17 23
REMARK SMILES IDX 18 24 19 25 20 26 21 27 22 28 23 29 75 30 24 31 74 32 25 33
REMARK SMILES IDX 26 34 27 35 68 36 28 37 73 38 67 39 69 40 29 41 72 42 66 43
REMARK SMILES IDX 65 44 30 46 56 47 39 48 55 49 40 50 43 51 54 52 70 53 41 54
REMARK SMILES IDX 42 55 53 57 71 58 44 59 31 60 32 61 37 62 33 63 34 64 36 65
REMARK SMILES IDX 38 66 35 67 57 68 58 69 63 70 59 71 60 72 62 73 64 74 61 75
REMARK SMILES IDX 45 76 46 77 51 78 47 79 48 80 50 81 52 82 49 83
REMARK H PARENT 3 14 69 45 43 56
REMARK Flexibility Score: inf
ROOT
ATOM      1  C   UNL     1      -1.216   1.563  -4.158  1.00  0.00     0.202 C 
ENDROOT
BRANCH   1   2
ATOM      2  C   UNL     1      -1.149   2.728  -3.166  1.00  0.00     0.261 C 
BRANCH   2   3
ATOM      3  O   UNL     1       0.166   2.856  -2.604  1.00  0.00    -0.460 OA
BRANCH   3   4
ATOM      4  C   UNL     1       0.211   2.832  -1.252  1.00  0.00     0.343 C 
ATOM      5  O   UNL     1      -0.749   2.874  -0.490  1.00  0.00    -0.246 OA
BRANCH   4   6
ATOM      6  C   UNL     1       1.581   2.558  -0.797  1.00  0.00     0.118 A 
ATOM      7  C   UNL     1       1.859   1.415  -0.010  1.00  0.00     0.052 A 
ATOM      8  C   UNL     1       3.165   1.271   0.476  1.00  0.00     0.027 A 
ATOM      9  C   UNL     1       4.163   2.206   0.171  1.00  0.00     0.005 A 
ATOM     10  C   UNL     1       2.580   3.477  -1.113  1.00  0.00     0.139 A 
ATOM     11  C   UNL     1       3.872   3.305  -0.634  1.00  0.00     0.040 A 
ATOM     12  F   UNL     1       2.310   4.555  -1.865  1.00  0.00    -0.206 F 
BRANCH   7  13
ATOM     13  N   UNL     1       0.879   0.482   0.273  1.00  0.00    -0.375 N 
ATOM     14  H   UNL     1       0.380   0.140  -0.504  1.00  0.00     0.161 HD
BRANCH  13  15
ATOM     15  C   UNL     1       0.479  -0.072   1.582  1.00  0.00     0.135 C 
ATOM     16  C   UNL     1       1.029   0.693   2.789  1.00  0.00     0.039 C 
BRANCH  15  17
ATOM     17  C   UNL     1      -1.044  -0.225   1.660  1.00  0.00     0.115 A 
ATOM     18  N   UNL     1      -1.684  -1.344   1.374  1.00  0.00    -0.247 NA
ATOM     19  S   UNL     1      -2.064   1.135   1.968  1.00  0.00    -0.125 S 
ATOM     20  C   UNL     1      -3.046  -1.113   1.344  1.00  0.00     0.123 A 
ATOM     21  C   UNL     1      -3.438   0.177   1.623  1.00  0.00     0.087 A 
ENDBRANCH  15  17
ENDBRANCH  13  15
ENDBRANCH   7  13
ENDBRANCH   4   6
ENDBRANCH   3   4
ENDBRANCH   2   3
ENDBRANCH   1   2
BRANCH   1  22
ATOM     22  O   UNL     1      -0.906   0.265  -3.654  1.00  0.00    -0.374 OA
BRANCH  22  23
ATOM     23  C   UNL     1       0.462  -0.037  -3.381  1.00  0.00     0.202 C 
BRANCH  23  24
ATOM     24  C   UNL     1       1.395  -0.273  -4.576  1.00  0.00     0.261 C 
BRANCH  24  25
ATOM     25  O   UNL     1       1.526   0.884  -5.420  1.00  0.00    -0.460 OA
BRANCH  25  26
ATOM     26  C   UNL     1       0.955   0.760  -6.640  1.00  0.00     0.338 C 
ATOM     27  O   UNL     1       0.421  -0.235  -7.114  1.00  0.00    -0.246 OA
BRANCH  26  28
ATOM     28  C   UNL     1       0.886   2.073  -7.303  1.00  0.00     0.060 A 
ATOM     29  C   UNL     1      -0.370   2.510  -7.743  1.00  0.00     0.016 A 
ATOM     30  C   UNL     1       2.033   2.827  -7.562  1.00  0.00     0.016 A 
ATOM     31  C   UNL     1      -0.479   3.678  -8.490  1.00  0.00     0.010 A 
ATOM     32  C   UNL     1       1.922   3.996  -8.322  1.00  0.00     0.010 A 
ATOM     33  C   UNL     1       0.672   4.405  -8.820  1.00  0.00    -0.014 A 
BRANCH  33  34
ATOM     34  C   UNL     1       0.573   5.502  -9.812  1.00  0.00     0.031 A 
ATOM     35  C   UNL     1       0.949   5.228 -11.242  1.00  0.00     0.074 A 
ATOM     36  C   UNL     1       0.099   6.708  -9.455  1.00  0.00     0.049 A 
ATOM     37  N   UNL     1       0.931   6.033 -12.272  1.00  0.00    -0.248 NA
ATOM     38  C   UNL     1       1.402   3.862 -11.552  1.00  0.00     0.031 C 
ATOM     39  C   UNL     1      -0.341   7.077  -8.111  1.00  0.00     0.029 A 
ATOM     40  N   UNL     1      -0.097   7.843 -10.200  1.00  0.00    -0.354 N 
ATOM     41  C   UNL     1       1.367   5.274 -13.351  1.00  0.00     0.074 A 
ATOM     42  C   UNL     1       1.677   3.955 -12.845  1.00  0.00     0.031 C 
ATOM     43  C   UNL     1      -0.760   8.353  -8.127  1.00  0.00     0.029 A 
ATOM     44  C   UNL     1      -0.591   8.898  -9.473  1.00  0.00     0.049 A 
ATOM     45  H   UNL     1       0.098   7.897 -11.163  1.00  0.00     0.167 HD
ATOM     46  C   UNL     1       1.486   5.641 -14.648  1.00  0.00     0.037 A 
ATOM     47  C   UNL     1      -0.866  10.162  -9.850  1.00  0.00     0.037 A 
ATOM     48  C   UNL     1       1.175   6.954 -15.148  1.00  0.00     0.049 A 
ATOM     49  C   UNL     1      -0.660  10.567 -11.285  1.00  0.00     0.074 A 
ATOM     50  C   UNL     1       1.261   7.422 -16.448  1.00  0.00     0.029 A 
ATOM     51  N   UNL     1       0.721   8.009 -14.371  1.00  0.00    -0.354 N 
ATOM     52  N   UNL     1      -0.250   9.842 -12.297  1.00  0.00    -0.248 NA
ATOM     53  C   UNL     1      -0.958  11.965 -11.631  1.00  0.00     0.031 C 
ATOM     54  C   UNL     1       0.905   8.774 -16.449  1.00  0.00     0.029 A 
ATOM     55  C   UNL     1       0.542   9.132 -15.161  1.00  0.00     0.049 A 
ATOM     56  H   UNL     1       0.551   7.966 -13.402  1.00  0.00     0.167 HD
ATOM     57  C   UNL     1      -0.269  10.683 -13.403  1.00  0.00     0.074 A 
ATOM     58  C   UNL     1      -0.736  11.973 -12.939  1.00  0.00     0.031 C 
ATOM     59  C   UNL     1       0.067  10.408 -14.688  1.00  0.00     0.037 A 
BRANCH  46  60
ATOM     60  C   UNL     1       1.985   4.613 -15.620  1.00  0.00     0.057 A 
ATOM     61  C   UNL     1       3.253   4.737 -16.202  1.00  0.00     0.134 A 
ATOM     62  C   UNL     1       1.191   3.531 -16.023  1.00  0.00     0.134 A 
ATOM     63  F   UNL     1       4.062   5.751 -15.862  1.00  0.00    -0.206 F 
ATOM     64  C   UNL     1       3.709   3.829 -17.159  1.00  0.00     0.040 A 
ATOM     65  C   UNL     1       1.646   2.603 -16.961  1.00  0.00     0.040 A 
ATOM     66  F   UNL     1      -0.028   3.348 -15.494  1.00  0.00    -0.206 F 
ATOM     67  C   UNL     1       2.905   2.756 -17.539  1.00  0.00     0.006 A 
ENDBRANCH  46  60
BRANCH  47  68
ATOM     68  C   UNL     1      -1.382  11.129  -8.850  1.00  0.00     0.057 A 
ATOM     69  C   UNL     1      -0.570  11.609  -7.814  1.00  0.00     0.134 A 
ATOM     70  C   UNL     1      -2.706  11.578  -8.892  1.00  0.00     0.134 A 
ATOM     71  F   UNL     1       0.709  11.216  -7.718  1.00  0.00    -0.206 F 
ATOM     72  C   UNL     1      -1.062  12.485  -6.845  1.00  0.00     0.040 A 
ATOM     73  C   UNL     1      -3.205  12.472  -7.943  1.00  0.00     0.040 A 
ATOM     74  F   UNL     1      -3.526  11.171  -9.872  1.00  0.00    -0.206 F 
ATOM     75  C   UNL     1      -2.384  12.921  -6.910  1.00  0.00     0.006 A 
ENDBRANCH  47  68
BRANCH  59  76
ATOM     76  C   UNL     1      -0.087  11.506 -15.700  1.00  0.00     0.057 A 
ATOM     77  C   UNL     1      -1.079  11.429 -16.686  1.00  0.00     0.134 A 
ATOM     78  C   UNL     1       0.793  12.594 -15.752  1.00  0.00     0.134 A 
ATOM     79  F   UNL     1      -1.947  10.405 -16.701  1.00  0.00    -0.206 F 
ATOM     80  C   UNL     1      -1.183  12.387 -17.695  1.00  0.00     0.040 A 
ATOM     81  C   UNL     1       0.683  13.573 -16.741  1.00  0.00     0.040 A 
ATOM     82  F   UNL     1       1.760  12.731 -14.833  1.00  0.00    -0.206 F 
ATOM     83  C   UNL     1      -0.301  13.465 -17.723  1.00  0.00     0.006 A 
ENDBRANCH  59  76
ENDBRANCH  33  34
ENDBRANCH  26  28
ENDBRANCH  25  26
ENDBRANCH  24  25
ENDBRANCH  23  24
ENDBRANCH  22  23
ENDBRANCH   1  22
TORSDOF 17
