REMARK SMILES CC(C)(C[N@H+]1C[C@@H]2C[NH2+]C[C@H]2C1(C)C)C(=O)OCCOCCOC(=O)c1ccc(-c2c3nc(c(-c4c(F)cccc4F)c4ccc([nH]4)c(-c4c(F)cccc4F)c4nc(c(-c5c(F)cccc5F)c5ccc2[nH]5)C=C4)C=C3)cc1
REMARK SMILES IDX 20 1 19 2 18 3 17 4 15 5 16 6 2 7 1 8 3 9 4 10 5 11 6 12
REMARK SMILES IDX 12 13 7 15 11 16 13 17 14 18 8 19 10 20 9 21 21 24 22 25
REMARK SMILES IDX 23 26 24 27 25 28 26 29 27 30 79 31 28 32 78 33 29 34 30 35
REMARK SMILES IDX 31 36 72 37 32 38 77 39 71 40 73 41 33 42 76 43 70 44 69 45
REMARK SMILES IDX 34 47 60 48 43 49 59 50 44 51 47 52 58 53 74 54 45 55 46 56
REMARK SMILES IDX 57 58 75 59 48 60 35 61 36 62 41 63 37 64 38 65 40 66 42 67
REMARK SMILES IDX 39 68 61 69 62 70 67 71 63 72 64 73 66 74 68 75 65 76 49 77
REMARK SMILES IDX 50 78 55 79 51 80 52 81 54 82 56 83 53 84
REMARK H PARENT 5 14 9 22 9 23 73 46 47 57
REMARK Flexibility Score: inf
ROOT
ATOM      1  O   UNL     1       1.063  -4.905  -3.187  1.00  0.00    -0.374 OA
ENDROOT
BRANCH   1   2
ATOM      2  C   UNL     1       1.295  -5.449  -1.888  1.00  0.00     0.202 C 
BRANCH   2   3
ATOM      3  C   UNL     1       2.056  -4.545  -0.893  1.00  0.00     0.261 C 
BRANCH   3   4
ATOM      4  O   UNL     1       1.201  -3.517  -0.313  1.00  0.00    -0.463 OA
BRANCH   4   5
ATOM      5  C   UNL     1       1.740  -2.278  -0.108  1.00  0.00     0.317 C 
ATOM      6  O   UNL     1       2.914  -2.023  -0.348  1.00  0.00    -0.251 OA
BRANCH   5   7
ATOM      7  C   UNL     1       0.751  -1.268   0.543  1.00  0.00     0.111 C 
ATOM      8  C   UNL     1       1.491   0.039   0.873  1.00  0.00     0.029 C 
ATOM      9  C   UNL     1       0.415  -1.934   1.913  1.00  0.00     0.029 C 
BRANCH   7  10
ATOM     10  C   UNL     1      -0.610  -0.949  -0.205  1.00  0.00     0.280 C 
BRANCH  10  11
ATOM     11  N   UNL     1      -0.872  -0.002  -1.320  1.00  0.00    -0.329 N 
ATOM     12  C   UNL     1      -1.417   1.329  -0.928  1.00  0.00     0.272 C 
ATOM     13  C   UNL     1      -0.233   0.102  -2.671  1.00  0.00     0.101 C 
ATOM     14  H   UNL     1      -1.450  -0.797  -1.593  1.00  0.00     0.348 HD
ATOM     15  C   UNL     1      -0.502   2.267  -1.673  1.00  0.00     0.114 C 
ATOM     16  C   UNL     1      -0.441   1.576  -2.997  1.00  0.00     0.119 C 
ATOM     17  C   UNL     1       1.245  -0.249  -2.693  1.00  0.00     0.079 C 
ATOM     18  C   UNL     1      -1.000  -0.556  -3.854  1.00  0.00     0.079 C 
ATOM     19  C   UNL     1      -0.837   3.651  -2.175  1.00  0.00     0.270 C 
ATOM     20  C   UNL     1       0.513   2.445  -3.764  1.00  0.00     0.271 C 
ATOM     21  N   UNL     1       0.047   3.801  -3.378  1.00  0.00    -0.345 N 
ATOM     22  H   UNL     1       0.847   4.392  -3.150  1.00  0.00     0.346 HD
ATOM     23  H   UNL     1      -0.463   4.237  -4.146  1.00  0.00     0.346 HD
ENDBRANCH  10  11
ENDBRANCH   7  10
ENDBRANCH   5   7
ENDBRANCH   4   5
ENDBRANCH   3   4
ENDBRANCH   2   3
ENDBRANCH   1   2
BRANCH   1  24
ATOM     24  C   UNL     1       0.479  -3.610  -3.219  1.00  0.00     0.202 C 
BRANCH  24  25
ATOM     25  C   UNL     1      -0.815  -3.458  -2.407  1.00  0.00     0.261 C 
BRANCH  25  26
ATOM     26  O   UNL     1      -1.863  -4.334  -2.733  1.00  0.00    -0.460 OA
BRANCH  26  27
ATOM     27  C   UNL     1      -2.119  -4.610  -4.018  1.00  0.00     0.338 C 
ATOM     28  O   UNL     1      -1.836  -4.016  -5.034  1.00  0.00    -0.246 OA
BRANCH  27  29
ATOM     29  C   UNL     1      -2.518  -5.994  -3.826  1.00  0.00     0.060 A 
ATOM     30  C   UNL     1      -1.592  -6.973  -4.194  1.00  0.00     0.016 A 
ATOM     31  C   UNL     1      -3.577  -6.235  -2.938  1.00  0.00     0.016 A 
ATOM     32  C   UNL     1      -1.760  -8.249  -3.696  1.00  0.00     0.010 A 
ATOM     33  C   UNL     1      -3.705  -7.490  -2.395  1.00  0.00     0.010 A 
ATOM     34  C   UNL     1      -2.829  -8.498  -2.824  1.00  0.00    -0.014 A 
BRANCH  34  35
ATOM     35  C   UNL     1      -3.233  -9.879  -2.574  1.00  0.00     0.031 A 
ATOM     36  C   UNL     1      -4.386 -10.374  -3.389  1.00  0.00     0.074 A 
ATOM     37  C   UNL     1      -2.594 -10.604  -1.649  1.00  0.00     0.049 A 
ATOM     38  N   UNL     1      -5.015 -11.510  -3.325  1.00  0.00    -0.248 NA
ATOM     39  C   UNL     1      -4.928  -9.439  -4.398  1.00  0.00     0.031 C 
ATOM     40  C   UNL     1      -1.464 -10.145  -0.839  1.00  0.00     0.029 A 
ATOM     41  N   UNL     1      -2.814 -11.883  -1.232  1.00  0.00    -0.354 N 
ATOM     42  C   UNL     1      -6.028 -11.418  -4.270  1.00  0.00     0.074 A 
ATOM     43  C   UNL     1      -5.979 -10.100  -4.848  1.00  0.00     0.031 C 
ATOM     44  C   UNL     1      -1.085 -11.140  -0.019  1.00  0.00     0.029 A 
ATOM     45  C   UNL     1      -1.969 -12.282  -0.230  1.00  0.00     0.049 A 
ATOM     46  H   UNL     1      -3.513 -12.463  -1.614  1.00  0.00     0.167 HD
ATOM     47  C   UNL     1      -6.906 -12.377  -4.632  1.00  0.00     0.037 A 
ATOM     48  C   UNL     1      -1.946 -13.450   0.435  1.00  0.00     0.037 A 
ATOM     49  C   UNL     1      -6.905 -13.677  -4.027  1.00  0.00     0.049 A 
ATOM     50  C   UNL     1      -2.953 -14.493   0.031  1.00  0.00     0.074 A 
ATOM     51  C   UNL     1      -7.719 -14.758  -4.293  1.00  0.00     0.029 A 
ATOM     52  N   UNL     1      -6.027 -14.062  -3.019  1.00  0.00    -0.354 N 
ATOM     53  N   UNL     1      -3.894 -14.424  -0.885  1.00  0.00    -0.248 NA
ATOM     54  C   UNL     1      -2.896 -15.775   0.739  1.00  0.00     0.031 C 
ATOM     55  C   UNL     1      -7.365 -15.783  -3.410  1.00  0.00     0.029 A 
ATOM     56  C   UNL     1      -6.290 -15.362  -2.636  1.00  0.00     0.049 A 
ATOM     57  H   UNL     1      -5.322 -13.492  -2.635  1.00  0.00     0.167 HD
ATOM     58  C   UNL     1      -4.523 -15.660  -0.885  1.00  0.00     0.074 A 
ATOM     59  C   UNL     1      -3.841 -16.463   0.114  1.00  0.00     0.031 C 
ATOM     60  C   UNL     1      -5.566 -16.104  -1.633  1.00  0.00     0.037 A 
BRANCH  47  61
ATOM     61  C   UNL     1      -7.914 -12.027  -5.685  1.00  0.00     0.057 A 
ATOM     62  C   UNL     1      -7.546 -11.771  -7.015  1.00  0.00     0.134 A 
ATOM     63  C   UNL     1      -9.270 -11.911  -5.361  1.00  0.00     0.134 A 
ATOM     64  F   UNL     1      -6.259 -11.828  -7.388  1.00  0.00    -0.206 F 
ATOM     65  C   UNL     1      -8.486 -11.387  -7.974  1.00  0.00     0.040 A 
ATOM     66  C   UNL     1     -10.224 -11.559  -6.318  1.00  0.00     0.040 A 
ATOM     67  F   UNL     1      -9.691 -12.125  -4.105  1.00  0.00    -0.206 F 
ATOM     68  C   UNL     1      -9.831 -11.289  -7.627  1.00  0.00     0.006 A 
ENDBRANCH  47  61
BRANCH  48  69
ATOM     69  C   UNL     1      -0.947 -13.683   1.507  1.00  0.00     0.057 A 
ATOM     70  C   UNL     1       0.082 -14.619   1.350  1.00  0.00     0.134 A 
ATOM     71  C   UNL     1      -0.980 -12.963   2.708  1.00  0.00     0.134 A 
ATOM     72  F   UNL     1       0.168 -15.345   0.226  1.00  0.00    -0.206 F 
ATOM     73  C   UNL     1       1.026 -14.846   2.353  1.00  0.00     0.040 A 
ATOM     74  C   UNL     1      -0.027 -13.161   3.710  1.00  0.00     0.040 A 
ATOM     75  F   UNL     1      -1.929 -12.039   2.918  1.00  0.00    -0.206 F 
ATOM     76  C   UNL     1       0.976 -14.112   3.537  1.00  0.00     0.006 A 
ENDBRANCH  48  69
BRANCH  60  77
ATOM     77  C   UNL     1      -5.990 -17.523  -1.412  1.00  0.00     0.057 A 
ATOM     78  C   UNL     1      -6.668 -17.918  -0.253  1.00  0.00     0.134 A 
ATOM     79  C   UNL     1      -5.764 -18.488  -2.401  1.00  0.00     0.134 A 
ATOM     80  F   UNL     1      -6.904 -17.037   0.731  1.00  0.00    -0.206 F 
ATOM     81  C   UNL     1      -7.081 -19.236  -0.072  1.00  0.00     0.040 A 
ATOM     82  C   UNL     1      -6.203 -19.801  -2.245  1.00  0.00     0.040 A 
ATOM     83  F   UNL     1      -5.135 -18.164  -3.540  1.00  0.00    -0.206 F 
ATOM     84  C   UNL     1      -6.856 -20.180  -1.074  1.00  0.00     0.006 A 
ENDBRANCH  60  77
ENDBRANCH  34  35
ENDBRANCH  27  29
ENDBRANCH  26  27
ENDBRANCH  25  26
ENDBRANCH  24  25
ENDBRANCH   1  24
TORSDOF 16
