REMARK SMILES O=C(Cc1ccccc1Nc1c(Cl)cccc1Cl)OCCOCCOC(=O)c1ccc(-c2c3nc(c(-c4c(F)cccc4F)c4ccc([nH]4)c(-c4c(F)cccc4F)c4nc(c(-c5c(F)cccc5F)c5ccc2[nH]5)C=C4)C=C3)cc1
REMARK SMILES IDX 21 1 20 2 19 3 2 4 1 5 3 6 4 7 5 8 9 9 6 10 8 11 7 12 10 13
REMARK SMILES IDX 11 15 12 16 17 17 13 18 14 19 16 20 18 21 15 22 22 23 23 24
REMARK SMILES IDX 24 25 25 26 26 27 27 28 28 29 29 30 81 31 30 32 80 33 31 34
REMARK SMILES IDX 32 35 33 36 74 37 34 38 79 39 73 40 75 41 35 42 78 43 72 44
REMARK SMILES IDX 71 45 36 47 62 48 45 49 61 50 46 51 49 52 60 53 76 54 47 55
REMARK SMILES IDX 48 56 59 58 77 59 50 60 37 61 38 62 43 63 39 64 40 65 42 66
REMARK SMILES IDX 44 67 41 68 63 69 64 70 69 71 65 72 66 73 68 74 70 75 67 76
REMARK SMILES IDX 51 77 52 78 57 79 53 80 54 81 56 82 58 83 55 84
REMARK H PARENT 10 14 75 46 49 57
REMARK Flexibility Score: inf
ROOT
ATOM      1  C   UNL     1       4.933  -1.220   0.616  1.00  0.00     0.202 C 
ENDROOT
BRANCH   1   2
ATOM      2  C   UNL     1       4.189   0.117   0.536  1.00  0.00     0.261 C 
BRANCH   2   3
ATOM      3  O   UNL     1       2.760   0.045   0.522  1.00  0.00    -0.463 OA
BRANCH   3   4
ATOM      4  C   UNL     1       2.021  -0.020  -0.608  1.00  0.00     0.310 C 
ATOM      5  O   UNL     1       0.820   0.257  -0.573  1.00  0.00    -0.252 OA
BRANCH   4   6
ATOM      6  C   UNL     1       2.641  -0.498  -1.901  1.00  0.00     0.160 C 
BRANCH   6   7
ATOM      7  C   UNL     1       3.637   0.427  -2.558  1.00  0.00    -0.013 A 
ATOM      8  C   UNL     1       4.797  -0.159  -3.104  1.00  0.00     0.006 A 
ATOM      9  C   UNL     1       3.453   1.827  -2.624  1.00  0.00     0.042 A 
ATOM     10  C   UNL     1       5.803   0.630  -3.648  1.00  0.00     0.000 A 
ATOM     11  C   UNL     1       4.504   2.602  -3.137  1.00  0.00     0.026 A 
ATOM     12  C   UNL     1       5.663   2.011  -3.651  1.00  0.00     0.002 A 
BRANCH   9  13
ATOM     13  N   UNL     1       2.305   2.424  -2.073  1.00  0.00    -0.353 N 
ATOM     14  H   UNL     1       1.625   1.791  -1.747  1.00  0.00     0.167 HD
BRANCH  13  15
ATOM     15  C   UNL     1       1.973   3.788  -1.914  1.00  0.00     0.076 A 
ATOM     16  C   UNL     1       1.947   4.367  -0.629  1.00  0.00     0.066 A 
ATOM     17  C   UNL     1       1.440   4.539  -2.979  1.00  0.00     0.066 A 
ATOM     18  Cl  UNL     1       2.526   3.509   0.759  1.00  0.00    -0.082 Cl
ATOM     19  C   UNL     1       1.453   5.660  -0.425  1.00  0.00     0.023 A 
ATOM     20  C   UNL     1       0.952   5.834  -2.775  1.00  0.00     0.023 A 
ATOM     21  Cl  UNL     1       1.323   3.884  -4.577  1.00  0.00    -0.082 Cl
ATOM     22  C   UNL     1       0.958   6.394  -1.499  1.00  0.00     0.003 A 
ENDBRANCH  13  15
ENDBRANCH   9  13
ENDBRANCH   6   7
ENDBRANCH   4   6
ENDBRANCH   3   4
ENDBRANCH   2   3
ENDBRANCH   1   2
BRANCH   1  23
ATOM     23  O   UNL     1       4.280  -2.410   0.201  1.00  0.00    -0.374 OA
BRANCH  23  24
ATOM     24  C   UNL     1       3.093  -2.836   0.869  1.00  0.00     0.202 C 
BRANCH  24  25
ATOM     25  C   UNL     1       3.114  -3.066   2.381  1.00  0.00     0.261 C 
BRANCH  25  26
ATOM     26  O   UNL     1       3.454  -1.893   3.136  1.00  0.00    -0.460 OA
BRANCH  26  27
ATOM     27  C   UNL     1       4.607  -2.004   3.832  1.00  0.00     0.338 C 
ATOM     28  O   UNL     1       5.368  -2.962   3.859  1.00  0.00    -0.246 OA
BRANCH  27  29
ATOM     29  C   UNL     1       4.951  -0.736   4.490  1.00  0.00     0.060 A 
ATOM     30  C   UNL     1       6.244  -0.241   4.284  1.00  0.00     0.016 A 
ATOM     31  C   UNL     1       4.101  -0.157   5.435  1.00  0.00     0.016 A 
ATOM     32  C   UNL     1       6.733   0.772   5.099  1.00  0.00     0.010 A 
ATOM     33  C   UNL     1       4.596   0.858   6.258  1.00  0.00     0.010 A 
ATOM     34  C   UNL     1       5.933   1.274   6.134  1.00  0.00    -0.014 A 
BRANCH  34  35
ATOM     35  C   UNL     1       6.591   2.042   7.215  1.00  0.00     0.031 A 
ATOM     36  C   UNL     1       7.020   1.307   8.458  1.00  0.00     0.074 A 
ATOM     37  C   UNL     1       6.879   3.343   7.055  1.00  0.00     0.049 A 
ATOM     38  N   UNL     1       7.665   1.750   9.506  1.00  0.00    -0.248 NA
ATOM     39  C   UNL     1       6.678  -0.124   8.525  1.00  0.00     0.031 C 
ATOM     40  C   UNL     1       6.550   4.142   5.876  1.00  0.00     0.029 A 
ATOM     41  N   UNL     1       7.528   4.217   7.888  1.00  0.00    -0.354 N 
ATOM     42  C   UNL     1       7.799   0.658  10.355  1.00  0.00     0.074 A 
ATOM     43  C   UNL     1       7.143  -0.462   9.718  1.00  0.00     0.031 C 
ATOM     44  C   UNL     1       7.006   5.393   6.059  1.00  0.00     0.029 A 
ATOM     45  C   UNL     1       7.639   5.484   7.373  1.00  0.00     0.049 A 
ATOM     46  H   UNL     1       7.881   3.960   8.770  1.00  0.00     0.167 HD
ATOM     47  C   UNL     1       8.424   0.592  11.555  1.00  0.00     0.037 A 
ATOM     48  C   UNL     1       8.190   6.589   7.910  1.00  0.00     0.037 A 
ATOM     49  C   UNL     1       9.082   1.707  12.180  1.00  0.00     0.049 A 
ATOM     50  C   UNL     1       8.841   6.500   9.264  1.00  0.00     0.074 A 
ATOM     51  C   UNL     1       9.756   1.747  13.388  1.00  0.00     0.029 A 
ATOM     52  N   UNL     1       9.145   2.983  11.642  1.00  0.00    -0.354 N 
ATOM     53  N   UNL     1       8.983   5.458  10.049  1.00  0.00    -0.248 NA
ATOM     54  C   UNL     1       9.417   7.739   9.802  1.00  0.00     0.031 C 
ATOM     55  C   UNL     1      10.193   3.060  13.598  1.00  0.00     0.029 A 
ATOM     56  C   UNL     1       9.831   3.825  12.500  1.00  0.00     0.049 A 
ATOM     57  H   UNL     1       8.759   3.252  10.777  1.00  0.00     0.167 HD
ATOM     58  C   UNL     1       9.694   5.907  11.155  1.00  0.00     0.074 A 
ATOM     59  C   UNL     1       9.960   7.314  10.935  1.00  0.00     0.031 C 
ATOM     60  C   UNL     1      10.094   5.219  12.253  1.00  0.00     0.037 A 
BRANCH  47  61
ATOM     61  C   UNL     1       8.396  -0.725  12.275  1.00  0.00     0.057 A 
ATOM     62  C   UNL     1       9.150  -1.824  11.844  1.00  0.00     0.134 A 
ATOM     63  C   UNL     1       7.611  -0.891  13.423  1.00  0.00     0.134 A 
ATOM     64  F   UNL     1       9.909  -1.737  10.741  1.00  0.00    -0.206 F 
ATOM     65  C   UNL     1       9.106  -3.048  12.515  1.00  0.00     0.040 A 
ATOM     66  C   UNL     1       7.577  -2.102  14.117  1.00  0.00     0.040 A 
ATOM     67  F   UNL     1       6.865   0.122  13.891  1.00  0.00    -0.206 F 
ATOM     68  C   UNL     1       8.321  -3.187  13.659  1.00  0.00     0.006 A 
ENDBRANCH  47  61
BRANCH  48  69
ATOM     69  C   UNL     1       8.163   7.870   7.162  1.00  0.00     0.057 A 
ATOM     70  C   UNL     1       9.334   8.428   6.636  1.00  0.00     0.134 A 
ATOM     71  C   UNL     1       6.968   8.572   6.965  1.00  0.00     0.134 A 
ATOM     72  F   UNL     1      10.512   7.812   6.809  1.00  0.00    -0.206 F 
ATOM     73  C   UNL     1       9.321   9.647   5.956  1.00  0.00     0.040 A 
ATOM     74  C   UNL     1       6.937   9.780   6.268  1.00  0.00     0.040 A 
ATOM     75  F   UNL     1       5.812   8.089   7.443  1.00  0.00    -0.206 F 
ATOM     76  C   UNL     1       8.118  10.325   5.767  1.00  0.00     0.006 A 
ENDBRANCH  48  69
BRANCH  60  77
ATOM     77  C   UNL     1      10.899   5.969  13.272  1.00  0.00     0.057 A 
ATOM     78  C   UNL     1      10.322   6.925  14.116  1.00  0.00     0.134 A 
ATOM     79  C   UNL     1      12.267   5.708  13.428  1.00  0.00     0.134 A 
ATOM     80  F   UNL     1       9.019   7.228  14.009  1.00  0.00    -0.206 F 
ATOM     81  C   UNL     1      11.082   7.616  15.061  1.00  0.00     0.040 A 
ATOM     82  C   UNL     1      13.032   6.374  14.386  1.00  0.00     0.040 A 
ATOM     83  F   UNL     1      12.879   4.796  12.657  1.00  0.00    -0.206 F 
ATOM     84  C   UNL     1      12.441   7.337  15.200  1.00  0.00     0.006 A 
ENDBRANCH  60  77
ENDBRANCH  34  35
ENDBRANCH  27  29
ENDBRANCH  26  27
ENDBRANCH  25  26
ENDBRANCH  24  25
ENDBRANCH  23  24
ENDBRANCH   1  23
TORSDOF 17
