REMARK SMILES O=C(OCCOCCOC(=O)c1c(F)cccc1N[C@H]1CCCc2ccccc21)c1ccc(-c2c3nc(c(-c4c(F)cccc4F)c4ccc([nH]4)c(-c4c(F)cccc4F)c4nc(c(-c5c(F)cccc5F)c5ccc2[nH]5)C=C4)C=C3)cc1
REMARK SMILES IDX 6 1 5 2 4 3 3 4 2 5 1 6 30 7 31 8 83 9 32 10 82 11 33 12
REMARK SMILES IDX 34 13 35 14 76 15 36 16 81 17 75 18 77 19 37 20 80 21 74 22
REMARK SMILES IDX 73 23 38 25 64 26 47 27 63 28 48 29 51 30 62 31 78 32 49 33
REMARK SMILES IDX 50 34 61 36 79 37 52 38 39 39 40 40 45 41 41 42 42 43 44 44
REMARK SMILES IDX 46 45 43 46 65 47 66 48 71 49 67 50 68 51 70 52 72 53 69 54
REMARK SMILES IDX 53 55 54 56 59 57 55 58 56 59 58 60 60 61 57 62 7 63 8 64
REMARK SMILES IDX 9 65 10 66 11 67 12 68 13 69 18 70 14 71 15 72 17 73 16 74
REMARK SMILES IDX 19 75 20 77 21 78 29 79 22 80 24 81 28 82 23 83 25 84 27 85
REMARK SMILES IDX 26 86
REMARK H PARENT 77 24 51 35 19 76
REMARK Flexibility Score: inf
ROOT
ATOM      1  O   UNL     1       8.677   4.459  -1.439  1.00  0.00    -0.374 OA
ENDROOT
BRANCH   1   2
ATOM      2  C   UNL     1       7.459   3.805  -1.122  1.00  0.00     0.202 C 
BRANCH   2   3
ATOM      3  C   UNL     1       6.359   4.801  -0.770  1.00  0.00     0.261 C 
BRANCH   3   4
ATOM      4  O   UNL     1       6.235   5.790  -1.798  1.00  0.00    -0.460 OA
BRANCH   4   5
ATOM      5  C   UNL     1       6.596   7.090  -1.684  1.00  0.00     0.338 C 
ATOM      6  O   UNL     1       6.266   7.878  -2.569  1.00  0.00    -0.246 OA
BRANCH   5   7
ATOM      7  C   UNL     1       7.372   7.635  -0.528  1.00  0.00     0.060 A 
ATOM      8  C   UNL     1       8.412   6.962   0.115  1.00  0.00     0.016 A 
ATOM      9  C   UNL     1       7.145   8.972  -0.175  1.00  0.00     0.016 A 
ATOM     10  C   UNL     1       9.231   7.581   1.045  1.00  0.00     0.010 A 
ATOM     11  C   UNL     1       7.996   9.625   0.722  1.00  0.00     0.010 A 
ATOM     12  C   UNL     1       9.071   8.935   1.298  1.00  0.00    -0.014 A 
BRANCH  12  13
ATOM     13  C   UNL     1      10.073   9.613   2.137  1.00  0.00     0.031 A 
ATOM     14  C   UNL     1       9.680  10.078   3.496  1.00  0.00     0.074 A 
ATOM     15  C   UNL     1      11.330   9.752   1.672  1.00  0.00     0.049 A 
ATOM     16  N   UNL     1      10.340  10.836   4.324  1.00  0.00    -0.248 NA
ATOM     17  C   UNL     1       8.369   9.626   3.994  1.00  0.00     0.031 C 
ATOM     18  C   UNL     1      11.824   9.218   0.397  1.00  0.00     0.029 A 
ATOM     19  N   UNL     1      12.425  10.375   2.211  1.00  0.00    -0.354 N 
ATOM     20  C   UNL     1       9.510  10.992   5.423  1.00  0.00     0.074 A 
ATOM     21  C   UNL     1       8.303  10.239   5.167  1.00  0.00     0.031 C 
ATOM     22  C   UNL     1      13.122   9.530   0.259  1.00  0.00     0.029 A 
ATOM     23  C   UNL     1      13.524  10.365   1.383  1.00  0.00     0.049 A 
ATOM     24  H   UNL     1      12.426  10.789   3.104  1.00  0.00     0.167 HD
ATOM     25  C   UNL     1       9.749  11.724   6.532  1.00  0.00     0.037 A 
ATOM     26  C   UNL     1      14.699  11.014   1.494  1.00  0.00     0.037 A 
ATOM     27  C   UNL     1      10.972  12.446   6.749  1.00  0.00     0.049 A 
ATOM     28  C   UNL     1      14.898  11.896   2.695  1.00  0.00     0.074 A 
ATOM     29  C   UNL     1      11.322  13.240   7.824  1.00  0.00     0.029 A 
ATOM     30  N   UNL     1      12.044  12.458   5.866  1.00  0.00    -0.354 N 
ATOM     31  N   UNL     1      14.094  12.086   3.715  1.00  0.00    -0.248 NA
ATOM     32  C   UNL     1      16.140  12.676   2.756  1.00  0.00     0.031 C 
ATOM     33  C   UNL     1      12.584  13.778   7.565  1.00  0.00     0.029 A 
ATOM     34  C   UNL     1      13.045  13.275   6.357  1.00  0.00     0.049 A 
ATOM     35  H   UNL     1      12.085  11.959   5.019  1.00  0.00     0.167 HD
ATOM     36  C   UNL     1      14.731  13.001   4.540  1.00  0.00     0.074 A 
ATOM     37  C   UNL     1      16.000  13.311   3.913  1.00  0.00     0.031 C 
ATOM     38  C   UNL     1      14.302  13.544   5.704  1.00  0.00     0.037 A 
BRANCH  25  39
ATOM     39  C   UNL     1       8.656  11.833   7.548  1.00  0.00     0.057 A 
ATOM     40  C   UNL     1       7.952  13.036   7.693  1.00  0.00     0.134 A 
ATOM     41  C   UNL     1       8.330  10.782   8.410  1.00  0.00     0.134 A 
ATOM     42  F   UNL     1       8.211  14.078   6.889  1.00  0.00    -0.206 F 
ATOM     43  C   UNL     1       6.976  13.196   8.677  1.00  0.00     0.040 A 
ATOM     44  C   UNL     1       7.340  10.923   9.385  1.00  0.00     0.040 A 
ATOM     45  F   UNL     1       8.948   9.596   8.303  1.00  0.00    -0.206 F 
ATOM     46  C   UNL     1       6.669  12.136   9.527  1.00  0.00     0.006 A 
ENDBRANCH  25  39
BRANCH  26  47
ATOM     47  C   UNL     1      15.717  10.920   0.413  1.00  0.00     0.057 A 
ATOM     48  C   UNL     1      15.460  11.409  -0.877  1.00  0.00     0.134 A 
ATOM     49  C   UNL     1      16.970  10.338   0.634  1.00  0.00     0.134 A 
ATOM     50  F   UNL     1      14.282  11.984  -1.162  1.00  0.00    -0.206 F 
ATOM     51  C   UNL     1      16.396  11.302  -1.907  1.00  0.00     0.040 A 
ATOM     52  C   UNL     1      17.928  10.251  -0.379  1.00  0.00     0.040 A 
ATOM     53  F   UNL     1      17.291   9.870   1.849  1.00  0.00    -0.206 F 
ATOM     54  C   UNL     1      17.639  10.726  -1.657  1.00  0.00     0.006 A 
ENDBRANCH  26  47
BRANCH  38  55
ATOM     55  C   UNL     1      15.208  14.521   6.386  1.00  0.00     0.057 A 
ATOM     56  C   UNL     1      15.843  14.180   7.586  1.00  0.00     0.134 A 
ATOM     57  C   UNL     1      15.332  15.838   5.930  1.00  0.00     0.134 A 
ATOM     58  F   UNL     1      15.746  12.935   8.078  1.00  0.00    -0.206 F 
ATOM     59  C   UNL     1      16.539  15.129   8.333  1.00  0.00     0.040 A 
ATOM     60  C   UNL     1      16.049  16.789   6.654  1.00  0.00     0.040 A 
ATOM     61  F   UNL     1      14.754  16.218   4.780  1.00  0.00    -0.206 F 
ATOM     62  C   UNL     1      16.639  16.439   7.868  1.00  0.00     0.006 A 
ENDBRANCH  38  55
ENDBRANCH  12  13
ENDBRANCH   5   7
ENDBRANCH   4   5
ENDBRANCH   3   4
ENDBRANCH   2   3
ENDBRANCH   1   2
BRANCH   1  63
ATOM     63  C   UNL     1       8.970   4.600  -2.823  1.00  0.00     0.202 C 
BRANCH  63  64
ATOM     64  C   UNL     1      10.252   3.819  -3.088  1.00  0.00     0.261 C 
BRANCH  64  65
ATOM     65  O   UNL     1      10.010   2.444  -2.742  1.00  0.00    -0.460 OA
BRANCH  65  66
ATOM     66  C   UNL     1      10.258   2.057  -1.455  1.00  0.00     0.343 C 
ATOM     67  O   UNL     1      10.867   2.672  -0.609  1.00  0.00    -0.246 OA
BRANCH  66  68
ATOM     68  C   UNL     1       9.505   0.797  -1.204  1.00  0.00     0.118 A 
ATOM     69  C   UNL     1       9.409  -0.116  -2.269  1.00  0.00     0.139 A 
ATOM     70  C   UNL     1       8.852   0.538   0.036  1.00  0.00     0.052 A 
ATOM     71  F   UNL     1      10.049   0.088  -3.432  1.00  0.00    -0.206 F 
ATOM     72  C   UNL     1       8.644  -1.267  -2.166  1.00  0.00     0.040 A 
ATOM     73  C   UNL     1       8.085  -0.641   0.097  1.00  0.00     0.027 A 
ATOM     74  C   UNL     1       7.981  -1.531  -0.980  1.00  0.00     0.005 A 
BRANCH  70  75
ATOM     75  N   UNL     1       8.871   1.429   1.109  1.00  0.00    -0.377 N 
ATOM     76  H   UNL     1       9.420   2.238   0.994  1.00  0.00     0.161 HD
BRANCH  75  77
ATOM     77  C   UNL     1       8.161   1.297   2.397  1.00  0.00     0.110 C 
ATOM     78  C   UNL     1       8.870   0.250   3.280  1.00  0.00     0.030 C 
ATOM     79  C   UNL     1       8.054   2.667   3.075  1.00  0.00    -0.023 A 
ATOM     80  C   UNL     1       8.658   0.508   4.767  1.00  0.00     0.007 C 
ATOM     81  C   UNL     1       8.682   2.953   4.300  1.00  0.00    -0.043 A 
ATOM     82  C   UNL     1       7.254   3.669   2.510  1.00  0.00     0.006 A 
ATOM     83  C   UNL     1       9.280   1.852   5.136  1.00  0.00     0.036 C 
ATOM     84  C   UNL     1       8.704   4.268   4.793  1.00  0.00     0.004 A 
ATOM     85  C   UNL     1       7.228   4.964   3.033  1.00  0.00     0.000 A 
ATOM     86  C   UNL     1       7.998   5.277   4.145  1.00  0.00     0.000 A 
ENDBRANCH  75  77
ENDBRANCH  70  75
ENDBRANCH  66  68
ENDBRANCH  65  66
ENDBRANCH  64  65
ENDBRANCH  63  64
ENDBRANCH   1  63
TORSDOF 16
