REMARK SMILES Cc1ccc(-c2ncccc2C(=O)OCCOCCOC(=O)c2ccc(-c3c4nc(c(-c5c(F)cccc5F)c5ccc([nH]5)c(-c5c(F)cccc5F)c5nc(c(-c6c(F)cccc6F)c6ccc3[nH]6)C=C5)C=C4)cc2)c(C)c1
REMARK SMILES IDX 18 1 17 2 16 3 15 4 14 5 12 6 13 7 11 8 6 9 7 10 8 11 10 12
REMARK SMILES IDX 9 13 5 14 1 15 2 16 3 17 79 18 4 19 77 20 78 21 19 22 20 23
REMARK SMILES IDX 21 24 22 25 23 26 24 27 76 28 25 29 75 30 26 31 27 32 28 33
REMARK SMILES IDX 69 34 29 35 74 36 68 37 70 38 30 39 73 40 67 41 66 42 31 44
REMARK SMILES IDX 57 45 40 46 56 47 41 48 44 49 55 50 71 51 42 52 43 53 54 55
REMARK SMILES IDX 72 56 45 57 32 58 33 59 38 60 34 61 35 62 37 63 39 64 36 65
REMARK SMILES IDX 58 66 59 67 64 68 60 69 61 70 63 71 65 72 62 73 46 74 47 75
REMARK SMILES IDX 52 76 48 77 49 78 51 79 53 80 50 81
REMARK H PARENT 70 43 44 54
REMARK Flexibility Score: inf
ROOT
ATOM      1  C   UNL     1       0.532  -3.715   1.915  1.00  0.00     0.202 C 
ENDROOT
BRANCH   1   2
ATOM      2  O   UNL     1       0.839  -3.697   3.305  1.00  0.00    -0.374 OA
BRANCH   2   3
ATOM      3  C   UNL     1      -0.252  -3.854   4.218  1.00  0.00     0.202 C 
BRANCH   3   4
ATOM      4  C   UNL     1      -1.306  -2.744   4.209  1.00  0.00     0.261 C 
BRANCH   4   5
ATOM      5  O   UNL     1      -2.167  -2.901   3.063  1.00  0.00    -0.460 OA
BRANCH   5   6
ATOM      6  C   UNL     1      -2.499  -1.755   2.421  1.00  0.00     0.340 C 
ATOM      7  O   UNL     1      -2.283  -0.616   2.804  1.00  0.00    -0.246 OA
BRANCH   6   8
ATOM      8  C   UNL     1      -3.148  -2.099   1.144  1.00  0.00     0.086 A 
ATOM      9  C   UNL     1      -2.685  -1.593  -0.078  1.00  0.00     0.085 A 
ATOM     10  N   UNL     1      -3.304  -1.882  -1.256  1.00  0.00    -0.255 NA
ATOM     11  C   UNL     1      -4.401  -2.670  -1.214  1.00  0.00     0.112 A 
ATOM     12  C   UNL     1      -4.265  -2.942   1.149  1.00  0.00     0.019 A 
ATOM     13  C   UNL     1      -4.906  -3.229  -0.051  1.00  0.00     0.021 A 
BRANCH   9  14
ATOM     14  C   UNL     1      -1.443  -0.814  -0.221  1.00  0.00     0.004 A 
ATOM     15  C   UNL     1       2.398   1.187  -0.162  1.00  0.00     0.044 C 
ATOM     16  C   UNL     1       1.069   0.495  -0.230  1.00  0.00    -0.051 A 
ATOM     17  C   UNL     1       0.980  -0.853  -0.573  1.00  0.00     0.004 A 
ATOM     18  C   UNL     1      -0.110   1.207   0.018  1.00  0.00     0.007 A 
ATOM     19  C   UNL     1      -0.262  -1.492  -0.578  1.00  0.00     0.011 A 
ATOM     20  C   UNL     1      -1.367   0.571   0.021  1.00  0.00    -0.041 A 
ATOM     21  C   UNL     1      -2.586   1.424   0.249  1.00  0.00     0.045 C 
ENDBRANCH   9  14
ENDBRANCH   6   8
ENDBRANCH   5   6
ENDBRANCH   4   5
ENDBRANCH   3   4
ENDBRANCH   2   3
ENDBRANCH   1   2
BRANCH   1  22
ATOM     22  C   UNL     1       0.386  -5.089   1.244  1.00  0.00     0.261 C 
BRANCH  22  23
ATOM     23  O   UNL     1      -0.280  -6.051   2.066  1.00  0.00    -0.460 OA
BRANCH  23  24
ATOM     24  C   UNL     1       0.575  -6.799   2.804  1.00  0.00     0.338 C 
ATOM     25  O   UNL     1       1.793  -6.821   2.738  1.00  0.00    -0.246 OA
BRANCH  24  26
ATOM     26  C   UNL     1      -0.171  -7.521   3.847  1.00  0.00     0.060 A 
ATOM     27  C   UNL     1       0.316  -7.429   5.155  1.00  0.00     0.016 A 
ATOM     28  C   UNL     1      -1.266  -8.334   3.544  1.00  0.00     0.016 A 
ATOM     29  C   UNL     1      -0.241  -8.216   6.155  1.00  0.00     0.010 A 
ATOM     30  C   UNL     1      -1.824  -9.127   4.550  1.00  0.00     0.010 A 
ATOM     31  C   UNL     1      -1.275  -9.110   5.845  1.00  0.00    -0.014 A 
BRANCH  31  32
ATOM     32  C   UNL     1      -1.611 -10.163   6.830  1.00  0.00     0.031 A 
ATOM     33  C   UNL     1      -0.983 -11.521   6.667  1.00  0.00     0.074 A 
ATOM     34  C   UNL     1      -2.375  -9.887   7.901  1.00  0.00     0.049 A 
ATOM     35  N   UNL     1      -1.063 -12.572   7.442  1.00  0.00    -0.248 NA
ATOM     36  C   UNL     1      -0.145 -11.719   5.472  1.00  0.00     0.031 C 
ATOM     37  C   UNL     1      -3.001  -8.596   8.184  1.00  0.00     0.029 A 
ATOM     38  N   UNL     1      -2.737 -10.678   8.960  1.00  0.00    -0.354 N 
ATOM     39  C   UNL     1      -0.277 -13.546   6.837  1.00  0.00     0.074 A 
ATOM     40  C   UNL     1       0.230 -12.981   5.606  1.00  0.00     0.031 C 
ATOM     41  C   UNL     1      -3.663  -8.681   9.351  1.00  0.00     0.029 A 
ATOM     42  C   UNL     1      -3.521 -10.034   9.885  1.00  0.00     0.049 A 
ATOM     43  H   UNL     1      -2.460 -11.619   9.050  1.00  0.00     0.167 HD
ATOM     44  C   UNL     1       0.017 -14.791   7.278  1.00  0.00     0.037 A 
ATOM     45  C   UNL     1      -4.060 -10.492  11.031  1.00  0.00     0.037 A 
ATOM     46  C   UNL     1      -0.491 -15.354   8.499  1.00  0.00     0.049 A 
ATOM     47  C   UNL     1      -3.778 -11.909  11.459  1.00  0.00     0.074 A 
ATOM     48  C   UNL     1      -0.270 -16.613   9.029  1.00  0.00     0.029 A 
ATOM     49  N   UNL     1      -1.325 -14.687   9.384  1.00  0.00    -0.354 N 
ATOM     50  N   UNL     1      -3.022 -12.814  10.887  1.00  0.00    -0.248 NA
ATOM     51  C   UNL     1      -4.421 -12.362  12.701  1.00  0.00     0.031 C 
ATOM     52  C   UNL     1      -0.999 -16.720  10.218  1.00  0.00     0.029 A 
ATOM     53  C   UNL     1      -1.639 -15.513  10.450  1.00  0.00     0.049 A 
ATOM     54  H   UNL     1      -1.646 -13.764   9.271  1.00  0.00     0.167 HD
ATOM     55  C   UNL     1      -3.072 -13.931  11.713  1.00  0.00     0.074 A 
ATOM     56  C   UNL     1      -3.919 -13.581  12.835  1.00  0.00     0.031 C 
ATOM     57  C   UNL     1      -2.476 -15.139  11.560  1.00  0.00     0.037 A 
BRANCH  44  58
ATOM     58  C   UNL     1       0.924 -15.627   6.424  1.00  0.00     0.057 A 
ATOM     59  C   UNL     1       2.296 -15.357   6.325  1.00  0.00     0.134 A 
ATOM     60  C   UNL     1       0.429 -16.726   5.711  1.00  0.00     0.134 A 
ATOM     61  F   UNL     1       2.830 -14.308   6.969  1.00  0.00    -0.206 F 
ATOM     62  C   UNL     1       3.139 -16.138   5.533  1.00  0.00     0.040 A 
ATOM     63  C   UNL     1       1.266 -17.529   4.934  1.00  0.00     0.040 A 
ATOM     64  F   UNL     1      -0.875 -17.039   5.762  1.00  0.00    -0.206 F 
ATOM     65  C   UNL     1       2.624 -17.232   4.840  1.00  0.00     0.006 A 
ENDBRANCH  44  58
BRANCH  45  66
ATOM     66  C   UNL     1      -4.918  -9.612  11.864  1.00  0.00     0.057 A 
ATOM     67  C   UNL     1      -4.510  -9.191  13.136  1.00  0.00     0.134 A 
ATOM     68  C   UNL     1      -6.189  -9.216  11.432  1.00  0.00     0.134 A 
ATOM     69  F   UNL     1      -3.312  -9.557  13.616  1.00  0.00    -0.206 F 
ATOM     70  C   UNL     1      -5.345  -8.433  13.959  1.00  0.00     0.040 A 
ATOM     71  C   UNL     1      -7.024  -8.436  12.233  1.00  0.00     0.040 A 
ATOM     72  F   UNL     1      -6.639  -9.585  10.224  1.00  0.00    -0.206 F 
ATOM     73  C   UNL     1      -6.606  -8.052  13.506  1.00  0.00     0.006 A 
ENDBRANCH  45  66
BRANCH  57  74
ATOM     74  C   UNL     1      -2.691 -16.148  12.650  1.00  0.00     0.057 A 
ATOM     75  C   UNL     1      -3.923 -16.788  12.832  1.00  0.00     0.134 A 
ATOM     76  C   UNL     1      -1.645 -16.496  13.515  1.00  0.00     0.134 A 
ATOM     77  F   UNL     1      -4.967 -16.490  12.044  1.00  0.00    -0.206 F 
ATOM     78  C   UNL     1      -4.118 -17.714  13.858  1.00  0.00     0.040 A 
ATOM     79  C   UNL     1      -1.820 -17.441  14.526  1.00  0.00     0.040 A 
ATOM     80  F   UNL     1      -0.436 -15.929  13.387  1.00  0.00    -0.206 F 
ATOM     81  C   UNL     1      -3.063 -18.046  14.706  1.00  0.00     0.006 A 
ENDBRANCH  57  74
ENDBRANCH  31  32
ENDBRANCH  24  26
ENDBRANCH  23  24
ENDBRANCH  22  23
ENDBRANCH   1  22
TORSDOF 15
