REMARK SMILES COCC[N@H+](C)[C@H](C)[C@@H](C)C(=O)OCCOCCOC(=O)c1ccc(-c2c3nc(c(-c4c(F)cccc4F)c4ccc([nH]4)c(-c4c(F)cccc4F)c4nc(c(-c5c(F)cccc5F)c5ccc2[nH]5)C=C4)C=C3)cc1
REMARK SMILES IDX 14 1 13 2 11 3 12 4 9 5 10 6 7 7 8 8 5 9 6 10 4 12 3 13 2 14
REMARK SMILES IDX 1 15 15 16 16 17 17 18 18 19 19 20 20 21 21 22 22 23 23 24
REMARK SMILES IDX 75 25 24 26 74 27 25 28 26 29 27 30 68 31 28 32 73 33 67 34
REMARK SMILES IDX 69 35 29 36 72 37 66 38 65 39 30 41 56 42 39 43 55 44 40 45
REMARK SMILES IDX 43 46 54 47 70 48 41 49 42 50 53 52 71 53 44 54 31 55 32 56
REMARK SMILES IDX 37 57 33 58 34 59 36 60 38 61 35 62 57 63 58 64 63 65 59 66
REMARK SMILES IDX 60 67 62 68 64 69 61 70 45 71 46 72 51 73 47 74 48 75 50 76
REMARK SMILES IDX 52 77 49 78
REMARK H PARENT 5 11 69 40 43 51
REMARK Flexibility Score: inf
ROOT
ATOM      1  C   UNL     1       0.996  -1.091   3.294  1.00  0.00     0.261 C 
ENDROOT
BRANCH   1   2
ATOM      2  O   UNL     1       1.166  -0.251   2.129  1.00  0.00    -0.463 OA
BRANCH   2   3
ATOM      3  C   UNL     1       1.157  -0.898   0.935  1.00  0.00     0.314 C 
ATOM      4  O   UNL     1       0.894  -2.088   0.796  1.00  0.00    -0.252 OA
BRANCH   3   5
ATOM      5  C   UNL     1       1.648  -0.048  -0.224  1.00  0.00     0.154 C 
ATOM      6  C   UNL     1       3.182  -0.061  -0.142  1.00  0.00     0.026 C 
BRANCH   5   7
ATOM      7  C   UNL     1       1.105   1.403  -0.359  1.00  0.00     0.194 C 
ATOM      8  C   UNL     1       1.641   2.039  -1.661  1.00  0.00     0.076 C 
BRANCH   7   9
ATOM      9  N   UNL     1      -0.349   1.656  -0.402  1.00  0.00    -0.333 N 
ATOM     10  C   UNL     1      -1.135   0.653  -1.112  1.00  0.00     0.333 C 
ATOM     11  H   UNL     1      -0.410   2.486  -0.992  1.00  0.00     0.348 HD
BRANCH   9  12
ATOM     12  C   UNL     1      -0.941   2.056   0.883  1.00  0.00     0.291 C 
BRANCH  12  13
ATOM     13  C   UNL     1      -0.459   3.398   1.473  1.00  0.00     0.221 C 
BRANCH  13  14
ATOM     14  O   UNL     1      -1.192   4.531   1.011  1.00  0.00    -0.379 OA
ATOM     15  C   UNL     1      -0.922   4.837  -0.350  1.00  0.00     0.195 C 
ENDBRANCH  13  14
ENDBRANCH  12  13
ENDBRANCH   9  12
ENDBRANCH   7   9
ENDBRANCH   5   7
ENDBRANCH   3   5
ENDBRANCH   2   3
ENDBRANCH   1   2
BRANCH   1  16
ATOM     16  C   UNL     1      -0.400  -0.993   3.914  1.00  0.00     0.202 C 
BRANCH  16  17
ATOM     17  O   UNL     1      -1.430  -1.745   3.275  1.00  0.00    -0.374 OA
BRANCH  17  18
ATOM     18  C   UNL     1      -2.082  -1.118   2.173  1.00  0.00     0.202 C 
BRANCH  18  19
ATOM     19  C   UNL     1      -3.171  -0.098   2.547  1.00  0.00     0.261 C 
BRANCH  19  20
ATOM     20  O   UNL     1      -2.635   1.009   3.303  1.00  0.00    -0.460 OA
BRANCH  20  21
ATOM     21  C   UNL     1      -3.031   1.060   4.595  1.00  0.00     0.338 C 
ATOM     22  O   UNL     1      -3.910   0.389   5.119  1.00  0.00    -0.246 OA
BRANCH  21  23
ATOM     23  C   UNL     1      -2.123   1.911   5.394  1.00  0.00     0.060 A 
ATOM     24  C   UNL     1      -1.649   1.363   6.590  1.00  0.00     0.016 A 
ATOM     25  C   UNL     1      -1.798   3.226   5.053  1.00  0.00     0.016 A 
ATOM     26  C   UNL     1      -0.960   2.159   7.500  1.00  0.00     0.010 A 
ATOM     27  C   UNL     1      -1.057   4.013   5.952  1.00  0.00     0.010 A 
ATOM     28  C   UNL     1      -0.711   3.511   7.220  1.00  0.00    -0.014 A 
BRANCH  28  29
ATOM     29  C   UNL     1      -0.310   4.399   8.353  1.00  0.00     0.031 A 
ATOM     30  C   UNL     1      -1.312   5.391   8.903  1.00  0.00     0.074 A 
ATOM     31  C   UNL     1       0.864   4.230   8.992  1.00  0.00     0.049 A 
ATOM     32  N   UNL     1      -1.242   6.133   9.983  1.00  0.00    -0.248 NA
ATOM     33  C   UNL     1      -2.556   5.574   8.139  1.00  0.00     0.031 C 
ATOM     34  C   UNL     1       1.922   3.304   8.589  1.00  0.00     0.029 A 
ATOM     35  N   UNL     1       1.349   4.809  10.142  1.00  0.00    -0.354 N 
ATOM     36  C   UNL     1      -2.427   6.860  10.021  1.00  0.00     0.074 A 
ATOM     37  C   UNL     1      -3.169   6.522   8.829  1.00  0.00     0.031 C 
ATOM     38  C   UNL     1       2.914   3.351   9.495  1.00  0.00     0.029 A 
ATOM     39  C   UNL     1       2.575   4.325  10.531  1.00  0.00     0.049 A 
ATOM     40  H   UNL     1       0.862   5.506  10.639  1.00  0.00     0.167 HD
ATOM     41  C   UNL     1      -2.882   7.711  10.973  1.00  0.00     0.037 A 
ATOM     42  C   UNL     1       3.336   4.623  11.604  1.00  0.00     0.037 A 
ATOM     43  C   UNL     1      -2.164   8.047  12.174  1.00  0.00     0.049 A 
ATOM     44  C   UNL     1       2.829   5.606  12.628  1.00  0.00     0.074 A 
ATOM     45  C   UNL     1      -2.557   8.878  13.209  1.00  0.00     0.029 A 
ATOM     46  N   UNL     1      -0.903   7.573  12.498  1.00  0.00    -0.354 N 
ATOM     47  N   UNL     1       1.684   6.244  12.674  1.00  0.00    -0.248 NA
ATOM     48  C   UNL     1       3.721   5.899  13.761  1.00  0.00     0.031 C 
ATOM     49  C   UNL     1      -1.508   8.954  14.131  1.00  0.00     0.029 A 
ATOM     50  C   UNL     1      -0.490   8.118  13.704  1.00  0.00     0.049 A 
ATOM     51  H   UNL     1      -0.378   6.943  11.953  1.00  0.00     0.167 HD
ATOM     52  C   UNL     1       1.707   6.987  13.849  1.00  0.00     0.074 A 
ATOM     53  C   UNL     1       2.968   6.702  14.499  1.00  0.00     0.031 C 
ATOM     54  C   UNL     1       0.768   7.831  14.345  1.00  0.00     0.037 A 
BRANCH  41  55
ATOM     55  C   UNL     1      -4.221   8.354  10.742  1.00  0.00     0.057 A 
ATOM     56  C   UNL     1      -5.416   7.622  10.791  1.00  0.00     0.134 A 
ATOM     57  C   UNL     1      -4.319   9.729  10.492  1.00  0.00     0.134 A 
ATOM     58  F   UNL     1      -5.395   6.299  11.012  1.00  0.00    -0.206 F 
ATOM     59  C   UNL     1      -6.654   8.228  10.568  1.00  0.00     0.040 A 
ATOM     60  C   UNL     1      -5.553  10.351  10.299  1.00  0.00     0.040 A 
ATOM     61  F   UNL     1      -3.216  10.491  10.438  1.00  0.00    -0.206 F 
ATOM     62  C   UNL     1      -6.725   9.599  10.329  1.00  0.00     0.006 A 
ENDBRANCH  41  55
BRANCH  42  63
ATOM     63  C   UNL     1       4.665   3.979  11.780  1.00  0.00     0.057 A 
ATOM     64  C   UNL     1       4.918   3.093  12.835  1.00  0.00     0.134 A 
ATOM     65  C   UNL     1       5.730   4.271  10.918  1.00  0.00     0.134 A 
ATOM     66  F   UNL     1       3.949   2.793  13.712  1.00  0.00    -0.206 F 
ATOM     67  C   UNL     1       6.184   2.540  13.040  1.00  0.00     0.040 A 
ATOM     68  C   UNL     1       6.992   3.701  11.093  1.00  0.00     0.040 A 
ATOM     69  F   UNL     1       5.557   5.112   9.888  1.00  0.00    -0.206 F 
ATOM     70  C   UNL     1       7.224   2.840  12.163  1.00  0.00     0.006 A 
ENDBRANCH  42  63
BRANCH  54  71
ATOM     71  C   UNL     1       1.053   8.480  15.671  1.00  0.00     0.057 A 
ATOM     72  C   UNL     1       2.055   9.447  15.828  1.00  0.00     0.134 A 
ATOM     73  C   UNL     1       0.303   8.143  16.806  1.00  0.00     0.134 A 
ATOM     74  F   UNL     1       2.817   9.812  14.785  1.00  0.00    -0.206 F 
ATOM     75  C   UNL     1       2.328  10.024  17.070  1.00  0.00     0.040 A 
ATOM     76  C   UNL     1       0.544   8.738  18.046  1.00  0.00     0.040 A 
ATOM     77  F   UNL     1      -0.683   7.237  16.729  1.00  0.00    -0.206 F 
ATOM     78  C   UNL     1       1.568   9.672  18.183  1.00  0.00     0.006 A 
ENDBRANCH  54  71
ENDBRANCH  28  29
ENDBRANCH  21  23
ENDBRANCH  20  21
ENDBRANCH  19  20
ENDBRANCH  18  19
ENDBRANCH  17  18
ENDBRANCH  16  17
ENDBRANCH   1  16
TORSDOF 19
