REMARK SMILES CCCCCCNC(=O)Oc1cccc(-c2ccc([C@@H](C)C(=O)OCCOCCOC(=O)c3ccc(-c4c5nc(c(-c6c(F)cccc6F)c6ccc([nH]6)c(-c6c(F)cccc6F)c6nc(c(-c7c(F)cccc7F)c7ccc4[nH]7)C=C6)C=C5)cc3)cc2N)c1
REMARK SMILES IDX 22 1 23 2 20 3 21 4 19 5 16 6 17 7 88 8 18 9 87 10 15 11
REMARK SMILES IDX 11 12 12 13 90 14 13 15 14 16 10 17 8 18 7 19 9 21 6 22 5 23
REMARK SMILES IDX 4 24 3 25 2 26 1 27 89 28 24 31 25 32 26 33 27 34 28 35
REMARK SMILES IDX 29 36 30 37 31 38 32 39 33 40 34 41 86 42 35 43 85 44 36 45
REMARK SMILES IDX 37 46 38 47 79 48 39 49 84 50 78 51 80 52 40 53 83 54 77 55
REMARK SMILES IDX 76 56 41 58 67 59 50 60 66 61 51 62 54 63 65 64 81 65 52 66
REMARK SMILES IDX 53 67 64 69 82 70 55 71 42 72 43 73 48 74 44 75 45 76 47 77
REMARK SMILES IDX 49 78 46 79 68 80 69 81 74 82 70 83 71 84 73 85 75 86 72 87
REMARK SMILES IDX 56 88 57 89 62 90 58 91 59 92 61 93 63 94 60 95
REMARK H PARENT 7 20 89 29 89 30 80 57 54 68
REMARK Flexibility Score: inf
ROOT
ATOM      1  C   UNL     1      -4.246  -4.278  14.306  1.00  0.00     0.313 C 
ATOM      2  O   UNL     1      -3.978  -3.681  15.345  1.00  0.00    -0.252 OA
ENDROOT
BRANCH   1   3
ATOM      3  C   UNL     1      -5.260  -3.734  13.314  1.00  0.00     0.126 C 
ATOM      4  C   UNL     1      -6.668  -4.051  13.812  1.00  0.00     0.025 C 
BRANCH   3   5
ATOM      5  C   UNL     1      -5.090  -4.086  11.839  1.00  0.00    -0.032 A 
ATOM      6  C   UNL     1      -5.046  -4.584   9.027  1.00  0.00     0.005 A 
ATOM      7  C   UNL     1      -5.214  -5.625   9.963  1.00  0.00     0.011 A 
ATOM      8  C   UNL     1      -4.841  -3.276   9.522  1.00  0.00     0.040 A 
ATOM      9  C   UNL     1      -5.241  -5.383  11.343  1.00  0.00     0.005 A 
ATOM     10  C   UNL     1      -4.867  -3.052  10.911  1.00  0.00     0.030 A 
BRANCH   6  11
ATOM     11  C   UNL     1      -5.152  -4.883   7.579  1.00  0.00    -0.013 A 
ATOM     12  C   UNL     1      -4.310  -4.746   5.302  1.00  0.00     0.133 A 
ATOM     13  C   UNL     1      -5.479  -5.316   4.804  1.00  0.00     0.047 A 
ATOM     14  C   UNL     1      -4.134  -4.537   6.673  1.00  0.00     0.056 A 
ATOM     15  C   UNL     1      -6.481  -5.699   5.690  1.00  0.00     0.004 A 
ATOM     16  C   UNL     1      -6.320  -5.478   7.062  1.00  0.00     0.009 A 
BRANCH  12  17
ATOM     17  O   UNL     1      -3.401  -4.250   4.349  1.00  0.00    -0.410 OA
BRANCH  17  18
ATOM     18  C   UNL     1      -2.050  -4.524   4.484  1.00  0.00     0.412 C 
ATOM     19  N   UNL     1      -1.276  -3.906   3.544  1.00  0.00    -0.321 N 
ATOM     20  H   UNL     1      -0.307  -4.073   3.595  1.00  0.00     0.167 HD
ATOM     21  O   UNL     1      -1.545  -5.248   5.341  1.00  0.00    -0.224 OA
BRANCH  19  22
ATOM     22  C   UNL     1      -1.725  -3.030   2.477  1.00  0.00     0.119 C 
BRANCH  22  23
ATOM     23  C   UNL     1      -1.130  -1.625   2.596  1.00  0.00     0.021 C 
BRANCH  23  24
ATOM     24  C   UNL     1       0.398  -1.556   2.481  1.00  0.00     0.002 C 
BRANCH  24  25
ATOM     25  C   UNL     1       0.990  -2.090   1.173  1.00  0.00    -0.000 C 
BRANCH  25  26
ATOM     26  C   UNL     1       0.516  -1.387  -0.101  1.00  0.00    -0.003 C 
ATOM     27  C   UNL     1       0.906   0.082  -0.160  1.00  0.00     0.004 C 
ENDBRANCH  25  26
ENDBRANCH  24  25
ENDBRANCH  23  24
ENDBRANCH  22  23
ENDBRANCH  19  22
ENDBRANCH  17  18
ENDBRANCH  12  17
ENDBRANCH   6  11
BRANCH   8  28
ATOM     28  N   UNL     1      -4.750  -2.164   8.688  1.00  0.00    -0.398 N 
ATOM     29  H   UNL     1      -4.730  -2.282   7.711  1.00  0.00     0.156 HD
ATOM     30  H   UNL     1      -4.707  -1.260   9.076  1.00  0.00     0.156 HD
ENDBRANCH   8  28
ENDBRANCH   3   5
ENDBRANCH   1   3
BRANCH   1  31
ATOM     31  O   UNL     1      -3.714  -5.476  13.953  1.00  0.00    -0.463 OA
BRANCH  31  32
ATOM     32  C   UNL     1      -2.650  -5.962  14.791  1.00  0.00     0.261 C 
BRANCH  32  33
ATOM     33  C   UNL     1      -1.339  -6.075  14.010  1.00  0.00     0.202 C 
BRANCH  33  34
ATOM     34  O   UNL     1      -0.757  -4.848  13.571  1.00  0.00    -0.374 OA
BRANCH  34  35
ATOM     35  C   UNL     1      -1.345  -4.207  12.439  1.00  0.00     0.202 C 
BRANCH  35  36
ATOM     36  C   UNL     1      -1.030  -4.809  11.064  1.00  0.00     0.261 C 
BRANCH  36  37
ATOM     37  O   UNL     1      -1.584  -6.126  10.902  1.00  0.00    -0.460 OA
BRANCH  37  38
ATOM     38  C   UNL     1      -0.669  -7.123  10.842  1.00  0.00     0.338 C 
ATOM     39  O   UNL     1       0.546  -7.018  10.855  1.00  0.00    -0.246 OA
BRANCH  38  40
ATOM     40  C   UNL     1      -1.343  -8.431  10.947  1.00  0.00     0.060 A 
ATOM     41  C   UNL     1      -0.862  -9.323  11.915  1.00  0.00     0.016 A 
ATOM     42  C   UNL     1      -2.357  -8.816  10.068  1.00  0.00     0.016 A 
ATOM     43  C   UNL     1      -1.351 -10.626  11.970  1.00  0.00     0.010 A 
ATOM     44  C   UNL     1      -2.841 -10.129  10.119  1.00  0.00     0.010 A 
ATOM     45  C   UNL     1      -2.311 -11.050  11.042  1.00  0.00    -0.014 A 
BRANCH  45  46
ATOM     46  C   UNL     1      -2.625 -12.495  10.934  1.00  0.00     0.031 A 
ATOM     47  C   UNL     1      -1.960 -13.305   9.854  1.00  0.00     0.074 A 
ATOM     48  C   UNL     1      -3.452 -13.093  11.810  1.00  0.00     0.049 A 
ATOM     49  N   UNL     1      -2.101 -14.572   9.558  1.00  0.00    -0.248 NA
ATOM     50  C   UNL     1      -1.004 -12.588   8.993  1.00  0.00     0.031 C 
ATOM     51  C   UNL     1      -4.118 -12.431  12.930  1.00  0.00     0.029 A 
ATOM     52  N   UNL     1      -3.872 -14.397  11.889  1.00  0.00    -0.354 N 
ATOM     53  C   UNL     1      -1.261 -14.802   8.476  1.00  0.00     0.074 A 
ATOM     54  C   UNL     1      -0.634 -13.539   8.149  1.00  0.00     0.031 C 
ATOM     55  C   UNL     1      -4.874 -13.334  13.580  1.00  0.00     0.029 A 
ATOM     56  C   UNL     1      -4.767 -14.626  12.904  1.00  0.00     0.049 A 
ATOM     57  H   UNL     1      -3.561 -15.102  11.276  1.00  0.00     0.167 HD
ATOM     58  C   UNL     1      -1.026 -15.962   7.818  1.00  0.00     0.037 A 
ATOM     59  C   UNL     1      -5.439 -15.745  13.236  1.00  0.00     0.037 A 
ATOM     60  C   UNL     1      -1.645 -17.219   8.143  1.00  0.00     0.049 A 
ATOM     61  C   UNL     1      -5.216 -17.006  12.443  1.00  0.00     0.074 A 
ATOM     62  C   UNL     1      -1.461 -18.452   7.543  1.00  0.00     0.029 A 
ATOM     63  N   UNL     1      -2.574 -17.401   9.156  1.00  0.00    -0.354 N 
ATOM     64  N   UNL     1      -4.409 -17.217  11.432  1.00  0.00    -0.248 NA
ATOM     65  C   UNL     1      -5.999 -18.186  12.839  1.00  0.00     0.031 C 
ATOM     66  C   UNL     1      -2.313 -19.372   8.164  1.00  0.00     0.029 A 
ATOM     67  C   UNL     1      -2.991 -18.721   9.183  1.00  0.00     0.049 A 
ATOM     68  H   UNL     1      -2.891 -16.696   9.766  1.00  0.00     0.167 HD
ATOM     69  C   UNL     1      -4.563 -18.556  11.092  1.00  0.00     0.074 A 
ATOM     70  C   UNL     1      -5.535 -19.111  12.010  1.00  0.00     0.031 C 
ATOM     71  C   UNL     1      -3.952 -19.262  10.110  1.00  0.00     0.037 A 
BRANCH  58  72
ATOM     72  C   UNL     1      -0.073 -15.917   6.660  1.00  0.00     0.057 A 
ATOM     73  C   UNL     1       1.308 -15.771   6.842  1.00  0.00     0.134 A 
ATOM     74  C   UNL     1      -0.542 -16.050   5.347  1.00  0.00     0.134 A 
ATOM     75  F   UNL     1       1.819 -15.625   8.073  1.00  0.00    -0.206 F 
ATOM     76  C   UNL     1       2.187 -15.737   5.758  1.00  0.00     0.040 A 
ATOM     77  C   UNL     1       0.329 -16.043   4.256  1.00  0.00     0.040 A 
ATOM     78  F   UNL     1      -1.853 -16.198   5.103  1.00  0.00    -0.206 F 
ATOM     79  C   UNL     1       1.698 -15.880   4.460  1.00  0.00     0.006 A 
ENDBRANCH  58  72
BRANCH  59  80
ATOM     80  C   UNL     1      -6.402 -15.727  14.365  1.00  0.00     0.057 A 
ATOM     81  C   UNL     1      -6.146 -16.424  15.551  1.00  0.00     0.134 A 
ATOM     82  C   UNL     1      -7.614 -15.031  14.274  1.00  0.00     0.134 A 
ATOM     83  F   UNL     1      -5.015 -17.131  15.687  1.00  0.00    -0.206 F 
ATOM     84  C   UNL     1      -7.067 -16.445  16.600  1.00  0.00     0.040 A 
ATOM     85  C   UNL     1      -8.533 -15.022  15.325  1.00  0.00     0.040 A 
ATOM     86  F   UNL     1      -7.920 -14.344  13.164  1.00  0.00    -0.206 F 
ATOM     87  C   UNL     1      -8.263 -15.737  16.490  1.00  0.00     0.006 A 
ENDBRANCH  59  80
BRANCH  71  88
ATOM     88  C   UNL     1      -4.283 -20.722  10.000  1.00  0.00     0.057 A 
ATOM     89  C   UNL     1      -5.512 -21.168   9.500  1.00  0.00     0.134 A 
ATOM     90  C   UNL     1      -3.340 -21.694  10.358  1.00  0.00     0.134 A 
ATOM     91  F   UNL     1      -6.463 -20.288   9.150  1.00  0.00    -0.206 F 
ATOM     92  C   UNL     1      -5.800 -22.528   9.377  1.00  0.00     0.040 A 
ATOM     93  C   UNL     1      -3.605 -23.057  10.217  1.00  0.00     0.040 A 
ATOM     94  F   UNL     1      -2.138 -21.335  10.836  1.00  0.00    -0.206 F 
ATOM     95  C   UNL     1      -4.841 -23.477   9.730  1.00  0.00     0.006 A 
ENDBRANCH  71  88
ENDBRANCH  45  46
ENDBRANCH  38  40
ENDBRANCH  37  38
ENDBRANCH  36  37
ENDBRANCH  35  36
ENDBRANCH  34  35
ENDBRANCH  33  34
ENDBRANCH  32  33
ENDBRANCH  31  32
ENDBRANCH   1  31
TORSDOF 24
