REMARK SMILES C[C@H](C(=O)OCCOCCOC(=O)c1ccc(-c2c3nc(c(-c4c(F)cccc4F)c4ccc([nH]4)c(-c4c(F)cccc4F)c4nc(c(-c5c(F)cccc5F)c5ccc2[nH]5)C=C4)C=C3)cc1)[C@H](C)[N@@H+]1CC[C@H]([NH+]2CCCCC2)C1
REMARK SMILES IDX 7 1 6 2 5 3 3 4 4 5 2 6 1 7 68 8 69 9 70 10 71 11 80 12
REMARK SMILES IDX 72 14 73 15 74 16 75 17 79 18 76 20 78 21 77 22 8 23 9 24
REMARK SMILES IDX 10 25 11 26 12 27 13 28 14 29 15 30 67 31 16 32 66 33 17 34
REMARK SMILES IDX 18 35 19 36 60 37 20 38 65 39 59 40 61 41 21 42 64 43 58 44
REMARK SMILES IDX 57 45 22 47 48 48 31 49 47 50 32 51 35 52 46 53 62 54 33 55
REMARK SMILES IDX 34 56 45 58 63 59 36 60 23 61 24 62 29 63 25 64 26 65 28 66
REMARK SMILES IDX 30 67 27 68 49 69 50 70 55 71 51 72 52 73 54 74 56 75 53 76
REMARK SMILES IDX 37 77 38 78 43 79 39 80 40 81 42 82 44 83 41 84
REMARK H PARENT 70 13 74 19 61 46 35 57
REMARK Flexibility Score: inf
ROOT
ATOM      1  C   UNL     1       0.944   1.366   2.996  1.00  0.00     0.202 C 
ENDROOT
BRANCH   1   2
ATOM      2  C   UNL     1       0.585   2.576   2.136  1.00  0.00     0.261 C 
BRANCH   2   3
ATOM      3  O   UNL     1      -0.441   2.264   1.179  1.00  0.00    -0.463 OA
BRANCH   3   4
ATOM      4  C   UNL     1      -0.018   2.249  -0.115  1.00  0.00     0.314 C 
ATOM      5  O   UNL     1       1.117   2.535  -0.476  1.00  0.00    -0.252 OA
BRANCH   4   6
ATOM      6  C   UNL     1      -1.156   1.921  -1.074  1.00  0.00     0.154 C 
ATOM      7  C   UNL     1      -1.324   3.230  -1.848  1.00  0.00     0.026 C 
BRANCH   6   8
ATOM      8  C   UNL     1      -0.887   0.570  -1.841  1.00  0.00     0.195 C 
ATOM      9  C   UNL     1       0.576   0.375  -2.278  1.00  0.00     0.076 C 
BRANCH   8  10
ATOM     10  N   UNL     1      -1.676   0.122  -3.014  1.00  0.00    -0.327 N 
ATOM     11  C   UNL     1      -2.389   1.099  -3.818  1.00  0.00     0.269 C 
ATOM     12  C   UNL     1      -2.652  -0.956  -2.756  1.00  0.00     0.328 C 
ATOM     13  H   UNL     1      -0.869  -0.197  -3.550  1.00  0.00     0.348 HD
ATOM     14  C   UNL     1      -3.766   1.147  -3.181  1.00  0.00     0.132 C 
ATOM     15  C   UNL     1      -4.064  -0.335  -2.933  1.00  0.00     0.245 C 
BRANCH  15  16
ATOM     16  N   UNL     1      -5.119  -0.657  -1.953  1.00  0.00    -0.328 N 
ATOM     17  C   UNL     1      -4.696  -0.640  -0.549  1.00  0.00     0.262 C 
ATOM     18  C   UNL     1      -6.318   0.177  -2.152  1.00  0.00     0.262 C 
ATOM     19  H   UNL     1      -5.351  -1.631  -2.147  1.00  0.00     0.348 HD
ATOM     20  C   UNL     1      -5.815  -1.157   0.359  1.00  0.00     0.062 C 
ATOM     21  C   UNL     1      -7.486  -0.286  -1.282  1.00  0.00     0.062 C 
ATOM     22  C   UNL     1      -7.091  -0.346   0.189  1.00  0.00     0.012 C 
ENDBRANCH  15  16
ENDBRANCH   8  10
ENDBRANCH   6   8
ENDBRANCH   4   6
ENDBRANCH   3   4
ENDBRANCH   2   3
ENDBRANCH   1   2
BRANCH   1  23
ATOM     23  O   UNL     1       1.446   0.211   2.328  1.00  0.00    -0.374 OA
BRANCH  23  24
ATOM     24  C   UNL     1       0.512  -0.606   1.623  1.00  0.00     0.202 C 
BRANCH  24  25
ATOM     25  C   UNL     1      -0.369  -1.552   2.448  1.00  0.00     0.261 C 
BRANCH  25  26
ATOM     26  O   UNL     1      -1.197  -0.856   3.393  1.00  0.00    -0.460 OA
BRANCH  26  27
ATOM     27  C   UNL     1      -0.777  -0.945   4.676  1.00  0.00     0.338 C 
ATOM     28  O   UNL     1       0.156  -1.611   5.109  1.00  0.00    -0.246 OA
BRANCH  27  29
ATOM     29  C   UNL     1      -1.489   0.042   5.502  1.00  0.00     0.060 A 
ATOM     30  C   UNL     1      -0.715   0.926   6.266  1.00  0.00     0.016 A 
ATOM     31  C   UNL     1      -2.883   0.068   5.574  1.00  0.00     0.016 A 
ATOM     32  C   UNL     1      -1.332   1.808   7.147  1.00  0.00     0.010 A 
ATOM     33  C   UNL     1      -3.501   0.944   6.470  1.00  0.00     0.010 A 
ATOM     34  C   UNL     1      -2.725   1.786   7.286  1.00  0.00    -0.014 A 
BRANCH  34  35
ATOM     35  C   UNL     1      -3.349   2.515   8.413  1.00  0.00     0.031 A 
ATOM     36  C   UNL     1      -3.688   1.750   9.662  1.00  0.00     0.074 A 
ATOM     37  C   UNL     1      -3.579   3.837   8.335  1.00  0.00     0.049 A 
ATOM     38  N   UNL     1      -4.265   2.166  10.759  1.00  0.00    -0.248 NA
ATOM     39  C   UNL     1      -3.331   0.322   9.672  1.00  0.00     0.031 C 
ATOM     40  C   UNL     1      -3.249   4.685   7.191  1.00  0.00     0.029 A 
ATOM     41  N   UNL     1      -4.148   4.694   9.240  1.00  0.00    -0.354 N 
ATOM     42  C   UNL     1      -4.347   1.052  11.585  1.00  0.00     0.074 A 
ATOM     43  C   UNL     1      -3.789  -0.064  10.853  1.00  0.00     0.031 C 
ATOM     44  C   UNL     1      -3.631   5.945   7.461  1.00  0.00     0.029 A 
ATOM     45  C   UNL     1      -4.257   5.983   8.781  1.00  0.00     0.049 A 
ATOM     46  H   UNL     1      -4.450   4.413  10.134  1.00  0.00     0.167 HD
ATOM     47  C   UNL     1      -4.838   0.969  12.844  1.00  0.00     0.037 A 
ATOM     48  C   UNL     1      -4.819   7.063   9.358  1.00  0.00     0.037 A 
ATOM     49  C   UNL     1      -5.388   2.085  13.566  1.00  0.00     0.049 A 
ATOM     50  C   UNL     1      -5.420   6.930  10.732  1.00  0.00     0.074 A 
ATOM     51  C   UNL     1      -5.891   2.116  14.854  1.00  0.00     0.029 A 
ATOM     52  N   UNL     1      -5.513   3.369  13.055  1.00  0.00    -0.354 N 
ATOM     53  N   UNL     1      -5.471   5.879  11.515  1.00  0.00    -0.248 NA
ATOM     54  C   UNL     1      -6.042   8.133  11.302  1.00  0.00     0.031 C 
ATOM     55  C   UNL     1      -6.369   3.407  15.104  1.00  0.00     0.029 A 
ATOM     56  C   UNL     1      -6.113   4.193  13.992  1.00  0.00     0.049 A 
ATOM     57  H   UNL     1      -5.220   3.651  12.159  1.00  0.00     0.167 HD
ATOM     58  C   UNL     1      -6.100   6.301  12.680  1.00  0.00     0.074 A 
ATOM     59  C   UNL     1      -6.403   7.707  12.504  1.00  0.00     0.031 C 
ATOM     60  C   UNL     1      -6.399   5.592  13.797  1.00  0.00     0.037 A 
BRANCH  47  61
ATOM     61  C   UNL     1      -4.829  -0.379  13.503  1.00  0.00     0.057 A 
ATOM     62  C   UNL     1      -3.643  -0.988  13.935  1.00  0.00     0.134 A 
ATOM     63  C   UNL     1      -6.028  -1.067  13.728  1.00  0.00     0.134 A 
ATOM     64  F   UNL     1      -2.459  -0.389  13.734  1.00  0.00    -0.206 F 
ATOM     65  C   UNL     1      -3.648  -2.243  14.546  1.00  0.00     0.040 A 
ATOM     66  C   UNL     1      -6.048  -2.311  14.362  1.00  0.00     0.040 A 
ATOM     67  F   UNL     1      -7.199  -0.541  13.341  1.00  0.00    -0.206 F 
ATOM     68  C   UNL     1      -4.855  -2.905  14.767  1.00  0.00     0.006 A 
ENDBRANCH  47  61
BRANCH  48  69
ATOM     69  C   UNL     1      -4.846   8.361   8.639  1.00  0.00     0.057 A 
ATOM     70  C   UNL     1      -4.090   9.452   9.083  1.00  0.00     0.134 A 
ATOM     71  C   UNL     1      -5.642   8.550   7.503  1.00  0.00     0.134 A 
ATOM     72  F   UNL     1      -3.325   9.341  10.179  1.00  0.00    -0.206 F 
ATOM     73  C   UNL     1      -4.136  10.687   8.434  1.00  0.00     0.040 A 
ATOM     74  C   UNL     1      -5.678   9.771   6.828  1.00  0.00     0.040 A 
ATOM     75  F   UNL     1      -6.390   7.544   7.025  1.00  0.00    -0.206 F 
ATOM     76  C   UNL     1      -4.928  10.847   7.299  1.00  0.00     0.006 A 
ENDBRANCH  48  69
BRANCH  60  77
ATOM     77  C   UNL     1      -7.051   6.333  14.927  1.00  0.00     0.057 A 
ATOM     78  C   UNL     1      -8.386   6.751  14.867  1.00  0.00     0.134 A 
ATOM     79  C   UNL     1      -6.344   6.593  16.109  1.00  0.00     0.134 A 
ATOM     80  F   UNL     1      -9.114   6.543  13.759  1.00  0.00    -0.206 F 
ATOM     81  C   UNL     1      -8.989   7.421  15.933  1.00  0.00     0.040 A 
ATOM     82  C   UNL     1      -6.944   7.237  17.191  1.00  0.00     0.040 A 
ATOM     83  F   UNL     1      -5.065   6.209  16.236  1.00  0.00    -0.206 F 
ATOM     84  C   UNL     1      -8.268   7.659  17.102  1.00  0.00     0.006 A 
ENDBRANCH  60  77
ENDBRANCH  34  35
ENDBRANCH  27  29
ENDBRANCH  26  27
ENDBRANCH  25  26
ENDBRANCH  24  25
ENDBRANCH  23  24
ENDBRANCH   1  23
TORSDOF 17
