REMARK SMILES [NH3+][C@H](CS[C@@H]1CC(=O)N(c2ccc3ccccc3c2)C1=O)C(=O)OCCOCCOC(=O)c1ccc(-c2c3nc(c(-c4c(F)cccc4F)c4ccc([nH]4)c(-c4c(F)cccc4F)c4nc(c(-c5c(F)cccc5F)c5ccc2[nH]5)C=C4)C=C3)cc1
REMARK SMILES IDX 26 1 25 2 24 3 22 4 23 5 2 6 1 7 3 11 4 12 5 13 6 14 20 15
REMARK SMILES IDX 7 16 9 17 21 18 8 19 10 20 11 21 19 22 12 23 18 24 13 25
REMARK SMILES IDX 17 26 14 27 16 28 15 29 27 30 28 31 29 32 30 33 31 34 32 35
REMARK SMILES IDX 33 36 34 37 86 38 35 39 85 40 36 41 37 42 38 43 79 44 39 45
REMARK SMILES IDX 84 46 78 47 80 48 40 49 83 50 77 51 76 52 41 54 67 55 50 56
REMARK SMILES IDX 66 57 51 58 54 59 65 60 81 61 52 62 53 63 64 65 82 66 55 67
REMARK SMILES IDX 42 68 43 69 48 70 44 71 45 72 47 73 49 74 46 75 68 76 69 77
REMARK SMILES IDX 74 78 70 79 71 80 73 81 75 82 72 83 56 84 57 85 62 86 58 87
REMARK SMILES IDX 59 88 61 89 63 90 60 91
REMARK H PARENT 1 8 1 9 1 10 80 53 54 64
REMARK Flexibility Score: inf
ROOT
ATOM      1  C   UNL     1      -3.668  -0.334   1.281  1.00  0.00     0.202 C 
ENDROOT
BRANCH   1   2
ATOM      2  C   UNL     1      -2.983   0.843   2.001  1.00  0.00     0.261 C 
BRANCH   2   3
ATOM      3  O   UNL     1      -1.662   0.461   2.491  1.00  0.00    -0.459 OA
BRANCH   3   4
ATOM      4  C   UNL     1      -0.435   0.991   2.429  1.00  0.00     0.365 C 
ATOM      5  O   UNL     1       0.155   1.182   3.503  1.00  0.00    -0.245 OA
BRANCH   4   6
ATOM      6  C   UNL     1       0.423   1.127   1.132  1.00  0.00     0.301 C 
BRANCH   6   7
ATOM      7  N   UNL     1       0.883   2.534   0.968  1.00  0.00    -0.345 N 
ATOM      8  H   UNL     1       1.008   2.960   1.887  1.00  0.00     0.345 HD
ATOM      9  H   UNL     1       0.186   3.061   0.442  1.00  0.00     0.345 HD
ATOM     10  H   UNL     1       1.770   2.546   0.465  1.00  0.00     0.345 HD
ENDBRANCH   6   7
BRANCH   6  11
ATOM     11  C   UNL     1       0.203   0.389  -0.209  1.00  0.00     0.147 C 
BRANCH  11  12
ATOM     12  S   UNL     1       0.723   1.368  -1.734  1.00  0.00    -0.141 SA
BRANCH  12  13
ATOM     13  C   UNL     1      -0.877   2.030  -2.334  1.00  0.00     0.146 C 
ATOM     14  C   UNL     1      -0.810   3.384  -3.025  1.00  0.00     0.125 C 
ATOM     15  C   UNL     1      -1.815   2.312  -1.205  1.00  0.00     0.247 C 
ATOM     16  C   UNL     1      -1.487   4.339  -2.066  1.00  0.00     0.235 C 
ATOM     17  N   UNL     1      -1.827   3.655  -0.939  1.00  0.00    -0.250 N 
ATOM     18  O   UNL     1      -2.502   1.448  -0.715  1.00  0.00    -0.273 OA
ATOM     19  O   UNL     1      -1.744   5.502  -2.344  1.00  0.00    -0.274 OA
BRANCH  17  20
ATOM     20  C   UNL     1      -2.513   4.177   0.178  1.00  0.00     0.052 A 
ATOM     21  C   UNL     1      -3.864   4.507   0.125  1.00  0.00     0.027 A 
ATOM     22  C   UNL     1      -1.870   4.165   1.424  1.00  0.00     0.035 A 
ATOM     23  C   UNL     1      -4.563   4.764   1.315  1.00  0.00     0.011 A 
ATOM     24  C   UNL     1      -2.562   4.368   2.627  1.00  0.00    -0.016 A 
ATOM     25  C   UNL     1      -3.935   4.671   2.575  1.00  0.00    -0.018 A 
ATOM     26  C   UNL     1      -1.923   4.220   3.872  1.00  0.00     0.009 A 
ATOM     27  C   UNL     1      -4.632   4.842   3.785  1.00  0.00     0.009 A 
ATOM     28  C   UNL     1      -2.633   4.374   5.061  1.00  0.00     0.001 A 
ATOM     29  C   UNL     1      -3.987   4.692   5.018  1.00  0.00     0.001 A 
ENDBRANCH  17  20
ENDBRANCH  12  13
ENDBRANCH  11  12
ENDBRANCH   6  11
ENDBRANCH   4   6
ENDBRANCH   3   4
ENDBRANCH   2   3
ENDBRANCH   1   2
BRANCH   1  30
ATOM     30  O   UNL     1      -3.370  -1.607   1.860  1.00  0.00    -0.374 OA
BRANCH  30  31
ATOM     31  C   UNL     1      -2.082  -2.115   1.504  1.00  0.00     0.202 C 
BRANCH  31  32
ATOM     32  C   UNL     1      -2.086  -3.043   0.293  1.00  0.00     0.261 C 
BRANCH  32  33
ATOM     33  O   UNL     1      -2.338  -2.333  -0.939  1.00  0.00    -0.460 OA
BRANCH  33  34
ATOM     34  C   UNL     1      -3.620  -2.395  -1.373  1.00  0.00     0.338 C 
ATOM     35  O   UNL     1      -4.549  -2.980  -0.841  1.00  0.00    -0.246 OA
BRANCH  34  36
ATOM     36  C   UNL     1      -3.807  -1.586  -2.595  1.00  0.00     0.060 A 
ATOM     37  C   UNL     1      -4.934  -0.758  -2.663  1.00  0.00     0.016 A 
ATOM     38  C   UNL     1      -2.988  -1.752  -3.716  1.00  0.00     0.016 A 
ATOM     39  C   UNL     1      -5.288  -0.149  -3.868  1.00  0.00     0.010 A 
ATOM     40  C   UNL     1      -3.343  -1.137  -4.923  1.00  0.00     0.010 A 
ATOM     41  C   UNL     1      -4.519  -0.369  -5.019  1.00  0.00    -0.014 A 
BRANCH  41  42
ATOM     42  C   UNL     1      -5.008   0.087  -6.347  1.00  0.00     0.031 A 
ATOM     43  C   UNL     1      -5.593  -0.918  -7.304  1.00  0.00     0.074 A 
ATOM     44  C   UNL     1      -4.936   1.382  -6.703  1.00  0.00     0.049 A 
ATOM     45  N   UNL     1      -5.988  -0.755  -8.542  1.00  0.00    -0.248 NA
ATOM     46  C   UNL     1      -5.752  -2.291  -6.799  1.00  0.00     0.031 C 
ATOM     47  C   UNL     1      -4.439   2.465  -5.856  1.00  0.00     0.029 A 
ATOM     48  N   UNL     1      -5.267   2.001  -7.883  1.00  0.00    -0.354 N 
ATOM     49  C   UNL     1      -6.424  -2.004  -8.969  1.00  0.00     0.074 A 
ATOM     50  C   UNL     1      -6.225  -2.920  -7.866  1.00  0.00     0.031 C 
ATOM     51  C   UNL     1      -4.476   3.614  -6.553  1.00  0.00     0.029 A 
ATOM     52  C   UNL     1      -4.963   3.341  -7.905  1.00  0.00     0.049 A 
ATOM     53  H   UNL     1      -5.684   1.530  -8.641  1.00  0.00     0.167 HD
ATOM     54  C   UNL     1      -6.948  -2.355 -10.168  1.00  0.00     0.037 A 
ATOM     55  C   UNL     1      -5.037   4.236  -8.909  1.00  0.00     0.037 A 
ATOM     56  C   UNL     1      -7.163  -1.442 -11.261  1.00  0.00     0.049 A 
ATOM     57  C   UNL     1      -5.549   3.805 -10.259  1.00  0.00     0.074 A 
ATOM     58  C   UNL     1      -7.729  -1.699 -12.499  1.00  0.00     0.029 A 
ATOM     59  N   UNL     1      -6.814  -0.102 -11.253  1.00  0.00    -0.354 N 
ATOM     60  N   UNL     1      -5.986   2.629 -10.642  1.00  0.00    -0.248 NA
ATOM     61  C   UNL     1      -5.575   4.825 -11.318  1.00  0.00     0.031 C 
ATOM     62  C   UNL     1      -7.667  -0.528 -13.260  1.00  0.00     0.029 A 
ATOM     63  C   UNL     1      -7.116   0.473 -12.477  1.00  0.00     0.049 A 
ATOM     64  H   UNL     1      -6.411   0.373 -10.490  1.00  0.00     0.167 HD
ATOM     65  C   UNL     1      -6.364   2.776 -11.972  1.00  0.00     0.074 A 
ATOM     66  C   UNL     1      -6.116   4.157 -12.327  1.00  0.00     0.031 C 
ATOM     67  C   UNL     1      -6.872   1.850 -12.821  1.00  0.00     0.037 A 
BRANCH  54  68
ATOM     68  C   UNL     1      -7.304  -3.799 -10.380  1.00  0.00     0.057 A 
ATOM     69  C   UNL     1      -8.407  -4.393  -9.755  1.00  0.00     0.134 A 
ATOM     70  C   UNL     1      -6.562  -4.589 -11.269  1.00  0.00     0.134 A 
ATOM     71  F   UNL     1      -9.155  -3.695  -8.887  1.00  0.00    -0.206 F 
ATOM     72  C   UNL     1      -8.748  -5.727  -9.991  1.00  0.00     0.040 A 
ATOM     73  C   UNL     1      -6.908  -5.915 -11.532  1.00  0.00     0.040 A 
ATOM     74  F   UNL     1      -5.498  -4.079 -11.908  1.00  0.00    -0.206 F 
ATOM     75  C   UNL     1      -8.002  -6.489 -10.888  1.00  0.00     0.006 A 
ENDBRANCH  54  68
BRANCH  55  76
ATOM     76  C   UNL     1      -4.581   5.633  -8.691  1.00  0.00     0.057 A 
ATOM     77  C   UNL     1      -5.483   6.703  -8.703  1.00  0.00     0.134 A 
ATOM     78  C   UNL     1      -3.227   5.933  -8.495  1.00  0.00     0.134 A 
ATOM     79  F   UNL     1      -6.789   6.482  -8.912  1.00  0.00    -0.206 F 
ATOM     80  C   UNL     1      -5.054   8.022  -8.547  1.00  0.00     0.040 A 
ATOM     81  C   UNL     1      -2.788   7.245  -8.310  1.00  0.00     0.040 A 
ATOM     82  F   UNL     1      -2.312   4.953  -8.472  1.00  0.00    -0.206 F 
ATOM     83  C   UNL     1      -3.702   8.295  -8.344  1.00  0.00     0.006 A 
ENDBRANCH  55  76
BRANCH  67  84
ATOM     84  C   UNL     1      -7.227   2.299 -14.210  1.00  0.00     0.057 A 
ATOM     85  C   UNL     1      -6.247   2.592 -15.166  1.00  0.00     0.134 A 
ATOM     86  C   UNL     1      -8.567   2.384 -14.612  1.00  0.00     0.134 A 
ATOM     87  F   UNL     1      -4.946   2.542 -14.844  1.00  0.00    -0.206 F 
ATOM     88  C   UNL     1      -6.587   2.970 -16.467  1.00  0.00     0.040 A 
ATOM     89  C   UNL     1      -8.918   2.734 -15.916  1.00  0.00     0.040 A 
ATOM     90  F   UNL     1      -9.556   2.107 -13.749  1.00  0.00    -0.206 F 
ATOM     91  C   UNL     1      -7.926   3.033 -16.847  1.00  0.00     0.006 A 
ENDBRANCH  67  84
ENDBRANCH  41  42
ENDBRANCH  34  36
ENDBRANCH  33  34
ENDBRANCH  32  33
ENDBRANCH  31  32
ENDBRANCH  30  31
ENDBRANCH   1  30
TORSDOF 19
