REMARK SMILES Cc1ccc(NC(=O)C[N@H+]2CC[C@@H](C(=O)OCCOCCOC(=O)c3ccc(-c4c5nc(c(-c6c(F)cccc6F)c6ccc([nH]6)c(-c6c(F)cccc6F)c6nc(c(-c7c(F)cccc7F)c7ccc4[nH]7)C=C6)C=C5)cc3)[C@@H]2C)cc1
REMARK SMILES IDX 18 1 17 2 16 3 14 4 15 5 13 6 10 7 11 8 79 9 12 11 80 12
REMARK SMILES IDX 9 13 7 14 6 15 8 17 5 18 1 19 2 20 3 21 82 22 4 23 81 24
REMARK SMILES IDX 19 25 20 26 21 27 22 28 23 29 24 30 25 31 26 32 78 33 27 34
REMARK SMILES IDX 77 35 28 36 29 37 30 38 71 39 31 40 76 41 70 42 72 43 32 44
REMARK SMILES IDX 75 45 69 46 68 47 33 49 59 50 42 51 58 52 43 53 46 54 57 55
REMARK SMILES IDX 73 56 44 57 45 58 56 60 74 61 47 62 34 63 35 64 40 65 36 66
REMARK SMILES IDX 37 67 39 68 41 69 38 70 60 71 61 72 66 73 62 74 63 75 65 76
REMARK SMILES IDX 67 77 64 78 48 79 49 80 54 81 50 82 51 83 53 84 55 85 52 86
REMARK H PARENT 10 10 6 16 72 48 46 59
REMARK Flexibility Score: inf
ROOT
ATOM      1  C   UNL     1       0.675  -3.401   2.042  1.00  0.00     0.202 C 
ENDROOT
BRANCH   1   2
ATOM      2  C   UNL     1       0.103  -2.362   1.142  1.00  0.00     0.261 C 
BRANCH   2   3
ATOM      3  O   UNL     1      -0.270  -2.989  -0.087  1.00  0.00    -0.463 OA
BRANCH   3   4
ATOM      4  C   UNL     1       0.540  -3.092  -1.164  1.00  0.00     0.315 C 
ATOM      5  O   UNL     1       1.732  -2.793  -1.207  1.00  0.00    -0.252 OA
BRANCH   4   6
ATOM      6  C   UNL     1      -0.256  -3.608  -2.346  1.00  0.00     0.162 C 
ATOM      7  N   UNL     1      -2.675  -3.307  -2.303  1.00  0.00    -0.324 N 
ATOM      8  C   UNL     1      -2.174  -2.607  -3.478  1.00  0.00     0.264 C 
ATOM      9  C   UNL     1      -1.588  -4.243  -1.897  1.00  0.00     0.195 C 
ATOM     10  H   UNL     1      -3.535  -3.792  -2.557  1.00  0.00     0.348 HD
ATOM     11  C   UNL     1      -0.652  -2.590  -3.410  1.00  0.00     0.083 C 
ATOM     12  C   UNL     1      -1.656  -5.631  -2.537  1.00  0.00     0.076 C 
BRANCH   7  13
ATOM     13  C   UNL     1      -3.165  -2.458  -1.172  1.00  0.00     0.364 C 
BRANCH  13  14
ATOM     14  C   UNL     1      -3.843  -1.094  -1.484  1.00  0.00     0.279 C 
ATOM     15  N   UNL     1      -3.187   0.069  -1.830  1.00  0.00    -0.321 N 
ATOM     16  H   UNL     1      -3.798   0.800  -2.079  1.00  0.00     0.170 HD
ATOM     17  O   UNL     1      -5.078  -1.009  -1.398  1.00  0.00    -0.268 OA
BRANCH  15  18
ATOM     18  C   UNL     1      -1.829   0.431  -1.903  1.00  0.00     0.041 A 
ATOM     19  C   UNL     1       2.416   1.385  -2.019  1.00  0.00     0.044 C 
ATOM     20  C   UNL     1       0.942   1.104  -2.059  1.00  0.00    -0.051 A 
ATOM     21  C   UNL     1       0.491   0.038  -1.307  1.00  0.00     0.005 A 
ATOM     22  C   UNL     1      -0.018   1.875  -2.715  1.00  0.00     0.005 A 
ATOM     23  C   UNL     1      -0.870  -0.251  -1.198  1.00  0.00     0.026 A 
ATOM     24  C   UNL     1      -1.397   1.544  -2.633  1.00  0.00     0.026 A 
ENDBRANCH  15  18
ENDBRANCH  13  14
ENDBRANCH   7  13
ENDBRANCH   4   6
ENDBRANCH   3   4
ENDBRANCH   2   3
ENDBRANCH   1   2
BRANCH   1  25
ATOM     25  O   UNL     1       2.008  -3.572   1.596  1.00  0.00    -0.374 OA
BRANCH  25  26
ATOM     26  C   UNL     1       2.499  -4.896   1.671  1.00  0.00     0.202 C 
BRANCH  26  27
ATOM     27  C   UNL     1       2.504  -5.422   3.109  1.00  0.00     0.261 C 
BRANCH  27  28
ATOM     28  O   UNL     1       3.240  -4.499   3.945  1.00  0.00    -0.460 OA
BRANCH  28  29
ATOM     29  C   UNL     1       2.484  -3.736   4.785  1.00  0.00     0.338 C 
ATOM     30  O   UNL     1       1.544  -4.143   5.451  1.00  0.00    -0.246 OA
BRANCH  29  31
ATOM     31  C   UNL     1       2.711  -2.280   4.514  1.00  0.00     0.060 A 
ATOM     32  C   UNL     1       1.852  -1.333   5.104  1.00  0.00     0.016 A 
ATOM     33  C   UNL     1       3.442  -1.927   3.382  1.00  0.00     0.016 A 
ATOM     34  C   UNL     1       1.601  -0.110   4.463  1.00  0.00     0.010 A 
ATOM     35  C   UNL     1       3.080  -0.787   2.687  1.00  0.00     0.010 A 
ATOM     36  C   UNL     1       2.154   0.128   3.207  1.00  0.00    -0.014 A 
BRANCH  36  37
ATOM     37  C   UNL     1       1.845   1.278   2.349  1.00  0.00     0.031 A 
ATOM     38  C   UNL     1       2.967   2.165   1.921  1.00  0.00     0.074 A 
ATOM     39  C   UNL     1       0.623   1.462   1.792  1.00  0.00     0.049 A 
ATOM     40  N   UNL     1       2.812   3.256   1.258  1.00  0.00    -0.248 NA
ATOM     41  C   UNL     1       4.377   1.881   2.171  1.00  0.00     0.031 C 
ATOM     42  C   UNL     1       0.295   2.378   0.704  1.00  0.00     0.029 A 
ATOM     43  N   UNL     1      -0.612   0.881   2.096  1.00  0.00    -0.354 N 
ATOM     44  C   UNL     1       4.024   3.672   0.778  1.00  0.00     0.074 A 
ATOM     45  C   UNL     1       4.978   2.768   1.371  1.00  0.00     0.031 C 
ATOM     46  C   UNL     1      -1.028   2.462   0.536  1.00  0.00     0.029 A 
ATOM     47  C   UNL     1      -1.626   1.740   1.624  1.00  0.00     0.049 A 
ATOM     48  H   UNL     1      -0.749   0.022   2.558  1.00  0.00     0.167 HD
ATOM     49  C   UNL     1       4.052   4.694  -0.126  1.00  0.00     0.037 A 
ATOM     50  C   UNL     1      -2.563   2.285   2.443  1.00  0.00     0.037 A 
ATOM     51  C   UNL     1       2.693   5.199  -0.399  1.00  0.00     0.049 A 
ATOM     52  C   UNL     1      -2.371   3.780   2.420  1.00  0.00     0.074 A 
ATOM     53  C   UNL     1       1.827   5.112  -1.477  1.00  0.00     0.029 A 
ATOM     54  N   UNL     1       1.913   5.659   0.671  1.00  0.00    -0.354 N 
ATOM     55  N   UNL     1      -1.185   4.343   2.324  1.00  0.00    -0.248 NA
ATOM     56  C   UNL     1      -3.470   4.705   2.154  1.00  0.00     0.031 C 
ATOM     57  C   UNL     1       0.515   5.447  -1.026  1.00  0.00     0.029 A 
ATOM     58  C   UNL     1       0.579   5.778   0.321  1.00  0.00     0.049 A 
ATOM     59  H   UNL     1       2.271   5.872   1.563  1.00  0.00     0.167 HD
ATOM     60  C   UNL     1      -1.353   5.603   1.815  1.00  0.00     0.074 A 
ATOM     61  C   UNL     1      -2.796   5.806   1.779  1.00  0.00     0.031 C 
ATOM     62  C   UNL     1      -0.391   6.378   1.230  1.00  0.00     0.037 A 
BRANCH  49  63
ATOM     63  C   UNL     1       5.303   5.106  -0.878  1.00  0.00     0.057 A 
ATOM     64  C   UNL     1       5.246   5.681  -2.163  1.00  0.00     0.134 A 
ATOM     65  C   UNL     1       6.612   4.969  -0.373  1.00  0.00     0.134 A 
ATOM     66  F   UNL     1       4.080   5.939  -2.767  1.00  0.00    -0.206 F 
ATOM     67  C   UNL     1       6.391   6.025  -2.902  1.00  0.00     0.040 A 
ATOM     68  C   UNL     1       7.765   5.250  -1.123  1.00  0.00     0.040 A 
ATOM     69  F   UNL     1       6.839   4.617   0.899  1.00  0.00    -0.206 F 
ATOM     70  C   UNL     1       7.658   5.784  -2.396  1.00  0.00     0.006 A 
ENDBRANCH  49  63
BRANCH  50  71
ATOM     71  C   UNL     1      -2.994   1.315   3.483  1.00  0.00     0.057 A 
ATOM     72  C   UNL     1      -3.785   0.253   2.989  1.00  0.00     0.134 A 
ATOM     73  C   UNL     1      -2.164   1.024   4.572  1.00  0.00     0.134 A 
ATOM     74  F   UNL     1      -4.621   0.467   1.960  1.00  0.00    -0.206 F 
ATOM     75  C   UNL     1      -3.584  -1.071   3.391  1.00  0.00     0.040 A 
ATOM     76  C   UNL     1      -1.963  -0.303   4.987  1.00  0.00     0.040 A 
ATOM     77  F   UNL     1      -1.378   1.972   5.100  1.00  0.00    -0.206 F 
ATOM     78  C   UNL     1      -2.624  -1.357   4.354  1.00  0.00     0.006 A 
ENDBRANCH  50  71
BRANCH  62  79
ATOM     79  C   UNL     1      -0.335   7.860   1.504  1.00  0.00     0.057 A 
ATOM     80  C   UNL     1      -1.086   8.479   2.517  1.00  0.00     0.134 A 
ATOM     81  C   UNL     1       0.642   8.678   0.895  1.00  0.00     0.134 A 
ATOM     82  F   UNL     1      -1.994   7.810   3.240  1.00  0.00    -0.206 F 
ATOM     83  C   UNL     1      -0.903   9.815   2.876  1.00  0.00     0.040 A 
ATOM     84  C   UNL     1       0.869   9.998   1.285  1.00  0.00     0.040 A 
ATOM     85  F   UNL     1       1.455   8.226  -0.071  1.00  0.00    -0.206 F 
ATOM     86  C   UNL     1       0.089  10.575   2.273  1.00  0.00     0.006 A 
ENDBRANCH  62  79
ENDBRANCH  36  37
ENDBRANCH  29  31
ENDBRANCH  28  29
ENDBRANCH  27  28
ENDBRANCH  26  27
ENDBRANCH  25  26
ENDBRANCH   1  25
TORSDOF 17
