REMARK SMILES C[C@@H](C(=O)OCCOCCOC(=O)c1ccc(-c2c3nc(c(-c4c(F)cccc4F)c4ccc([nH]4)c(-c4c(F)cccc4F)c4nc(c(-c5c(F)cccc5F)c5ccc2[nH]5)C=C4)C=C3)cc1)c1ccc(Cc2cccs2)cc1F
REMARK SMILES IDX 7 1 6 2 5 3 3 4 4 5 2 6 1 7 68 8 69 9 79 10 70 11 78 12
REMARK SMILES IDX 80 13 71 14 72 15 73 16 74 17 77 18 75 19 76 20 8 21 9 22
REMARK SMILES IDX 10 23 11 24 12 25 13 26 14 27 15 28 67 29 16 30 66 31 17 32
REMARK SMILES IDX 18 33 19 34 60 35 20 36 65 37 59 38 61 39 21 40 64 41 58 42
REMARK SMILES IDX 57 43 22 45 48 46 31 47 47 48 32 49 35 50 46 51 62 52 33 53
REMARK SMILES IDX 34 54 45 56 63 57 36 58 23 59 24 60 29 61 25 62 26 63 28 64
REMARK SMILES IDX 30 65 27 66 49 67 50 68 55 69 51 70 52 71 54 72 56 73 53 74
REMARK SMILES IDX 37 75 38 76 43 77 39 78 40 79 42 80 44 81 41 82
REMARK H PARENT 61 44 35 55
REMARK Flexibility Score: inf
ROOT
ATOM      1  C   UNL     1       2.228   2.286   4.008  1.00  0.00     0.202 C 
ENDROOT
BRANCH   1   2
ATOM      2  C   UNL     1       2.073   0.769   4.144  1.00  0.00     0.261 C 
BRANCH   2   3
ATOM      3  O   UNL     1       1.787   0.181   2.860  1.00  0.00    -0.463 OA
BRANCH   3   4
ATOM      4  C   UNL     1       0.767  -0.722   2.838  1.00  0.00     0.313 C 
ATOM      5  O   UNL     1       0.232  -1.170   3.846  1.00  0.00    -0.252 OA
BRANCH   4   6
ATOM      6  C   UNL     1       0.334  -1.093   1.413  1.00  0.00     0.129 C 
ATOM      7  C   UNL     1       1.106  -0.384   0.292  1.00  0.00     0.025 C 
BRANCH   6   8
ATOM      8  C   UNL     1      -1.178  -0.944   1.286  1.00  0.00     0.002 A 
ATOM      9  C   UNL     1      -1.801   0.273   0.974  1.00  0.00     0.008 A 
ATOM     10  C   UNL     1      -1.999  -2.031   1.607  1.00  0.00     0.127 A 
ATOM     11  C   UNL     1      -3.195   0.395   1.010  1.00  0.00     0.004 A 
ATOM     12  C   UNL     1      -3.388  -1.917   1.647  1.00  0.00     0.043 A 
ATOM     13  F   UNL     1      -1.446  -3.218   1.894  1.00  0.00    -0.207 F 
ATOM     14  C   UNL     1      -4.004  -0.695   1.356  1.00  0.00    -0.040 A 
BRANCH  14  15
ATOM     15  C   UNL     1      -5.509  -0.553   1.420  1.00  0.00     0.082 C 
BRANCH  15  16
ATOM     16  C   UNL     1      -6.016   0.048   2.704  1.00  0.00     0.009 A 
ATOM     17  C   UNL     1      -5.839   1.331   3.190  1.00  0.00     0.016 A 
ATOM     18  S   UNL     1      -7.008  -0.879   3.753  1.00  0.00    -0.149 S 
ATOM     19  C   UNL     1      -6.531   1.552   4.417  1.00  0.00     0.012 A 
ATOM     20  C   UNL     1      -7.215   0.432   4.830  1.00  0.00     0.065 A 
ENDBRANCH  15  16
ENDBRANCH  14  15
ENDBRANCH   6   8
ENDBRANCH   4   6
ENDBRANCH   3   4
ENDBRANCH   2   3
ENDBRANCH   1   2
BRANCH   1  21
ATOM     21  O   UNL     1       1.022   3.018   3.772  1.00  0.00    -0.374 OA
BRANCH  21  22
ATOM     22  C   UNL     1       0.433   2.893   2.481  1.00  0.00     0.202 C 
BRANCH  22  23
ATOM     23  C   UNL     1       1.017   3.788   1.381  1.00  0.00     0.261 C 
BRANCH  23  24
ATOM     24  O   UNL     1       2.420   3.554   1.179  1.00  0.00    -0.460 OA
BRANCH  24  25
ATOM     25  C   UNL     1       3.221   4.548   1.628  1.00  0.00     0.338 C 
ATOM     26  O   UNL     1       2.877   5.643   2.057  1.00  0.00    -0.246 OA
BRANCH  25  27
ATOM     27  C   UNL     1       4.617   4.084   1.701  1.00  0.00     0.060 A 
ATOM     28  C   UNL     1       5.286   4.259   2.919  1.00  0.00     0.016 A 
ATOM     29  C   UNL     1       5.283   3.556   0.593  1.00  0.00     0.016 A 
ATOM     30  C   UNL     1       6.641   3.957   3.019  1.00  0.00     0.010 A 
ATOM     31  C   UNL     1       6.648   3.261   0.693  1.00  0.00     0.010 A 
ATOM     32  C   UNL     1       7.339   3.497   1.895  1.00  0.00    -0.014 A 
BRANCH  32  33
ATOM     33  C   UNL     1       8.818   3.422   1.947  1.00  0.00     0.031 A 
ATOM     34  C   UNL     1       9.623   4.564   1.390  1.00  0.00     0.074 A 
ATOM     35  C   UNL     1       9.436   2.378   2.526  1.00  0.00     0.049 A 
ATOM     36  N   UNL     1      10.921   4.715   1.334  1.00  0.00    -0.248 NA
ATOM     37  C   UNL     1       8.861   5.688   0.822  1.00  0.00     0.031 C 
ATOM     38  C   UNL     1       8.765   1.233   3.138  1.00  0.00     0.029 A 
ATOM     39  N   UNL     1      10.772   2.116   2.694  1.00  0.00    -0.354 N 
ATOM     40  C   UNL     1      11.131   5.945   0.723  1.00  0.00     0.074 A 
ATOM     41  C   UNL     1       9.829   6.487   0.401  1.00  0.00     0.031 C 
ATOM     42  C   UNL     1       9.696   0.386   3.612  1.00  0.00     0.029 A 
ATOM     43  C   UNL     1      11.024   0.918   3.314  1.00  0.00     0.049 A 
ATOM     44  H   UNL     1      11.483   2.730   2.397  1.00  0.00     0.167 HD
ATOM     45  C   UNL     1      12.303   6.571   0.463  1.00  0.00     0.037 A 
ATOM     46  C   UNL     1      12.196   0.315   3.594  1.00  0.00     0.037 A 
ATOM     47  C   UNL     1      13.598   6.035   0.788  1.00  0.00     0.049 A 
ATOM     48  C   UNL     1      13.486   1.000   3.231  1.00  0.00     0.074 A 
ATOM     49  C   UNL     1      14.843   6.604   0.586  1.00  0.00     0.029 A 
ATOM     50  N   UNL     1      13.813   4.799   1.378  1.00  0.00    -0.354 N 
ATOM     51  N   UNL     1      13.673   2.175   2.680  1.00  0.00    -0.248 NA
ATOM     52  C   UNL     1      14.729   0.275   3.533  1.00  0.00     0.031 C 
ATOM     53  C   UNL     1      15.814   5.691   1.012  1.00  0.00     0.029 A 
ATOM     54  C   UNL     1      15.172   4.575   1.523  1.00  0.00     0.049 A 
ATOM     55  H   UNL     1      13.105   4.173   1.654  1.00  0.00     0.167 HD
ATOM     56  C   UNL     1      15.050   2.342   2.594  1.00  0.00     0.074 A 
ATOM     57  C   UNL     1      15.651   1.152   3.159  1.00  0.00     0.031 C 
ATOM     58  C   UNL     1      15.754   3.388   2.095  1.00  0.00     0.037 A 
BRANCH  45  59
ATOM     59  C   UNL     1      12.237   7.899  -0.230  1.00  0.00     0.057 A 
ATOM     60  C   UNL     1      11.805   9.058   0.428  1.00  0.00     0.134 A 
ATOM     61  C   UNL     1      12.640   8.026  -1.566  1.00  0.00     0.134 A 
ATOM     62  F   UNL     1      11.392   9.001   1.704  1.00  0.00    -0.206 F 
ATOM     63  C   UNL     1      11.757  10.291  -0.223  1.00  0.00     0.040 A 
ATOM     64  C   UNL     1      12.618   9.258  -2.220  1.00  0.00     0.040 A 
ATOM     65  F   UNL     1      13.066   6.955  -2.253  1.00  0.00    -0.206 F 
ATOM     66  C   UNL     1      12.171  10.395  -1.550  1.00  0.00     0.006 A 
ENDBRANCH  45  59
BRANCH  46  67
ATOM     67  C   UNL     1      12.209  -1.019   4.245  1.00  0.00     0.057 A 
ATOM     68  C   UNL     1      12.661  -1.180   5.560  1.00  0.00     0.134 A 
ATOM     69  C   UNL     1      11.792  -2.167   3.560  1.00  0.00     0.134 A 
ATOM     70  F   UNL     1      13.096  -0.122   6.258  1.00  0.00    -0.206 F 
ATOM     71  C   UNL     1      12.713  -2.437   6.165  1.00  0.00     0.040 A 
ATOM     72  C   UNL     1      11.817  -3.426   4.161  1.00  0.00     0.040 A 
ATOM     73  F   UNL     1      11.349  -2.079   2.297  1.00  0.00    -0.206 F 
ATOM     74  C   UNL     1      12.286  -3.564   5.466  1.00  0.00     0.006 A 
ENDBRANCH  46  67
BRANCH  58  75
ATOM     75  C   UNL     1      17.250   3.308   2.168  1.00  0.00     0.057 A 
ATOM     76  C   UNL     1      17.987   2.465   1.327  1.00  0.00     0.134 A 
ATOM     77  C   UNL     1      17.963   4.116   3.062  1.00  0.00     0.134 A 
ATOM     78  F   UNL     1      17.362   1.657   0.457  1.00  0.00    -0.206 F 
ATOM     79  C   UNL     1      19.381   2.415   1.387  1.00  0.00     0.040 A 
ATOM     80  C   UNL     1      19.358   4.093   3.114  1.00  0.00     0.040 A 
ATOM     81  F   UNL     1      17.318   4.953   3.889  1.00  0.00    -0.206 F 
ATOM     82  C   UNL     1      20.070   3.236   2.278  1.00  0.00     0.006 A 
ENDBRANCH  58  75
ENDBRANCH  32  33
ENDBRANCH  25  27
ENDBRANCH  24  25
ENDBRANCH  23  24
ENDBRANCH  22  23
ENDBRANCH  21  22
ENDBRANCH   1  21
TORSDOF 17
