REMARK SMILES COc1ccc(-c2nc(NCC(=O)OCCOCCOC(=O)c3ccc(-c4c5nc(c(-c6c(F)cccc6F)c6ccc([nH]6)c(-c6c(F)cccc6F)c6nc(c(-c7c(F)cccc7F)c7ccc4[nH]7)C=C6)C=C5)cc3)sc2-c2ccc(OC)cc2)cc1
REMARK SMILES IDX 16 1 15 2 14 3 12 4 13 5 11 6 10 7 9 9 7 10 8 11 78 12 77 13
REMARK SMILES IDX 6 14 3 15 4 16 88 17 5 18 87 19 2 20 1 21 79 22 80 23 86 24
REMARK SMILES IDX 81 25 85 26 82 27 83 28 84 29 17 30 18 31 19 32 20 33 21 34
REMARK SMILES IDX 22 35 23 36 24 37 76 38 25 39 75 40 26 41 27 42 28 43 69 44
REMARK SMILES IDX 29 45 74 46 68 47 70 48 30 49 73 50 67 51 66 52 31 54 57 55
REMARK SMILES IDX 40 56 56 57 41 58 44 59 55 60 71 61 42 62 43 63 54 65 72 66
REMARK SMILES IDX 45 67 32 68 33 69 38 70 34 71 35 72 37 73 39 74 36 75 58 76
REMARK SMILES IDX 59 77 64 78 60 79 61 80 63 81 65 82 62 83 46 84 47 85 52 86
REMARK SMILES IDX 48 87 49 88 51 89 53 90 50 91
REMARK H PARENT 10 8 70 53 44 64
REMARK Flexibility Score: inf
ROOT
ATOM      1  C   UNL     1       8.147  -1.026  10.800  1.00  0.00     0.202 C 
ENDROOT
BRANCH   1   2
ATOM      2  C   UNL     1       6.860  -1.714  11.264  1.00  0.00     0.261 C 
BRANCH   2   3
ATOM      3  O   UNL     1       5.719  -1.115  10.629  1.00  0.00    -0.462 OA
BRANCH   3   4
ATOM      4  C   UNL     1       4.710  -0.731  11.458  1.00  0.00     0.325 C 
ATOM      5  O   UNL     1       4.623  -1.045  12.641  1.00  0.00    -0.250 OA
BRANCH   4   6
ATOM      6  C   UNL     1       3.745   0.254  10.806  1.00  0.00     0.238 C 
BRANCH   6   7
ATOM      7  N   UNL     1       3.893   0.410   9.363  1.00  0.00    -0.351 N 
ATOM      8  H   UNL     1       4.691   0.883   9.033  1.00  0.00     0.163 HD
BRANCH   7   9
ATOM      9  C   UNL     1       3.013  -0.049   8.451  1.00  0.00     0.184 A 
ATOM     10  C   UNL     1       1.950  -0.147   6.509  1.00  0.00     0.091 A 
ATOM     11  N   UNL     1       3.000   0.412   7.221  1.00  0.00    -0.220 NA
ATOM     12  C   UNL     1       1.229  -1.116   7.188  1.00  0.00     0.064 A 
ATOM     13  S   UNL     1       1.843  -1.268   8.776  1.00  0.00    -0.096 S 
BRANCH  10  14
ATOM     14  C   UNL     1       1.657   0.242   5.136  1.00  0.00     0.002 A 
ATOM     15  C   UNL     1       1.004   0.734   2.450  1.00  0.00     0.118 A 
ATOM     16  C   UNL     1       0.067   0.971   3.454  1.00  0.00     0.047 A 
ATOM     17  C   UNL     1       2.291   0.314   2.793  1.00  0.00     0.047 A 
ATOM     18  C   UNL     1       0.387   0.722   4.790  1.00  0.00     0.014 A 
ATOM     19  C   UNL     1       2.619   0.074   4.134  1.00  0.00     0.014 A 
BRANCH  15  20
ATOM     20  O   UNL     1       0.573   0.980   1.175  1.00  0.00    -0.497 OA
ATOM     21  C   UNL     1       1.138   0.139   0.175  1.00  0.00     0.278 C 
ENDBRANCH  15  20
ENDBRANCH  10  14
BRANCH  12  22
ATOM     22  C   UNL     1       0.140  -1.984   6.751  1.00  0.00    -0.006 A 
ATOM     23  C   UNL     1      -1.113  -1.939   7.372  1.00  0.00     0.013 A 
ATOM     24  C   UNL     1       0.341  -2.867   5.684  1.00  0.00     0.013 A 
ATOM     25  C   UNL     1      -2.143  -2.771   6.929  1.00  0.00     0.047 A 
ATOM     26  C   UNL     1      -0.693  -3.698   5.243  1.00  0.00     0.047 A 
ATOM     27  C   UNL     1      -1.940  -3.652   5.865  1.00  0.00     0.118 A 
BRANCH  27  28
ATOM     28  O   UNL     1      -3.029  -4.410   5.533  1.00  0.00    -0.497 OA
ATOM     29  C   UNL     1      -2.886  -5.269   4.409  1.00  0.00     0.278 C 
ENDBRANCH  27  28
ENDBRANCH  12  22
ENDBRANCH   7   9
ENDBRANCH   6   7
ENDBRANCH   4   6
ENDBRANCH   3   4
ENDBRANCH   2   3
ENDBRANCH   1   2
BRANCH   1  30
ATOM     30  O   UNL     1       8.271   0.355  11.145  1.00  0.00    -0.374 OA
BRANCH  30  31
ATOM     31  C   UNL     1       7.510   1.296  10.386  1.00  0.00     0.202 C 
BRANCH  31  32
ATOM     32  C   UNL     1       8.013   1.605   8.971  1.00  0.00     0.261 C 
BRANCH  32  33
ATOM     33  O   UNL     1       7.919   0.465   8.096  1.00  0.00    -0.460 OA
BRANCH  33  34
ATOM     34  C   UNL     1       9.102   0.012   7.621  1.00  0.00     0.338 C 
ATOM     35  O   UNL     1      10.209   0.509   7.785  1.00  0.00    -0.246 OA
BRANCH  34  36
ATOM     36  C   UNL     1       8.927  -1.308   6.991  1.00  0.00     0.060 A 
ATOM     37  C   UNL     1       9.696  -2.371   7.485  1.00  0.00     0.016 A 
ATOM     38  C   UNL     1       8.089  -1.492   5.888  1.00  0.00     0.016 A 
ATOM     39  C   UNL     1       9.654  -3.614   6.858  1.00  0.00     0.010 A 
ATOM     40  C   UNL     1       8.062  -2.738   5.252  1.00  0.00     0.010 A 
ATOM     41  C   UNL     1       8.862  -3.797   5.718  1.00  0.00    -0.014 A 
BRANCH  41  42
ATOM     42  C   UNL     1       8.952  -5.065   4.953  1.00  0.00     0.031 A 
ATOM     43  C   UNL     1       9.831  -5.131   3.736  1.00  0.00     0.074 A 
ATOM     44  C   UNL     1       8.262  -6.151   5.346  1.00  0.00     0.049 A 
ATOM     45  N   UNL     1      10.004  -6.115   2.891  1.00  0.00    -0.248 NA
ATOM     46  C   UNL     1      10.618  -3.927   3.428  1.00  0.00     0.031 C 
ATOM     47  C   UNL     1       7.405  -6.225   6.528  1.00  0.00     0.029 A 
ATOM     48  N   UNL     1       8.167  -7.397   4.780  1.00  0.00    -0.354 N 
ATOM     49  C   UNL     1      10.913  -5.650   1.950  1.00  0.00     0.074 A 
ATOM     50  C   UNL     1      11.241  -4.288   2.315  1.00  0.00     0.031 C 
ATOM     51  C   UNL     1       6.851  -7.448   6.587  1.00  0.00     0.029 A 
ATOM     52  C   UNL     1       7.291  -8.230   5.433  1.00  0.00     0.049 A 
ATOM     53  H   UNL     1       8.677  -7.669   3.983  1.00  0.00     0.167 HD
ATOM     54  C   UNL     1      11.430  -6.300   0.880  1.00  0.00     0.037 A 
ATOM     55  C   UNL     1       6.870  -9.470   5.117  1.00  0.00     0.037 A 
ATOM     56  C   UNL     1      11.108  -7.656   0.519  1.00  0.00     0.049 A 
ATOM     57  C   UNL     1       7.410 -10.146   3.885  1.00  0.00     0.074 A 
ATOM     58  C   UNL     1      11.607  -8.409  -0.530  1.00  0.00     0.029 A 
ATOM     59  N   UNL     1      10.200  -8.458   1.190  1.00  0.00    -0.354 N 
ATOM     60  N   UNL     1       8.289  -9.707   3.018  1.00  0.00    -0.248 NA
ATOM     61  C   UNL     1       6.895 -11.492   3.587  1.00  0.00     0.031 C 
ATOM     62  C   UNL     1      10.966  -9.652  -0.520  1.00  0.00     0.029 A 
ATOM     63  C   UNL     1      10.101  -9.688   0.561  1.00  0.00     0.049 A 
ATOM     64  H   UNL     1       9.699  -8.193   1.996  1.00  0.00     0.167 HD
ATOM     65  C   UNL     1       8.449 -10.726   2.087  1.00  0.00     0.074 A 
ATOM     66  C   UNL     1       7.587 -11.812   2.503  1.00  0.00     0.031 C 
ATOM     67  C   UNL     1       9.239 -10.760   0.987  1.00  0.00     0.037 A 
BRANCH  54  68
ATOM     68  C   UNL     1      12.383  -5.546   0.004  1.00  0.00     0.057 A 
ATOM     69  C   UNL     1      13.701  -5.285   0.398  1.00  0.00     0.134 A 
ATOM     70  C   UNL     1      11.992  -5.122  -1.272  1.00  0.00     0.134 A 
ATOM     71  F   UNL     1      14.133  -5.656   1.613  1.00  0.00    -0.206 F 
ATOM     72  C   UNL     1      14.594  -4.618  -0.442  1.00  0.00     0.040 A 
ATOM     73  C   UNL     1      12.881  -4.472  -2.129  1.00  0.00     0.040 A 
ATOM     74  F   UNL     1      10.744  -5.344  -1.711  1.00  0.00    -0.206 F 
ATOM     75  C   UNL     1      14.187  -4.216  -1.713  1.00  0.00     0.006 A 
ENDBRANCH  54  68
BRANCH  55  76
ATOM     76  C   UNL     1       5.854 -10.147   5.961  1.00  0.00     0.057 A 
ATOM     77  C   UNL     1       6.179 -11.265   6.735  1.00  0.00     0.134 A 
ATOM     78  C   UNL     1       4.524  -9.709   5.984  1.00  0.00     0.134 A 
ATOM     79  F   UNL     1       7.431 -11.748   6.732  1.00  0.00    -0.206 F 
ATOM     80  C   UNL     1       5.215 -11.937   7.489  1.00  0.00     0.040 A 
ATOM     81  C   UNL     1       3.555 -10.356   6.752  1.00  0.00     0.040 A 
ATOM     82  F   UNL     1       4.148  -8.645   5.260  1.00  0.00    -0.206 F 
ATOM     83  C   UNL     1       3.899 -11.479   7.502  1.00  0.00     0.006 A 
ENDBRANCH  55  76
BRANCH  67  84
ATOM     84  C   UNL     1       9.226 -12.017   0.168  1.00  0.00     0.057 A 
ATOM     85  C   UNL     1       8.143 -12.349  -0.655  1.00  0.00     0.134 A 
ATOM     86  C   UNL     1      10.325 -12.885   0.174  1.00  0.00     0.134 A 
ATOM     87  F   UNL     1       7.054 -11.566  -0.695  1.00  0.00    -0.206 F 
ATOM     88  C   UNL     1       8.146 -13.511  -1.430  1.00  0.00     0.040 A 
ATOM     89  C   UNL     1      10.350 -14.036  -0.614  1.00  0.00     0.040 A 
ATOM     90  F   UNL     1      11.399 -12.620   0.934  1.00  0.00    -0.206 F 
ATOM     91  C   UNL     1       9.255 -14.354  -1.415  1.00  0.00     0.006 A 
ENDBRANCH  67  84
ENDBRANCH  41  42
ENDBRANCH  34  36
ENDBRANCH  33  34
ENDBRANCH  32  33
ENDBRANCH  31  32
ENDBRANCH  30  31
ENDBRANCH   1  30
TORSDOF 20
