REMARK SMILES Cc1ccc(Cl)cc1NC(=O)N[C@@](C)(C(=O)OCCOCCOC(=O)c1ccc(-c2c3nc(c(-c4c(F)cccc4F)c4ccc([nH]4)c(-c4c(F)cccc4F)c4nc(c(-c5c(F)cccc5F)c5ccc2[nH]5)C=C4)C=C3)cc1)C(F)(F)F
REMARK SMILES IDX 20 1 19 2 18 3 17 4 15 5 16 6 13 7 14 8 12 9 9 10 10 11
REMARK SMILES IDX 11 13 8 15 1 16 2 17 3 18 4 19 7 20 5 21 6 22 80 23 81 24
REMARK SMILES IDX 82 25 83 26 21 27 22 28 23 29 24 30 25 31 26 32 27 33 79 34
REMARK SMILES IDX 28 35 78 36 29 37 30 38 31 39 72 40 32 41 77 42 71 43 73 44
REMARK SMILES IDX 33 45 76 46 70 47 69 48 34 50 60 51 43 52 59 53 44 54 47 55
REMARK SMILES IDX 58 56 74 57 45 58 46 59 57 61 75 62 48 63 35 64 36 65 41 66
REMARK SMILES IDX 37 67 38 68 40 69 42 70 39 71 61 72 62 73 67 74 63 75 64 76
REMARK SMILES IDX 66 77 68 78 65 79 49 80 50 81 55 82 51 83 52 84 54 85 56 86
REMARK SMILES IDX 53 87
REMARK H PARENT 9 12 12 14 73 49 47 60
REMARK Flexibility Score: inf
ROOT
ATOM      1  O   UNL     1      -1.734   2.311  -4.421  1.00  0.00    -0.374 OA
ENDROOT
BRANCH   1   2
ATOM      2  C   UNL     1      -2.949   3.011  -4.189  1.00  0.00     0.202 C 
BRANCH   2   3
ATOM      3  C   UNL     1      -3.473   3.123  -2.752  1.00  0.00     0.261 C 
BRANCH   3   4
ATOM      4  O   UNL     1      -2.464   3.505  -1.791  1.00  0.00    -0.461 OA
BRANCH   4   5
ATOM      5  C   UNL     1      -2.724   2.973  -0.562  1.00  0.00     0.341 C 
ATOM      6  O   UNL     1      -3.871   2.745  -0.180  1.00  0.00    -0.249 OA
BRANCH   5   7
ATOM      7  C   UNL     1      -1.473   2.411   0.154  1.00  0.00     0.232 C 
ATOM      8  C   UNL     1      -1.913   2.375   1.632  1.00  0.00     0.058 C 
BRANCH   7   9
ATOM      9  N   UNL     1      -0.234   3.257   0.113  1.00  0.00    -0.314 N 
ATOM     10  N   UNL     1       1.709   2.061   0.957  1.00  0.00    -0.308 N 
ATOM     11  C   UNL     1       1.023   3.158   0.575  1.00  0.00     0.320 C 
ATOM     12  H   UNL     1       2.614   2.294   1.265  1.00  0.00     0.171 HD
ATOM     13  O   UNL     1       1.665   4.218   0.574  1.00  0.00    -0.248 OA
ATOM     14  H   UNL     1      -0.380   4.098  -0.378  1.00  0.00     0.166 HD
BRANCH  10  15
ATOM     15  C   UNL     1       1.484   0.674   1.034  1.00  0.00     0.047 A 
ATOM     16  C   UNL     1       3.709   0.158  -0.162  1.00  0.00     0.046 C 
ATOM     17  C   UNL     1       2.354  -0.220   0.373  1.00  0.00    -0.027 A 
ATOM     18  C   UNL     1       1.981  -1.574   0.245  1.00  0.00     0.007 A 
ATOM     19  C   UNL     1       0.837  -2.063   0.867  1.00  0.00     0.021 A 
ATOM     20  C   UNL     1       0.457   0.134   1.803  1.00  0.00     0.047 A 
ATOM     21  C   UNL     1       0.127  -1.223   1.710  1.00  0.00     0.043 A 
ATOM     22  Cl  UNL     1      -1.217  -1.837   2.596  1.00  0.00    -0.084 Cl
ENDBRANCH  10  15
ENDBRANCH   7   9
BRANCH   7  23
ATOM     23  C   UNL     1      -1.359   1.049  -0.591  1.00  0.00     0.422 C 
ATOM     24  F   UNL     1      -0.106   0.835  -1.060  1.00  0.00    -0.168 F 
ATOM     25  F   UNL     1      -1.712   0.009   0.186  1.00  0.00    -0.168 F 
ATOM     26  F   UNL     1      -2.139   0.938  -1.693  1.00  0.00    -0.168 F 
ENDBRANCH   7  23
ENDBRANCH   5   7
ENDBRANCH   4   5
ENDBRANCH   3   4
ENDBRANCH   2   3
ENDBRANCH   1   2
BRANCH   1  27
ATOM     27  C   UNL     1      -0.549   2.749  -3.761  1.00  0.00     0.202 C 
BRANCH  27  28
ATOM     28  C   UNL     1      -0.034   4.173  -4.011  1.00  0.00     0.261 C 
BRANCH  28  29
ATOM     29  O   UNL     1      -0.973   5.200  -3.640  1.00  0.00    -0.460 OA
BRANCH  29  30
ATOM     30  C   UNL     1      -1.474   5.912  -4.675  1.00  0.00     0.338 C 
ATOM     31  O   UNL     1      -1.185   5.803  -5.863  1.00  0.00    -0.246 OA
BRANCH  30  32
ATOM     32  C   UNL     1      -2.608   6.732  -4.225  1.00  0.00     0.060 A 
ATOM     33  C   UNL     1      -3.857   6.505  -4.820  1.00  0.00     0.016 A 
ATOM     34  C   UNL     1      -2.428   7.782  -3.323  1.00  0.00     0.016 A 
ATOM     35  C   UNL     1      -4.924   7.352  -4.549  1.00  0.00     0.010 A 
ATOM     36  C   UNL     1      -3.495   8.649  -3.072  1.00  0.00     0.010 A 
ATOM     37  C   UNL     1      -4.731   8.459  -3.716  1.00  0.00    -0.014 A 
BRANCH  37  38
ATOM     38  C   UNL     1      -5.774   9.508  -3.680  1.00  0.00     0.031 A 
ATOM     39  C   UNL     1      -5.593  10.731  -4.535  1.00  0.00     0.074 A 
ATOM     40  C   UNL     1      -6.886   9.342  -2.943  1.00  0.00     0.049 A 
ATOM     41  N   UNL     1      -6.353  11.790  -4.640  1.00  0.00    -0.248 NA
ATOM     42  C   UNL     1      -4.393  10.765  -5.390  1.00  0.00     0.031 C 
ATOM     43  C   UNL     1      -7.187   8.169  -2.123  1.00  0.00     0.029 A 
ATOM     44  N   UNL     1      -7.965  10.168  -2.764  1.00  0.00    -0.354 N 
ATOM     45  C   UNL     1      -5.718  12.620  -5.555  1.00  0.00     0.074 A 
ATOM     46  C   UNL     1      -4.502  11.954  -5.964  1.00  0.00     0.031 C 
ATOM     47  C   UNL     1      -8.367   8.361  -1.509  1.00  0.00     0.029 A 
ATOM     48  C   UNL     1      -8.882   9.681  -1.865  1.00  0.00     0.049 A 
ATOM     49  H   UNL     1      -8.072  11.026  -3.234  1.00  0.00     0.167 HD
ATOM     50  C   UNL     1      -6.119  13.829  -6.012  1.00  0.00     0.037 A 
ATOM     51  C   UNL     1      -9.992  10.257  -1.365  1.00  0.00     0.037 A 
ATOM     52  C   UNL     1      -7.340  14.474  -5.608  1.00  0.00     0.049 A 
ATOM     53  C   UNL     1     -10.383  11.630  -1.846  1.00  0.00     0.074 A 
ATOM     54  C   UNL     1      -7.855  15.686  -6.034  1.00  0.00     0.029 A 
ATOM     55  N   UNL     1      -8.233  13.962  -4.679  1.00  0.00    -0.354 N 
ATOM     56  N   UNL     1      -9.790  12.398  -2.730  1.00  0.00    -0.248 NA
ATOM     57  C   UNL     1     -11.598  12.216  -1.265  1.00  0.00     0.031 C 
ATOM     58  C   UNL     1      -9.029  15.935  -5.318  1.00  0.00     0.029 A 
ATOM     59  C   UNL     1      -9.280  14.849  -4.494  1.00  0.00     0.049 A 
ATOM     60  H   UNL     1      -8.137  13.097  -4.219  1.00  0.00     0.167 HD
ATOM     61  C   UNL     1     -10.577  13.539  -2.833  1.00  0.00     0.074 A 
ATOM     62  C   UNL     1     -11.696  13.355  -1.933  1.00  0.00     0.031 C 
ATOM     63  C   UNL     1     -10.392  14.639  -3.603  1.00  0.00     0.037 A 
BRANCH  50  64
ATOM     64  C   UNL     1      -5.221  14.553  -6.971  1.00  0.00     0.057 A 
ATOM     65  C   UNL     1      -5.066  14.146  -8.301  1.00  0.00     0.134 A 
ATOM     66  C   UNL     1      -4.550  15.716  -6.569  1.00  0.00     0.134 A 
ATOM     67  F   UNL     1      -5.667  13.032  -8.747  1.00  0.00    -0.206 F 
ATOM     68  C   UNL     1      -4.269  14.864  -9.196  1.00  0.00     0.040 A 
ATOM     69  C   UNL     1      -3.772  16.456  -7.460  1.00  0.00     0.040 A 
ATOM     70  F   UNL     1      -4.657  16.162  -5.308  1.00  0.00    -0.206 F 
ATOM     71  C   UNL     1      -3.628  16.029  -8.778  1.00  0.00     0.006 A 
ENDBRANCH  50  64
BRANCH  51  72
ATOM     72  C   UNL     1     -10.793   9.561  -0.325  1.00  0.00     0.057 A 
ATOM     73  C   UNL     1     -12.102   9.134  -0.573  1.00  0.00     0.134 A 
ATOM     74  C   UNL     1     -10.278   9.343   0.960  1.00  0.00     0.134 A 
ATOM     75  F   UNL     1     -12.661   9.331  -1.776  1.00  0.00    -0.206 F 
ATOM     76  C   UNL     1     -12.881   8.544   0.426  1.00  0.00     0.040 A 
ATOM     77  C   UNL     1     -11.034   8.727   1.958  1.00  0.00     0.040 A 
ATOM     78  F   UNL     1      -9.028   9.725   1.263  1.00  0.00    -0.206 F 
ATOM     79  C   UNL     1     -12.344   8.336   1.695  1.00  0.00     0.006 A 
ENDBRANCH  51  72
BRANCH  63  80
ATOM     80  C   UNL     1     -11.445  15.708  -3.542  1.00  0.00     0.057 A 
ATOM     81  C   UNL     1     -11.607  16.529  -2.419  1.00  0.00     0.134 A 
ATOM     82  C   UNL     1     -12.278  15.945  -4.643  1.00  0.00     0.134 A 
ATOM     83  F   UNL     1     -10.848  16.346  -1.328  1.00  0.00    -0.206 F 
ATOM     84  C   UNL     1     -12.578  17.530  -2.384  1.00  0.00     0.040 A 
ATOM     85  C   UNL     1     -13.231  16.964  -4.631  1.00  0.00     0.040 A 
ATOM     86  F   UNL     1     -12.167  15.203  -5.755  1.00  0.00    -0.206 F 
ATOM     87  C   UNL     1     -13.388  17.755  -3.495  1.00  0.00     0.006 A 
ENDBRANCH  63  80
ENDBRANCH  37  38
ENDBRANCH  30  32
ENDBRANCH  29  30
ENDBRANCH  28  29
ENDBRANCH  27  28
ENDBRANCH   1  27
TORSDOF 17
