REMARK SMILES COc1cc(Nc2cn[nH]c(=O)n2)c(C(=O)OCCOCCOC(=O)c2ccc(-c3c4nc(c(-c5c(F)cccc5F)c5ccc([nH]5)c(-c5c(F)cccc5F)c5nc(c(-c6c(F)cccc6F)c6ccc3[nH]6)C=C5)C=C4)cc2)cc1OC
REMARK SMILES IDX 20 1 19 2 18 3 17 4 15 5 16 6 14 7 3 8 4 9 81 10 5 11 80 12
REMARK SMILES IDX 2 13 1 14 82 15 83 16 6 17 7 19 8 20 13 21 9 22 11 23 10 24
REMARK SMILES IDX 12 25 21 27 22 28 23 29 24 30 25 31 26 32 27 33 79 34 28 35
REMARK SMILES IDX 78 36 29 37 30 38 31 39 72 40 32 41 77 42 71 43 73 44 33 45
REMARK SMILES IDX 76 46 70 47 69 48 34 50 60 51 43 52 59 53 44 54 47 55 58 56
REMARK SMILES IDX 74 57 45 58 46 59 57 61 75 62 48 63 35 64 36 65 41 66 37 67
REMARK SMILES IDX 38 68 40 69 42 70 39 71 61 72 62 73 67 74 63 75 64 76 66 77
REMARK SMILES IDX 68 78 65 79 49 80 50 81 55 82 51 83 52 84 54 85 56 86 53 87
REMARK H PARENT 6 18 10 26 73 49 47 60
REMARK Flexibility Score: inf
ROOT
ATOM      1  O   UNL     1       2.170   3.847   7.844  1.00  0.00    -0.374 OA
ENDROOT
BRANCH   1   2
ATOM      2  C   UNL     1       3.209   2.919   8.164  1.00  0.00     0.202 C 
BRANCH   2   3
ATOM      3  C   UNL     1       2.846   1.453   7.918  1.00  0.00     0.261 C 
BRANCH   3   4
ATOM      4  O   UNL     1       2.717   1.192   6.508  1.00  0.00    -0.460 OA
BRANCH   4   5
ATOM      5  C   UNL     1       1.444   1.103   6.061  1.00  0.00     0.340 C 
ATOM      6  O   UNL     1       0.433   1.121   6.750  1.00  0.00    -0.246 OA
BRANCH   5   7
ATOM      7  C   UNL     1       1.383   1.158   4.577  1.00  0.00     0.087 A 
ATOM      8  C   UNL     1       1.212   1.181   1.792  1.00  0.00     0.162 A 
ATOM      9  C   UNL     1       0.153   1.681   2.570  1.00  0.00     0.077 A 
ATOM     10  C   UNL     1       2.395   0.743   2.397  1.00  0.00     0.161 A 
ATOM     11  C   UNL     1       0.214   1.675   3.970  1.00  0.00     0.058 A 
ATOM     12  C   UNL     1       2.464   0.725   3.795  1.00  0.00     0.068 A 
BRANCH   8  13
ATOM     13  O   UNL     1       1.067   1.202   0.430  1.00  0.00    -0.493 OA
ATOM     14  C   UNL     1       0.146   0.194   0.002  1.00  0.00     0.278 C 
ENDBRANCH   8  13
BRANCH  10  15
ATOM     15  O   UNL     1       3.549   0.310   1.804  1.00  0.00    -0.493 OA
ATOM     16  C   UNL     1       3.577   0.142   0.394  1.00  0.00     0.278 C 
ENDBRANCH  10  15
BRANCH  11  17
ATOM     17  N   UNL     1      -0.780   2.300   4.757  1.00  0.00    -0.338 N 
ATOM     18  H   UNL     1      -0.572   2.418   5.712  1.00  0.00     0.168 HD
BRANCH  17  19
ATOM     19  C   UNL     1      -2.001   2.760   4.341  1.00  0.00     0.156 A 
ATOM     20  C   UNL     1      -2.255   4.235   4.526  1.00  0.00     0.180 A 
ATOM     21  N   UNL     1      -2.921   1.996   3.841  1.00  0.00    -0.173 NA
ATOM     22  N   UNL     1      -3.387   4.777   4.225  1.00  0.00    -0.176 NA
ATOM     23  C   UNL     1      -4.134   2.553   3.542  1.00  0.00     0.363 A 
ATOM     24  N   UNL     1      -4.316   3.905   3.741  1.00  0.00    -0.227 N 
ATOM     25  O   UNL     1      -5.073   1.881   3.108  1.00  0.00    -0.244 OA
ATOM     26  H   UNL     1      -5.199   4.275   3.513  1.00  0.00     0.195 HD
ENDBRANCH  17  19
ENDBRANCH  11  17
ENDBRANCH   5   7
ENDBRANCH   4   5
ENDBRANCH   3   4
ENDBRANCH   2   3
ENDBRANCH   1   2
BRANCH   1  27
ATOM     27  C   UNL     1       2.150   4.333   6.500  1.00  0.00     0.202 C 
BRANCH  27  28
ATOM     28  C   UNL     1       3.079   5.521   6.229  1.00  0.00     0.261 C 
BRANCH  28  29
ATOM     29  O   UNL     1       4.455   5.101   6.231  1.00  0.00    -0.460 OA
BRANCH  29  30
ATOM     30  C   UNL     1       5.179   5.520   7.295  1.00  0.00     0.338 C 
ATOM     31  O   UNL     1       4.828   6.296   8.168  1.00  0.00    -0.246 OA
BRANCH  30  32
ATOM     32  C   UNL     1       6.442   4.758   7.370  1.00  0.00     0.060 A 
ATOM     33  C   UNL     1       6.830   4.284   8.630  1.00  0.00     0.016 A 
ATOM     34  C   UNL     1       7.255   4.546   6.253  1.00  0.00     0.016 A 
ATOM     35  C   UNL     1       8.058   3.647   8.789  1.00  0.00     0.010 A 
ATOM     36  C   UNL     1       8.492   3.912   6.415  1.00  0.00     0.010 A 
ATOM     37  C   UNL     1       8.913   3.494   7.690  1.00  0.00    -0.014 A 
BRANCH  37  38
ATOM     38  C   UNL     1      10.305   3.037   7.911  1.00  0.00     0.031 A 
ATOM     39  C   UNL     1      11.397   4.064   8.028  1.00  0.00     0.074 A 
ATOM     40  C   UNL     1      10.588   1.730   8.047  1.00  0.00     0.049 A 
ATOM     41  N   UNL     1      12.681   3.893   8.215  1.00  0.00    -0.248 NA
ATOM     42  C   UNL     1      10.985   5.473   7.921  1.00  0.00     0.031 C 
ATOM     43  C   UNL     1       9.613   0.643   7.993  1.00  0.00     0.029 A 
ATOM     44  N   UNL     1      11.787   1.098   8.260  1.00  0.00    -0.354 N 
ATOM     45  C   UNL     1      13.229   5.168   8.251  1.00  0.00     0.074 A 
ATOM     46  C   UNL     1      12.145   6.103   8.035  1.00  0.00     0.031 C 
ATOM     47  C   UNL     1      10.255  -0.526   8.163  1.00  0.00     0.029 A 
ATOM     48  C   UNL     1      11.686  -0.270   8.312  1.00  0.00     0.049 A 
ATOM     49  H   UNL     1      12.639   1.580   8.365  1.00  0.00     0.167 HD
ATOM     50  C   UNL     1      14.517   5.530   8.455  1.00  0.00     0.037 A 
ATOM     51  C   UNL     1      12.644  -1.206   8.451  1.00  0.00     0.037 A 
ATOM     52  C   UNL     1      15.597   4.603   8.666  1.00  0.00     0.049 A 
ATOM     53  C   UNL     1      14.079  -0.782   8.604  1.00  0.00     0.074 A 
ATOM     54  C   UNL     1      16.935   4.874   8.890  1.00  0.00     0.029 A 
ATOM     55  N   UNL     1      15.459   3.224   8.674  1.00  0.00    -0.354 N 
ATOM     56  N   UNL     1      14.584   0.427   8.653  1.00  0.00    -0.248 NA
ATOM     57  C   UNL     1      15.079  -1.854   8.721  1.00  0.00     0.031 C 
ATOM     58  C   UNL     1      17.615   3.655   8.996  1.00  0.00     0.029 A 
ATOM     59  C   UNL     1      16.692   2.628   8.878  1.00  0.00     0.049 A 
ATOM     60  H   UNL     1      14.611   2.740   8.552  1.00  0.00     0.167 HD
ATOM     61  C   UNL     1      15.952   0.263   8.833  1.00  0.00     0.074 A 
ATOM     62  C   UNL     1      16.198  -1.163   8.892  1.00  0.00     0.031 C 
ATOM     63  C   UNL     1      16.918   1.207   8.941  1.00  0.00     0.037 A 
BRANCH  50  64
ATOM     64  C   UNL     1      14.829   6.996   8.441  1.00  0.00     0.057 A 
ATOM     65  C   UNL     1      14.471   7.835   9.505  1.00  0.00     0.134 A 
ATOM     66  C   UNL     1      15.515   7.571   7.365  1.00  0.00     0.134 A 
ATOM     67  F   UNL     1      13.797   7.348  10.557  1.00  0.00    -0.206 F 
ATOM     68  C   UNL     1      14.768   9.199   9.489  1.00  0.00     0.040 A 
ATOM     69  C   UNL     1      15.837   8.929   7.347  1.00  0.00     0.040 A 
ATOM     70  F   UNL     1      15.887   6.821   6.316  1.00  0.00    -0.206 F 
ATOM     71  C   UNL     1      15.459   9.748   8.410  1.00  0.00     0.006 A 
ENDBRANCH  50  64
BRANCH  51  72
ATOM     72  C   UNL     1      12.281  -2.645   8.445  1.00  0.00     0.057 A 
ATOM     73  C   UNL     1      12.361  -3.417   9.609  1.00  0.00     0.134 A 
ATOM     74  C   UNL     1      11.864  -3.285   7.271  1.00  0.00     0.134 A 
ATOM     75  F   UNL     1      12.777  -2.864  10.758  1.00  0.00    -0.206 F 
ATOM     76  C   UNL     1      12.053  -4.778   9.604  1.00  0.00     0.040 A 
ATOM     77  C   UNL     1      11.533  -4.640   7.257  1.00  0.00     0.040 A 
ATOM     78  F   UNL     1      11.769  -2.598   6.123  1.00  0.00    -0.206 F 
ATOM     79  C   UNL     1      11.633  -5.392   8.426  1.00  0.00     0.006 A 
ENDBRANCH  51  72
BRANCH  63  80
ATOM     80  C   UNL     1      18.322   0.732   9.166  1.00  0.00     0.057 A 
ATOM     81  C   UNL     1      19.081   0.162   8.137  1.00  0.00     0.134 A 
ATOM     82  C   UNL     1      18.934   0.885  10.416  1.00  0.00     0.134 A 
ATOM     83  F   UNL     1      18.547  -0.023   6.920  1.00  0.00    -0.206 F 
ATOM     84  C   UNL     1      20.396  -0.256   8.348  1.00  0.00     0.040 A 
ATOM     85  C   UNL     1      20.255   0.492  10.634  1.00  0.00     0.040 A 
ATOM     86  F   UNL     1      18.263   1.431  11.441  1.00  0.00    -0.206 F 
ATOM     87  C   UNL     1      20.988  -0.085   9.598  1.00  0.00     0.006 A 
ENDBRANCH  63  80
ENDBRANCH  37  38
ENDBRANCH  30  32
ENDBRANCH  29  30
ENDBRANCH  28  29
ENDBRANCH  27  28
ENDBRANCH   1  27
TORSDOF 18
