REMARK SMILES Cc1ccccc1CSCC(=O)Nc1ccc(C)c(C(=O)OCCOCCOC(=O)c2ccc(-c3c4nc(c(-c5c(F)cccc5F)c5ccc([nH]5)c(-c5c(F)cccc5F)c5nc(c(-c6c(F)cccc6F)c6ccc3[nH]6)C=C5)C=C4)cc2)c1
REMARK SMILES IDX 23 1 22 2 20 3 21 4 19 5 14 6 15 7 85 8 16 9 17 10 18 11
REMARK SMILES IDX 13 12 11 13 12 14 10 16 9 17 8 18 7 19 1 20 2 21 3 22 4 23
REMARK SMILES IDX 6 24 5 25 24 26 25 27 26 28 27 29 28 30 29 31 30 32 31 33
REMARK SMILES IDX 32 34 84 35 33 36 83 37 34 38 35 39 36 40 77 41 37 42 82 43
REMARK SMILES IDX 76 44 78 45 38 46 81 47 75 48 74 49 39 51 65 52 48 53 64 54
REMARK SMILES IDX 49 55 52 56 63 57 79 58 50 59 51 60 62 62 80 63 53 64 40 65
REMARK SMILES IDX 41 66 46 67 42 68 43 69 45 70 47 71 44 72 66 73 67 74 72 75
REMARK SMILES IDX 68 76 69 77 71 78 73 79 70 80 54 81 55 82 60 83 56 84 57 85
REMARK SMILES IDX 59 86 61 87 58 88
REMARK H PARENT 13 15 78 50 52 61
REMARK Flexibility Score: inf
ROOT
ATOM      1  C   UNL     1       3.831   9.676  -4.082  1.00  0.00     0.261 C 
ENDROOT
BRANCH   1   2
ATOM      2  O   UNL     1       2.995   8.527  -3.939  1.00  0.00    -0.460 OA
BRANCH   2   3
ATOM      3  C   UNL     1       3.422   7.296  -4.303  1.00  0.00     0.338 C 
ATOM      4  O   UNL     1       4.210   7.006  -5.170  1.00  0.00    -0.246 OA
BRANCH   3   5
ATOM      5  C   UNL     1       2.867   6.360  -3.296  1.00  0.00     0.065 A 
ATOM      6  C   UNL     1       3.076   4.169  -2.365  1.00  0.00     0.042 A 
ATOM      7  C   UNL     1       2.578   4.655  -1.160  1.00  0.00     0.026 A 
ATOM      8  C   UNL     1       3.314   5.038  -3.410  1.00  0.00     0.042 A 
ATOM      9  C   UNL     1       2.021   5.922  -1.087  1.00  0.00     0.006 A 
ATOM     10  C   UNL     1       2.091   6.774  -2.182  1.00  0.00    -0.036 A 
ATOM     11  C   UNL     1       1.393   8.102  -2.046  1.00  0.00     0.045 C 
BRANCH   6  12
ATOM     12  N   UNL     1       3.363   2.816  -2.505  1.00  0.00    -0.325 N 
ATOM     13  C   UNL     1       2.451   1.812  -2.717  1.00  0.00     0.234 C 
ATOM     14  O   UNL     1       2.901   0.668  -2.854  1.00  0.00    -0.274 OA
ATOM     15  H   UNL     1       4.310   2.553  -2.445  1.00  0.00     0.169 HD
BRANCH  13  16
ATOM     16  C   UNL     1       0.974   2.089  -2.983  1.00  0.00     0.170 C 
BRANCH  16  17
ATOM     17  S   UNL     1      -0.009   2.970  -1.742  1.00  0.00    -0.147 SA
BRANCH  17  18
ATOM     18  C   UNL     1       0.583   2.216  -0.189  1.00  0.00     0.105 C 
BRANCH  18  19
ATOM     19  C   UNL     1       0.029   0.842   0.030  1.00  0.00    -0.035 A 
ATOM     20  C   UNL     1       2.330  -0.339   0.079  1.00  0.00     0.044 C 
ATOM     21  C   UNL     1       0.823  -0.320   0.079  1.00  0.00    -0.047 A 
ATOM     22  C   UNL     1       0.177  -1.565   0.134  1.00  0.00     0.004 A 
ATOM     23  C   UNL     1      -1.213  -1.659   0.193  1.00  0.00     0.000 A 
ATOM     24  C   UNL     1      -1.371   0.732   0.159  1.00  0.00     0.005 A 
ATOM     25  C   UNL     1      -1.988  -0.508   0.231  1.00  0.00     0.000 A 
ENDBRANCH  18  19
ENDBRANCH  17  18
ENDBRANCH  16  17
ENDBRANCH  13  16
ENDBRANCH   6  12
ENDBRANCH   3   5
ENDBRANCH   2   3
ENDBRANCH   1   2
BRANCH   1  26
ATOM     26  C   UNL     1       4.951   9.633  -3.105  1.00  0.00     0.202 C 
BRANCH  26  27
ATOM     27  O   UNL     1       5.866   8.703  -3.659  1.00  0.00    -0.374 OA
BRANCH  27  28
ATOM     28  C   UNL     1       7.020   8.458  -2.890  1.00  0.00     0.202 C 
BRANCH  28  29
ATOM     29  C   UNL     1       7.814   9.743  -2.627  1.00  0.00     0.261 C 
BRANCH  29  30
ATOM     30  O   UNL     1       8.206  10.340  -3.888  1.00  0.00    -0.460 OA
BRANCH  30  31
ATOM     31  C   UNL     1       7.480  11.412  -4.322  1.00  0.00     0.338 C 
ATOM     32  O   UNL     1       7.166  12.376  -3.640  1.00  0.00    -0.246 OA
BRANCH  31  33
ATOM     33  C   UNL     1       6.850  11.099  -5.644  1.00  0.00     0.060 A 
ATOM     34  C   UNL     1       5.791  11.897  -6.136  1.00  0.00     0.016 A 
ATOM     35  C   UNL     1       7.059   9.831  -6.174  1.00  0.00     0.016 A 
ATOM     36  C   UNL     1       4.844  11.356  -7.024  1.00  0.00     0.010 A 
ATOM     37  C   UNL     1       6.060   9.268  -6.938  1.00  0.00     0.010 A 
ATOM     38  C   UNL     1       4.929  10.005  -7.346  1.00  0.00    -0.014 A 
BRANCH  38  39
ATOM     39  C   UNL     1       3.908   9.181  -8.009  1.00  0.00     0.031 A 
ATOM     40  C   UNL     1       4.317   8.513  -9.258  1.00  0.00     0.074 A 
ATOM     41  C   UNL     1       2.800   8.748  -7.355  1.00  0.00     0.049 A 
ATOM     42  N   UNL     1       3.552   7.762  -9.959  1.00  0.00    -0.248 NA
ATOM     43  C   UNL     1       5.639   8.682  -9.851  1.00  0.00     0.031 C 
ATOM     44  C   UNL     1       2.086   7.476  -7.505  1.00  0.00     0.029 A 
ATOM     45  N   UNL     1       2.075   9.381  -6.346  1.00  0.00    -0.354 N 
ATOM     46  C   UNL     1       4.331   7.104 -10.879  1.00  0.00     0.074 A 
ATOM     47  C   UNL     1       5.589   7.803 -10.852  1.00  0.00     0.031 C 
ATOM     48  C   UNL     1       0.929   7.521  -6.817  1.00  0.00     0.029 A 
ATOM     49  C   UNL     1       0.763   8.882  -6.337  1.00  0.00     0.049 A 
ATOM     50  H   UNL     1       2.427  10.069  -5.736  1.00  0.00     0.167 HD
ATOM     51  C   UNL     1       3.818   5.975 -11.448  1.00  0.00     0.037 A 
ATOM     52  C   UNL     1      -0.266   9.746  -6.539  1.00  0.00     0.037 A 
ATOM     53  C   UNL     1       2.416   5.783 -11.012  1.00  0.00     0.049 A 
ATOM     54  C   UNL     1      -0.851   9.474  -7.899  1.00  0.00     0.074 A 
ATOM     55  C   UNL     1       1.771   4.940 -10.120  1.00  0.00     0.029 A 
ATOM     56  N   UNL     1       1.502   6.797 -11.273  1.00  0.00    -0.354 N 
ATOM     57  N   UNL     1      -0.401   8.530  -8.680  1.00  0.00    -0.248 NA
ATOM     58  C   UNL     1      -1.927  10.231  -8.517  1.00  0.00     0.031 C 
ATOM     59  C   UNL     1       0.466   5.480  -9.856  1.00  0.00     0.029 A 
ATOM     60  C   UNL     1       0.300   6.631 -10.611  1.00  0.00     0.049 A 
ATOM     61  H   UNL     1       1.692   7.557 -11.869  1.00  0.00     0.167 HD
ATOM     62  C   UNL     1      -1.052   8.529  -9.862  1.00  0.00     0.074 A 
ATOM     63  C   UNL     1      -1.980   9.649  -9.731  1.00  0.00     0.031 C 
ATOM     64  C   UNL     1      -0.764   7.614 -10.838  1.00  0.00     0.037 A 
BRANCH  51  65
ATOM     65  C   UNL     1       4.602   4.954 -12.260  1.00  0.00     0.057 A 
ATOM     66  C   UNL     1       4.004   3.728 -12.614  1.00  0.00     0.134 A 
ATOM     67  C   UNL     1       5.938   5.068 -12.703  1.00  0.00     0.134 A 
ATOM     68  F   UNL     1       2.726   3.459 -12.315  1.00  0.00    -0.206 F 
ATOM     69  C   UNL     1       4.683   2.706 -13.299  1.00  0.00     0.040 A 
ATOM     70  C   UNL     1       6.631   4.052 -13.378  1.00  0.00     0.040 A 
ATOM     71  F   UNL     1       6.667   6.170 -12.546  1.00  0.00    -0.206 F 
ATOM     72  C   UNL     1       6.007   2.859 -13.676  1.00  0.00     0.006 A 
ENDBRANCH  51  65
BRANCH  52  73
ATOM     73  C   UNL     1       0.011  11.063  -5.871  1.00  0.00     0.057 A 
ATOM     74  C   UNL     1      -0.015  11.097  -4.459  1.00  0.00     0.134 A 
ATOM     75  C   UNL     1       0.801  12.036  -6.500  1.00  0.00     0.134 A 
ATOM     76  F   UNL     1      -0.734  10.191  -3.776  1.00  0.00    -0.206 F 
ATOM     77  C   UNL     1       0.810  11.952  -3.714  1.00  0.00     0.040 A 
ATOM     78  C   UNL     1       1.642  12.885  -5.762  1.00  0.00     0.040 A 
ATOM     79  F   UNL     1       0.905  12.062  -7.836  1.00  0.00    -0.206 F 
ATOM     80  C   UNL     1       1.679  12.818  -4.370  1.00  0.00     0.006 A 
ENDBRANCH  52  73
BRANCH  64  81
ATOM     81  C   UNL     1      -1.466   7.662 -12.157  1.00  0.00     0.057 A 
ATOM     82  C   UNL     1      -2.829   7.957 -12.263  1.00  0.00     0.134 A 
ATOM     83  C   UNL     1      -0.799   7.411 -13.370  1.00  0.00     0.134 A 
ATOM     84  F   UNL     1      -3.612   8.024 -11.176  1.00  0.00    -0.206 F 
ATOM     85  C   UNL     1      -3.436   8.198 -13.495  1.00  0.00     0.040 A 
ATOM     86  C   UNL     1      -1.412   7.580 -14.607  1.00  0.00     0.040 A 
ATOM     87  F   UNL     1       0.481   7.024 -13.427  1.00  0.00    -0.206 F 
ATOM     88  C   UNL     1      -2.720   8.029 -14.672  1.00  0.00     0.006 A 
ENDBRANCH  64  81
ENDBRANCH  38  39
ENDBRANCH  31  33
ENDBRANCH  30  31
ENDBRANCH  29  30
ENDBRANCH  28  29
ENDBRANCH  27  28
ENDBRANCH  26  27
ENDBRANCH   1  26
TORSDOF 19
