REMARK SMILES C[C@@H]1Cc2ccccc2N1C(=O)CSc1ncc(C(=O)OCCOCCOC(=O)c2ccc(-c3c4nc(c(-c5c(F)cccc5F)c5ccc([nH]5)c(-c5c(F)cccc5F)c5nc(c(-c6c(F)cccc6F)c6ccc3[nH]6)C=C5)C=C4)cc2)n1-c1ccc(F)cc1
REMARK SMILES IDX 23 1 22 2 21 3 19 4 20 5 18 6 15 7 16 8 84 9 17 10 14 11
REMARK SMILES IDX 13 12 11 13 12 14 10 15 1 16 2 17 3 18 4 19 9 20 5 21 8 22
REMARK SMILES IDX 6 23 7 24 85 25 86 26 91 27 87 28 90 29 88 30 89 31 24 32
REMARK SMILES IDX 25 33 26 34 27 35 28 36 29 37 30 38 31 39 83 40 32 41 82 42
REMARK SMILES IDX 33 43 34 44 35 45 76 46 36 47 81 48 75 49 77 50 37 51 80 52
REMARK SMILES IDX 74 53 73 54 38 56 64 57 47 58 63 59 48 60 51 61 62 62 78 63
REMARK SMILES IDX 49 64 50 65 61 67 79 68 52 69 39 70 40 71 45 72 41 73 42 74
REMARK SMILES IDX 44 75 46 76 43 77 65 78 66 79 71 80 67 81 68 82 70 83 72 84
REMARK SMILES IDX 69 85 53 86 54 87 59 88 55 89 56 90 58 91 60 92 57 93
REMARK H PARENT 77 55 51 66
REMARK Flexibility Score: inf
ROOT
ATOM      1  C   UNL     1      -9.003   3.248  -0.812  1.00  0.00     0.202 C 
ENDROOT
BRANCH   1   2
ATOM      2  C   UNL     1      -8.724   2.701  -2.214  1.00  0.00     0.261 C 
BRANCH   2   3
ATOM      3  O   UNL     1      -7.383   2.219  -2.336  1.00  0.00    -0.459 OA
BRANCH   3   4
ATOM      4  C   UNL     1      -6.572   3.061  -3.017  1.00  0.00     0.357 C 
ATOM      5  O   UNL     1      -6.948   4.065  -3.622  1.00  0.00    -0.244 OA
BRANCH   4   6
ATOM      6  C   UNL     1      -5.209   2.666  -2.879  1.00  0.00     0.152 A 
ATOM      7  C   UNL     1      -3.023   2.755  -3.141  1.00  0.00     0.173 A 
ATOM      8  N   UNL     1      -3.262   1.498  -2.849  1.00  0.00    -0.230 NA
ATOM      9  N   UNL     1      -4.145   3.538  -2.989  1.00  0.00    -0.282 N 
ATOM     10  C   UNL     1      -4.621   1.434  -2.657  1.00  0.00     0.148 A 
BRANCH   7  11
ATOM     11  S   UNL     1      -1.547   3.423  -3.703  1.00  0.00    -0.078 SA
BRANCH  11  12
ATOM     12  C   UNL     1      -0.335   2.110  -3.554  1.00  0.00     0.178 C 
BRANCH  12  13
ATOM     13  C   UNL     1      -0.077   1.547  -2.172  1.00  0.00     0.237 C 
ATOM     14  O   UNL     1      -0.144   0.313  -2.049  1.00  0.00    -0.274 OA
BRANCH  13  15
ATOM     15  N   UNL     1       0.335   2.318  -1.097  1.00  0.00    -0.308 N 
ATOM     16  C   UNL     1      -0.625   0.866   0.761  1.00  0.00     0.032 C 
ATOM     17  C   UNL     1       0.566   1.669   0.228  1.00  0.00     0.092 C 
ATOM     18  C   UNL     1       0.945   2.781   1.222  1.00  0.00     0.063 C 
ATOM     19  C   UNL     1       0.936   3.997   0.359  1.00  0.00    -0.022 A 
ATOM     20  C   UNL     1       0.666   3.688  -0.975  1.00  0.00     0.047 A 
ATOM     21  C   UNL     1       1.186   5.297   0.787  1.00  0.00     0.006 A 
ATOM     22  C   UNL     1       0.772   4.696  -1.918  1.00  0.00     0.026 A 
ATOM     23  C   UNL     1       1.179   6.319  -0.155  1.00  0.00     0.000 A 
ATOM     24  C   UNL     1       0.990   6.017  -1.504  1.00  0.00     0.002 A 
ENDBRANCH  13  15
ENDBRANCH  12  13
ENDBRANCH  11  12
ENDBRANCH   7  11
BRANCH   9  25
ATOM     25  C   UNL     1      -4.214   4.946  -2.857  1.00  0.00     0.049 A 
ATOM     26  C   UNL     1      -4.097   5.760  -3.984  1.00  0.00     0.030 A 
ATOM     27  C   UNL     1      -4.468   5.499  -1.594  1.00  0.00     0.030 A 
ATOM     28  C   UNL     1      -4.264   7.138  -3.844  1.00  0.00     0.041 A 
ATOM     29  C   UNL     1      -4.654   6.875  -1.466  1.00  0.00     0.041 A 
ATOM     30  C   UNL     1      -4.551   7.681  -2.593  1.00  0.00     0.123 A 
ATOM     31  F   UNL     1      -4.727   9.004  -2.473  1.00  0.00    -0.207 F 
ENDBRANCH   9  25
ENDBRANCH   4   6
ENDBRANCH   3   4
ENDBRANCH   2   3
ENDBRANCH   1   2
BRANCH   1  32
ATOM     32  O   UNL     1      -8.189   4.263  -0.247  1.00  0.00    -0.374 OA
BRANCH  32  33
ATOM     33  C   UNL     1      -6.899   3.893   0.229  1.00  0.00     0.202 C 
BRANCH  33  34
ATOM     34  C   UNL     1      -6.729   2.956   1.441  1.00  0.00     0.261 C 
BRANCH  34  35
ATOM     35  O   UNL     1      -7.395   1.701   1.266  1.00  0.00    -0.460 OA
BRANCH  35  36
ATOM     36  C   UNL     1      -8.291   1.375   2.241  1.00  0.00     0.338 C 
ATOM     37  O   UNL     1      -8.314   1.778   3.389  1.00  0.00    -0.246 OA
BRANCH  36  38
ATOM     38  C   UNL     1      -9.455   0.799   1.531  1.00  0.00     0.060 A 
ATOM     39  C   UNL     1      -9.269  -0.104   0.477  1.00  0.00     0.016 A 
ATOM     40  C   UNL     1     -10.657   1.514   1.669  1.00  0.00     0.016 A 
ATOM     41  C   UNL     1     -10.239  -0.178  -0.517  1.00  0.00     0.010 A 
ATOM     42  C   UNL     1     -11.613   1.452   0.660  1.00  0.00     0.010 A 
ATOM     43  C   UNL     1     -11.376   0.654  -0.461  1.00  0.00    -0.014 A 
BRANCH  43  44
ATOM     44  C   UNL     1     -12.402   0.497  -1.496  1.00  0.00     0.031 A 
ATOM     45  C   UNL     1     -13.067  -0.835  -1.395  1.00  0.00     0.074 A 
ATOM     46  C   UNL     1     -12.837   1.447  -2.356  1.00  0.00     0.049 A 
ATOM     47  N   UNL     1     -13.081  -1.792  -2.263  1.00  0.00    -0.248 NA
ATOM     48  C   UNL     1     -13.637  -1.204  -0.087  1.00  0.00     0.031 C 
ATOM     49  C   UNL     1     -12.494   2.868  -2.417  1.00  0.00     0.029 A 
ATOM     50  N   UNL     1     -13.769   1.337  -3.351  1.00  0.00    -0.354 N 
ATOM     51  C   UNL     1     -13.811  -2.824  -1.676  1.00  0.00     0.074 A 
ATOM     52  C   UNL     1     -13.984  -2.472  -0.294  1.00  0.00     0.031 C 
ATOM     53  C   UNL     1     -13.350   3.519  -3.239  1.00  0.00     0.029 A 
ATOM     54  C   UNL     1     -14.234   2.551  -3.856  1.00  0.00     0.049 A 
ATOM     55  H   UNL     1     -14.088   0.468  -3.685  1.00  0.00     0.167 HD
ATOM     56  C   UNL     1     -14.405  -3.795  -2.421  1.00  0.00     0.037 A 
ATOM     57  C   UNL     1     -15.299   2.747  -4.679  1.00  0.00     0.037 A 
ATOM     58  C   UNL     1     -13.828  -3.870  -3.736  1.00  0.00     0.049 A 
ATOM     59  C   UNL     1     -15.614   1.447  -5.316  1.00  0.00     0.074 A 
ATOM     60  C   UNL     1     -12.585  -4.203  -4.238  1.00  0.00     0.029 A 
ATOM     61  N   UNL     1     -14.482  -3.231  -4.758  1.00  0.00    -0.354 N 
ATOM     62  N   UNL     1     -14.839   0.871  -6.190  1.00  0.00    -0.248 NA
ATOM     63  C   UNL     1     -16.531   0.567  -4.608  1.00  0.00     0.031 C 
ATOM     64  C   UNL     1     -12.384  -3.318  -5.338  1.00  0.00     0.029 A 
ATOM     65  C   UNL     1     -13.538  -2.547  -5.479  1.00  0.00     0.049 A 
ATOM     66  H   UNL     1     -15.449  -3.257  -4.939  1.00  0.00     0.167 HD
ATOM     67  C   UNL     1     -14.851  -0.469  -5.838  1.00  0.00     0.074 A 
ATOM     68  C   UNL     1     -15.953  -0.605  -4.885  1.00  0.00     0.031 C 
ATOM     69  C   UNL     1     -13.794  -1.284  -6.124  1.00  0.00     0.037 A 
BRANCH  56  70
ATOM     70  C   UNL     1     -15.748  -4.401  -2.096  1.00  0.00     0.057 A 
ATOM     71  C   UNL     1     -16.709  -3.799  -1.257  1.00  0.00     0.134 A 
ATOM     72  C   UNL     1     -16.230  -5.457  -2.891  1.00  0.00     0.134 A 
ATOM     73  F   UNL     1     -16.431  -2.747  -0.478  1.00  0.00    -0.206 F 
ATOM     74  C   UNL     1     -18.052  -4.181  -1.247  1.00  0.00     0.040 A 
ATOM     75  C   UNL     1     -17.583  -5.814  -2.924  1.00  0.00     0.040 A 
ATOM     76  F   UNL     1     -15.414  -6.117  -3.727  1.00  0.00    -0.206 F 
ATOM     77  C   UNL     1     -18.502  -5.164  -2.111  1.00  0.00     0.006 A 
ENDBRANCH  56  70
BRANCH  57  78
ATOM     78  C   UNL     1     -16.263   3.876  -4.697  1.00  0.00     0.057 A 
ATOM     79  C   UNL     1     -16.589   4.563  -3.514  1.00  0.00     0.134 A 
ATOM     80  C   UNL     1     -17.096   4.127  -5.798  1.00  0.00     0.134 A 
ATOM     81  F   UNL     1     -15.918   4.331  -2.377  1.00  0.00    -0.206 F 
ATOM     82  C   UNL     1     -17.674   5.442  -3.427  1.00  0.00     0.040 A 
ATOM     83  C   UNL     1     -18.190   5.006  -5.725  1.00  0.00     0.040 A 
ATOM     84  F   UNL     1     -16.907   3.479  -6.957  1.00  0.00    -0.206 F 
ATOM     85  C   UNL     1     -18.486   5.660  -4.533  1.00  0.00     0.006 A 
ENDBRANCH  57  78
BRANCH  69  86
ATOM     86  C   UNL     1     -12.708  -0.730  -7.005  1.00  0.00     0.057 A 
ATOM     87  C   UNL     1     -12.397  -1.401  -8.191  1.00  0.00     0.134 A 
ATOM     88  C   UNL     1     -11.883   0.350  -6.652  1.00  0.00     0.134 A 
ATOM     89  F   UNL     1     -13.104  -2.480  -8.561  1.00  0.00    -0.206 F 
ATOM     90  C   UNL     1     -11.328  -1.010  -9.000  1.00  0.00     0.040 A 
ATOM     91  C   UNL     1     -10.830   0.773  -7.470  1.00  0.00     0.040 A 
ATOM     92  F   UNL     1     -12.037   0.988  -5.484  1.00  0.00    -0.206 F 
ATOM     93  C   UNL     1     -10.548   0.088  -8.648  1.00  0.00     0.006 A 
ENDBRANCH  69  86
ENDBRANCH  43  44
ENDBRANCH  36  38
ENDBRANCH  35  36
ENDBRANCH  34  35
ENDBRANCH  33  34
ENDBRANCH  32  33
ENDBRANCH   1  32
TORSDOF 19
