REMARK SMILES O=C(OCCOCCOC(=O)[C@@H]1CCC[C@@H](C(=O)N2CCN3C(=O)NC[C@@H]3C2)C1)c1ccc(-c2c3nc(c(-c4c(F)cccc4F)c4ccc([nH]4)c(-c4c(F)cccc4F)c4nc(c(-c5c(F)cccc5F)c5ccc2[nH]5)C=C4)C=C3)cc1
REMARK SMILES IDX 6 1 5 2 4 3 3 4 2 5 1 6 30 7 31 8 83 9 32 10 82 11 33 12
REMARK SMILES IDX 34 13 35 14 76 15 36 16 81 17 75 18 77 19 37 20 80 21 74 22
REMARK SMILES IDX 73 23 38 25 64 26 47 27 63 28 48 29 51 30 62 31 78 32 49 33
REMARK SMILES IDX 50 34 61 36 79 37 52 38 39 39 40 40 45 41 41 42 42 43 44 44
REMARK SMILES IDX 46 45 43 46 65 47 66 48 71 49 67 50 68 51 70 52 72 53 69 54
REMARK SMILES IDX 53 55 54 56 59 57 55 58 56 59 58 60 60 61 57 62 7 63 8 64
REMARK SMILES IDX 9 65 10 66 11 67 12 68 13 69 29 70 14 71 16 72 15 73 17 74
REMARK SMILES IDX 18 75 19 76 20 77 28 78 21 79 27 80 22 81 26 82 23 83 25 84
REMARK SMILES IDX 24 85
REMARK H PARENT 77 24 51 35 25 86
REMARK Flexibility Score: inf
ROOT
ATOM      1  O   UNL     1       4.199   0.738  -1.501  1.00  0.00    -0.374 OA
ENDROOT
BRANCH   1   2
ATOM      2  C   UNL     1       4.820  -0.324  -0.778  1.00  0.00     0.202 C 
BRANCH   2   3
ATOM      3  C   UNL     1       4.218  -0.841   0.534  1.00  0.00     0.261 C 
BRANCH   3   4
ATOM      4  O   UNL     1       2.782  -0.781   0.569  1.00  0.00    -0.460 OA
BRANCH   4   5
ATOM      5  C   UNL     1       2.042   0.203   1.147  1.00  0.00     0.338 C 
ATOM      6  O   UNL     1       0.823   0.101   1.219  1.00  0.00    -0.246 OA
BRANCH   5   7
ATOM      7  C   UNL     1       2.701   1.416   1.698  1.00  0.00     0.060 A 
ATOM      8  C   UNL     1       3.827   1.970   1.111  1.00  0.00     0.016 A 
ATOM      9  C   UNL     1       2.175   2.055   2.819  1.00  0.00     0.016 A 
ATOM     10  C   UNL     1       4.559   2.964   1.680  1.00  0.00     0.010 A 
ATOM     11  C   UNL     1       2.840   3.166   3.357  1.00  0.00     0.010 A 
ATOM     12  C   UNL     1       4.056   3.588   2.798  1.00  0.00    -0.014 A 
BRANCH  12  13
ATOM     13  C   UNL     1       4.985   4.537   3.405  1.00  0.00     0.031 A 
ATOM     14  C   UNL     1       5.695   4.090   4.638  1.00  0.00     0.074 A 
ATOM     15  C   UNL     1       5.372   5.610   2.689  1.00  0.00     0.049 A 
ATOM     16  N   UNL     1       6.542   4.739   5.380  1.00  0.00    -0.248 NA
ATOM     17  C   UNL     1       5.429   2.709   5.087  1.00  0.00     0.031 C 
ATOM     18  C   UNL     1       4.891   5.951   1.340  1.00  0.00     0.029 A 
ATOM     19  N   UNL     1       6.308   6.564   2.953  1.00  0.00    -0.354 N 
ATOM     20  C   UNL     1       6.848   3.880   6.424  1.00  0.00     0.074 A 
ATOM     21  C   UNL     1       6.120   2.652   6.212  1.00  0.00     0.031 C 
ATOM     22  C   UNL     1       5.565   7.019   0.888  1.00  0.00     0.029 A 
ATOM     23  C   UNL     1       6.432   7.497   1.953  1.00  0.00     0.049 A 
ATOM     24  H   UNL     1       6.843   6.583   3.779  1.00  0.00     0.167 HD
ATOM     25  C   UNL     1       7.650   4.132   7.480  1.00  0.00     0.037 A 
ATOM     26  C   UNL     1       7.133   8.642   1.945  1.00  0.00     0.037 A 
ATOM     27  C   UNL     1       8.361   5.373   7.618  1.00  0.00     0.049 A 
ATOM     28  C   UNL     1       7.914   8.959   3.188  1.00  0.00     0.074 A 
ATOM     29  C   UNL     1       9.140   5.816   8.666  1.00  0.00     0.029 A 
ATOM     30  N   UNL     1       8.371   6.373   6.650  1.00  0.00    -0.354 N 
ATOM     31  N   UNL     1       8.096   8.220   4.259  1.00  0.00    -0.248 NA
ATOM     32  C   UNL     1       8.564  10.270   3.239  1.00  0.00     0.031 C 
ATOM     33  C   UNL     1       9.573   7.111   8.356  1.00  0.00     0.029 A 
ATOM     34  C   UNL     1       9.126   7.445   7.084  1.00  0.00     0.049 A 
ATOM     35  H   UNL     1       7.907   6.324   5.783  1.00  0.00     0.167 HD
ATOM     36  C   UNL     1       8.910   8.960   5.101  1.00  0.00     0.074 A 
ATOM     37  C   UNL     1       9.192  10.203   4.404  1.00  0.00     0.031 C 
ATOM     38  C   UNL     1       9.385   8.650   6.333  1.00  0.00     0.037 A 
BRANCH  25  39
ATOM     39  C   UNL     1       7.664   3.112   8.577  1.00  0.00     0.057 A 
ATOM     40  C   UNL     1       8.239   1.843   8.432  1.00  0.00     0.134 A 
ATOM     41  C   UNL     1       6.999   3.383   9.781  1.00  0.00     0.134 A 
ATOM     42  F   UNL     1       8.850   1.499   7.288  1.00  0.00    -0.206 F 
ATOM     43  C   UNL     1       8.124   0.871   9.430  1.00  0.00     0.040 A 
ATOM     44  C   UNL     1       6.903   2.431  10.796  1.00  0.00     0.040 A 
ATOM     45  F   UNL     1       6.407   4.571   9.978  1.00  0.00    -0.206 F 
ATOM     46  C   UNL     1       7.456   1.166  10.617  1.00  0.00     0.006 A 
ENDBRANCH  25  39
BRANCH  26  47
ATOM     47  C   UNL     1       7.060   9.576   0.792  1.00  0.00     0.057 A 
ATOM     48  C   UNL     1       8.195   9.898   0.042  1.00  0.00     0.134 A 
ATOM     49  C   UNL     1       5.854  10.189   0.421  1.00  0.00     0.134 A 
ATOM     50  F   UNL     1       9.383   9.358   0.349  1.00  0.00    -0.206 F 
ATOM     51  C   UNL     1       8.140  10.809  -1.017  1.00  0.00     0.040 A 
ATOM     52  C   UNL     1       5.778  11.077  -0.653  1.00  0.00     0.040 A 
ATOM     53  F   UNL     1       4.722   9.925   1.093  1.00  0.00    -0.206 F 
ATOM     54  C   UNL     1       6.927  11.398  -1.369  1.00  0.00     0.006 A 
ENDBRANCH  26  47
BRANCH  38  55
ATOM     55  C   UNL     1      10.314   9.646   6.956  1.00  0.00     0.057 A 
ATOM     56  C   UNL     1       9.868  10.880   7.440  1.00  0.00     0.134 A 
ATOM     57  C   UNL     1      11.671   9.335   7.103  1.00  0.00     0.134 A 
ATOM     58  F   UNL     1       8.581  11.238   7.314  1.00  0.00    -0.206 F 
ATOM     59  C   UNL     1      10.750  11.788   8.024  1.00  0.00     0.040 A 
ATOM     60  C   UNL     1      12.555  10.218   7.717  1.00  0.00     0.040 A 
ATOM     61  F   UNL     1      12.154   8.161   6.668  1.00  0.00    -0.206 F 
ATOM     62  C   UNL     1      12.096  11.453   8.171  1.00  0.00     0.006 A 
ENDBRANCH  38  55
ENDBRANCH  12  13
ENDBRANCH   5   7
ENDBRANCH   4   5
ENDBRANCH   3   4
ENDBRANCH   2   3
ENDBRANCH   1   2
BRANCH   1  63
ATOM     63  C   UNL     1       2.823   0.690  -1.887  1.00  0.00     0.202 C 
BRANCH  63  64
ATOM     64  C   UNL     1       2.706   1.146  -3.342  1.00  0.00     0.261 C 
BRANCH  64  65
ATOM     65  O   UNL     1       3.306   0.125  -4.139  1.00  0.00    -0.463 OA
BRANCH  65  66
ATOM     66  C   UNL     1       4.655   0.056  -3.945  1.00  0.00     0.309 C 
ATOM     67  O   UNL     1       5.415   1.013  -3.945  1.00  0.00    -0.252 OA
BRANCH  66  68
ATOM     68  C   UNL     1       5.068  -1.395  -3.880  1.00  0.00     0.100 C 
ATOM     69  C   UNL     1       4.116  -2.481  -3.325  1.00  0.00     0.015 C 
ATOM     70  C   UNL     1       6.540  -1.702  -3.808  1.00  0.00     0.028 C 
ATOM     71  C   UNL     1       4.496  -3.902  -3.756  1.00  0.00     0.002 C 
ATOM     72  C   UNL     1       6.763  -3.021  -4.561  1.00  0.00     0.079 C 
ATOM     73  C   UNL     1       5.999  -4.142  -3.840  1.00  0.00     0.013 C 
BRANCH  72  74
ATOM     74  C   UNL     1       6.593  -3.062  -6.134  1.00  0.00     0.225 C 
ATOM     75  O   UNL     1       7.607  -3.304  -6.802  1.00  0.00    -0.275 OA
BRANCH  74  76
ATOM     76  N   UNL     1       5.348  -3.057  -6.782  1.00  0.00    -0.339 N 
ATOM     77  C   UNL     1       4.336  -1.965  -6.781  1.00  0.00     0.141 C 
ATOM     78  C   UNL     1       5.101  -4.128  -7.745  1.00  0.00     0.146 C 
ATOM     79  C   UNL     1       3.327  -1.790  -7.910  1.00  0.00     0.143 C 
ATOM     80  C   UNL     1       4.630  -3.581  -9.090  1.00  0.00     0.125 C 
ATOM     81  N   UNL     1       3.447  -2.760  -8.942  1.00  0.00    -0.317 N 
ATOM     82  C   UNL     1       4.143  -4.647 -10.066  1.00  0.00     0.144 C 
ATOM     83  C   UNL     1       2.526  -2.976  -9.938  1.00  0.00     0.317 C 
ATOM     84  N   UNL     1       2.977  -4.051 -10.676  1.00  0.00    -0.336 N 
ATOM     85  O   UNL     1       1.484  -2.364 -10.126  1.00  0.00    -0.249 OA
ATOM     86  H   UNL     1       2.560  -4.369 -11.509  1.00  0.00     0.165 HD
ENDBRANCH  74  76
ENDBRANCH  72  74
ENDBRANCH  66  68
ENDBRANCH  65  66
ENDBRANCH  64  65
ENDBRANCH  63  64
ENDBRANCH   1  63
TORSDOF 16
