REMARK SMILES O=C(OCCOCCOC(=O)c1cccc2nc(Cl)c(Cl)nc12)c1ccc(-c2c3nc(c(-c4c(F)cccc4F)c4ccc([nH]4)c(-c4c(F)cccc4F)c4nc(c(-c5c(F)cccc5F)c5ccc2[nH]5)C=C4)C=C3)cc1
REMARK SMILES IDX 5 1 4 2 3 3 2 4 1 5 24 6 25 7 77 8 26 9 76 10 27 11 28 12
REMARK SMILES IDX 29 13 70 14 30 15 75 16 69 17 71 18 31 19 74 20 68 21 67 22
REMARK SMILES IDX 32 24 58 25 41 26 57 27 42 28 45 29 56 30 72 31 43 32 44 33
REMARK SMILES IDX 55 35 73 36 46 37 33 38 34 39 39 40 35 41 36 42 38 43 40 44
REMARK SMILES IDX 37 45 59 46 60 47 65 48 61 49 62 50 64 51 66 52 63 53 47 54
REMARK SMILES IDX 48 55 53 56 49 57 50 58 52 59 54 60 51 61 6 62 7 63 8 64
REMARK SMILES IDX 9 65 10 66 11 67 12 68 13 69 23 70 14 71 16 72 22 73 15 74
REMARK SMILES IDX 17 75 20 76 18 77 21 78 19 79
REMARK H PARENT 71 23 45 34
REMARK Flexibility Score: inf
ROOT
ATOM      1  C   UNL     1       4.286   0.511  -1.149  1.00  0.00     0.202 C 
ENDROOT
BRANCH   1   2
ATOM      2  C   UNL     1       4.129  -1.001  -0.973  1.00  0.00     0.261 C 
BRANCH   2   3
ATOM      3  O   UNL     1       2.786  -1.355  -0.632  1.00  0.00    -0.460 OA
BRANCH   3   4
ATOM      4  C   UNL     1       2.188  -1.251   0.577  1.00  0.00     0.338 C 
ATOM      5  O   UNL     1       0.969  -1.425   0.621  1.00  0.00    -0.246 OA
BRANCH   4   6
ATOM      6  C   UNL     1       2.891  -0.954   1.875  1.00  0.00     0.060 A 
ATOM      7  C   UNL     1       2.123  -1.140   3.041  1.00  0.00     0.016 A 
ATOM      8  C   UNL     1       4.185  -0.445   2.037  1.00  0.00     0.016 A 
ATOM      9  C   UNL     1       2.610  -0.776   4.298  1.00  0.00     0.010 A 
ATOM     10  C   UNL     1       4.675  -0.066   3.280  1.00  0.00     0.010 A 
ATOM     11  C   UNL     1       3.884  -0.217   4.411  1.00  0.00    -0.014 A 
BRANCH  11  12
ATOM     12  C   UNL     1       4.478   0.097   5.715  1.00  0.00     0.031 A 
ATOM     13  C   UNL     1       4.577   1.510   6.193  1.00  0.00     0.074 A 
ATOM     14  C   UNL     1       5.042  -0.924   6.379  1.00  0.00     0.049 A 
ATOM     15  N   UNL     1       5.011   1.957   7.341  1.00  0.00    -0.248 NA
ATOM     16  C   UNL     1       4.161   2.562   5.251  1.00  0.00     0.031 C 
ATOM     17  C   UNL     1       5.099  -2.307   5.892  1.00  0.00     0.029 A 
ATOM     18  N   UNL     1       5.688  -0.962   7.579  1.00  0.00    -0.354 N 
ATOM     19  C   UNL     1       4.899   3.339   7.273  1.00  0.00     0.074 A 
ATOM     20  C   UNL     1       4.414   3.662   5.948  1.00  0.00     0.031 C 
ATOM     21  C   UNL     1       5.733  -3.063   6.799  1.00  0.00     0.029 A 
ATOM     22  C   UNL     1       6.119  -2.218   7.921  1.00  0.00     0.049 A 
ATOM     23  H   UNL     1       5.832  -0.168   8.143  1.00  0.00     0.167 HD
ATOM     24  C   UNL     1       5.167   4.242   8.248  1.00  0.00     0.037 A 
ATOM     25  C   UNL     1       6.733  -2.636   9.039  1.00  0.00     0.037 A 
ATOM     26  C   UNL     1       5.691   3.869   9.539  1.00  0.00     0.049 A 
ATOM     27  C   UNL     1       6.970  -1.628  10.122  1.00  0.00     0.074 A 
ATOM     28  C   UNL     1       5.934   4.665  10.643  1.00  0.00     0.029 A 
ATOM     29  N   UNL     1       6.076   2.578   9.885  1.00  0.00    -0.354 N 
ATOM     30  N   UNL     1       6.723  -0.339  10.117  1.00  0.00    -0.248 NA
ATOM     31  C   UNL     1       7.539  -2.133  11.374  1.00  0.00     0.031 C 
ATOM     32  C   UNL     1       6.511   3.865  11.637  1.00  0.00     0.029 A 
ATOM     33  C   UNL     1       6.578   2.558  11.175  1.00  0.00     0.049 A 
ATOM     34  H   UNL     1       6.002   1.791   9.297  1.00  0.00     0.167 HD
ATOM     35  C   UNL     1       7.090   0.123  11.371  1.00  0.00     0.074 A 
ATOM     36  C   UNL     1       7.549  -1.035  12.116  1.00  0.00     0.031 C 
ATOM     37  C   UNL     1       7.054   1.386  11.867  1.00  0.00     0.037 A 
BRANCH  24  38
ATOM     38  C   UNL     1       4.894   5.692   7.958  1.00  0.00     0.057 A 
ATOM     39  C   UNL     1       5.934   6.628   7.901  1.00  0.00     0.134 A 
ATOM     40  C   UNL     1       3.590   6.175   7.775  1.00  0.00     0.134 A 
ATOM     41  F   UNL     1       7.208   6.244   8.072  1.00  0.00    -0.206 F 
ATOM     42  C   UNL     1       5.689   7.986   7.674  1.00  0.00     0.040 A 
ATOM     43  C   UNL     1       3.333   7.525   7.522  1.00  0.00     0.040 A 
ATOM     44  F   UNL     1       2.542   5.337   7.811  1.00  0.00    -0.206 F 
ATOM     45  C   UNL     1       4.385   8.437   7.478  1.00  0.00     0.006 A 
ENDBRANCH  24  38
BRANCH  25  46
ATOM     46  C   UNL     1       7.054  -4.072   9.202  1.00  0.00     0.057 A 
ATOM     47  C   UNL     1       8.057  -4.690   8.446  1.00  0.00     0.134 A 
ATOM     48  C   UNL     1       6.311  -4.878  10.071  1.00  0.00     0.134 A 
ATOM     49  F   UNL     1       8.785  -3.977   7.574  1.00  0.00    -0.206 F 
ATOM     50  C   UNL     1       8.306  -6.060   8.544  1.00  0.00     0.040 A 
ATOM     51  C   UNL     1       6.564  -6.245  10.197  1.00  0.00     0.040 A 
ATOM     52  F   UNL     1       5.335  -4.343  10.819  1.00  0.00    -0.206 F 
ATOM     53  C   UNL     1       7.560  -6.840   9.426  1.00  0.00     0.006 A 
ENDBRANCH  25  46
BRANCH  37  54
ATOM     54  C   UNL     1       7.530   1.549  13.279  1.00  0.00     0.057 A 
ATOM     55  C   UNL     1       6.624   1.823  14.310  1.00  0.00     0.134 A 
ATOM     56  C   UNL     1       8.883   1.417  13.618  1.00  0.00     0.134 A 
ATOM     57  F   UNL     1       5.317   1.970  14.049  1.00  0.00    -0.206 F 
ATOM     58  C   UNL     1       7.046   1.949  15.633  1.00  0.00     0.040 A 
ATOM     59  C   UNL     1       9.312   1.509  14.942  1.00  0.00     0.040 A 
ATOM     60  F   UNL     1       9.797   1.137  12.676  1.00  0.00    -0.206 F 
ATOM     61  C   UNL     1       8.392   1.778  15.953  1.00  0.00     0.006 A 
ENDBRANCH  37  54
ENDBRANCH  11  12
ENDBRANCH   4   6
ENDBRANCH   3   4
ENDBRANCH   2   3
ENDBRANCH   1   2
BRANCH   1  62
ATOM     62  O   UNL     1       3.721   1.278  -0.089  1.00  0.00    -0.374 OA
BRANCH  62  63
ATOM     63  C   UNL     1       2.523   1.980  -0.412  1.00  0.00     0.202 C 
BRANCH  63  64
ATOM     64  C   UNL     1       2.834   3.413  -0.839  1.00  0.00     0.261 C 
BRANCH  64  65
ATOM     65  O   UNL     1       3.489   3.407  -2.120  1.00  0.00    -0.460 OA
BRANCH  65  66
ATOM     66  C   UNL     1       4.843   3.525  -2.113  1.00  0.00     0.340 C 
ATOM     67  O   UNL     1       5.560   3.772  -1.163  1.00  0.00    -0.246 OA
BRANCH  66  68
ATOM     68  C   UNL     1       5.309   3.241  -3.486  1.00  0.00     0.088 A 
ATOM     69  C   UNL     1       4.694   3.928  -4.543  1.00  0.00     0.018 A 
ATOM     70  C   UNL     1       6.297   2.266  -3.705  1.00  0.00     0.105 A 
ATOM     71  C   UNL     1       5.071   3.652  -5.846  1.00  0.00     0.003 A 
ATOM     72  C   UNL     1       6.662   1.997  -5.050  1.00  0.00     0.091 A 
ATOM     73  N   UNL     1       6.866   1.543  -2.708  1.00  0.00    -0.230 NA
ATOM     74  C   UNL     1       6.054   2.695  -6.083  1.00  0.00     0.031 A 
ATOM     75  N   UNL     1       7.565   1.051  -5.376  1.00  0.00    -0.231 NA
ATOM     76  C   UNL     1       7.758   0.582  -3.045  1.00  0.00     0.167 A 
ATOM     77  C   UNL     1       8.104   0.343  -4.358  1.00  0.00     0.167 A 
ATOM     78  Cl  UNL     1       8.316  -0.343  -1.712  1.00  0.00    -0.059 Cl
ATOM     79  Cl  UNL     1       9.189  -0.886  -4.862  1.00  0.00    -0.059 Cl
ENDBRANCH  66  68
ENDBRANCH  65  66
ENDBRANCH  64  65
ENDBRANCH  63  64
ENDBRANCH  62  63
ENDBRANCH   1  62
TORSDOF 14
