REMARK SMILES CCc1nc(NCC2CC2)nc(OCC(=O)OCCOCCOC(=O)c2ccc(-c3c4nc(c(-c5c(F)cccc5F)c5ccc([nH]5)c(-c5c(F)cccc5F)c5nc(c(-c6c(F)cccc6F)c6ccc3[nH]6)C=C5)C=C4)cc2)c1C
REMARK SMILES IDX 18 1 17 2 15 3 16 4 14 5 13 6 12 7 3 8 4 9 80 10 5 11 81 12
REMARK SMILES IDX 11 13 2 14 1 15 6 16 7 18 8 19 9 20 10 21 19 22 20 23 21 24
REMARK SMILES IDX 22 25 23 26 24 27 25 28 26 29 27 30 79 31 28 32 78 33 29 34
REMARK SMILES IDX 30 35 31 36 72 37 32 38 77 39 71 40 73 41 33 42 76 43 70 44
REMARK SMILES IDX 69 45 34 47 60 48 43 49 59 50 44 51 47 52 58 53 74 54 45 55
REMARK SMILES IDX 46 56 57 58 75 59 48 60 35 61 36 62 41 63 37 64 38 65 40 66
REMARK SMILES IDX 42 67 39 68 61 69 62 70 67 71 63 72 64 73 66 74 68 75 65 76
REMARK SMILES IDX 49 77 50 78 55 79 51 80 52 81 54 82 56 83 53 84
REMARK H PARENT 6 17 73 46 47 57
REMARK Flexibility Score: inf
ROOT
ATOM      1  C   UNL     1      -3.362  -5.902   0.280  1.00  0.00     0.261 C 
ENDROOT
BRANCH   1   2
ATOM      2  O   UNL     1      -2.001  -6.046   0.752  1.00  0.00    -0.461 OA
BRANCH   2   3
ATOM      3  C   UNL     1      -1.099  -6.481  -0.172  1.00  0.00     0.344 C 
ATOM      4  O   UNL     1      -1.345  -6.655  -1.361  1.00  0.00    -0.248 OA
BRANCH   3   5
ATOM      5  C   UNL     1       0.265  -6.819   0.433  1.00  0.00     0.353 C 
BRANCH   5   6
ATOM      6  O   UNL     1       0.950  -6.008   1.344  1.00  0.00    -0.465 OA
BRANCH   6   7
ATOM      7  C   UNL     1       1.390  -4.746   1.149  1.00  0.00     0.221 A 
ATOM      8  C   UNL     1       1.756  -2.625   0.215  1.00  0.00     0.052 A 
ATOM      9  N   UNL     1       2.117  -2.148   1.420  1.00  0.00    -0.218 NA
ATOM     10  C   UNL     1       1.455  -3.979  -0.006  1.00  0.00     0.033 A 
ATOM     11  C   UNL     1       2.113  -2.976   2.458  1.00  0.00     0.226 A 
ATOM     12  C   UNL     1       1.199  -4.423  -1.411  1.00  0.00     0.052 C 
ATOM     13  N   UNL     1       1.744  -4.248   2.356  1.00  0.00    -0.177 NA
BRANCH   8  14
ATOM     14  C   UNL     1       1.496  -1.561  -0.840  1.00  0.00     0.053 C 
ATOM     15  C   UNL     1       1.625  -0.121  -0.337  1.00  0.00     0.011 C 
ENDBRANCH   8  14
BRANCH  11  16
ATOM     16  N   UNL     1       2.401  -2.506   3.707  1.00  0.00    -0.354 N 
ATOM     17  H   UNL     1       2.326  -3.118   4.475  1.00  0.00     0.163 HD
BRANCH  16  18
ATOM     18  C   UNL     1       2.808  -1.148   3.939  1.00  0.00     0.119 C 
BRANCH  18  19
ATOM     19  C   UNL     1       2.164  -0.646   5.199  1.00  0.00     0.008 C 
ATOM     20  C   UNL     1       1.654   0.773   5.273  1.00  0.00     0.006 C 
ATOM     21  C   UNL     1       0.680  -0.371   5.252  1.00  0.00     0.006 C 
ENDBRANCH  18  19
ENDBRANCH  16  18
ENDBRANCH  11  16
ENDBRANCH   6   7
ENDBRANCH   5   6
ENDBRANCH   3   5
ENDBRANCH   2   3
ENDBRANCH   1   2
BRANCH   1  22
ATOM     22  C   UNL     1      -3.961  -4.523   0.575  1.00  0.00     0.202 C 
BRANCH  22  23
ATOM     23  O   UNL     1      -3.480  -3.416  -0.190  1.00  0.00    -0.374 OA
BRANCH  23  24
ATOM     24  C   UNL     1      -2.092  -3.127  -0.121  1.00  0.00     0.202 C 
BRANCH  24  25
ATOM     25  C   UNL     1      -1.556  -2.475   1.157  1.00  0.00     0.261 C 
BRANCH  25  26
ATOM     26  O   UNL     1      -2.210  -2.888   2.341  1.00  0.00    -0.460 OA
BRANCH  26  27
ATOM     27  C   UNL     1      -3.080  -1.975   2.817  1.00  0.00     0.338 C 
ATOM     28  O   UNL     1      -3.321  -0.859   2.401  1.00  0.00    -0.246 OA
BRANCH  27  29
ATOM     29  C   UNL     1      -3.842  -2.644   3.867  1.00  0.00     0.060 A 
ATOM     30  C   UNL     1      -5.225  -2.713   3.696  1.00  0.00     0.016 A 
ATOM     31  C   UNL     1      -3.201  -3.195   4.980  1.00  0.00     0.016 A 
ATOM     32  C   UNL     1      -5.995  -3.284   4.692  1.00  0.00     0.010 A 
ATOM     33  C   UNL     1      -3.975  -3.770   5.979  1.00  0.00     0.010 A 
ATOM     34  C   UNL     1      -5.374  -3.767   5.852  1.00  0.00    -0.014 A 
BRANCH  34  35
ATOM     35  C   UNL     1      -6.223  -4.091   7.008  1.00  0.00     0.031 A 
ATOM     36  C   UNL     1      -6.383  -3.054   8.078  1.00  0.00     0.074 A 
ATOM     37  C   UNL     1      -6.880  -5.260   7.045  1.00  0.00     0.049 A 
ATOM     38  N   UNL     1      -7.120  -3.083   9.155  1.00  0.00    -0.248 NA
ATOM     39  C   UNL     1      -5.604  -1.815   7.912  1.00  0.00     0.031 C 
ATOM     40  C   UNL     1      -6.784  -6.310   6.031  1.00  0.00     0.029 A 
ATOM     41  N   UNL     1      -7.757  -5.754   7.968  1.00  0.00    -0.354 N 
ATOM     42  C   UNL     1      -6.893  -1.871   9.793  1.00  0.00     0.074 A 
ATOM     43  C   UNL     1      -5.918  -1.147   9.010  1.00  0.00     0.031 C 
ATOM     44  C   UNL     1      -7.575  -7.333   6.393  1.00  0.00     0.029 A 
ATOM     45  C   UNL     1      -8.208  -7.014   7.670  1.00  0.00     0.049 A 
ATOM     46  H   UNL     1      -8.039  -5.254   8.768  1.00  0.00     0.167 HD
ATOM     47  C   UNL     1      -7.463  -1.403  10.927  1.00  0.00     0.037 A 
ATOM     48  C   UNL     1      -9.030  -7.816   8.368  1.00  0.00     0.037 A 
ATOM     49  C   UNL     1      -8.425  -2.151  11.691  1.00  0.00     0.049 A 
ATOM     50  C   UNL     1      -9.626  -7.292   9.645  1.00  0.00     0.074 A 
ATOM     51  C   UNL     1      -9.089  -1.785  12.846  1.00  0.00     0.029 A 
ATOM     52  N   UNL     1      -8.849  -3.436  11.371  1.00  0.00    -0.354 N 
ATOM     53  N   UNL     1      -9.442  -6.128  10.224  1.00  0.00    -0.248 NA
ATOM     54  C   UNL     1     -10.550  -8.181  10.357  1.00  0.00     0.031 C 
ATOM     55  C   UNL     1      -9.874  -2.869  13.255  1.00  0.00     0.029 A 
ATOM     56  C   UNL     1      -9.745  -3.889  12.323  1.00  0.00     0.049 A 
ATOM     57  H   UNL     1      -8.556  -3.948  10.583  1.00  0.00     0.167 HD
ATOM     58  C   UNL     1     -10.239  -6.136  11.361  1.00  0.00     0.074 A 
ATOM     59  C   UNL     1     -10.921  -7.416  11.375  1.00  0.00     0.031 C 
ATOM     60  C   UNL     1     -10.396  -5.177  12.308  1.00  0.00     0.037 A 
BRANCH  47  61
ATOM     61  C   UNL     1      -7.023  -0.051  11.409  1.00  0.00     0.057 A 
ATOM     62  C   UNL     1      -7.333   1.127  10.715  1.00  0.00     0.134 A 
ATOM     63  C   UNL     1      -6.252   0.073  12.572  1.00  0.00     0.134 A 
ATOM     64  F   UNL     1      -8.049   1.080   9.581  1.00  0.00    -0.206 F 
ATOM     65  C   UNL     1      -6.863   2.372  11.139  1.00  0.00     0.040 A 
ATOM     66  C   UNL     1      -5.801   1.315  13.022  1.00  0.00     0.040 A 
ATOM     67  F   UNL     1      -5.916  -1.012  13.285  1.00  0.00    -0.206 F 
ATOM     68  C   UNL     1      -6.097   2.468  12.299  1.00  0.00     0.006 A 
ENDBRANCH  47  61
BRANCH  48  69
ATOM     69  C   UNL     1      -9.321  -9.181   7.864  1.00  0.00     0.057 A 
ATOM     70  C   UNL     1     -10.579  -9.525   7.362  1.00  0.00     0.134 A 
ATOM     71  C   UNL     1      -8.324 -10.165   7.837  1.00  0.00     0.134 A 
ATOM     72  F   UNL     1     -11.578  -8.631   7.371  1.00  0.00    -0.206 F 
ATOM     73  C   UNL     1     -10.840 -10.801   6.856  1.00  0.00     0.040 A 
ATOM     74  C   UNL     1      -8.563 -11.436   7.313  1.00  0.00     0.040 A 
ATOM     75  F   UNL     1      -7.093  -9.895   8.294  1.00  0.00    -0.206 F 
ATOM     76  C   UNL     1      -9.827 -11.758   6.824  1.00  0.00     0.006 A 
ENDBRANCH  48  69
BRANCH  60  77
ATOM     77  C   UNL     1     -11.353  -5.478  13.423  1.00  0.00     0.057 A 
ATOM     78  C   UNL     1     -11.049  -6.407  14.426  1.00  0.00     0.134 A 
ATOM     79  C   UNL     1     -12.575  -4.800  13.514  1.00  0.00     0.134 A 
ATOM     80  F   UNL     1      -9.899  -7.097  14.389  1.00  0.00    -0.206 F 
ATOM     81  C   UNL     1     -11.939  -6.669  15.468  1.00  0.00     0.040 A 
ATOM     82  C   UNL     1     -13.460  -5.032  14.566  1.00  0.00     0.040 A 
ATOM     83  F   UNL     1     -12.920  -3.890  12.590  1.00  0.00    -0.206 F 
ATOM     84  C   UNL     1     -13.146  -5.974  15.543  1.00  0.00     0.006 A 
ENDBRANCH  60  77
ENDBRANCH  34  35
ENDBRANCH  27  29
ENDBRANCH  26  27
ENDBRANCH  25  26
ENDBRANCH  24  25
ENDBRANCH  23  24
ENDBRANCH  22  23
ENDBRANCH   1  22
TORSDOF 20
