REMARK SMILES CC(C)n1c2c(c3ccccc31)[C@@H](c1ccccc1)N(CC(=O)OCCOCCOC(=O)c1ccc(-c3c4nc(c(-c5c(F)cccc5F)c5ccc([nH]5)c(-c5c(F)cccc5F)c5nc(c(-c6c(F)cccc6F)c6ccc3[nH]6)C=C5)C=C4)cc1)C2=O
REMARK SMILES IDX 27 1 26 2 25 3 24 4 22 5 23 6 21 7 20 8 4 9 5 10 12 11 6 12
REMARK SMILES IDX 87 13 7 14 11 15 13 16 88 17 8 18 10 19 9 20 2 21 1 22 3 23
REMARK SMILES IDX 14 24 15 25 19 26 16 27 18 28 17 29 28 30 29 31 30 32 31 33
REMARK SMILES IDX 32 34 33 35 34 36 86 37 35 38 85 39 36 40 37 41 38 42 79 43
REMARK SMILES IDX 39 44 84 45 78 46 80 47 40 48 83 49 77 50 76 51 41 53 67 54
REMARK SMILES IDX 50 55 66 56 51 57 54 58 65 59 81 60 52 61 53 62 64 64 82 65
REMARK SMILES IDX 55 66 42 67 43 68 48 69 44 70 45 71 47 72 49 73 46 74 68 75
REMARK SMILES IDX 69 76 74 77 70 78 71 79 73 80 75 81 72 82 56 83 57 84 62 85
REMARK SMILES IDX 58 86 59 87 61 88 63 89 60 90
REMARK H PARENT 80 52 54 63
REMARK Flexibility Score: inf
ROOT
ATOM      1  O   UNL     1      -7.171  -1.782   3.850  1.00  0.00    -0.374 OA
ENDROOT
BRANCH   1   2
ATOM      2  C   UNL     1      -6.044  -1.855   4.709  1.00  0.00     0.202 C 
BRANCH   2   3
ATOM      3  C   UNL     1      -4.816  -2.655   4.254  1.00  0.00     0.261 C 
BRANCH   3   4
ATOM      4  O   UNL     1      -4.281  -2.254   2.969  1.00  0.00    -0.462 OA
BRANCH   4   5
ATOM      5  C   UNL     1      -4.173  -3.264   2.065  1.00  0.00     0.325 C 
ATOM      6  O   UNL     1      -4.511  -4.425   2.293  1.00  0.00    -0.250 OA
BRANCH   5   7
ATOM      7  C   UNL     1      -3.638  -2.880   0.679  1.00  0.00     0.243 C 
BRANCH   7   8
ATOM      8  N   UNL     1      -3.235  -1.532   0.303  1.00  0.00    -0.315 N 
ATOM      9  N   UNL     1      -1.131   1.396   0.115  1.00  0.00    -0.334 N 
ATOM     10  C   UNL     1      -1.947   0.301   0.146  1.00  0.00     0.114 A 
ATOM     11  C   UNL     1      -1.968   2.528   0.147  1.00  0.00     0.049 A 
ATOM     12  C   UNL     1      -3.243   0.694  -0.082  1.00  0.00     0.018 A 
ATOM     13  C   UNL     1      -1.910  -1.104   0.412  1.00  0.00     0.272 C 
ATOM     14  C   UNL     1      -3.298   2.093  -0.008  1.00  0.00     0.006 A 
ATOM     15  C   UNL     1      -1.677   3.894   0.319  1.00  0.00     0.027 A 
ATOM     16  C   UNL     1      -4.170  -0.468  -0.131  1.00  0.00     0.150 C 
ATOM     17  O   UNL     1      -0.964  -1.806   0.754  1.00  0.00    -0.267 OA
ATOM     18  C   UNL     1      -4.343   3.036  -0.006  1.00  0.00     0.011 A 
ATOM     19  C   UNL     1      -2.733   4.811   0.326  1.00  0.00     0.002 A 
ATOM     20  C   UNL     1      -4.048   4.390   0.167  1.00  0.00     0.001 A 
BRANCH   9  21
ATOM     21  C   UNL     1       0.336   1.474   0.126  1.00  0.00     0.082 C 
ATOM     22  C   UNL     1       1.081   0.140   0.198  1.00  0.00     0.031 C 
ATOM     23  C   UNL     1       0.888   2.237  -1.092  1.00  0.00     0.031 C 
ENDBRANCH   9  21
BRANCH  16  24
ATOM     24  C   UNL     1      -4.747  -0.629  -1.540  1.00  0.00    -0.021 A 
ATOM     25  C   UNL     1      -5.745  -1.605  -1.747  1.00  0.00     0.006 A 
ATOM     26  C   UNL     1      -4.415   0.169  -2.655  1.00  0.00     0.006 A 
ATOM     27  C   UNL     1      -6.359  -1.790  -2.992  1.00  0.00     0.000 A 
ATOM     28  C   UNL     1      -5.051   0.006  -3.895  1.00  0.00     0.000 A 
ATOM     29  C   UNL     1      -6.018  -0.978  -4.065  1.00  0.00     0.000 A 
ENDBRANCH  16  24
ENDBRANCH   7   8
ENDBRANCH   5   7
ENDBRANCH   4   5
ENDBRANCH   3   4
ENDBRANCH   2   3
ENDBRANCH   1   2
BRANCH   1  30
ATOM     30  C   UNL     1      -6.996  -1.101   2.612  1.00  0.00     0.202 C 
BRANCH  30  31
ATOM     31  C   UNL     1      -6.540   0.373   2.653  1.00  0.00     0.261 C 
BRANCH  31  32
ATOM     32  O   UNL     1      -5.230   0.525   3.227  1.00  0.00    -0.460 OA
BRANCH  32  33
ATOM     33  C   UNL     1      -5.064   1.667   3.955  1.00  0.00     0.338 C 
ATOM     34  O   UNL     1      -5.638   2.728   3.789  1.00  0.00    -0.246 OA
BRANCH  33  35
ATOM     35  C   UNL     1      -4.473   1.230   5.239  1.00  0.00     0.060 A 
ATOM     36  C   UNL     1      -3.291   0.484   5.286  1.00  0.00     0.016 A 
ATOM     37  C   UNL     1      -5.348   1.266   6.338  1.00  0.00     0.016 A 
ATOM     38  C   UNL     1      -3.050  -0.320   6.400  1.00  0.00     0.010 A 
ATOM     39  C   UNL     1      -5.131   0.417   7.416  1.00  0.00     0.010 A 
ATOM     40  C   UNL     1      -4.009  -0.416   7.425  1.00  0.00    -0.014 A 
BRANCH  40  41
ATOM     41  C   UNL     1      -3.705  -1.211   8.621  1.00  0.00     0.031 A 
ATOM     42  C   UNL     1      -2.663  -0.556   9.460  1.00  0.00     0.074 A 
ATOM     43  C   UNL     1      -4.376  -2.304   9.052  1.00  0.00     0.049 A 
ATOM     44  N   UNL     1      -1.487  -1.000   9.757  1.00  0.00    -0.248 NA
ATOM     45  C   UNL     1      -2.901   0.838   9.877  1.00  0.00     0.031 C 
ATOM     46  C   UNL     1      -5.566  -2.929   8.481  1.00  0.00     0.029 A 
ATOM     47  N   UNL     1      -4.166  -3.064  10.173  1.00  0.00    -0.354 N 
ATOM     48  C   UNL     1      -0.909  -0.019  10.560  1.00  0.00     0.074 A 
ATOM     49  C   UNL     1      -1.736   1.149  10.439  1.00  0.00     0.031 C 
ATOM     50  C   UNL     1      -6.095  -3.817   9.354  1.00  0.00     0.029 A 
ATOM     51  C   UNL     1      -5.219  -3.918  10.505  1.00  0.00     0.049 A 
ATOM     52  H   UNL     1      -3.338  -3.011  10.703  1.00  0.00     0.167 HD
ATOM     53  C   UNL     1       0.057  -0.326  11.466  1.00  0.00     0.037 A 
ATOM     54  C   UNL     1      -5.380  -4.635  11.649  1.00  0.00     0.037 A 
ATOM     55  C   UNL     1       0.685  -1.584  11.152  1.00  0.00     0.049 A 
ATOM     56  C   UNL     1      -4.052  -4.741  12.294  1.00  0.00     0.074 A 
ATOM     57  C   UNL     1       1.424  -2.075  10.095  1.00  0.00     0.029 A 
ATOM     58  N   UNL     1       0.295  -2.684  11.873  1.00  0.00    -0.354 N 
ATOM     59  N   UNL     1      -3.071  -5.443  11.805  1.00  0.00    -0.248 NA
ATOM     60  C   UNL     1      -3.673  -3.687  13.221  1.00  0.00     0.031 C 
ATOM     61  C   UNL     1       1.032  -3.441   9.970  1.00  0.00     0.029 A 
ATOM     62  C   UNL     1       0.122  -3.716  10.990  1.00  0.00     0.049 A 
ATOM     63  H   UNL     1       0.164  -2.724  12.848  1.00  0.00     0.167 HD
ATOM     64  C   UNL     1      -1.950  -4.652  11.996  1.00  0.00     0.074 A 
ATOM     65  C   UNL     1      -2.370  -3.615  12.938  1.00  0.00     0.031 C 
ATOM     66  C   UNL     1      -0.879  -4.742  11.155  1.00  0.00     0.037 A 
BRANCH  53  67
ATOM     67  C   UNL     1       0.124   0.283  12.850  1.00  0.00     0.057 A 
ATOM     68  C   UNL     1      -0.953   0.930  13.494  1.00  0.00     0.134 A 
ATOM     69  C   UNL     1       1.190  -0.076  13.693  1.00  0.00     0.134 A 
ATOM     70  F   UNL     1      -2.067   1.302  12.855  1.00  0.00    -0.206 F 
ATOM     71  C   UNL     1      -0.993   1.145  14.873  1.00  0.00     0.040 A 
ATOM     72  C   UNL     1       1.137   0.089  15.082  1.00  0.00     0.040 A 
ATOM     73  F   UNL     1       2.279  -0.688  13.204  1.00  0.00    -0.206 F 
ATOM     74  C   UNL     1       0.034   0.686  15.679  1.00  0.00     0.006 A 
ENDBRANCH  53  67
BRANCH  54  75
ATOM     75  C   UNL     1      -6.628  -4.989  12.374  1.00  0.00     0.057 A 
ATOM     76  C   UNL     1      -7.760  -4.158  12.314  1.00  0.00     0.134 A 
ATOM     77  C   UNL     1      -6.656  -5.986  13.363  1.00  0.00     0.134 A 
ATOM     78  F   UNL     1      -7.808  -3.120  11.467  1.00  0.00    -0.206 F 
ATOM     79  C   UNL     1      -8.848  -4.301  13.184  1.00  0.00     0.040 A 
ATOM     80  C   UNL     1      -7.739  -6.139  14.244  1.00  0.00     0.040 A 
ATOM     81  F   UNL     1      -5.604  -6.799  13.541  1.00  0.00    -0.206 F 
ATOM     82  C   UNL     1      -8.836  -5.288  14.162  1.00  0.00     0.006 A 
ENDBRANCH  54  75
BRANCH  66  83
ATOM     83  C   UNL     1      -0.868  -5.873  10.165  1.00  0.00     0.057 A 
ATOM     84  C   UNL     1       0.188  -6.788  10.197  1.00  0.00     0.134 A 
ATOM     85  C   UNL     1      -1.788  -6.003   9.112  1.00  0.00     0.134 A 
ATOM     86  F   UNL     1       1.137  -6.689  11.141  1.00  0.00    -0.206 F 
ATOM     87  C   UNL     1       0.321  -7.794   9.238  1.00  0.00     0.040 A 
ATOM     88  C   UNL     1      -1.685  -7.026   8.163  1.00  0.00     0.040 A 
ATOM     89  F   UNL     1      -2.776  -5.116   8.941  1.00  0.00    -0.206 F 
ATOM     90  C   UNL     1      -0.623  -7.923   8.223  1.00  0.00     0.006 A 
ENDBRANCH  66  83
ENDBRANCH  40  41
ENDBRANCH  33  35
ENDBRANCH  32  33
ENDBRANCH  31  32
ENDBRANCH  30  31
ENDBRANCH   1  30
TORSDOF 17
