REMARK SMILES O=C(OCCOCCOC(=O)c1cccc(N[C@H]2CCCC[C@@H]2O)c1)c1ccc(-c2c3nc(c(-c4c(F)cccc4F)c4ccc([nH]4)c(-c4c(F)cccc4F)c4nc(c(-c5c(F)cccc5F)c5ccc2[nH]5)C=C4)C=C3)cc1
REMARK SMILES IDX 7 1 6 2 5 3 4 4 3 5 2 6 1 7 26 8 27 9 79 10 28 11 78 12
REMARK SMILES IDX 29 13 30 14 31 15 72 16 32 17 77 18 71 19 73 20 33 21 76 22
REMARK SMILES IDX 70 23 69 24 34 26 60 27 43 28 59 29 44 30 47 31 58 32 74 33
REMARK SMILES IDX 45 34 46 35 57 37 75 38 48 39 35 40 36 41 41 42 37 43 38 44
REMARK SMILES IDX 40 45 42 46 39 47 61 48 62 49 67 50 63 51 64 52 66 53 68 54
REMARK SMILES IDX 65 55 49 56 50 57 55 58 51 59 52 60 54 61 56 62 53 63 8 64
REMARK SMILES IDX 9 65 10 66 11 67 12 68 13 69 25 70 14 71 16 72 15 73 17 74
REMARK SMILES IDX 18 76 19 77 23 78 20 79 22 80 21 81 24 82
REMARK H PARENT 73 25 47 36 17 75 24 83
REMARK Flexibility Score: inf
ROOT
ATOM      1  C   UNL     1       2.709   1.301  -1.885  1.00  0.00     0.202 C 
ENDROOT
BRANCH   1   2
ATOM      2  O   UNL     1       4.017   0.832  -1.534  1.00  0.00    -0.374 OA
BRANCH   2   3
ATOM      3  C   UNL     1       4.212  -0.581  -1.633  1.00  0.00     0.202 C 
BRANCH   3   4
ATOM      4  C   UNL     1       3.850  -1.362  -0.367  1.00  0.00     0.261 C 
BRANCH   4   5
ATOM      5  O   UNL     1       2.484  -1.117   0.004  1.00  0.00    -0.460 OA
BRANCH   5   6
ATOM      6  C   UNL     1       2.006  -0.281   0.954  1.00  0.00     0.338 C 
ATOM      7  O   UNL     1       0.790  -0.234   1.133  1.00  0.00    -0.246 OA
BRANCH   6   8
ATOM      8  C   UNL     1       2.868   0.583   1.820  1.00  0.00     0.060 A 
ATOM      9  C   UNL     1       4.134   1.060   1.478  1.00  0.00     0.016 A 
ATOM     10  C   UNL     1       2.319   1.007   3.043  1.00  0.00     0.016 A 
ATOM     11  C   UNL     1       4.870   1.857   2.341  1.00  0.00     0.010 A 
ATOM     12  C   UNL     1       3.033   1.846   3.904  1.00  0.00     0.010 A 
ATOM     13  C   UNL     1       4.327   2.248   3.561  1.00  0.00    -0.014 A 
BRANCH  13  14
ATOM     14  C   UNL     1       5.213   2.965   4.493  1.00  0.00     0.031 A 
ATOM     15  C   UNL     1       5.833   2.191   5.614  1.00  0.00     0.074 A 
ATOM     16  C   UNL     1       5.579   4.229   4.217  1.00  0.00     0.049 A 
ATOM     17  N   UNL     1       6.681   2.586   6.525  1.00  0.00    -0.248 NA
ATOM     18  C   UNL     1       5.464   0.767   5.709  1.00  0.00     0.031 C 
ATOM     19  C   UNL     1       5.115   5.006   3.064  1.00  0.00     0.029 A 
ATOM     20  N   UNL     1       6.461   5.062   4.849  1.00  0.00    -0.354 N 
ATOM     21  C   UNL     1       6.926   1.471   7.314  1.00  0.00     0.074 A 
ATOM     22  C   UNL     1       6.139   0.383   6.781  1.00  0.00     0.031 C 
ATOM     23  C   UNL     1       5.748   6.190   3.051  1.00  0.00     0.029 A 
ATOM     24  C   UNL     1       6.612   6.276   4.223  1.00  0.00     0.049 A 
ATOM     25  H   UNL     1       6.940   4.816   5.672  1.00  0.00     0.167 HD
ATOM     26  C   UNL     1       7.734   1.375   8.395  1.00  0.00     0.037 A 
ATOM     27  C   UNL     1       7.357   7.338   4.579  1.00  0.00     0.037 A 
ATOM     28  C   UNL     1       8.505   2.476   8.901  1.00  0.00     0.049 A 
ATOM     29  C   UNL     1       8.182   7.230   5.833  1.00  0.00     0.074 A 
ATOM     30  C   UNL     1       9.304   2.532  10.027  1.00  0.00     0.029 A 
ATOM     31  N   UNL     1       8.570   3.725   8.296  1.00  0.00    -0.354 N 
ATOM     32  N   UNL     1       8.355   6.195   6.621  1.00  0.00    -0.248 NA
ATOM     33  C   UNL     1       8.902   8.437   6.256  1.00  0.00     0.031 C 
ATOM     34  C   UNL     1       9.822   3.829  10.124  1.00  0.00     0.029 A 
ATOM     35  C   UNL     1       9.383   4.566   9.033  1.00  0.00     0.049 A 
ATOM     36  H   UNL     1       8.105   3.975   7.465  1.00  0.00     0.167 HD
ATOM     37  C   UNL     1       9.216   6.617   7.623  1.00  0.00     0.074 A 
ATOM     38  C   UNL     1       9.545   7.999   7.329  1.00  0.00     0.031 C 
ATOM     39  C   UNL     1       9.691   5.933   8.694  1.00  0.00     0.037 A 
BRANCH  26  40
ATOM     40  C   UNL     1       7.737   0.064   9.122  1.00  0.00     0.057 A 
ATOM     41  C   UNL     1       8.349  -1.083   8.598  1.00  0.00     0.134 A 
ATOM     42  C   UNL     1       7.064  -0.065  10.343  1.00  0.00     0.134 A 
ATOM     43  F   UNL     1       8.981  -1.037   7.416  1.00  0.00    -0.206 F 
ATOM     44  C   UNL     1       8.264  -2.317   9.249  1.00  0.00     0.040 A 
ATOM     45  C   UNL     1       6.992  -1.286  11.014  1.00  0.00     0.040 A 
ATOM     46  F   UNL     1       6.449   0.992  10.895  1.00  0.00    -0.206 F 
ATOM     47  C   UNL     1       7.585  -2.420  10.462  1.00  0.00     0.006 A 
ENDBRANCH  26  40
BRANCH  27  48
ATOM     48  C   UNL     1       7.331   8.585   3.771  1.00  0.00     0.057 A 
ATOM     49  C   UNL     1       8.470   9.048   3.102  1.00  0.00     0.134 A 
ATOM     50  C   UNL     1       6.167   9.357   3.661  1.00  0.00     0.134 A 
ATOM     51  F   UNL     1       9.623   8.369   3.182  1.00  0.00    -0.206 F 
ATOM     52  C   UNL     1       8.456  10.237   2.367  1.00  0.00     0.040 A 
ATOM     53  C   UNL     1       6.131  10.532   2.908  1.00  0.00     0.040 A 
ATOM     54  F   UNL     1       5.039   8.973   4.278  1.00  0.00    -0.206 F 
ATOM     55  C   UNL     1       7.281  10.979   2.265  1.00  0.00     0.006 A 
ENDBRANCH  27  48
BRANCH  39  56
ATOM     56  C   UNL     1      10.642   6.665   9.591  1.00  0.00     0.057 A 
ATOM     57  C   UNL     1      10.205   7.662  10.471  1.00  0.00     0.134 A 
ATOM     58  C   UNL     1      12.003   6.338   9.597  1.00  0.00     0.134 A 
ATOM     59  F   UNL     1       8.915   8.028  10.500  1.00  0.00    -0.206 F 
ATOM     60  C   UNL     1      11.097   8.327  11.312  1.00  0.00     0.040 A 
ATOM     61  C   UNL     1      12.899   6.977  10.452  1.00  0.00     0.040 A 
ATOM     62  F   UNL     1      12.479   5.384   8.782  1.00  0.00    -0.206 F 
ATOM     63  C   UNL     1      12.447   7.980  11.309  1.00  0.00     0.006 A 
ENDBRANCH  39  56
ENDBRANCH  13  14
ENDBRANCH   6   8
ENDBRANCH   5   6
ENDBRANCH   4   5
ENDBRANCH   3   4
ENDBRANCH   2   3
ENDBRANCH   1   2
BRANCH   1  64
ATOM     64  C   UNL     1       2.822   2.418  -2.928  1.00  0.00     0.261 C 
BRANCH  64  65
ATOM     65  O   UNL     1       3.439   1.880  -4.107  1.00  0.00    -0.460 OA
BRANCH  65  66
ATOM     66  C   UNL     1       4.795   1.943  -4.112  1.00  0.00     0.338 C 
ATOM     67  O   UNL     1       5.507   2.710  -3.486  1.00  0.00    -0.246 OA
BRANCH  66  68
ATOM     68  C   UNL     1       5.282   0.734  -4.803  1.00  0.00     0.062 A 
ATOM     69  C   UNL     1       6.334   0.026  -4.219  1.00  0.00     0.016 A 
ATOM     70  C   UNL     1       4.642   0.244  -5.948  1.00  0.00     0.041 A 
ATOM     71  C   UNL     1       6.673  -1.221  -4.723  1.00  0.00     0.003 A 
ATOM     72  C   UNL     1       5.029  -0.970  -6.522  1.00  0.00     0.035 A 
ATOM     73  C   UNL     1       6.008  -1.715  -5.848  1.00  0.00     0.026 A 
BRANCH  72  74
ATOM     74  N   UNL     1       4.460  -1.341  -7.727  1.00  0.00    -0.380 N 
ATOM     75  H   UNL     1       3.592  -0.933  -7.952  1.00  0.00     0.160 HD
BRANCH  74  76
ATOM     76  C   UNL     1       5.022  -2.285  -8.707  1.00  0.00     0.107 C 
ATOM     77  C   UNL     1       6.503  -1.998  -9.008  1.00  0.00     0.027 C 
ATOM     78  C   UNL     1       4.681  -3.740  -8.310  1.00  0.00     0.136 C 
ATOM     79  C   UNL     1       7.183  -3.108  -9.798  1.00  0.00     0.002 C 
ATOM     80  C   UNL     1       5.430  -4.769  -9.148  1.00  0.00     0.034 C 
ATOM     81  C   UNL     1       6.923  -4.474  -9.176  1.00  0.00     0.003 C 
BRANCH  78  82
ATOM     82  O   UNL     1       3.273  -3.958  -8.475  1.00  0.00    -0.391 OA
ATOM     83  H   UNL     1       3.034  -3.838  -9.407  1.00  0.00     0.211 HD
ENDBRANCH  78  82
ENDBRANCH  74  76
ENDBRANCH  72  74
ENDBRANCH  66  68
ENDBRANCH  65  66
ENDBRANCH  64  65
ENDBRANCH   1  64
TORSDOF 17
