REMARK SMILES Cc1ccc(S(=O)(=O)Nc2cccc(F)c2C(=O)OCCOCCOC(=O)c2ccc(-c3c4nc(c(-c5c(F)cccc5F)c5ccc([nH]5)c(-c5c(F)cccc5F)c5nc(c(-c6c(F)cccc6F)c6ccc3[nH]6)C=C5)C=C4)cc2)cc1Cl
REMARK SMILES IDX 21 1 20 2 19 3 17 4 18 5 16 6 10 7 11 8 12 9 14 10 13 11
REMARK SMILES IDX 15 12 9 13 6 15 7 16 8 17 5 18 1 19 2 20 3 21 83 22 4 23
REMARK SMILES IDX 82 24 84 25 22 26 23 27 24 28 25 29 26 30 27 31 28 32 29 33
REMARK SMILES IDX 81 34 30 35 80 36 31 37 32 38 33 39 74 40 34 41 79 42 73 43
REMARK SMILES IDX 75 44 35 45 78 46 72 47 71 48 36 50 62 51 45 52 61 53 46 54
REMARK SMILES IDX 49 55 60 56 76 57 47 58 48 59 59 61 77 62 50 63 37 64 38 65
REMARK SMILES IDX 43 66 39 67 40 68 42 69 44 70 41 71 63 72 64 73 69 74 65 75
REMARK SMILES IDX 66 76 68 77 70 78 67 79 51 80 52 81 57 82 53 83 54 84 56 85
REMARK SMILES IDX 58 86 55 87
REMARK H PARENT 9 14 75 49 49 60
REMARK Flexibility Score: inf
ROOT
ATOM      1  C   UNL     1      -8.547  -3.027   3.030  1.00  0.00     0.202 C 
ENDROOT
BRANCH   1   2
ATOM      2  C   UNL     1      -7.520  -2.074   3.646  1.00  0.00     0.261 C 
BRANCH   2   3
ATOM      3  O   UNL     1      -7.164  -1.034   2.720  1.00  0.00    -0.460 OA
BRANCH   3   4
ATOM      4  C   UNL     1      -5.856  -0.997   2.383  1.00  0.00     0.343 C 
ATOM      5  O   UNL     1      -4.950  -1.649   2.882  1.00  0.00    -0.246 OA
BRANCH   4   6
ATOM      6  C   UNL     1      -5.677  -0.285   1.109  1.00  0.00     0.119 A 
ATOM      7  C   UNL     1      -4.931  -0.902   0.079  1.00  0.00     0.066 A 
ATOM      8  C   UNL     1      -4.765  -0.234  -1.138  1.00  0.00     0.028 A 
ATOM      9  C   UNL     1      -5.247   1.073  -1.284  1.00  0.00     0.005 A 
ATOM     10  C   UNL     1      -6.166   1.004   0.947  1.00  0.00     0.139 A 
ATOM     11  C   UNL     1      -5.936   1.694  -0.239  1.00  0.00     0.040 A 
ATOM     12  F   UNL     1      -6.809   1.626   1.944  1.00  0.00    -0.206 F 
BRANCH   7  13
ATOM     13  N   UNL     1      -4.341  -2.184   0.324  1.00  0.00    -0.279 N 
ATOM     14  H   UNL     1      -4.904  -2.878   0.739  1.00  0.00     0.180 HD
BRANCH  13  15
ATOM     15  S   UNL     1      -2.753  -2.580  -0.049  1.00  0.00     0.261 S 
ATOM     16  O   UNL     1      -2.693  -2.816  -1.475  1.00  0.00    -0.201 OA
ATOM     17  O   UNL     1      -2.386  -3.613   0.898  1.00  0.00    -0.201 OA
BRANCH  15  18
ATOM     18  C   UNL     1      -1.673  -1.202   0.270  1.00  0.00     0.089 A 
ATOM     19  C   UNL     1       0.895   2.250   0.050  1.00  0.00     0.046 C 
ATOM     20  C   UNL     1       0.045   1.018   0.174  1.00  0.00    -0.032 A 
ATOM     21  C   UNL     1      -1.247   1.136   0.700  1.00  0.00     0.006 A 
ATOM     22  C   UNL     1       0.509  -0.257  -0.182  1.00  0.00     0.045 A 
ATOM     23  C   UNL     1      -2.085   0.022   0.788  1.00  0.00     0.022 A 
ATOM     24  C   UNL     1      -0.352  -1.355  -0.161  1.00  0.00     0.043 A 
ATOM     25  Cl  UNL     1       2.138  -0.521  -0.684  1.00  0.00    -0.084 Cl
ENDBRANCH  15  18
ENDBRANCH  13  15
ENDBRANCH   7  13
ENDBRANCH   4   6
ENDBRANCH   3   4
ENDBRANCH   2   3
ENDBRANCH   1   2
BRANCH   1  26
ATOM     26  O   UNL     1      -8.137  -3.800   1.903  1.00  0.00    -0.374 OA
BRANCH  26  27
ATOM     27  C   UNL     1      -7.985  -3.143   0.647  1.00  0.00     0.202 C 
BRANCH  27  28
ATOM     28  C   UNL     1      -9.245  -2.724  -0.123  1.00  0.00     0.261 C 
BRANCH  28  29
ATOM     29  O   UNL     1     -10.110  -1.857   0.626  1.00  0.00    -0.460 OA
BRANCH  29  30
ATOM     30  C   UNL     1     -11.232  -2.461   1.086  1.00  0.00     0.338 C 
ATOM     31  O   UNL     1     -11.590  -3.612   0.884  1.00  0.00    -0.246 OA
BRANCH  30  32
ATOM     32  C   UNL     1     -11.923  -1.588   2.050  1.00  0.00     0.060 A 
ATOM     33  C   UNL     1     -12.177  -2.111   3.324  1.00  0.00     0.016 A 
ATOM     34  C   UNL     1     -12.389  -0.321   1.694  1.00  0.00     0.016 A 
ATOM     35  C   UNL     1     -12.945  -1.389   4.231  1.00  0.00     0.010 A 
ATOM     36  C   UNL     1     -13.167   0.400   2.607  1.00  0.00     0.010 A 
ATOM     37  C   UNL     1     -13.478  -0.146   3.865  1.00  0.00    -0.014 A 
BRANCH  37  38
ATOM     38  C   UNL     1     -14.453   0.515   4.764  1.00  0.00     0.031 A 
ATOM     39  C   UNL     1     -15.920   0.447   4.441  1.00  0.00     0.074 A 
ATOM     40  C   UNL     1     -14.036   1.121   5.890  1.00  0.00     0.049 A 
ATOM     41  N   UNL     1     -16.936   0.949   5.096  1.00  0.00    -0.248 NA
ATOM     42  C   UNL     1     -16.295  -0.285   3.220  1.00  0.00     0.031 C 
ATOM     43  C   UNL     1     -12.644   1.216   6.328  1.00  0.00     0.029 A 
ATOM     44  N   UNL     1     -14.744   1.765   6.873  1.00  0.00    -0.354 N 
ATOM     45  C   UNL     1     -18.066   0.597   4.369  1.00  0.00     0.074 A 
ATOM     46  C   UNL     1     -17.612  -0.131   3.204  1.00  0.00     0.031 C 
ATOM     47  C   UNL     1     -12.600   1.877   7.497  1.00  0.00     0.029 A 
ATOM     48  C   UNL     1     -13.954   2.281   7.871  1.00  0.00     0.049 A 
ATOM     49  H   UNL     1     -15.725   1.849   6.864  1.00  0.00     0.167 HD
ATOM     50  C   UNL     1     -19.365   0.848   4.657  1.00  0.00     0.037 A 
ATOM     51  C   UNL     1     -14.284   3.010   8.955  1.00  0.00     0.037 A 
ATOM     52  C   UNL     1     -19.812   1.562   5.824  1.00  0.00     0.049 A 
ATOM     53  C   UNL     1     -15.730   3.331   9.216  1.00  0.00     0.074 A 
ATOM     54  C   UNL     1     -21.111   1.843   6.213  1.00  0.00     0.029 A 
ATOM     55  N   UNL     1     -18.979   2.111   6.786  1.00  0.00    -0.354 N 
ATOM     56  N   UNL     1     -16.792   2.977   8.533  1.00  0.00    -0.248 NA
ATOM     57  C   UNL     1     -16.027   4.150  10.400  1.00  0.00     0.031 C 
ATOM     58  C   UNL     1     -21.061   2.612   7.378  1.00  0.00     0.029 A 
ATOM     59  C   UNL     1     -19.735   2.756   7.751  1.00  0.00     0.049 A 
ATOM     60  H   UNL     1     -17.996   2.051   6.784  1.00  0.00     0.167 HD
ATOM     61  C   UNL     1     -17.880   3.509   9.213  1.00  0.00     0.074 A 
ATOM     62  C   UNL     1     -17.352   4.195  10.374  1.00  0.00     0.031 C 
ATOM     63  C   UNL     1     -19.198   3.437   8.902  1.00  0.00     0.037 A 
BRANCH  50  64
ATOM     64  C   UNL     1     -20.408   0.358   3.695  1.00  0.00     0.057 A 
ATOM     65  C   UNL     1     -21.160   1.266   2.938  1.00  0.00     0.134 A 
ATOM     66  C   UNL     1     -20.733  -1.000   3.585  1.00  0.00     0.134 A 
ATOM     67  F   UNL     1     -20.904   2.581   3.000  1.00  0.00    -0.206 F 
ATOM     68  C   UNL     1     -22.212   0.843   2.124  1.00  0.00     0.040 A 
ATOM     69  C   UNL     1     -21.767  -1.438   2.754  1.00  0.00     0.040 A 
ATOM     70  F   UNL     1     -20.044  -1.922   4.273  1.00  0.00    -0.206 F 
ATOM     71  C   UNL     1     -22.518  -0.513   2.031  1.00  0.00     0.006 A 
ENDBRANCH  50  64
BRANCH  51  72
ATOM     72  C   UNL     1     -13.218   3.486   9.873  1.00  0.00     0.057 A 
ATOM     73  C   UNL     1     -12.284   4.448   9.467  1.00  0.00     0.134 A 
ATOM     74  C   UNL     1     -13.100   2.983  11.173  1.00  0.00     0.134 A 
ATOM     75  F   UNL     1     -12.341   4.970   8.233  1.00  0.00    -0.206 F 
ATOM     76  C   UNL     1     -11.260   4.877  10.313  1.00  0.00     0.040 A 
ATOM     77  C   UNL     1     -12.098   3.424  12.039  1.00  0.00     0.040 A 
ATOM     78  F   UNL     1     -13.977   2.077  11.628  1.00  0.00    -0.206 F 
ATOM     79  C   UNL     1     -11.168   4.367  11.606  1.00  0.00     0.006 A 
ENDBRANCH  51  72
BRANCH  63  80
ATOM     80  C   UNL     1     -20.171   4.101   9.834  1.00  0.00     0.057 A 
ATOM     81  C   UNL     1     -21.061   3.337  10.602  1.00  0.00     0.134 A 
ATOM     82  C   UNL     1     -20.278   5.495   9.920  1.00  0.00     0.134 A 
ATOM     83  F   UNL     1     -21.023   1.997  10.557  1.00  0.00    -0.206 F 
ATOM     84  C   UNL     1     -22.028   3.936  11.411  1.00  0.00     0.040 A 
ATOM     85  C   UNL     1     -21.221   6.105  10.749  1.00  0.00     0.040 A 
ATOM     86  F   UNL     1     -19.451   6.285   9.218  1.00  0.00    -0.206 F 
ATOM     87  C   UNL     1     -22.107   5.324  11.490  1.00  0.00     0.006 A 
ENDBRANCH  63  80
ENDBRANCH  37  38
ENDBRANCH  30  32
ENDBRANCH  29  30
ENDBRANCH  28  29
ENDBRANCH  27  28
ENDBRANCH  26  27
ENDBRANCH   1  26
TORSDOF 17
