REMARK SMILES Cc1ccc(Nc2c(C)cccc2Cl)c(CC(=O)OCCOCCOC(=O)c2ccc(-c3c4nc(c(-c5c(F)cccc5F)c5ccc([nH]5)c(-c5c(F)cccc5F)c5nc(c(-c6c(F)cccc6F)c6ccc3[nH]6)C=C5)C=C4)cc2)c1
REMARK SMILES IDX 21 1 20 2 19 3 17 4 18 5 16 6 15 7 1 8 2 9 3 10 82 11 4 12
REMARK SMILES IDX 5 13 6 14 7 16 8 17 13 18 9 19 10 20 12 21 14 22 11 23 22 24
REMARK SMILES IDX 23 25 24 26 25 27 26 28 27 29 28 30 29 31 81 32 30 33 80 34
REMARK SMILES IDX 31 35 32 36 33 37 74 38 34 39 79 40 73 41 75 42 35 43 78 44
REMARK SMILES IDX 72 45 71 46 36 48 62 49 45 50 61 51 46 52 49 53 60 54 76 55
REMARK SMILES IDX 47 56 48 57 59 59 77 60 50 61 37 62 38 63 43 64 39 65 40 66
REMARK SMILES IDX 42 67 44 68 41 69 63 70 64 71 69 72 65 73 66 74 68 75 70 76
REMARK SMILES IDX 67 77 51 78 52 79 57 80 53 81 54 82 56 83 58 84 55 85
REMARK H PARENT 6 15 75 47 49 58
REMARK Flexibility Score: inf
ROOT
ATOM      1  C   UNL     1      -1.570   1.264  -3.199  1.00  0.00     0.202 C 
ENDROOT
BRANCH   1   2
ATOM      2  C   UNL     1      -1.151   2.399  -2.283  1.00  0.00     0.261 C 
BRANCH   2   3
ATOM      3  O   UNL     1      -1.138   2.035  -0.914  1.00  0.00    -0.463 OA
BRANCH   3   4
ATOM      4  C   UNL     1      -2.044   2.620  -0.068  1.00  0.00     0.310 C 
ATOM      5  O   UNL     1      -2.897   3.441  -0.356  1.00  0.00    -0.252 OA
BRANCH   4   6
ATOM      6  C   UNL     1      -1.825   2.108   1.347  1.00  0.00     0.160 C 
BRANCH   6   7
ATOM      7  C   UNL     1      -1.151   0.750   1.285  1.00  0.00    -0.013 A 
ATOM      8  C   UNL     1       2.373  -0.186   0.131  1.00  0.00     0.044 C 
ATOM      9  C   UNL     1       0.934  -0.308   0.540  1.00  0.00    -0.051 A 
ATOM     10  C   UNL     1       0.222  -1.482   0.321  1.00  0.00     0.005 A 
ATOM     11  C   UNL     1       0.257   0.778   1.091  1.00  0.00     0.009 A 
ATOM     12  C   UNL     1      -1.155  -1.542   0.585  1.00  0.00     0.026 A 
ATOM     13  C   UNL     1      -1.887  -0.425   1.035  1.00  0.00     0.042 A 
BRANCH  13  14
ATOM     14  N   UNL     1      -3.303  -0.480   1.194  1.00  0.00    -0.354 N 
ATOM     15  H   UNL     1      -3.759   0.385   1.306  1.00  0.00     0.167 HD
BRANCH  14  16
ATOM     16  C   UNL     1      -4.138  -1.633   1.211  1.00  0.00     0.060 A 
ATOM     17  C   UNL     1      -3.762  -2.781   1.931  1.00  0.00    -0.026 A 
ATOM     18  C   UNL     1      -5.270  -1.737   0.375  1.00  0.00     0.064 A 
ATOM     19  C   UNL     1      -2.846  -2.691   3.123  1.00  0.00     0.046 C 
ATOM     20  C   UNL     1      -4.315  -4.029   1.601  1.00  0.00     0.005 A 
ATOM     21  C   UNL     1      -5.800  -2.985   0.029  1.00  0.00     0.023 A 
ATOM     22  Cl  UNL     1      -6.127  -0.337  -0.167  1.00  0.00    -0.082 Cl
ATOM     23  C   UNL     1      -5.284  -4.139   0.608  1.00  0.00     0.002 A 
ENDBRANCH  14  16
ENDBRANCH  13  14
ENDBRANCH   6   7
ENDBRANCH   4   6
ENDBRANCH   3   4
ENDBRANCH   2   3
ENDBRANCH   1   2
BRANCH   1  24
ATOM     24  O   UNL     1      -2.955   1.031  -3.048  1.00  0.00    -0.374 OA
BRANCH  24  25
ATOM     25  C   UNL     1      -3.287  -0.028  -2.172  1.00  0.00     0.202 C 
BRANCH  25  26
ATOM     26  C   UNL     1      -3.636  -1.283  -2.972  1.00  0.00     0.261 C 
BRANCH  26  27
ATOM     27  O   UNL     1      -4.828  -1.071  -3.760  1.00  0.00    -0.460 OA
BRANCH  27  28
ATOM     28  C   UNL     1      -4.593  -0.540  -4.991  1.00  0.00     0.338 C 
ATOM     29  O   UNL     1      -3.902  -1.065  -5.859  1.00  0.00    -0.246 OA
BRANCH  28  30
ATOM     30  C   UNL     1      -5.051   0.877  -5.039  1.00  0.00     0.060 A 
ATOM     31  C   UNL     1      -4.462   1.727  -5.993  1.00  0.00     0.016 A 
ATOM     32  C   UNL     1      -5.684   1.410  -3.917  1.00  0.00     0.016 A 
ATOM     33  C   UNL     1      -4.298   3.083  -5.705  1.00  0.00     0.010 A 
ATOM     34  C   UNL     1      -5.397   2.717  -3.579  1.00  0.00     0.010 A 
ATOM     35  C   UNL     1      -4.659   3.544  -4.443  1.00  0.00    -0.014 A 
BRANCH  35  36
ATOM     36  C   UNL     1      -4.218   4.809  -3.853  1.00  0.00     0.031 A 
ATOM     37  C   UNL     1      -5.224   5.748  -3.329  1.00  0.00     0.074 A 
ATOM     38  C   UNL     1      -2.915   5.007  -3.545  1.00  0.00     0.049 A 
ATOM     39  N   UNL     1      -4.926   6.899  -2.843  1.00  0.00    -0.248 NA
ATOM     40  C   UNL     1      -6.665   5.511  -3.366  1.00  0.00     0.031 C 
ATOM     41  C   UNL     1      -2.345   5.860  -2.497  1.00  0.00     0.029 A 
ATOM     42  N   UNL     1      -1.790   4.475  -4.154  1.00  0.00    -0.354 N 
ATOM     43  C   UNL     1      -6.030   7.370  -2.188  1.00  0.00     0.074 A 
ATOM     44  C   UNL     1      -7.117   6.557  -2.665  1.00  0.00     0.031 C 
ATOM     45  C   UNL     1      -1.017   5.962  -2.674  1.00  0.00     0.029 A 
ATOM     46  C   UNL     1      -0.701   5.322  -3.937  1.00  0.00     0.049 A 
ATOM     47  H   UNL     1      -1.762   3.631  -4.660  1.00  0.00     0.167 HD
ATOM     48  C   UNL     1      -5.840   8.320  -1.233  1.00  0.00     0.037 A 
ATOM     49  C   UNL     1      -0.008   5.870  -4.975  1.00  0.00     0.037 A 
ATOM     50  C   UNL     1      -4.473   8.865  -1.301  1.00  0.00     0.049 A 
ATOM     51  C   UNL     1      -0.344   7.349  -5.074  1.00  0.00     0.074 A 
ATOM     52  C   UNL     1      -3.335   8.806  -0.517  1.00  0.00     0.029 A 
ATOM     53  N   UNL     1      -4.053   9.387  -2.518  1.00  0.00    -0.354 N 
ATOM     54  N   UNL     1      -1.073   7.973  -4.186  1.00  0.00    -0.248 NA
ATOM     55  C   UNL     1       0.041   8.236  -6.167  1.00  0.00     0.031 C 
ATOM     56  C   UNL     1      -2.223   9.233  -1.323  1.00  0.00     0.029 A 
ATOM     57  C   UNL     1      -2.691   9.599  -2.575  1.00  0.00     0.049 A 
ATOM     58  H   UNL     1      -4.665   9.586  -3.263  1.00  0.00     0.167 HD
ATOM     59  C   UNL     1      -1.323   9.251  -4.567  1.00  0.00     0.074 A 
ATOM     60  C   UNL     1      -0.608   9.369  -5.832  1.00  0.00     0.031 C 
ATOM     61  C   UNL     1      -2.108  10.093  -3.827  1.00  0.00     0.037 A 
BRANCH  48  62
ATOM     62  C   UNL     1      -6.855   8.694  -0.179  1.00  0.00     0.057 A 
ATOM     63  C   UNL     1      -6.636   9.817   0.639  1.00  0.00     0.134 A 
ATOM     64  C   UNL     1      -8.014   7.957   0.148  1.00  0.00     0.134 A 
ATOM     65  F   UNL     1      -5.565  10.606   0.466  1.00  0.00    -0.206 F 
ATOM     66  C   UNL     1      -7.499  10.179   1.685  1.00  0.00     0.040 A 
ATOM     67  C   UNL     1      -8.911   8.338   1.156  1.00  0.00     0.040 A 
ATOM     68  F   UNL     1      -8.318   6.795  -0.442  1.00  0.00    -0.206 F 
ATOM     69  C   UNL     1      -8.650   9.448   1.938  1.00  0.00     0.006 A 
ENDBRANCH  48  62
BRANCH  49  70
ATOM     70  C   UNL     1       0.182   4.853  -6.059  1.00  0.00     0.057 A 
ATOM     71  C   UNL     1       0.977   3.736  -5.708  1.00  0.00     0.134 A 
ATOM     72  C   UNL     1      -0.804   4.644  -7.032  1.00  0.00     0.134 A 
ATOM     73  F   UNL     1       1.944   3.864  -4.786  1.00  0.00    -0.206 F 
ATOM     74  C   UNL     1       0.657   2.441  -6.127  1.00  0.00     0.040 A 
ATOM     75  C   UNL     1      -1.122   3.345  -7.466  1.00  0.00     0.040 A 
ATOM     76  F   UNL     1      -1.632   5.637  -7.382  1.00  0.00    -0.206 F 
ATOM     77  C   UNL     1      -0.432   2.239  -6.968  1.00  0.00     0.006 A 
ENDBRANCH  49  70
BRANCH  61  78
ATOM     78  C   UNL     1      -2.409  11.487  -4.291  1.00  0.00     0.057 A 
ATOM     79  C   UNL     1      -1.414  12.328  -4.803  1.00  0.00     0.134 A 
ATOM     80  C   UNL     1      -3.694  12.055  -4.188  1.00  0.00     0.134 A 
ATOM     81  F   UNL     1      -0.130  11.939  -4.837  1.00  0.00    -0.206 F 
ATOM     82  C   UNL     1      -1.701  13.604  -5.295  1.00  0.00     0.040 A 
ATOM     83  C   UNL     1      -3.979  13.353  -4.610  1.00  0.00     0.040 A 
ATOM     84  F   UNL     1      -4.742  11.370  -3.711  1.00  0.00    -0.206 F 
ATOM     85  C   UNL     1      -2.988  14.120  -5.201  1.00  0.00     0.006 A 
ENDBRANCH  61  78
ENDBRANCH  35  36
ENDBRANCH  28  30
ENDBRANCH  27  28
ENDBRANCH  26  27
ENDBRANCH  25  26
ENDBRANCH  24  25
ENDBRANCH   1  24
TORSDOF 17
