REMARK SMILES C[C@H]1CC[C@H]([NH2+]Cc2c(C(=O)OCCOCCOC(=O)c3ccc(-c4c5nc(c(-c6c(F)cccc6F)c6ccc([nH]6)c(-c6c(F)cccc6F)c6nc(c(-c7c(F)cccc7F)c7ccc4[nH]7)C=C6)C=C5)cc3)n(Cc3ccccc3F)c3ccccc23)CC1
REMARK SMILES IDX 14 1 13 2 12 3 10 4 11 5 9 6 8 7 89 8 75 9 84 10 88 11 85 12
REMARK SMILES IDX 87 13 86 14 7 15 6 16 5 19 1 20 2 21 3 22 91 23 4 24 90 25
REMARK SMILES IDX 76 26 77 27 78 28 82 29 79 30 81 31 83 32 80 33 15 34 16 35
REMARK SMILES IDX 17 36 18 37 19 38 20 39 21 40 22 41 74 42 23 43 73 44 24 45
REMARK SMILES IDX 25 46 26 47 67 48 27 49 72 50 66 51 68 52 28 53 71 54 65 55
REMARK SMILES IDX 64 56 29 58 55 59 38 60 54 61 39 62 42 63 53 64 69 65 40 66
REMARK SMILES IDX 41 67 52 69 70 70 43 71 30 72 31 73 36 74 32 75 33 76 35 77
REMARK SMILES IDX 37 78 34 79 56 80 57 81 62 82 58 83 59 84 61 85 63 86 60 87
REMARK SMILES IDX 44 88 45 89 50 90 46 91 47 92 49 93 51 94 48 95
REMARK H PARENT 6 17 6 18 68 57 42 68
REMARK Flexibility Score: inf
ROOT
ATOM      1  C   UNL     1      -0.373   0.391   4.177  1.00  0.00     0.202 C 
ENDROOT
BRANCH   1   2
ATOM      2  C   UNL     1      -0.365   0.129   2.666  1.00  0.00     0.261 C 
BRANCH   2   3
ATOM      3  O   UNL     1      -1.411  -0.719   2.154  1.00  0.00    -0.459 OA
BRANCH   3   4
ATOM      4  C   UNL     1      -0.989  -1.978   1.824  1.00  0.00     0.355 C 
ATOM      5  O   UNL     1       0.167  -2.353   1.971  1.00  0.00    -0.244 OA
BRANCH   4   6
ATOM      6  C   UNL     1      -2.048  -2.810   1.250  1.00  0.00     0.137 A 
ATOM      7  C   UNL     1      -3.119  -2.501   0.383  1.00  0.00     0.047 A 
ATOM      8  C   UNL     1      -3.741  -3.747   0.012  1.00  0.00     0.009 A 
ATOM      9  N   UNL     1      -2.012  -4.205   1.342  1.00  0.00    -0.330 N 
ATOM     10  C   UNL     1      -2.934  -4.774   0.481  1.00  0.00     0.050 A 
ATOM     11  C   UNL     1      -4.860  -4.080  -0.787  1.00  0.00     0.011 A 
ATOM     12  C   UNL     1      -3.129  -6.106   0.072  1.00  0.00     0.027 A 
ATOM     13  C   UNL     1      -5.107  -5.413  -1.129  1.00  0.00     0.001 A 
ATOM     14  C   UNL     1      -4.232  -6.411  -0.726  1.00  0.00     0.002 A 
BRANCH   7  15
ATOM     15  C   UNL     1      -3.584  -1.216  -0.267  1.00  0.00     0.300 C 
BRANCH  15  16
ATOM     16  N   UNL     1      -2.614  -0.143  -0.294  1.00  0.00    -0.340 N 
ATOM     17  H   UNL     1      -3.140   0.730  -0.344  1.00  0.00     0.346 HD
ATOM     18  H   UNL     1      -2.058  -0.306   0.545  1.00  0.00     0.346 HD
BRANCH  16  19
ATOM     19  C   UNL     1      -1.603  -0.093  -1.369  1.00  0.00     0.182 C 
ATOM     20  C   UNL     1       2.751  -0.217  -0.586  1.00  0.00     0.007 C 
ATOM     21  C   UNL     1       1.242  -0.182  -0.762  1.00  0.00    -0.014 C 
ATOM     22  C   UNL     1       0.731  -1.236  -1.735  1.00  0.00     0.009 C 
ATOM     23  C   UNL     1       0.711   1.155  -1.255  1.00  0.00     0.009 C 
ATOM     24  C   UNL     1      -0.778  -1.383  -1.581  1.00  0.00     0.065 C 
ATOM     25  C   UNL     1      -0.800   1.202  -1.091  1.00  0.00     0.065 C 
ENDBRANCH  16  19
ENDBRANCH  15  16
ENDBRANCH   7  15
BRANCH   9  26
ATOM     26  C   UNL     1      -1.070  -5.010   2.129  1.00  0.00     0.161 C 
BRANCH  26  27
ATOM     27  C   UNL     1      -1.658  -5.535   3.414  1.00  0.00     0.008 A 
ATOM     28  C   UNL     1      -2.511  -6.649   3.434  1.00  0.00     0.008 A 
ATOM     29  C   UNL     1      -1.319  -4.955   4.639  1.00  0.00     0.128 A 
ATOM     30  C   UNL     1      -3.000  -7.163   4.637  1.00  0.00     0.001 A 
ATOM     31  C   UNL     1      -1.794  -5.467   5.845  1.00  0.00     0.039 A 
ATOM     32  F   UNL     1      -0.496  -3.898   4.673  1.00  0.00    -0.207 F 
ATOM     33  C   UNL     1      -2.637  -6.575   5.845  1.00  0.00     0.003 A 
ENDBRANCH  26  27
ENDBRANCH   9  26
ENDBRANCH   4   6
ENDBRANCH   3   4
ENDBRANCH   2   3
ENDBRANCH   1   2
BRANCH   1  34
ATOM     34  O   UNL     1      -0.792  -0.634   5.062  1.00  0.00    -0.374 OA
BRANCH  34  35
ATOM     35  C   UNL     1      -2.123  -1.132   4.940  1.00  0.00     0.202 C 
BRANCH  35  36
ATOM     36  C   UNL     1      -3.301  -0.139   4.952  1.00  0.00     0.261 C 
BRANCH  36  37
ATOM     37  O   UNL     1      -3.194   0.864   3.930  1.00  0.00    -0.460 OA
BRANCH  37  38
ATOM     38  C   UNL     1      -3.441   2.142   4.335  1.00  0.00     0.338 C 
ATOM     39  O   UNL     1      -3.968   2.510   5.359  1.00  0.00    -0.246 OA
BRANCH  38  40
ATOM     40  C   UNL     1      -2.643   3.016   3.449  1.00  0.00     0.060 A 
ATOM     41  C   UNL     1      -2.791   2.963   2.067  1.00  0.00     0.016 A 
ATOM     42  C   UNL     1      -1.596   3.745   4.035  1.00  0.00     0.016 A 
ATOM     43  C   UNL     1      -1.844   3.602   1.274  1.00  0.00     0.010 A 
ATOM     44  C   UNL     1      -0.618   4.331   3.233  1.00  0.00     0.010 A 
ATOM     45  C   UNL     1      -0.721   4.230   1.846  1.00  0.00    -0.014 A 
BRANCH  45  46
ATOM     46  C   UNL     1       0.214   4.898   0.930  1.00  0.00     0.031 A 
ATOM     47  C   UNL     1      -0.409   5.982   0.125  1.00  0.00     0.074 A 
ATOM     48  C   UNL     1       1.550   4.720   0.836  1.00  0.00     0.049 A 
ATOM     49  N   UNL     1      -0.509   6.068  -1.161  1.00  0.00    -0.248 NA
ATOM     50  C   UNL     1      -1.074   7.066   0.864  1.00  0.00     0.031 C 
ATOM     51  C   UNL     1       2.419   3.948   1.725  1.00  0.00     0.029 A 
ATOM     52  N   UNL     1       2.433   5.284  -0.054  1.00  0.00    -0.354 N 
ATOM     53  C   UNL     1      -1.109   7.298  -1.405  1.00  0.00     0.074 A 
ATOM     54  C   UNL     1      -1.537   7.819  -0.132  1.00  0.00     0.031 C 
ATOM     55  C   UNL     1       3.711   4.250   1.454  1.00  0.00     0.029 A 
ATOM     56  C   UNL     1       3.767   5.135   0.299  1.00  0.00     0.049 A 
ATOM     57  H   UNL     1       2.144   5.751  -0.871  1.00  0.00     0.167 HD
ATOM     58  C   UNL     1      -1.029   7.912  -2.614  1.00  0.00     0.037 A 
ATOM     59  C   UNL     1       4.848   5.719  -0.276  1.00  0.00     0.037 A 
ATOM     60  C   UNL     1      -0.622   7.020  -3.661  1.00  0.00     0.049 A 
ATOM     61  C   UNL     1       4.496   6.181  -1.636  1.00  0.00     0.074 A 
ATOM     62  C   UNL     1      -1.160   5.930  -4.308  1.00  0.00     0.029 A 
ATOM     63  N   UNL     1       0.698   7.077  -4.014  1.00  0.00    -0.354 N 
ATOM     64  N   UNL     1       4.329   5.401  -2.664  1.00  0.00    -0.248 NA
ATOM     65  C   UNL     1       4.085   7.565  -1.839  1.00  0.00     0.031 C 
ATOM     66  C   UNL     1      -0.048   5.168  -4.774  1.00  0.00     0.029 A 
ATOM     67  C   UNL     1       1.119   5.828  -4.387  1.00  0.00     0.049 A 
ATOM     68  H   UNL     1       1.257   7.887  -4.003  1.00  0.00     0.167 HD
ATOM     69  C   UNL     1       3.403   6.058  -3.451  1.00  0.00     0.074 A 
ATOM     70  C   UNL     1       3.450   7.442  -3.006  1.00  0.00     0.031 C 
ATOM     71  C   UNL     1       2.469   5.359  -4.159  1.00  0.00     0.037 A 
BRANCH  58  72
ATOM     72  C   UNL     1      -0.925   9.406  -2.775  1.00  0.00     0.057 A 
ATOM     73  C   UNL     1      -0.332  10.243  -1.808  1.00  0.00     0.134 A 
ATOM     74  C   UNL     1      -1.118   9.983  -4.040  1.00  0.00     0.134 A 
ATOM     75  F   UNL     1       0.014   9.792  -0.595  1.00  0.00    -0.206 F 
ATOM     76  C   UNL     1       0.039  11.562  -2.078  1.00  0.00     0.040 A 
ATOM     77  C   UNL     1      -0.705  11.288  -4.336  1.00  0.00     0.040 A 
ATOM     78  F   UNL     1      -1.640   9.268  -5.049  1.00  0.00    -0.206 F 
ATOM     79  C   UNL     1      -0.121  12.080  -3.353  1.00  0.00     0.006 A 
ENDBRANCH  58  72
BRANCH  59  80
ATOM     80  C   UNL     1       6.164   6.045   0.319  1.00  0.00     0.057 A 
ATOM     81  C   UNL     1       6.268   6.458   1.657  1.00  0.00     0.134 A 
ATOM     82  C   UNL     1       7.312   6.212  -0.469  1.00  0.00     0.134 A 
ATOM     83  F   UNL     1       5.206   6.418   2.475  1.00  0.00    -0.206 F 
ATOM     84  C   UNL     1       7.441   7.010   2.182  1.00  0.00     0.040 A 
ATOM     85  C   UNL     1       8.492   6.770   0.041  1.00  0.00     0.040 A 
ATOM     86  F   UNL     1       7.302   5.888  -1.770  1.00  0.00    -0.206 F 
ATOM     87  C   UNL     1       8.556   7.179   1.369  1.00  0.00     0.006 A 
ENDBRANCH  59  80
BRANCH  71  88
ATOM     88  C   UNL     1       2.785   3.929  -4.493  1.00  0.00     0.057 A 
ATOM     89  C   UNL     1       2.743   3.526  -5.835  1.00  0.00     0.134 A 
ATOM     90  C   UNL     1       3.071   2.937  -3.548  1.00  0.00     0.134 A 
ATOM     91  F   UNL     1       2.434   4.408  -6.799  1.00  0.00    -0.206 F 
ATOM     92  C   UNL     1       2.990   2.206  -6.223  1.00  0.00     0.040 A 
ATOM     93  C   UNL     1       3.385   1.632  -3.933  1.00  0.00     0.040 A 
ATOM     94  F   UNL     1       3.014   3.184  -2.231  1.00  0.00    -0.206 F 
ATOM     95  C   UNL     1       3.331   1.256  -5.269  1.00  0.00     0.006 A 
ENDBRANCH  71  88
ENDBRANCH  45  46
ENDBRANCH  38  40
ENDBRANCH  37  38
ENDBRANCH  36  37
ENDBRANCH  35  36
ENDBRANCH  34  35
ENDBRANCH   1  34
TORSDOF 19
