REMARK SMILES O=C(OCCOCCOC(=O)[C@@H]1CC[C@@H](CNC(=O)c2ccno2)O1)c1ccc(-c2c3nc(c(-c4c(F)cccc4F)c4ccc([nH]4)c(-c4c(F)cccc4F)c4nc(c(-c5c(F)cccc5F)c5ccc2[nH]5)C=C4)C=C3)cc1
REMARK SMILES IDX 7 1 6 2 5 3 4 4 3 5 2 6 1 7 26 8 27 9 79 10 28 11 78 12
REMARK SMILES IDX 29 13 30 14 31 15 72 16 32 17 77 18 71 19 73 20 33 21 76 22
REMARK SMILES IDX 70 23 69 24 34 26 60 27 43 28 59 29 44 30 47 31 58 32 74 33
REMARK SMILES IDX 45 34 46 35 57 37 75 38 48 39 35 40 36 41 41 42 37 43 38 44
REMARK SMILES IDX 40 45 42 46 39 47 61 48 62 49 67 50 63 51 64 52 66 53 68 54
REMARK SMILES IDX 65 55 49 56 50 57 55 58 51 59 52 60 54 61 56 62 53 63 8 64
REMARK SMILES IDX 9 65 10 66 11 67 12 68 13 69 25 70 14 71 15 72 16 73 17 74
REMARK SMILES IDX 18 75 19 77 20 78 21 79 24 80 22 81 23 82
REMARK H PARENT 73 25 47 36 17 76
REMARK Flexibility Score: inf
ROOT
ATOM      1  C   UNL     1       2.710   1.746  -1.576  1.00  0.00     0.202 C 
ENDROOT
BRANCH   1   2
ATOM      2  O   UNL     1       3.992   1.212  -1.237  1.00  0.00    -0.374 OA
BRANCH   2   3
ATOM      3  C   UNL     1       4.234  -0.121  -1.690  1.00  0.00     0.202 C 
BRANCH   3   4
ATOM      4  C   UNL     1       4.034  -1.188  -0.610  1.00  0.00     0.261 C 
BRANCH   4   5
ATOM      5  O   UNL     1       2.680  -1.168  -0.127  1.00  0.00    -0.460 OA
BRANCH   5   6
ATOM      6  C   UNL     1       2.144  -0.430   0.873  1.00  0.00     0.338 C 
ATOM      7  O   UNL     1       0.923  -0.459   1.022  1.00  0.00    -0.246 OA
BRANCH   6   8
ATOM      8  C   UNL     1       2.942   0.385   1.843  1.00  0.00     0.060 A 
ATOM      9  C   UNL     1       4.228   0.880   1.626  1.00  0.00     0.016 A 
ATOM     10  C   UNL     1       2.312   0.723   3.057  1.00  0.00     0.016 A 
ATOM     11  C   UNL     1       4.890   1.635   2.577  1.00  0.00     0.010 A 
ATOM     12  C   UNL     1       2.962   1.503   4.019  1.00  0.00     0.010 A 
ATOM     13  C   UNL     1       4.267   1.939   3.782  1.00  0.00    -0.014 A 
BRANCH  13  14
ATOM     14  C   UNL     1       5.102   2.587   4.803  1.00  0.00     0.031 A 
ATOM     15  C   UNL     1       5.734   1.719   5.845  1.00  0.00     0.074 A 
ATOM     16  C   UNL     1       5.447   3.876   4.643  1.00  0.00     0.049 A 
ATOM     17  N   UNL     1       6.591   2.034   6.776  1.00  0.00    -0.248 NA
ATOM     18  C   UNL     1       5.372   0.290   5.813  1.00  0.00     0.031 C 
ATOM     19  C   UNL     1       4.979   4.743   3.558  1.00  0.00     0.029 A 
ATOM     20  N   UNL     1       6.316   4.661   5.349  1.00  0.00    -0.354 N 
ATOM     21  C   UNL     1       6.856   0.851   7.452  1.00  0.00     0.074 A 
ATOM     22  C   UNL     1       6.072  -0.190   6.829  1.00  0.00     0.031 C 
ATOM     23  C   UNL     1       5.600   5.930   3.649  1.00  0.00     0.029 A 
ATOM     24  C   UNL     1       6.463   5.922   4.825  1.00  0.00     0.049 A 
ATOM     25  H   UNL     1       6.791   4.353   6.154  1.00  0.00     0.167 HD
ATOM     26  C   UNL     1       7.678   0.662   8.509  1.00  0.00     0.037 A 
ATOM     27  C   UNL     1       7.208   6.952   5.266  1.00  0.00     0.037 A 
ATOM     28  C   UNL     1       8.442   1.720   9.110  1.00  0.00     0.049 A 
ATOM     29  C   UNL     1       8.040   6.738   6.500  1.00  0.00     0.074 A 
ATOM     30  C   UNL     1       9.248   1.681  10.230  1.00  0.00     0.029 A 
ATOM     31  N   UNL     1       8.487   3.021   8.623  1.00  0.00    -0.354 N 
ATOM     32  N   UNL     1       8.231   5.635   7.187  1.00  0.00    -0.248 NA
ATOM     33  C   UNL     1       8.745   7.910   7.033  1.00  0.00     0.031 C 
ATOM     34  C   UNL     1       9.749   2.971  10.446  1.00  0.00     0.029 A 
ATOM     35  C   UNL     1       9.292   3.801   9.432  1.00  0.00     0.049 A 
ATOM     36  H   UNL     1       8.014   3.341   7.821  1.00  0.00     0.167 HD
ATOM     37  C   UNL     1       9.089   5.973   8.222  1.00  0.00     0.074 A 
ATOM     38  C   UNL     1       9.397   7.382   8.059  1.00  0.00     0.031 C 
ATOM     39  C   UNL     1       9.576   5.199   9.224  1.00  0.00     0.037 A 
BRANCH  26  40
ATOM     40  C   UNL     1       7.702  -0.711   9.108  1.00  0.00     0.057 A 
ATOM     41  C   UNL     1       8.329  -1.794   8.478  1.00  0.00     0.134 A 
ATOM     42  C   UNL     1       7.030  -0.963  10.311  1.00  0.00     0.134 A 
ATOM     43  F   UNL     1       8.959  -1.627   7.306  1.00  0.00    -0.206 F 
ATOM     44  C   UNL     1       8.262  -3.084   9.009  1.00  0.00     0.040 A 
ATOM     45  C   UNL     1       6.974  -2.244  10.862  1.00  0.00     0.040 A 
ATOM     46  F   UNL     1       6.398   0.027  10.958  1.00  0.00    -0.206 F 
ATOM     47  C   UNL     1       7.584  -3.311  10.206  1.00  0.00     0.006 A 
ENDBRANCH  26  40
BRANCH  27  48
ATOM     48  C   UNL     1       7.172   8.264   4.569  1.00  0.00     0.057 A 
ATOM     49  C   UNL     1       8.305   8.790   3.937  1.00  0.00     0.134 A 
ATOM     50  C   UNL     1       6.002   9.034   4.530  1.00  0.00     0.134 A 
ATOM     51  F   UNL     1       9.463   8.114   3.954  1.00  0.00    -0.206 F 
ATOM     52  C   UNL     1       8.280  10.036   3.306  1.00  0.00     0.040 A 
ATOM     53  C   UNL     1       5.955  10.268   3.880  1.00  0.00     0.040 A 
ATOM     54  F   UNL     1       4.880   8.592   5.116  1.00  0.00    -0.206 F 
ATOM     55  C   UNL     1       7.099  10.776   3.271  1.00  0.00     0.006 A 
ENDBRANCH  27  48
BRANCH  39  56
ATOM     56  C   UNL     1      10.511   5.861  10.189  1.00  0.00     0.057 A 
ATOM     57  C   UNL     1      10.051   6.755  11.162  1.00  0.00     0.134 A 
ATOM     58  C   UNL     1      11.879   5.566  10.165  1.00  0.00     0.134 A 
ATOM     59  F   UNL     1       8.752   7.085  11.224  1.00  0.00    -0.206 F 
ATOM     60  C   UNL     1      10.927   7.354  12.067  1.00  0.00     0.040 A 
ATOM     61  C   UNL     1      12.760   6.138  11.081  1.00  0.00     0.040 A 
ATOM     62  F   UNL     1      12.376   4.709   9.261  1.00  0.00    -0.206 F 
ATOM     63  C   UNL     1      12.285   7.040  12.032  1.00  0.00     0.006 A 
ENDBRANCH  39  56
ENDBRANCH  13  14
ENDBRANCH   6   8
ENDBRANCH   5   6
ENDBRANCH   4   5
ENDBRANCH   3   4
ENDBRANCH   2   3
ENDBRANCH   1   2
BRANCH   1  64
ATOM     64  C   UNL     1       2.817   2.683  -2.778  1.00  0.00     0.261 C 
BRANCH  64  65
ATOM     65  O   UNL     1       3.140   1.913  -3.948  1.00  0.00    -0.461 OA
BRANCH  65  66
ATOM     66  C   UNL     1       4.461   1.823  -4.274  1.00  0.00     0.335 C 
ATOM     67  O   UNL     1       5.353   2.496  -3.771  1.00  0.00    -0.249 OA
BRANCH  66  68
ATOM     68  C   UNL     1       4.718   0.683  -5.271  1.00  0.00     0.228 C 
ATOM     69  C   UNL     1       3.496   0.191  -6.043  1.00  0.00     0.047 C 
ATOM     70  O   UNL     1       5.275  -0.481  -4.615  1.00  0.00    -0.361 OA
ATOM     71  C   UNL     1       3.831  -1.263  -6.278  1.00  0.00     0.037 C 
ATOM     72  C   UNL     1       4.469  -1.627  -4.952  1.00  0.00     0.138 C 
BRANCH  72  73
ATOM     73  C   UNL     1       5.294  -2.922  -4.860  1.00  0.00     0.148 C 
BRANCH  73  74
ATOM     74  N   UNL     1       5.378  -3.667  -6.105  1.00  0.00    -0.347 N 
ATOM     75  C   UNL     1       6.271  -3.501  -7.131  1.00  0.00     0.289 C 
ATOM     76  H   UNL     1       4.709  -4.380  -6.227  1.00  0.00     0.164 HD
ATOM     77  O   UNL     1       5.955  -3.988  -8.233  1.00  0.00    -0.266 OA
BRANCH  75  78
ATOM     78  C   UNL     1       7.490  -2.786  -6.907  1.00  0.00     0.224 A 
ATOM     79  C   UNL     1       8.469  -2.871  -5.937  1.00  0.00     0.079 A 
ATOM     80  O   UNL     1       7.857  -1.840  -7.816  1.00  0.00    -0.351 OA
ATOM     81  C   UNL     1       9.411  -1.899  -6.312  1.00  0.00     0.159 A 
ATOM     82  N   UNL     1       9.056  -1.260  -7.428  1.00  0.00    -0.088 NA
ENDBRANCH  75  78
ENDBRANCH  73  74
ENDBRANCH  72  73
ENDBRANCH  66  68
ENDBRANCH  65  66
ENDBRANCH  64  65
ENDBRANCH   1  64
TORSDOF 17
