REMARK SMILES CC1(C)[C@@]2(C(=O)OCCOCCOC(=O)c3ccc(-c4c5nc(c(-c6c(F)cccc6F)c6ccc([nH]6)c(-c6c(F)cccc6F)c6nc(c(-c7c(F)cccc7F)c7ccc4[nH]7)C=C6)C=C5)cc3)CC[C@]1(C)/C(=N/NC(=O)c1ccc(Cl)cc1)C2
REMARK SMILES IDX 10 1 9 2 8 3 7 4 5 5 6 6 4 7 1 8 2 9 3 10 72 11 70 12 86 13
REMARK SMILES IDX 71 14 73 15 74 16 75 17 76 18 77 19 78 21 79 22 80 23 85 24
REMARK SMILES IDX 81 25 84 26 82 27 83 28 11 29 12 30 13 31 14 32 15 33 16 34
REMARK SMILES IDX 17 35 69 36 18 37 68 38 19 39 20 40 21 41 62 42 22 43 67 44
REMARK SMILES IDX 61 45 63 46 23 47 66 48 60 49 59 50 24 52 50 53 33 54 49 55
REMARK SMILES IDX 34 56 37 57 48 58 64 59 35 60 36 61 47 63 65 64 38 65 25 66
REMARK SMILES IDX 26 67 31 68 27 69 28 70 30 71 32 72 29 73 51 74 52 75 57 76
REMARK SMILES IDX 53 77 54 78 56 79 58 80 55 81 39 82 40 83 45 84 41 85 42 86
REMARK SMILES IDX 44 87 46 88 43 89
REMARK H PARENT 76 20 63 51 37 62
REMARK Flexibility Score: inf
ROOT
ATOM      1  O   UNL     1       3.298   4.846   0.216  1.00  0.00    -0.374 OA
ENDROOT
BRANCH   1   2
ATOM      2  C   UNL     1       4.417   4.348  -0.521  1.00  0.00     0.202 C 
BRANCH   2   3
ATOM      3  C   UNL     1       4.592   2.826  -0.498  1.00  0.00     0.261 C 
BRANCH   3   4
ATOM      4  O   UNL     1       3.538   2.165  -1.223  1.00  0.00    -0.463 OA
BRANCH   4   5
ATOM      5  C   UNL     1       2.579   1.564  -0.464  1.00  0.00     0.313 C 
ATOM      6  O   UNL     1       2.593   1.495   0.756  1.00  0.00    -0.252 OA
BRANCH   5   7
ATOM      7  C   UNL     1       1.494   0.973  -1.341  1.00  0.00     0.079 C 
ATOM      8  C   UNL     1       0.458  -0.561   0.476  1.00  0.00     0.013 C 
ATOM      9  C   UNL     1       0.202   0.496  -0.623  1.00  0.00    -0.008 C 
ATOM     10  C   UNL     1      -0.642   1.624   0.011  1.00  0.00     0.013 C 
ATOM     11  C   UNL     1      -0.394  -0.076  -1.954  1.00  0.00     0.014 C 
ATOM     12  C   UNL     1       1.993  -0.317  -2.068  1.00  0.00     0.021 C 
ATOM     13  C   UNL     1       0.943   1.940  -2.418  1.00  0.00     0.073 C 
ATOM     14  C   UNL     1       0.689  -1.057  -2.436  1.00  0.00     0.014 C 
ATOM     15  C   UNL     1      -1.801  -0.627  -1.878  1.00  0.00     0.018 C 
ATOM     16  C   UNL     1      -0.223   1.130  -2.904  1.00  0.00     0.046 C 
ATOM     17  N   UNL     1      -1.036   1.309  -3.896  1.00  0.00    -0.181 NA
BRANCH  17  18
ATOM     18  N   UNL     1      -1.058   2.379  -4.736  1.00  0.00    -0.243 N 
ATOM     19  C   UNL     1      -0.108   3.109  -5.418  1.00  0.00     0.271 C 
ATOM     20  H   UNL     1      -1.970   2.711  -4.896  1.00  0.00     0.194 HD
ATOM     21  O   UNL     1      -0.442   4.104  -6.062  1.00  0.00    -0.267 OA
BRANCH  19  22
ATOM     22  C   UNL     1       1.315   2.752  -5.412  1.00  0.00     0.041 A 
ATOM     23  C   UNL     1       2.222   3.737  -4.992  1.00  0.00     0.015 A 
ATOM     24  C   UNL     1       1.758   1.466  -5.734  1.00  0.00     0.015 A 
ATOM     25  C   UNL     1       3.556   3.393  -4.774  1.00  0.00     0.021 A 
ATOM     26  C   UNL     1       3.107   1.142  -5.549  1.00  0.00     0.021 A 
ATOM     27  C   UNL     1       3.990   2.096  -5.038  1.00  0.00     0.041 A 
ATOM     28  Cl  UNL     1       5.611   1.660  -4.661  1.00  0.00    -0.084 Cl
ENDBRANCH  19  22
ENDBRANCH  17  18
ENDBRANCH   5   7
ENDBRANCH   4   5
ENDBRANCH   3   4
ENDBRANCH   2   3
ENDBRANCH   1   2
BRANCH   1  29
ATOM     29  C   UNL     1       2.053   4.836  -0.478  1.00  0.00     0.202 C 
BRANCH  29  30
ATOM     30  C   UNL     1       1.736   6.096  -1.288  1.00  0.00     0.261 C 
BRANCH  30  31
ATOM     31  O   UNL     1       2.622   6.220  -2.417  1.00  0.00    -0.460 OA
BRANCH  31  32
ATOM     32  C   UNL     1       3.645   7.089  -2.242  1.00  0.00     0.338 C 
ATOM     33  O   UNL     1       3.834   7.826  -1.288  1.00  0.00    -0.246 OA
BRANCH  32  34
ATOM     34  C   UNL     1       4.644   6.894  -3.311  1.00  0.00     0.060 A 
ATOM     35  C   UNL     1       5.986   6.785  -2.929  1.00  0.00     0.016 A 
ATOM     36  C   UNL     1       4.287   6.839  -4.661  1.00  0.00     0.016 A 
ATOM     37  C   UNL     1       6.983   6.680  -3.898  1.00  0.00     0.010 A 
ATOM     38  C   UNL     1       5.287   6.706  -5.631  1.00  0.00     0.010 A 
ATOM     39  C   UNL     1       6.644   6.680  -5.258  1.00  0.00    -0.014 A 
BRANCH  39  40
ATOM     40  C   UNL     1       7.708   6.868  -6.279  1.00  0.00     0.031 A 
ATOM     41  C   UNL     1       7.839   8.216  -6.941  1.00  0.00     0.074 A 
ATOM     42  C   UNL     1       8.579   5.888  -6.582  1.00  0.00     0.049 A 
ATOM     43  N   UNL     1       8.676   8.612  -7.866  1.00  0.00    -0.248 NA
ATOM     44  C   UNL     1       6.892   9.255  -6.503  1.00  0.00     0.031 C 
ATOM     45  C   UNL     1       8.592   4.551  -5.993  1.00  0.00     0.029 A 
ATOM     46  N   UNL     1       9.626   5.875  -7.472  1.00  0.00    -0.354 N 
ATOM     47  C   UNL     1       8.347   9.937  -8.127  1.00  0.00     0.074 A 
ATOM     48  C   UNL     1       7.209  10.265  -7.298  1.00  0.00     0.031 C 
ATOM     49  C   UNL     1       9.600   3.846  -6.537  1.00  0.00     0.029 A 
ATOM     50  C   UNL     1      10.281   4.669  -7.536  1.00  0.00     0.049 A 
ATOM     51  H   UNL     1       9.883   6.656  -8.012  1.00  0.00     0.167 HD
ATOM     52  C   UNL     1       8.948  10.812  -8.967  1.00  0.00     0.037 A 
ATOM     53  C   UNL     1      11.301   4.271  -8.323  1.00  0.00     0.037 A 
ATOM     54  C   UNL     1      10.089  10.498  -9.784  1.00  0.00     0.049 A 
ATOM     55  C   UNL     1      11.908   5.242  -9.305  1.00  0.00     0.074 A 
ATOM     56  C   UNL     1      10.784  11.328 -10.646  1.00  0.00     0.029 A 
ATOM     57  N   UNL     1      10.698   9.255  -9.846  1.00  0.00    -0.354 N 
ATOM     58  N   UNL     1      11.611   6.501  -9.519  1.00  0.00    -0.248 NA
ATOM     59  C   UNL     1      12.997   4.734 -10.154  1.00  0.00     0.031 C 
ATOM     60  C   UNL     1      11.777  10.570 -11.275  1.00  0.00     0.029 A 
ATOM     61  C   UNL     1      11.742   9.287 -10.756  1.00  0.00     0.049 A 
ATOM     62  H   UNL     1      10.430   8.467  -9.321  1.00  0.00     0.167 HD
ATOM     63  C   UNL     1      12.495   6.942 -10.498  1.00  0.00     0.074 A 
ATOM     64  C   UNL     1      13.347   5.820 -10.829  1.00  0.00     0.031 C 
ATOM     65  C   UNL     1      12.594   8.168 -11.070  1.00  0.00     0.037 A 
BRANCH  52  66
ATOM     66  C   UNL     1       8.364  12.192  -9.062  1.00  0.00     0.057 A 
ATOM     67  C   UNL     1       8.463  13.115  -8.012  1.00  0.00     0.134 A 
ATOM     68  C   UNL     1       7.718  12.611 -10.232  1.00  0.00     0.134 A 
ATOM     69  F   UNL     1       9.055  12.773  -6.858  1.00  0.00    -0.206 F 
ATOM     70  C   UNL     1       7.917  14.396  -8.114  1.00  0.00     0.040 A 
ATOM     71  C   UNL     1       7.196  13.899 -10.357  1.00  0.00     0.040 A 
ATOM     72  F   UNL     1       7.593  11.778 -11.277  1.00  0.00    -0.206 F 
ATOM     73  C   UNL     1       7.288  14.793  -9.293  1.00  0.00     0.006 A 
ENDBRANCH  52  66
BRANCH  53  74
ATOM     74  C   UNL     1      11.816   2.879  -8.232  1.00  0.00     0.057 A 
ATOM     75  C   UNL     1      13.104   2.608  -7.757  1.00  0.00     0.134 A 
ATOM     76  C   UNL     1      11.044   1.790  -8.655  1.00  0.00     0.134 A 
ATOM     77  F   UNL     1      13.903   3.611  -7.362  1.00  0.00    -0.206 F 
ATOM     78  C   UNL     1      13.616   1.309  -7.726  1.00  0.00     0.040 A 
ATOM     79  C   UNL     1      11.532   0.483  -8.602  1.00  0.00     0.040 A 
ATOM     80  F   UNL     1       9.803   1.980  -9.124  1.00  0.00    -0.206 F 
ATOM     81  C   UNL     1      12.825   0.241  -8.145  1.00  0.00     0.006 A 
ENDBRANCH  53  74
BRANCH  65  82
ATOM     82  C   UNL     1      13.686   8.383 -12.079  1.00  0.00     0.057 A 
ATOM     83  C   UNL     1      13.645   7.807 -13.355  1.00  0.00     0.134 A 
ATOM     84  C   UNL     1      14.767   9.226 -11.787  1.00  0.00     0.134 A 
ATOM     85  F   UNL     1      12.644   6.981 -13.697  1.00  0.00    -0.206 F 
ATOM     86  C   UNL     1      14.650   8.044 -14.296  1.00  0.00     0.040 A 
ATOM     87  C   UNL     1      15.761   9.495 -12.729  1.00  0.00     0.040 A 
ATOM     88  F   UNL     1      14.863   9.822 -10.589  1.00  0.00    -0.206 F 
ATOM     89  C   UNL     1      15.707   8.898 -13.986  1.00  0.00     0.006 A 
ENDBRANCH  65  82
ENDBRANCH  39  40
ENDBRANCH  32  34
ENDBRANCH  31  32
ENDBRANCH  30  31
ENDBRANCH  29  30
ENDBRANCH   1  29
TORSDOF 16
