REMARK SMILES COC(CNS(=O)(=O)c1ccc(Cl)c(C(=O)OCCOCCOC(=O)c2ccc(-c3c4nc(c(-c5c(F)cccc5F)c5ccc([nH]5)c(-c5c(F)cccc5F)c5nc(c(-c6c(F)cccc6F)c6ccc3[nH]6)C=C5)C=C4)cc2)c1Cl)OC
REMARK SMILES IDX 18 1 17 2 15 3 16 4 14 5 9 6 10 7 80 8 11 9 81 10 12 11
REMARK SMILES IDX 13 12 6 13 7 14 8 15 5 16 4 18 3 19 2 20 1 21 82 22 83 23
REMARK SMILES IDX 19 24 20 25 21 26 22 27 23 28 24 29 25 30 26 31 27 32 79 33
REMARK SMILES IDX 28 34 78 35 29 36 30 37 31 38 72 39 32 40 77 41 71 42 73 43
REMARK SMILES IDX 33 44 76 45 70 46 69 47 34 49 60 50 43 51 59 52 44 53 47 54
REMARK SMILES IDX 58 55 74 56 45 57 46 58 57 60 75 61 48 62 35 63 36 64 41 65
REMARK SMILES IDX 37 66 38 67 40 68 42 69 39 70 61 71 62 72 67 73 63 74 64 75
REMARK SMILES IDX 66 76 68 77 65 78 49 79 50 80 55 81 51 82 52 83 54 84 56 85
REMARK SMILES IDX 53 86
REMARK H PARENT 5 17 73 48 47 59
REMARK Flexibility Score: inf
ROOT
ATOM      1  C   UNL     1       0.038  -4.872  -7.922  1.00  0.00     0.261 C 
ENDROOT
BRANCH   1   2
ATOM      2  O   UNL     1       0.540  -3.531  -7.890  1.00  0.00    -0.460 OA
BRANCH   2   3
ATOM      3  C   UNL     1      -0.397  -2.557  -7.925  1.00  0.00     0.341 C 
ATOM      4  O   UNL     1      -1.572  -2.667  -8.217  1.00  0.00    -0.246 OA
BRANCH   3   5
ATOM      5  C   UNL     1       0.225  -1.336  -7.381  1.00  0.00     0.098 A 
ATOM      6  C   UNL     1       0.478   0.275  -5.579  1.00  0.00     0.102 A 
ATOM      7  C   UNL     1       1.480   0.919  -6.327  1.00  0.00     0.025 A 
ATOM      8  C   UNL     1      -0.167  -0.854  -6.109  1.00  0.00     0.077 A 
ATOM      9  C   UNL     1       1.852   0.438  -7.584  1.00  0.00     0.023 A 
ATOM     10  Cl  UNL     1      -1.380  -1.727  -5.228  1.00  0.00    -0.082 Cl
ATOM     11  C   UNL     1       1.228  -0.689  -8.114  1.00  0.00     0.057 A 
ATOM     12  Cl  UNL     1       1.732  -1.219  -9.679  1.00  0.00    -0.083 Cl
BRANCH   6  13
ATOM     13  S   UNL     1       0.018   1.033  -4.031  1.00  0.00     0.242 S 
ATOM     14  O   UNL     1      -1.385   0.838  -3.765  1.00  0.00    -0.207 OA
ATOM     15  O   UNL     1       0.576   2.371  -4.032  1.00  0.00    -0.207 OA
BRANCH  13  16
ATOM     16  N   UNL     1       0.920   0.214  -2.869  1.00  0.00    -0.206 NA
ATOM     17  H   UNL     1       1.855   0.079  -3.255  1.00  0.00     0.141 HD
BRANCH  16  18
ATOM     18  C   UNL     1       0.445  -1.109  -2.405  1.00  0.00     0.161 C 
BRANCH  18  19
ATOM     19  C   UNL     1       1.192  -1.698  -1.175  1.00  0.00     0.263 C 
BRANCH  19  20
ATOM     20  O   UNL     1       0.815  -1.250   0.126  1.00  0.00    -0.355 OA
ATOM     21  C   UNL     1       0.625   0.129   0.348  1.00  0.00     0.198 C 
ENDBRANCH  19  20
BRANCH  19  22
ATOM     22  O   UNL     1       2.592  -1.927  -1.351  1.00  0.00    -0.355 OA
ATOM     23  C   UNL     1       3.441  -0.801  -1.367  1.00  0.00     0.198 C 
ENDBRANCH  19  22
ENDBRANCH  18  19
ENDBRANCH  16  18
ENDBRANCH  13  16
ENDBRANCH   6  13
ENDBRANCH   3   5
ENDBRANCH   2   3
ENDBRANCH   1   2
BRANCH   1  24
ATOM     24  C   UNL     1       0.986  -5.801  -7.159  1.00  0.00     0.202 C 
BRANCH  24  25
ATOM     25  O   UNL     1       1.231  -5.453  -5.795  1.00  0.00    -0.374 OA
BRANCH  25  26
ATOM     26  C   UNL     1       2.108  -4.354  -5.535  1.00  0.00     0.202 C 
BRANCH  26  27
ATOM     27  C   UNL     1       3.603  -4.587  -5.792  1.00  0.00     0.261 C 
BRANCH  27  28
ATOM     28  O   UNL     1       3.906  -4.745  -7.191  1.00  0.00    -0.460 OA
BRANCH  28  29
ATOM     29  C   UNL     1       4.437  -5.947  -7.529  1.00  0.00     0.338 C 
ATOM     30  O   UNL     1       4.727  -6.867  -6.783  1.00  0.00    -0.246 OA
BRANCH  29  31
ATOM     31  C   UNL     1       4.482  -6.081  -8.996  1.00  0.00     0.060 A 
ATOM     32  C   UNL     1       3.762  -7.130  -9.583  1.00  0.00     0.016 A 
ATOM     33  C   UNL     1       5.288  -5.249  -9.774  1.00  0.00     0.016 A 
ATOM     34  C   UNL     1       3.862  -7.363 -10.954  1.00  0.00     0.010 A 
ATOM     35  C   UNL     1       5.397  -5.493 -11.147  1.00  0.00     0.010 A 
ATOM     36  C   UNL     1       4.702  -6.563 -11.740  1.00  0.00    -0.014 A 
BRANCH  36  37
ATOM     37  C   UNL     1       4.936  -6.902 -13.164  1.00  0.00     0.031 A 
ATOM     38  C   UNL     1       6.187  -7.640 -13.551  1.00  0.00     0.074 A 
ATOM     39  C   UNL     1       4.043  -6.552 -14.105  1.00  0.00     0.049 A 
ATOM     40  N   UNL     1       6.629  -7.959 -14.740  1.00  0.00    -0.248 NA
ATOM     41  C   UNL     1       7.058  -8.073 -12.447  1.00  0.00     0.031 C 
ATOM     42  C   UNL     1       2.773  -5.872 -13.853  1.00  0.00     0.029 A 
ATOM     43  N   UNL     1       4.077  -6.708 -15.468  1.00  0.00    -0.354 N 
ATOM     44  C   UNL     1       7.830  -8.624 -14.531  1.00  0.00     0.074 A 
ATOM     45  C   UNL     1       8.061  -8.641 -13.102  1.00  0.00     0.031 C 
ATOM     46  C   UNL     1       2.155  -5.655 -15.026  1.00  0.00     0.029 A 
ATOM     47  C   UNL     1       3.002  -6.146 -16.112  1.00  0.00     0.049 A 
ATOM     48  H   UNL     1       4.802  -7.178 -15.939  1.00  0.00     0.167 HD
ATOM     49  C   UNL     1       8.662  -9.175 -15.447  1.00  0.00     0.037 A 
ATOM     50  C   UNL     1       2.747  -6.016 -17.428  1.00  0.00     0.037 A 
ATOM     51  C   UNL     1       8.432  -9.154 -16.869  1.00  0.00     0.049 A 
ATOM     52  C   UNL     1       3.729  -6.560 -18.430  1.00  0.00     0.074 A 
ATOM     53  C   UNL     1       9.208  -9.701 -17.876  1.00  0.00     0.029 A 
ATOM     54  N   UNL     1       7.349  -8.545 -17.484  1.00  0.00    -0.354 N 
ATOM     55  N   UNL     1       4.853  -7.204 -18.223  1.00  0.00    -0.248 NA
ATOM     56  C   UNL     1       3.409  -6.356 -19.851  1.00  0.00     0.031 C 
ATOM     57  C   UNL     1       8.619  -9.381 -19.104  1.00  0.00     0.029 A 
ATOM     58  C   UNL     1       7.451  -8.677 -18.859  1.00  0.00     0.049 A 
ATOM     59  H   UNL     1       6.616  -8.086 -17.013  1.00  0.00     0.167 HD
ATOM     60  C   UNL     1       5.358  -7.503 -19.482  1.00  0.00     0.074 A 
ATOM     61  C   UNL     1       4.415  -6.980 -20.448  1.00  0.00     0.031 C 
ATOM     62  C   UNL     1       6.501  -8.156 -19.809  1.00  0.00     0.037 A 
BRANCH  49  63
ATOM     63  C   UNL     1       9.914  -9.827 -14.939  1.00  0.00     0.057 A 
ATOM     64  C   UNL     1       9.887 -11.052 -14.261  1.00  0.00     0.134 A 
ATOM     65  C   UNL     1      11.165  -9.236 -15.159  1.00  0.00     0.134 A 
ATOM     66  F   UNL     1       8.721 -11.663 -14.007  1.00  0.00    -0.206 F 
ATOM     67  C   UNL     1      11.059 -11.655 -13.800  1.00  0.00     0.040 A 
ATOM     68  C   UNL     1      12.345  -9.842 -14.724  1.00  0.00     0.040 A 
ATOM     69  F   UNL     1      11.261  -8.065 -15.807  1.00  0.00    -0.206 F 
ATOM     70  C   UNL     1      12.293 -11.053 -14.037  1.00  0.00     0.006 A 
ENDBRANCH  49  63
BRANCH  50  71
ATOM     71  C   UNL     1       1.514  -5.323 -17.880  1.00  0.00     0.057 A 
ATOM     72  C   UNL     1       0.476  -6.024 -18.502  1.00  0.00     0.134 A 
ATOM     73  C   UNL     1       1.355  -3.941 -17.718  1.00  0.00     0.134 A 
ATOM     74  F   UNL     1       0.582  -7.345 -18.708  1.00  0.00    -0.206 F 
ATOM     75  C   UNL     1      -0.672  -5.375 -18.960  1.00  0.00     0.040 A 
ATOM     76  C   UNL     1       0.202  -3.283 -18.149  1.00  0.00     0.040 A 
ATOM     77  F   UNL     1       2.316  -3.212 -17.131  1.00  0.00    -0.206 F 
ATOM     78  C   UNL     1      -0.813  -4.000 -18.778  1.00  0.00     0.006 A 
ENDBRANCH  50  71
BRANCH  62  79
ATOM     79  C   UNL     1       6.780  -8.372 -21.267  1.00  0.00     0.057 A 
ATOM     80  C   UNL     1       7.191  -7.328 -22.104  1.00  0.00     0.134 A 
ATOM     81  C   UNL     1       6.681  -9.652 -21.829  1.00  0.00     0.134 A 
ATOM     82  F   UNL     1       7.293  -6.077 -21.631  1.00  0.00    -0.206 F 
ATOM     83  C   UNL     1       7.479  -7.545 -23.453  1.00  0.00     0.040 A 
ATOM     84  C   UNL     1       6.990  -9.886 -23.170  1.00  0.00     0.040 A 
ATOM     85  F   UNL     1       6.300 -10.697 -21.081  1.00  0.00    -0.206 F 
ATOM     86  C   UNL     1       7.386  -8.829 -23.987  1.00  0.00     0.006 A 
ENDBRANCH  62  79
ENDBRANCH  36  37
ENDBRANCH  29  31
ENDBRANCH  28  29
ENDBRANCH  27  28
ENDBRANCH  26  27
ENDBRANCH  25  26
ENDBRANCH  24  25
ENDBRANCH   1  24
TORSDOF 20
