REMARK SMILES Cc1ccc([N+](=O)[O-])c(NCc2ccc(C(=O)OCCOCCOC(=O)c3ccc(-c4c5nc(c(-c6c(F)cccc6F)c6ccc([nH]6)c(-c6c(F)cccc6F)c6nc(c(-c7c(F)cccc7F)c7ccc4[nH]7)C=C6)C=C5)cc3)cc2)c1
REMARK SMILES IDX 20 1 19 2 18 3 16 4 17 5 15 6 12 7 13 8 82 9 14 10 81 11
REMARK SMILES IDX 11 12 10 13 9 15 1 16 2 17 3 18 83 19 4 20 5 21 6 22 7 23
REMARK SMILES IDX 8 24 21 25 22 26 23 27 24 28 25 29 26 30 27 31 28 32 80 33
REMARK SMILES IDX 29 34 79 35 30 36 31 37 32 38 73 39 33 40 78 41 72 42 74 43
REMARK SMILES IDX 34 44 77 45 71 46 70 47 35 49 61 50 44 51 60 52 45 53 48 54
REMARK SMILES IDX 59 55 75 56 46 57 47 58 58 60 76 61 49 62 36 63 37 64 42 65
REMARK SMILES IDX 38 66 39 67 41 68 43 69 40 70 62 71 63 72 68 73 64 74 65 75
REMARK SMILES IDX 67 76 69 77 66 78 50 79 51 80 56 81 52 82 53 83 55 84 57 85
REMARK SMILES IDX 54 86
REMARK H PARENT 10 14 74 48 48 59
REMARK Flexibility Score: inf
ROOT
ATOM      1  C   UNL     1      -4.064   8.792  -2.113  1.00  0.00     0.202 C 
ENDROOT
BRANCH   1   2
ATOM      2  C   UNL     1      -3.653   9.269  -0.753  1.00  0.00     0.261 C 
BRANCH   2   3
ATOM      3  O   UNL     1      -3.675   8.207   0.210  1.00  0.00    -0.460 OA
BRANCH   3   4
ATOM      4  C   UNL     1      -4.817   7.512   0.474  1.00  0.00     0.338 C 
ATOM      5  O   UNL     1      -5.957   7.901   0.560  1.00  0.00    -0.246 OA
BRANCH   4   6
ATOM      6  C   UNL     1      -4.416   6.098   0.467  1.00  0.00     0.060 A 
ATOM      7  C   UNL     1      -3.656   3.472   0.024  1.00  0.00    -0.029 A 
ATOM      8  C   UNL     1      -5.017   3.804   0.171  1.00  0.00     0.006 A 
ATOM      9  C   UNL     1      -2.689   4.479   0.066  1.00  0.00     0.006 A 
ATOM     10  C   UNL     1      -5.403   5.119   0.388  1.00  0.00     0.016 A 
ATOM     11  C   UNL     1      -3.062   5.772   0.348  1.00  0.00     0.016 A 
BRANCH   7  12
ATOM     12  C   UNL     1      -3.316   2.018  -0.176  1.00  0.00     0.149 C 
BRANCH  12  13
ATOM     13  N   UNL     1      -1.909   1.744  -0.008  1.00  0.00    -0.375 N 
ATOM     14  H   UNL     1      -1.345   2.536   0.149  1.00  0.00     0.161 HD
BRANCH  13  15
ATOM     15  C   UNL     1      -1.234   0.543  -0.034  1.00  0.00     0.114 A 
ATOM     16  C   UNL     1       2.567  -0.095  -0.005  1.00  0.00     0.044 C 
ATOM     17  C   UNL     1       1.089  -0.346  -0.021  1.00  0.00    -0.049 A 
ATOM     18  C   UNL     1       0.593  -1.641  -0.024  1.00  0.00     0.010 A 
ATOM     19  C   UNL     1       0.179   0.715  -0.036  1.00  0.00     0.036 A 
ATOM     20  C   UNL     1      -0.783  -1.857  -0.068  1.00  0.00     0.088 A 
ATOM     21  C   UNL     1      -1.703  -0.783  -0.090  1.00  0.00     0.292 A 
BRANCH  21  22
ATOM     22  N   UNL     1      -3.118  -1.200  -0.112  1.00  0.00     0.064 N 
ATOM     23  O   UNL     1      -3.390  -2.308   0.378  1.00  0.00    -0.258 OA
ATOM     24  O   UNL     1      -3.962  -0.488  -0.665  1.00  0.00    -0.258 OA
ENDBRANCH  21  22
ENDBRANCH  13  15
ENDBRANCH  12  13
ENDBRANCH   7  12
ENDBRANCH   4   6
ENDBRANCH   3   4
ENDBRANCH   2   3
ENDBRANCH   1   2
BRANCH   1  25
ATOM     25  O   UNL     1      -5.447   8.510  -2.027  1.00  0.00    -0.374 OA
BRANCH  25  26
ATOM     26  C   UNL     1      -6.052   8.002  -3.195  1.00  0.00     0.202 C 
BRANCH  26  27
ATOM     27  C   UNL     1      -5.981   9.008  -4.349  1.00  0.00     0.261 C 
BRANCH  27  28
ATOM     28  O   UNL     1      -6.683  10.221  -3.985  1.00  0.00    -0.460 OA
BRANCH  28  29
ATOM     29  C   UNL     1      -5.922  11.254  -3.521  1.00  0.00     0.338 C 
ATOM     30  O   UNL     1      -4.921  11.693  -4.065  1.00  0.00    -0.246 OA
BRANCH  29  31
ATOM     31  C   UNL     1      -6.306  11.585  -2.113  1.00  0.00     0.060 A 
ATOM     32  C   UNL     1      -5.496  12.437  -1.331  1.00  0.00     0.016 A 
ATOM     33  C   UNL     1      -7.241  10.769  -1.491  1.00  0.00     0.016 A 
ATOM     34  C   UNL     1      -5.490  12.322   0.073  1.00  0.00     0.010 A 
ATOM     35  C   UNL     1      -7.134  10.572  -0.132  1.00  0.00     0.010 A 
ATOM     36  C   UNL     1      -6.233  11.307   0.663  1.00  0.00    -0.014 A 
BRANCH  36  37
ATOM     37  C   UNL     1      -6.153  10.827   2.053  1.00  0.00     0.031 A 
ATOM     38  C   UNL     1      -7.418  10.824   2.824  1.00  0.00     0.074 A 
ATOM     39  C   UNL     1      -5.112  10.071   2.492  1.00  0.00     0.049 A 
ATOM     40  N   UNL     1      -7.530  10.377   4.022  1.00  0.00    -0.248 NA
ATOM     41  C   UNL     1      -8.680  11.367   2.317  1.00  0.00     0.031 C 
ATOM     42  C   UNL     1      -5.141   8.964   3.461  1.00  0.00     0.029 A 
ATOM     43  N   UNL     1      -3.767  10.100   2.118  1.00  0.00    -0.354 N 
ATOM     44  C   UNL     1      -8.867  10.228   4.292  1.00  0.00     0.074 A 
ATOM     45  C   UNL     1      -9.536  10.984   3.269  1.00  0.00     0.031 C 
ATOM     46  C   UNL     1      -3.888   8.607   3.794  1.00  0.00     0.029 A 
ATOM     47  C   UNL     1      -2.997   9.563   3.167  1.00  0.00     0.049 A 
ATOM     48  H   UNL     1      -3.415  10.439   1.263  1.00  0.00     0.167 HD
ATOM     49  C   UNL     1      -9.216   9.368   5.288  1.00  0.00     0.037 A 
ATOM     50  C   UNL     1      -2.034  10.316   3.761  1.00  0.00     0.037 A 
ATOM     51  C   UNL     1      -8.017   8.968   6.044  1.00  0.00     0.049 A 
ATOM     52  C   UNL     1      -2.467  10.574   5.175  1.00  0.00     0.074 A 
ATOM     53  C   UNL     1      -7.282   7.799   6.134  1.00  0.00     0.029 A 
ATOM     54  N   UNL     1      -7.220   9.970   6.606  1.00  0.00    -0.354 N 
ATOM     55  N   UNL     1      -3.718  10.502   5.545  1.00  0.00    -0.248 NA
ATOM     56  C   UNL     1      -1.562  10.790   6.296  1.00  0.00     0.031 C 
ATOM     57  C   UNL     1      -5.998   8.134   6.667  1.00  0.00     0.029 A 
ATOM     58  C   UNL     1      -5.967   9.496   6.942  1.00  0.00     0.049 A 
ATOM     59  H   UNL     1      -7.516  10.899   6.745  1.00  0.00     0.167 HD
ATOM     60  C   UNL     1      -3.797  10.546   6.900  1.00  0.00     0.074 A 
ATOM     61  C   UNL     1      -2.426  10.775   7.328  1.00  0.00     0.031 C 
ATOM     62  C   UNL     1      -4.974  10.374   7.566  1.00  0.00     0.037 A 
BRANCH  49  63
ATOM     63  C   UNL     1     -10.592   8.767   5.502  1.00  0.00     0.057 A 
ATOM     64  C   UNL     1     -10.821   7.905   6.594  1.00  0.00     0.134 A 
ATOM     65  C   UNL     1     -11.707   8.909   4.649  1.00  0.00     0.134 A 
ATOM     66  F   UNL     1      -9.859   7.640   7.488  1.00  0.00    -0.206 F 
ATOM     67  C   UNL     1     -12.046   7.256   6.818  1.00  0.00     0.040 A 
ATOM     68  C   UNL     1     -12.950   8.301   4.886  1.00  0.00     0.040 A 
ATOM     69  F   UNL     1     -11.661   9.598   3.506  1.00  0.00    -0.206 F 
ATOM     70  C   UNL     1     -13.123   7.462   5.971  1.00  0.00     0.006 A 
ENDBRANCH  49  63
BRANCH  50  71
ATOM     71  C   UNL     1      -1.389  11.223   2.761  1.00  0.00     0.057 A 
ATOM     72  C   UNL     1      -0.574  10.601   1.788  1.00  0.00     0.134 A 
ATOM     73  C   UNL     1      -1.996  12.429   2.386  1.00  0.00     0.134 A 
ATOM     74  F   UNL     1       0.033   9.434   2.066  1.00  0.00    -0.206 F 
ATOM     75  C   UNL     1      -0.510  11.056   0.465  1.00  0.00     0.040 A 
ATOM     76  C   UNL     1      -1.944  12.887   1.059  1.00  0.00     0.040 A 
ATOM     77  F   UNL     1      -2.800  13.078   3.239  1.00  0.00    -0.206 F 
ATOM     78  C   UNL     1      -1.245  12.174   0.085  1.00  0.00     0.006 A 
ENDBRANCH  50  71
BRANCH  62  79
ATOM     79  C   UNL     1      -5.247  10.986   8.913  1.00  0.00     0.057 A 
ATOM     80  C   UNL     1      -4.511  12.061   9.439  1.00  0.00     0.134 A 
ATOM     81  C   UNL     1      -6.394  10.631   9.653  1.00  0.00     0.134 A 
ATOM     82  F   UNL     1      -3.486  12.615   8.777  1.00  0.00    -0.206 F 
ATOM     83  C   UNL     1      -4.832  12.671  10.653  1.00  0.00     0.040 A 
ATOM     84  C   UNL     1      -6.768  11.285  10.828  1.00  0.00     0.040 A 
ATOM     85  F   UNL     1      -7.229   9.661   9.254  1.00  0.00    -0.206 F 
ATOM     86  C   UNL     1      -5.971  12.291  11.347  1.00  0.00     0.006 A 
ENDBRANCH  62  79
ENDBRANCH  36  37
ENDBRANCH  29  31
ENDBRANCH  28  29
ENDBRANCH  27  28
ENDBRANCH  26  27
ENDBRANCH  25  26
ENDBRANCH   1  25
TORSDOF 18
