REMARK SMILES O=C(OCCOCCOC(=O)[C@H]1[C@H]2CC[C@H](C2)[C@@H]1C(=O)Nc1sc2c(c1C(=O)NC1CCCCC1)CCCC2)c1ccc(-c2c3nc(c(-c4c(F)cccc4F)c4ccc([nH]4)c(-c4c(F)cccc4F)c4nc(c(-c5c(F)cccc5F)c5ccc2[nH]5)C=C4)C=C3)cc1
REMARK SMILES IDX 7 1 6 2 5 3 4 4 3 5 2 6 1 7 40 8 41 9 93 10 42 11 92 12
REMARK SMILES IDX 43 13 44 14 45 15 86 16 46 17 91 18 85 19 87 20 47 21 90 22
REMARK SMILES IDX 84 23 83 24 48 26 74 27 57 28 73 29 58 30 61 31 72 32 88 33
REMARK SMILES IDX 59 34 60 35 71 37 89 38 62 39 49 40 50 41 55 42 51 43 52 44
REMARK SMILES IDX 54 45 56 46 53 47 75 48 76 49 81 50 77 51 78 52 80 53 82 54
REMARK SMILES IDX 79 55 63 56 64 57 69 58 65 59 66 60 68 61 70 62 67 63 8 64
REMARK SMILES IDX 9 65 10 66 11 67 12 68 13 69 18 70 14 71 17 72 16 73 15 74
REMARK SMILES IDX 19 75 20 76 21 77 22 79 23 80 26 81 24 82 25 83 39 84 36 85
REMARK SMILES IDX 38 86 37 87 27 88 28 89 29 90 30 92 31 93 35 94 32 95 34 96
REMARK SMILES IDX 33 97
REMARK H PARENT 87 25 61 36 21 78 29 91
REMARK Flexibility Score: inf
ROOT
ATOM      1  C   UNL     1       7.072   2.216  -4.657  1.00  0.00     0.202 C 
ENDROOT
BRANCH   1   2
ATOM      2  O   UNL     1       7.631   0.907  -4.634  1.00  0.00    -0.374 OA
BRANCH   2   3
ATOM      3  C   UNL     1       7.521   0.217  -3.386  1.00  0.00     0.202 C 
BRANCH   3   4
ATOM      4  C   UNL     1       8.752   0.320  -2.483  1.00  0.00     0.261 C 
BRANCH   4   5
ATOM      5  O   UNL     1       9.198   1.677  -2.375  1.00  0.00    -0.460 OA
BRANCH   5   6
ATOM      6  C   UNL     1       9.954   2.341  -3.282  1.00  0.00     0.338 C 
ATOM      7  O   UNL     1      10.050   3.564  -3.192  1.00  0.00    -0.246 OA
BRANCH   6   8
ATOM      8  C   UNL     1      10.751   1.653  -4.344  1.00  0.00     0.060 A 
ATOM      9  C   UNL     1      10.387   0.476  -5.000  1.00  0.00     0.016 A 
ATOM     10  C   UNL     1      11.938   2.288  -4.745  1.00  0.00     0.016 A 
ATOM     11  C   UNL     1      11.175  -0.090  -5.977  1.00  0.00     0.010 A 
ATOM     12  C   UNL     1      12.741   1.735  -5.745  1.00  0.00     0.010 A 
ATOM     13  C   UNL     1      12.361   0.530  -6.341  1.00  0.00    -0.014 A 
BRANCH  13  14
ATOM     14  C   UNL     1      13.246  -0.255  -7.205  1.00  0.00     0.031 A 
ATOM     15  C   UNL     1      14.367  -0.991  -6.545  1.00  0.00     0.074 A 
ATOM     16  C   UNL     1      12.889  -0.467  -8.483  1.00  0.00     0.049 A 
ATOM     17  N   UNL     1      15.279  -1.755  -7.074  1.00  0.00    -0.248 NA
ATOM     18  C   UNL     1      14.458  -0.866  -5.078  1.00  0.00     0.031 C 
ATOM     19  C   UNL     1      11.688   0.076  -9.125  1.00  0.00     0.029 A 
ATOM     20  N   UNL     1      13.466  -1.238  -9.450  1.00  0.00    -0.354 N 
ATOM     21  C   UNL     1      16.079  -2.161  -6.015  1.00  0.00     0.074 A 
ATOM     22  C   UNL     1      15.545  -1.570  -4.811  1.00  0.00     0.031 C 
ATOM     23  C   UNL     1      11.606  -0.403 -10.376  1.00  0.00     0.029 A 
ATOM     24  C   UNL     1      12.785  -1.216 -10.642  1.00  0.00     0.049 A 
ATOM     25  H   UNL     1      14.289  -1.758  -9.307  1.00  0.00     0.167 HD
ATOM     26  C   UNL     1      17.175  -2.950  -6.065  1.00  0.00     0.037 A 
ATOM     27  C   UNL     1      13.117  -1.771 -11.820  1.00  0.00     0.037 A 
ATOM     28  C   UNL     1      17.656  -3.524  -7.291  1.00  0.00     0.049 A 
ATOM     29  C   UNL     1      14.400  -2.554 -11.871  1.00  0.00     0.074 A 
ATOM     30  C   UNL     1      18.792  -4.277  -7.512  1.00  0.00     0.029 A 
ATOM     31  N   UNL     1      17.006  -3.400  -8.515  1.00  0.00    -0.354 N 
ATOM     32  N   UNL     1      15.226  -2.853 -10.893  1.00  0.00    -0.248 NA
ATOM     33  C   UNL     1      14.810  -3.061 -13.183  1.00  0.00     0.031 C 
ATOM     34  C   UNL     1      18.855  -4.564  -8.880  1.00  0.00     0.029 A 
ATOM     35  C   UNL     1      17.725  -4.047  -9.501  1.00  0.00     0.049 A 
ATOM     36  H   UNL     1      16.158  -2.921  -8.657  1.00  0.00     0.167 HD
ATOM     37  C   UNL     1      16.239  -3.608 -11.464  1.00  0.00     0.074 A 
ATOM     38  C   UNL     1      15.911  -3.731 -12.873  1.00  0.00     0.031 C 
ATOM     39  C   UNL     1      17.340  -4.151 -10.888  1.00  0.00     0.037 A 
BRANCH  26  40
ATOM     40  C   UNL     1      17.947  -3.123  -4.791  1.00  0.00     0.057 A 
ATOM     41  C   UNL     1      17.463  -3.863  -3.705  1.00  0.00     0.134 A 
ATOM     42  C   UNL     1      19.176  -2.470  -4.628  1.00  0.00     0.134 A 
ATOM     43  F   UNL     1      16.275  -4.482  -3.778  1.00  0.00    -0.206 F 
ATOM     44  C   UNL     1      18.156  -3.920  -2.492  1.00  0.00     0.040 A 
ATOM     45  C   UNL     1      19.892  -2.542  -3.432  1.00  0.00     0.040 A 
ATOM     46  F   UNL     1      19.693  -1.732  -5.622  1.00  0.00    -0.206 F 
ATOM     47  C   UNL     1      19.376  -3.260  -2.355  1.00  0.00     0.006 A 
ENDBRANCH  26  40
BRANCH  27  48
ATOM     48  C   UNL     1      12.275  -1.558 -13.025  1.00  0.00     0.057 A 
ATOM     49  C   UNL     1      11.645  -2.624 -13.677  1.00  0.00     0.134 A 
ATOM     50  C   UNL     1      12.095  -0.279 -13.571  1.00  0.00     0.134 A 
ATOM     51  F   UNL     1      11.787  -3.876 -13.217  1.00  0.00    -0.206 F 
ATOM     52  C   UNL     1      10.887  -2.431 -14.835  1.00  0.00     0.040 A 
ATOM     53  C   UNL     1      11.316  -0.067 -14.710  1.00  0.00     0.040 A 
ATOM     54  F   UNL     1      12.668   0.790 -12.999  1.00  0.00    -0.206 F 
ATOM     55  C   UNL     1      10.718  -1.148 -15.352  1.00  0.00     0.006 A 
ENDBRANCH  27  48
BRANCH  39  56
ATOM     56  C   UNL     1      18.222  -4.973 -11.777  1.00  0.00     0.057 A 
ATOM     57  C   UNL     1      19.031  -4.396 -12.762  1.00  0.00     0.134 A 
ATOM     58  C   UNL     1      18.283  -6.363 -11.612  1.00  0.00     0.134 A 
ATOM     59  F   UNL     1      19.004  -3.071 -12.976  1.00  0.00    -0.206 F 
ATOM     60  C   UNL     1      19.850  -5.178 -13.576  1.00  0.00     0.040 A 
ATOM     61  C   UNL     1      19.123  -7.150 -12.396  1.00  0.00     0.040 A 
ATOM     62  F   UNL     1      17.540  -6.972 -10.676  1.00  0.00    -0.206 F 
ATOM     63  C   UNL     1      19.903  -6.558 -13.387  1.00  0.00     0.006 A 
ENDBRANCH  39  56
ENDBRANCH  13  14
ENDBRANCH   6   8
ENDBRANCH   5   6
ENDBRANCH   4   5
ENDBRANCH   3   4
ENDBRANCH   2   3
ENDBRANCH   1   2
BRANCH   1  64
ATOM     64  C   UNL     1       5.678   2.205  -5.277  1.00  0.00     0.261 C 
BRANCH  64  65
ATOM     65  O   UNL     1       4.837   1.246  -4.606  1.00  0.00    -0.463 OA
BRANCH  65  66
ATOM     66  C   UNL     1       4.884  -0.006  -5.144  1.00  0.00     0.310 C 
ATOM     67  O   UNL     1       5.493  -0.292  -6.171  1.00  0.00    -0.252 OA
BRANCH  66  68
ATOM     68  C   UNL     1       4.048  -0.978  -4.336  1.00  0.00     0.115 C 
ATOM     69  C   UNL     1       3.368  -1.993  -5.310  1.00  0.00     0.004 C 
ATOM     70  C   UNL     1       4.784  -1.922  -3.359  1.00  0.00     0.096 C 
ATOM     71  C   UNL     1       4.333  -2.958  -6.035  1.00  0.00     0.005 C 
ATOM     72  C   UNL     1       2.798  -2.960  -4.299  1.00  0.00     0.009 C 
ATOM     73  C   UNL     1       4.148  -3.299  -3.667  1.00  0.00     0.003 C 
ATOM     74  C   UNL     1       4.862  -3.865  -4.910  1.00  0.00     0.005 C 
BRANCH  70  75
ATOM     75  C   UNL     1       4.966  -1.576  -1.859  1.00  0.00     0.229 C 
ATOM     76  O   UNL     1       6.130  -1.540  -1.423  1.00  0.00    -0.274 OA
ATOM     77  N   UNL     1       3.997  -1.287  -0.947  1.00  0.00    -0.317 N 
ATOM     78  H   UNL     1       4.287  -1.150  -0.016  1.00  0.00     0.170 HD
BRANCH  77  79
ATOM     79  C   UNL     1       2.663  -1.168  -1.203  1.00  0.00     0.108 A 
ATOM     80  S   UNL     1       1.750  -2.608  -1.104  1.00  0.00    -0.122 S 
ATOM     81  C   UNL     1       1.806  -0.073  -1.128  1.00  0.00     0.078 A 
ATOM     82  C   UNL     1       0.530  -1.830  -2.008  1.00  0.00     0.011 A 
ATOM     83  C   UNL     1       0.691  -0.443  -1.998  1.00  0.00    -0.019 A 
ATOM     84  C   UNL     1      -0.450  -2.625  -2.823  1.00  0.00     0.047 C 
ATOM     85  C   UNL     1      -0.136   0.373  -2.962  1.00  0.00     0.037 C 
ATOM     86  C   UNL     1      -1.082  -1.752  -3.915  1.00  0.00     0.006 C 
ATOM     87  C   UNL     1      -1.421  -0.366  -3.371  1.00  0.00     0.005 C 
BRANCH  81  88
ATOM     88  C   UNL     1       2.272   1.161  -0.465  1.00  0.00     0.254 C 
ATOM     89  O   UNL     1       3.474   1.373  -0.285  1.00  0.00    -0.269 OA
ATOM     90  N   UNL     1       1.405   2.042   0.143  1.00  0.00    -0.349 N 
ATOM     91  H   UNL     1       1.821   2.695   0.751  1.00  0.00     0.164 HD
BRANCH  90  92
ATOM     92  C   UNL     1      -0.024   2.141   0.014  1.00  0.00     0.082 C 
ATOM     93  C   UNL     1      -0.820   1.069   0.753  1.00  0.00     0.025 C 
ATOM     94  C   UNL     1      -0.594   3.525   0.327  1.00  0.00     0.025 C 
ATOM     95  C   UNL     1      -2.265   1.087   0.254  1.00  0.00     0.002 C 
ATOM     96  C   UNL     1      -2.026   3.587  -0.216  1.00  0.00     0.002 C 
ATOM     97  C   UNL     1      -2.906   2.471   0.354  1.00  0.00     0.000 C 
ENDBRANCH  90  92
ENDBRANCH  81  88
ENDBRANCH  77  79
ENDBRANCH  70  75
ENDBRANCH  66  68
ENDBRANCH  65  66
ENDBRANCH  64  65
ENDBRANCH   1  64
TORSDOF 18
