REMARK SMILES CC/C=C/C/C=C/C/C=C/C/C=C/CC/C=C/COCC(=O)OCCOCCOC(=O)c1ccc(-c2c3nc(c(-c4c(F)cccc4F)c4ccc([nH]4)c(-c4c(F)cccc4F)c4nc(c(-c5c(F)cccc5F)c5ccc2[nH]5)C=C4)C=C3)cc1
REMARK SMILES IDX 20 1 19 2 18 3 17 4 16 5 15 6 14 7 13 8 12 9 11 10 10 11
REMARK SMILES IDX 9 12 8 13 7 14 6 15 5 16 4 17 3 18 2 19 1 20 21 21 22 22
REMARK SMILES IDX 23 23 24 24 25 25 26 26 27 27 28 28 29 29 30 30 31 31 32 32
REMARK SMILES IDX 33 33 85 34 34 35 84 36 35 37 36 38 37 39 78 40 38 41 83 42
REMARK SMILES IDX 77 43 79 44 39 45 82 46 76 47 75 48 40 50 66 51 49 52 65 53
REMARK SMILES IDX 50 54 53 55 64 56 80 57 51 58 52 59 63 61 81 62 54 63 41 64
REMARK SMILES IDX 42 65 47 66 43 67 44 68 46 69 48 70 45 71 67 72 68 73 73 74
REMARK SMILES IDX 69 75 70 76 72 77 74 78 71 79 55 80 56 81 61 82 57 83 58 84
REMARK SMILES IDX 60 85 62 86 59 87
REMARK H PARENT 79 49 53 60
REMARK Flexibility Score: inf
ROOT
ATOM      1  C   UNL     1     -10.443 -11.971  -6.177  1.00  0.00     0.283 C 
ENDROOT
BRANCH   1   2
ATOM      2  O   UNL     1      -9.931 -13.078  -6.894  1.00  0.00    -0.366 OA
BRANCH   2   3
ATOM      3  C   UNL     1      -8.525 -13.114  -7.120  1.00  0.00     0.188 C 
BRANCH   3   4
ATOM      4  C   UNL     1      -7.972 -11.836  -7.684  1.00  0.00    -0.003 C 
ATOM      5  C   UNL     1      -6.898 -11.195  -7.192  1.00  0.00    -0.029 C 
BRANCH   5   6
ATOM      6  C   UNL     1      -6.343  -9.897  -7.714  1.00  0.00     0.031 C 
BRANCH   6   7
ATOM      7  C   UNL     1      -6.732  -8.675  -6.867  1.00  0.00     0.031 C 
BRANCH   7   8
ATOM      8  C   UNL     1      -6.213  -8.697  -5.453  1.00  0.00    -0.031 C 
ATOM      9  C   UNL     1      -5.334  -7.815  -4.949  1.00  0.00    -0.027 C 
BRANCH   9  10
ATOM     10  C   UNL     1      -4.868  -7.812  -3.518  1.00  0.00     0.054 C 
BRANCH  10  11
ATOM     11  C   UNL     1      -3.368  -7.801  -3.434  1.00  0.00    -0.027 C 
ATOM     12  C   UNL     1      -2.655  -6.837  -2.826  1.00  0.00    -0.027 C 
BRANCH  12  13
ATOM     13  C   UNL     1      -1.154  -6.808  -2.754  1.00  0.00     0.054 C 
BRANCH  13  14
ATOM     14  C   UNL     1      -0.613  -5.577  -3.422  1.00  0.00    -0.027 C 
ATOM     15  C   UNL     1       0.155  -4.659  -2.812  1.00  0.00    -0.027 C 
BRANCH  15  16
ATOM     16  C   UNL     1       0.679  -3.419  -3.480  1.00  0.00     0.054 C 
BRANCH  16  17
ATOM     17  C   UNL     1       0.211  -2.185  -2.763  1.00  0.00    -0.027 C 
ATOM     18  C   UNL     1       1.032  -1.279  -2.207  1.00  0.00    -0.031 C 
BRANCH  18  19
ATOM     19  C   UNL     1       0.557  -0.051  -1.486  1.00  0.00     0.023 C 
ATOM     20  C   UNL     1       1.036  -0.040  -0.042  1.00  0.00     0.008 C 
ENDBRANCH  18  19
ENDBRANCH  16  17
ENDBRANCH  15  16
ENDBRANCH  13  14
ENDBRANCH  12  13
ENDBRANCH  10  11
ENDBRANCH   9  10
ENDBRANCH   7   8
ENDBRANCH   6   7
ENDBRANCH   5   6
ENDBRANCH   3   4
ENDBRANCH   2   3
ENDBRANCH   1   2
BRANCH   1  21
ATOM     21  C   UNL     1     -10.049 -11.637  -4.734  1.00  0.00     0.332 C 
ATOM     22  O   UNL     1      -9.942 -10.486  -4.327  1.00  0.00    -0.250 OA
BRANCH  21  23
ATOM     23  O   UNL     1      -9.918 -12.751  -3.962  1.00  0.00    -0.462 OA
BRANCH  23  24
ATOM     24  C   UNL     1      -9.712 -12.522  -2.551  1.00  0.00     0.261 C 
BRANCH  24  25
ATOM     25  C   UNL     1      -8.375 -13.090  -2.069  1.00  0.00     0.202 C 
BRANCH  25  26
ATOM     26  O   UNL     1      -7.219 -12.312  -2.388  1.00  0.00    -0.374 OA
BRANCH  26  27
ATOM     27  C   UNL     1      -6.770 -12.379  -3.737  1.00  0.00     0.202 C 
BRANCH  27  28
ATOM     28  C   UNL     1      -5.839 -13.549  -4.069  1.00  0.00     0.261 C 
BRANCH  28  29
ATOM     29  O   UNL     1      -6.466 -14.808  -3.789  1.00  0.00    -0.460 OA
BRANCH  29  30
ATOM     30  C   UNL     1      -5.937 -15.446  -2.720  1.00  0.00     0.338 C 
ATOM     31  O   UNL     1      -4.909 -15.170  -2.126  1.00  0.00    -0.246 OA
BRANCH  30  32
ATOM     32  C   UNL     1      -6.872 -16.468  -2.221  1.00  0.00     0.060 A 
ATOM     33  C   UNL     1      -7.100 -16.475  -0.842  1.00  0.00     0.016 A 
ATOM     34  C   UNL     1      -7.431 -17.448  -3.046  1.00  0.00     0.016 A 
ATOM     35  C   UNL     1      -7.793 -17.528  -0.262  1.00  0.00     0.010 A 
ATOM     36  C   UNL     1      -8.133 -18.508  -2.461  1.00  0.00     0.010 A 
ATOM     37  C   UNL     1      -8.252 -18.584  -1.062  1.00  0.00    -0.014 A 
BRANCH  37  38
ATOM     38  C   UNL     1      -8.624 -19.846  -0.381  1.00  0.00     0.031 A 
ATOM     39  C   UNL     1      -7.597 -20.944  -0.296  1.00  0.00     0.074 A 
ATOM     40  C   UNL     1      -9.796 -19.956   0.268  1.00  0.00     0.049 A 
ATOM     41  N   UNL     1      -7.645 -22.079   0.353  1.00  0.00    -0.248 NA
ATOM     42  C   UNL     1      -6.341 -20.730  -1.035  1.00  0.00     0.031 C 
ATOM     43  C   UNL     1     -10.846 -18.940   0.294  1.00  0.00     0.029 A 
ATOM     44  N   UNL     1     -10.282 -20.968   1.055  1.00  0.00    -0.354 N 
ATOM     45  C   UNL     1      -6.431 -22.707   0.105  1.00  0.00     0.074 A 
ATOM     46  C   UNL     1      -5.683 -21.852  -0.788  1.00  0.00     0.031 C 
ATOM     47  C   UNL     1     -11.851 -19.375   1.074  1.00  0.00     0.029 A 
ATOM     48  C   UNL     1     -11.520 -20.703   1.586  1.00  0.00     0.049 A 
ATOM     49  H   UNL     1      -9.791 -21.805   1.223  1.00  0.00     0.167 HD
ATOM     50  C   UNL     1      -5.969 -23.882   0.593  1.00  0.00     0.037 A 
ATOM     51  C   UNL     1     -12.293 -21.451   2.396  1.00  0.00     0.037 A 
ATOM     52  C   UNL     1      -6.709 -24.730   1.488  1.00  0.00     0.049 A 
ATOM     53  C   UNL     1     -11.779 -22.780   2.881  1.00  0.00     0.074 A 
ATOM     54  C   UNL     1      -6.331 -25.939   2.044  1.00  0.00     0.029 A 
ATOM     55  N   UNL     1      -7.984 -24.453   1.958  1.00  0.00    -0.354 N 
ATOM     56  N   UNL     1     -10.621 -23.355   2.655  1.00  0.00    -0.248 NA
ATOM     57  C   UNL     1     -12.677 -23.560   3.744  1.00  0.00     0.031 C 
ATOM     58  C   UNL     1      -7.396 -26.414   2.817  1.00  0.00     0.029 A 
ATOM     59  C   UNL     1      -8.417 -25.478   2.781  1.00  0.00     0.049 A 
ATOM     60  H   UNL     1      -8.504 -23.646   1.739  1.00  0.00     0.167 HD
ATOM     61  C   UNL     1     -10.643 -24.549   3.364  1.00  0.00     0.074 A 
ATOM     62  C   UNL     1     -11.921 -24.606   4.044  1.00  0.00     0.031 C 
ATOM     63  C   UNL     1      -9.694 -25.514   3.446  1.00  0.00     0.037 A 
BRANCH  50  64
ATOM     64  C   UNL     1      -4.606 -24.324   0.147  1.00  0.00     0.057 A 
ATOM     65  C   UNL     1      -3.438 -23.697   0.601  1.00  0.00     0.134 A 
ATOM     66  C   UNL     1      -4.459 -25.397  -0.741  1.00  0.00     0.134 A 
ATOM     67  F   UNL     1      -3.510 -22.650   1.437  1.00  0.00    -0.206 F 
ATOM     68  C   UNL     1      -2.175 -24.107   0.172  1.00  0.00     0.040 A 
ATOM     69  C   UNL     1      -3.201 -25.832  -1.158  1.00  0.00     0.040 A 
ATOM     70  F   UNL     1      -5.537 -26.041  -1.214  1.00  0.00    -0.206 F 
ATOM     71  C   UNL     1      -2.054 -25.183  -0.707  1.00  0.00     0.006 A 
ENDBRANCH  50  64
BRANCH  51  72
ATOM     72  C   UNL     1     -13.633 -20.962   2.804  1.00  0.00     0.057 A 
ATOM     73  C   UNL     1     -13.906 -20.597   4.127  1.00  0.00     0.134 A 
ATOM     74  C   UNL     1     -14.682 -20.873   1.881  1.00  0.00     0.134 A 
ATOM     75  F   UNL     1     -12.948 -20.681   5.062  1.00  0.00    -0.206 F 
ATOM     76  C   UNL     1     -15.178 -20.179   4.523  1.00  0.00     0.040 A 
ATOM     77  C   UNL     1     -15.952 -20.434   2.257  1.00  0.00     0.040 A 
ATOM     78  F   UNL     1     -14.485 -21.209   0.598  1.00  0.00    -0.206 F 
ATOM     79  C   UNL     1     -16.204 -20.092   3.584  1.00  0.00     0.006 A 
ENDBRANCH  51  72
BRANCH  63  80
ATOM     80  C   UNL     1      -9.998 -26.697   4.319  1.00  0.00     0.057 A 
ATOM     81  C   UNL     1     -10.940 -27.665   3.949  1.00  0.00     0.134 A 
ATOM     82  C   UNL     1      -9.326 -26.878   5.535  1.00  0.00     0.134 A 
ATOM     83  F   UNL     1     -11.625 -27.543   2.802  1.00  0.00    -0.206 F 
ATOM     84  C   UNL     1     -11.226 -28.755   4.772  1.00  0.00     0.040 A 
ATOM     85  C   UNL     1      -9.584 -27.978   6.353  1.00  0.00     0.040 A 
ATOM     86  F   UNL     1      -8.404 -25.993   5.943  1.00  0.00    -0.206 F 
ATOM     87  C   UNL     1     -10.543 -28.916   5.976  1.00  0.00     0.006 A 
ENDBRANCH  63  80
ENDBRANCH  37  38
ENDBRANCH  30  32
ENDBRANCH  29  30
ENDBRANCH  28  29
ENDBRANCH  27  28
ENDBRANCH  26  27
ENDBRANCH  25  26
ENDBRANCH  24  25
ENDBRANCH  23  24
ENDBRANCH  21  23
ENDBRANCH   1  21
TORSDOF 27
