REMARK SMILES CS(=O)(=O)c1ccc(C2=NN(c3ccc(C(=O)OCCOCCOC(=O)c4ccc(-c5c6nc(c(-c7c(F)cccc7F)c7ccc([nH]7)c(-c7c(F)cccc7F)c7nc(c(-c8c(F)cccc8F)c8ccc5[nH]8)C=C7)C=C6)cc4)cc3)[C@H](c3ccc(Cl)cc3)C2)cc1
REMARK SMILES IDX 20 1 19 2 18 3 16 4 17 5 15 6 12 7 13 8 82 9 14 10 81 11
REMARK SMILES IDX 11 12 9 13 10 14 91 15 83 16 8 17 5 18 6 19 93 20 7 21 92 22
REMARK SMILES IDX 2 23 1 24 3 25 4 26 84 27 85 28 90 29 86 30 89 31 87 32
REMARK SMILES IDX 88 33 21 34 22 35 23 36 24 37 25 38 26 39 27 40 28 41 80 42
REMARK SMILES IDX 29 43 79 44 30 45 31 46 32 47 73 48 33 49 78 50 72 51 74 52
REMARK SMILES IDX 34 53 77 54 71 55 70 56 35 58 61 59 44 60 60 61 45 62 48 63
REMARK SMILES IDX 59 64 75 65 46 66 47 67 58 69 76 70 49 71 36 72 37 73 42 74
REMARK SMILES IDX 38 75 39 76 41 77 43 78 40 79 62 80 63 81 68 82 64 83 65 84
REMARK SMILES IDX 67 85 69 86 66 87 50 88 51 89 56 90 52 91 53 92 55 93 57 94
REMARK SMILES IDX 54 95
REMARK H PARENT 74 57 48 68
REMARK Flexibility Score: inf
ROOT
ATOM      1  C   UNL     1      -2.027 -14.506  -7.460  1.00  0.00     0.202 C 
ENDROOT
BRANCH   1   2
ATOM      2  C   UNL     1      -0.515 -14.332  -7.621  1.00  0.00     0.261 C 
BRANCH   2   3
ATOM      3  O   UNL     1      -0.009 -13.410  -6.643  1.00  0.00    -0.460 OA
BRANCH   3   4
ATOM      4  C   UNL     1       0.485 -12.251  -7.134  1.00  0.00     0.338 C 
ATOM      5  O   UNL     1       0.690 -11.989  -8.312  1.00  0.00    -0.246 OA
BRANCH   4   6
ATOM      6  C   UNL     1       0.674 -11.259  -6.047  1.00  0.00     0.060 A 
ATOM      7  C   UNL     1       1.276  -9.319  -4.111  1.00  0.00     0.060 A 
ATOM      8  C   UNL     1       1.108  -8.950  -5.448  1.00  0.00     0.029 A 
ATOM      9  C   UNL     1       1.018 -10.645  -3.736  1.00  0.00     0.029 A 
ATOM     10  C   UNL     1       0.815  -9.914  -6.413  1.00  0.00     0.018 A 
ATOM     11  C   UNL     1       0.727 -11.617  -4.696  1.00  0.00     0.018 A 
BRANCH   7  12
ATOM     12  N   UNL     1       1.866  -8.449  -3.191  1.00  0.00    -0.257 N 
ATOM     13  C   UNL     1       2.050  -6.473  -2.412  1.00  0.00     0.071 C 
ATOM     14  N   UNL     1       1.174  -7.378  -2.726  1.00  0.00    -0.176 NA
ATOM     15  C   UNL     1       3.473  -6.788  -2.787  1.00  0.00     0.091 C 
ATOM     16  C   UNL     1       3.320  -8.235  -3.268  1.00  0.00     0.144 C 
BRANCH  13  17
ATOM     17  C   UNL     1       1.690  -5.216  -1.725  1.00  0.00    -0.002 A 
ATOM     18  C   UNL     1       1.004  -2.919  -0.294  1.00  0.00     0.067 A 
ATOM     19  C   UNL     1       0.259  -4.092  -0.127  1.00  0.00     0.021 A 
ATOM     20  C   UNL     1       2.079  -2.882  -1.187  1.00  0.00     0.021 A 
ATOM     21  C   UNL     1       0.600  -5.237  -0.847  1.00  0.00     0.011 A 
ATOM     22  C   UNL     1       2.425  -4.038  -1.900  1.00  0.00     0.011 A 
BRANCH  18  23
ATOM     23  S   UNL     1       0.529  -1.504   0.675  1.00  0.00     0.175 S 
ATOM     24  C   UNL     1       1.099  -0.066  -0.183  1.00  0.00     0.163 C 
ATOM     25  O   UNL     1       1.264  -1.603   1.921  1.00  0.00    -0.224 OA
ATOM     26  O   UNL     1      -0.921  -1.458   0.657  1.00  0.00    -0.224 OA
ENDBRANCH  18  23
ENDBRANCH  13  17
BRANCH  16  27
ATOM     27  C   UNL     1       4.045  -9.338  -2.505  1.00  0.00    -0.023 A 
ATOM     28  C   UNL     1       4.441  -9.229  -1.165  1.00  0.00     0.007 A 
ATOM     29  C   UNL     1       4.249 -10.575  -3.154  1.00  0.00     0.007 A 
ATOM     30  C   UNL     1       5.014 -10.319  -0.497  1.00  0.00     0.021 A 
ATOM     31  C   UNL     1       4.784 -11.673  -2.479  1.00  0.00     0.021 A 
ATOM     32  C   UNL     1       5.167 -11.539  -1.151  1.00  0.00     0.041 A 
ATOM     33  Cl  UNL     1       5.814 -12.891  -0.308  1.00  0.00    -0.084 Cl
ENDBRANCH  16  27
ENDBRANCH   7  12
ENDBRANCH   4   6
ENDBRANCH   3   4
ENDBRANCH   2   3
ENDBRANCH   1   2
BRANCH   1  34
ATOM     34  O   UNL     1      -2.821 -13.365  -7.790  1.00  0.00    -0.374 OA
BRANCH  34  35
ATOM     35  C   UNL     1      -2.911 -12.327  -6.814  1.00  0.00     0.202 C 
BRANCH  35  36
ATOM     36  C   UNL     1      -3.925 -12.545  -5.686  1.00  0.00     0.261 C 
BRANCH  36  37
ATOM     37  O   UNL     1      -3.586 -13.678  -4.866  1.00  0.00    -0.460 OA
BRANCH  37  38
ATOM     38  C   UNL     1      -4.380 -14.757  -5.045  1.00  0.00     0.338 C 
ATOM     39  O   UNL     1      -5.378 -14.835  -5.751  1.00  0.00    -0.246 OA
BRANCH  38  40
ATOM     40  C   UNL     1      -3.803 -15.939  -4.379  1.00  0.00     0.060 A 
ATOM     41  C   UNL     1      -3.735 -17.123  -5.123  1.00  0.00     0.016 A 
ATOM     42  C   UNL     1      -3.418 -15.922  -3.035  1.00  0.00     0.016 A 
ATOM     43  C   UNL     1      -3.350 -18.312  -4.509  1.00  0.00     0.010 A 
ATOM     44  C   UNL     1      -3.035 -17.119  -2.419  1.00  0.00     0.010 A 
ATOM     45  C   UNL     1      -3.043 -18.325  -3.142  1.00  0.00    -0.014 A 
BRANCH  45  46
ATOM     46  C   UNL     1      -2.895 -19.629  -2.451  1.00  0.00     0.031 A 
ATOM     47  C   UNL     1      -4.064 -20.185  -1.684  1.00  0.00     0.074 A 
ATOM     48  C   UNL     1      -1.755 -20.336  -2.550  1.00  0.00     0.049 A 
ATOM     49  N   UNL     1      -4.165 -21.311  -1.025  1.00  0.00    -0.248 NA
ATOM     50  C   UNL     1      -5.283 -19.361  -1.657  1.00  0.00     0.031 C 
ATOM     51  C   UNL     1      -0.566 -19.921  -3.291  1.00  0.00     0.029 A 
ATOM     52  N   UNL     1      -1.418 -21.557  -2.024  1.00  0.00    -0.354 N 
ATOM     53  C   UNL     1      -5.453 -21.330  -0.505  1.00  0.00     0.074 A 
ATOM     54  C   UNL     1      -6.086 -20.089  -0.896  1.00  0.00     0.031 C 
ATOM     55  C   UNL     1       0.376 -20.873  -3.169  1.00  0.00     0.029 A 
ATOM     56  C   UNL     1      -0.138 -21.950  -2.325  1.00  0.00     0.049 A 
ATOM     57  H   UNL     1      -2.035 -22.099  -1.481  1.00  0.00     0.167 HD
ATOM     58  C   UNL     1      -6.059 -22.299   0.221  1.00  0.00     0.037 A 
ATOM     59  C   UNL     1       0.544 -23.050  -1.951  1.00  0.00     0.037 A 
ATOM     60  C   UNL     1      -5.433 -23.535   0.607  1.00  0.00     0.049 A 
ATOM     61  C   UNL     1      -0.133 -24.087  -1.096  1.00  0.00     0.074 A 
ATOM     62  C   UNL     1      -5.971 -24.587   1.328  1.00  0.00     0.029 A 
ATOM     63  N   UNL     1      -4.125 -23.883   0.307  1.00  0.00    -0.354 N 
ATOM     64  N   UNL     1      -1.360 -24.108  -0.636  1.00  0.00    -0.248 NA
ATOM     65  C   UNL     1       0.670 -25.258  -0.714  1.00  0.00     0.031 C 
ATOM     66  C   UNL     1      -4.974 -25.554   1.500  1.00  0.00     0.029 A 
ATOM     67  C   UNL     1      -3.831 -25.125   0.846  1.00  0.00     0.049 A 
ATOM     68  H   UNL     1      -3.498 -23.330  -0.213  1.00  0.00     0.167 HD
ATOM     69  C   UNL     1      -1.487 -25.304   0.061  1.00  0.00     0.074 A 
ATOM     70  C   UNL     1      -0.213 -25.985  -0.043  1.00  0.00     0.031 C 
ATOM     71  C   UNL     1      -2.562 -25.795   0.725  1.00  0.00     0.037 A 
BRANCH  58  72
ATOM     72  C   UNL     1      -7.471 -22.049   0.662  1.00  0.00     0.057 A 
ATOM     73  C   UNL     1      -8.544 -22.089  -0.238  1.00  0.00     0.134 A 
ATOM     74  C   UNL     1      -7.764 -21.794   2.007  1.00  0.00     0.134 A 
ATOM     75  F   UNL     1      -8.329 -22.314  -1.543  1.00  0.00    -0.206 F 
ATOM     76  C   UNL     1      -9.857 -21.863   0.182  1.00  0.00     0.040 A 
ATOM     77  C   UNL     1      -9.074 -21.590   2.443  1.00  0.00     0.040 A 
ATOM     78  F   UNL     1      -6.783 -21.746   2.921  1.00  0.00    -0.206 F 
ATOM     79  C   UNL     1     -10.124 -21.619   1.528  1.00  0.00     0.006 A 
ENDBRANCH  58  72
BRANCH  59  80
ATOM     80  C   UNL     1       1.952 -23.231  -2.384  1.00  0.00     0.057 A 
ATOM     81  C   UNL     1       2.306 -24.216  -3.313  1.00  0.00     0.134 A 
ATOM     82  C   UNL     1       2.980 -22.435  -1.864  1.00  0.00     0.134 A 
ATOM     83  F   UNL     1       1.369 -25.025  -3.829  1.00  0.00    -0.206 F 
ATOM     84  C   UNL     1       3.633 -24.413  -3.699  1.00  0.00     0.040 A 
ATOM     85  C   UNL     1       4.307 -22.605  -2.258  1.00  0.00     0.040 A 
ATOM     86  F   UNL     1       2.705 -21.474  -0.970  1.00  0.00    -0.206 F 
ATOM     87  C   UNL     1       4.638 -23.602  -3.174  1.00  0.00     0.006 A 
ENDBRANCH  59  80
BRANCH  71  88
ATOM     88  C   UNL     1      -2.423 -27.149   1.355  1.00  0.00     0.057 A 
ATOM     89  C   UNL     1      -1.669 -27.352   2.517  1.00  0.00     0.134 A 
ATOM     90  C   UNL     1      -3.091 -28.257   0.815  1.00  0.00     0.134 A 
ATOM     91  F   UNL     1      -0.997 -26.335   3.077  1.00  0.00    -0.206 F 
ATOM     92  C   UNL     1      -1.566 -28.612   3.108  1.00  0.00     0.040 A 
ATOM     93  C   UNL     1      -3.015 -29.516   1.411  1.00  0.00     0.040 A 
ATOM     94  F   UNL     1      -3.838 -28.129  -0.292  1.00  0.00    -0.206 F 
ATOM     95  C   UNL     1      -2.246 -29.698   2.558  1.00  0.00     0.006 A 
ENDBRANCH  71  88
ENDBRANCH  45  46
ENDBRANCH  38  40
ENDBRANCH  37  38
ENDBRANCH  36  37
ENDBRANCH  35  36
ENDBRANCH  34  35
ENDBRANCH   1  34
TORSDOF 18
