REMARK SMILES Cc1cc2c(c(C)c1Cl)C=C(C(=O)OCCOCCOC(=O)c1ccc(-c3c4nc(c(-c5c(F)cccc5F)c5ccc([nH]5)c(-c5c(F)cccc5F)c5nc(c(-c6c(F)cccc6F)c6ccc3[nH]6)C=C5)C=C4)cc1)[C@@H](C(F)(F)F)O2
REMARK SMILES IDX 18 1 17 2 16 3 15 4 14 5 12 6 13 7 11 8 1 9 2 10 3 11 8 12
REMARK SMILES IDX 4 13 6 14 9 15 5 16 82 17 7 18 10 19 77 20 78 21 79 22 80 23
REMARK SMILES IDX 81 24 19 25 20 26 21 27 22 28 23 29 24 30 76 31 25 32 75 33
REMARK SMILES IDX 26 34 27 35 28 36 69 37 29 38 74 39 68 40 70 41 30 42 73 43
REMARK SMILES IDX 67 44 66 45 31 47 57 48 40 49 56 50 41 51 44 52 55 53 71 54
REMARK SMILES IDX 42 55 43 56 54 58 72 59 45 60 32 61 33 62 38 63 34 64 35 65
REMARK SMILES IDX 37 66 39 67 36 68 58 69 59 70 64 71 60 72 61 73 63 74 65 75
REMARK SMILES IDX 62 76 46 77 47 78 52 79 48 80 49 81 51 82 53 83 50 84
REMARK H PARENT 70 46 44 57
REMARK Flexibility Score: inf
ROOT
ATOM      1  C   UNL     1       0.716  -6.183   6.437  1.00  0.00     0.202 C 
ENDROOT
BRANCH   1   2
ATOM      2  O   UNL     1      -0.185  -7.156   6.969  1.00  0.00    -0.374 OA
BRANCH   2   3
ATOM      3  C   UNL     1      -0.325  -8.383   6.254  1.00  0.00     0.202 C 
BRANCH   3   4
ATOM      4  C   UNL     1      -1.251  -8.341   5.037  1.00  0.00     0.261 C 
BRANCH   4   5
ATOM      5  O   UNL     1      -0.748  -7.429   4.045  1.00  0.00    -0.460 OA
BRANCH   5   6
ATOM      6  C   UNL     1      -1.561  -6.384   3.771  1.00  0.00     0.338 C 
ATOM      7  O   UNL     1      -2.710  -6.229   4.156  1.00  0.00    -0.246 OA
BRANCH   6   8
ATOM      8  C   UNL     1      -0.816  -5.356   3.022  1.00  0.00     0.087 C 
ATOM      9  C   UNL     1       1.082   0.001  -0.060  1.00  0.00     0.046 C 
ATOM     10  C   UNL     1       0.575  -0.994   0.949  1.00  0.00    -0.028 A 
ATOM     11  C   UNL     1       0.851  -2.348   0.706  1.00  0.00     0.052 A 
ATOM     12  C   UNL     1      -0.136  -0.646   2.115  1.00  0.00     0.047 A 
ATOM     13  C   UNL     1       0.365  -3.344   1.548  1.00  0.00     0.128 A 
ATOM     14  C   UNL     1      -0.626  -1.644   2.991  1.00  0.00    -0.021 A 
ATOM     15  Cl  UNL     1      -0.418   1.033   2.462  1.00  0.00    -0.084 Cl
ATOM     16  C   UNL     1      -0.404  -3.007   2.666  1.00  0.00     0.022 A 
ATOM     17  O   UNL     1       0.697  -4.621   1.194  1.00  0.00    -0.475 OA
ATOM     18  C   UNL     1      -1.383  -1.297   4.254  1.00  0.00     0.047 C 
ATOM     19  C   UNL     1      -1.007  -4.095   3.429  1.00  0.00     0.027 C 
ATOM     20  C   UNL     1       0.067  -5.739   1.873  1.00  0.00     0.316 C 
BRANCH  20  21
ATOM     21  C   UNL     1      -0.659  -6.592   0.821  1.00  0.00     0.430 C 
ATOM     22  F   UNL     1       0.158  -6.887  -0.219  1.00  0.00    -0.167 F 
ATOM     23  F   UNL     1      -1.074  -7.775   1.331  1.00  0.00    -0.167 F 
ATOM     24  F   UNL     1      -1.745  -5.964   0.319  1.00  0.00    -0.167 F 
ENDBRANCH  20  21
ENDBRANCH   6   8
ENDBRANCH   5   6
ENDBRANCH   4   5
ENDBRANCH   3   4
ENDBRANCH   2   3
ENDBRANCH   1   2
BRANCH   1  25
ATOM     25  C   UNL     1       2.209  -6.434   6.677  1.00  0.00     0.261 C 
BRANCH  25  26
ATOM     26  O   UNL     1       2.687  -7.580   5.948  1.00  0.00    -0.460 OA
BRANCH  26  27
ATOM     27  C   UNL     1       3.045  -8.634   6.720  1.00  0.00     0.338 C 
ATOM     28  O   UNL     1       3.071  -8.684   7.940  1.00  0.00    -0.246 OA
BRANCH  27  29
ATOM     29  C   UNL     1       3.252  -9.828   5.881  1.00  0.00     0.060 A 
ATOM     30  C   UNL     1       2.558 -10.993   6.232  1.00  0.00     0.016 A 
ATOM     31  C   UNL     1       4.168  -9.836   4.827  1.00  0.00     0.016 A 
ATOM     32  C   UNL     1       2.814 -12.186   5.561  1.00  0.00     0.010 A 
ATOM     33  C   UNL     1       4.433 -11.038   4.163  1.00  0.00     0.010 A 
ATOM     34  C   UNL     1       3.783 -12.223   4.550  1.00  0.00    -0.014 A 
BRANCH  34  35
ATOM     35  C   UNL     1       4.217 -13.529   4.001  1.00  0.00     0.031 A 
ATOM     36  C   UNL     1       5.448 -14.184   4.562  1.00  0.00     0.074 A 
ATOM     37  C   UNL     1       3.502 -14.141   3.041  1.00  0.00     0.049 A 
ATOM     38  N   UNL     1       6.026 -15.303   4.207  1.00  0.00    -0.248 NA
ATOM     39  C   UNL     1       6.113 -13.488   5.675  1.00  0.00     0.031 C 
ATOM     40  C   UNL     1       2.262 -13.633   2.459  1.00  0.00     0.029 A 
ATOM     41  N   UNL     1       3.722 -15.327   2.388  1.00  0.00    -0.354 N 
ATOM     42  C   UNL     1       7.118 -15.447   5.053  1.00  0.00     0.074 A 
ATOM     43  C   UNL     1       7.141 -14.288   5.920  1.00  0.00     0.031 C 
ATOM     44  C   UNL     1       1.830 -14.502   1.529  1.00  0.00     0.029 A 
ATOM     45  C   UNL     1       2.780 -15.609   1.430  1.00  0.00     0.049 A 
ATOM     46  H   UNL     1       4.483 -15.919   2.586  1.00  0.00     0.167 HD
ATOM     47  C   UNL     1       8.015 -16.459   5.109  1.00  0.00     0.037 A 
ATOM     48  C   UNL     1       2.703 -16.637   0.563  1.00  0.00     0.037 A 
ATOM     49  C   UNL     1       7.998 -17.607   4.241  1.00  0.00     0.049 A 
ATOM     50  C   UNL     1       3.760 -17.707   0.586  1.00  0.00     0.074 A 
ATOM     51  C   UNL     1       8.877 -18.675   4.207  1.00  0.00     0.029 A 
ATOM     52  N   UNL     1       7.052 -17.834   3.253  1.00  0.00    -0.354 N 
ATOM     53  N   UNL     1       4.797 -17.826   1.379  1.00  0.00    -0.248 NA
ATOM     54  C   UNL     1       3.637 -18.785  -0.406  1.00  0.00     0.031 C 
ATOM     55  C   UNL     1       8.483 -19.531   3.173  1.00  0.00     0.029 A 
ATOM     56  C   UNL     1       7.333 -19.019   2.595  1.00  0.00     0.049 A 
ATOM     57  H   UNL     1       6.293 -17.240   3.049  1.00  0.00     0.167 HD
ATOM     58  C   UNL     1       5.432 -19.004   1.004  1.00  0.00     0.074 A 
ATOM     59  C   UNL     1       4.661 -19.565  -0.087  1.00  0.00     0.031 C 
ATOM     60  C   UNL     1       6.550 -19.570   1.519  1.00  0.00     0.037 A 
BRANCH  47  61
ATOM     61  C   UNL     1       9.103 -16.366   6.136  1.00  0.00     0.057 A 
ATOM     62  C   UNL     1       8.849 -16.583   7.496  1.00  0.00     0.134 A 
ATOM     63  C   UNL     1      10.426 -16.106   5.757  1.00  0.00     0.134 A 
ATOM     64  F   UNL     1       7.601 -16.820   7.926  1.00  0.00    -0.206 F 
ATOM     65  C   UNL     1       9.872 -16.535   8.445  1.00  0.00     0.040 A 
ATOM     66  C   UNL     1      11.460 -16.078   6.693  1.00  0.00     0.040 A 
ATOM     67  F   UNL     1      10.736 -15.892   4.470  1.00  0.00    -0.206 F 
ATOM     68  C   UNL     1      11.184 -16.291   8.042  1.00  0.00     0.006 A 
ENDBRANCH  47  61
BRANCH  48  69
ATOM     69  C   UNL     1       1.576 -16.704  -0.400  1.00  0.00     0.057 A 
ATOM     70  C   UNL     1       0.566 -17.663  -0.264  1.00  0.00     0.134 A 
ATOM     71  C   UNL     1       1.478 -15.810  -1.473  1.00  0.00     0.134 A 
ATOM     72  F   UNL     1       0.618 -18.561   0.730  1.00  0.00    -0.206 F 
ATOM     73  C   UNL     1      -0.499 -17.734  -1.163  1.00  0.00     0.040 A 
ATOM     74  C   UNL     1       0.407 -15.855  -2.366  1.00  0.00     0.040 A 
ATOM     75  F   UNL     1       2.415 -14.868  -1.657  1.00  0.00    -0.206 F 
ATOM     76  C   UNL     1      -0.584 -16.823  -2.214  1.00  0.00     0.006 A 
ENDBRANCH  48  69
BRANCH  60  77
ATOM     77  C   UNL     1       6.992 -20.882   0.941  1.00  0.00     0.057 A 
ATOM     78  C   UNL     1       7.605 -20.968  -0.314  1.00  0.00     0.134 A 
ATOM     79  C   UNL     1       6.861 -22.064   1.682  1.00  0.00     0.134 A 
ATOM     80  F   UNL     1       7.752 -19.874  -1.075  1.00  0.00    -0.206 F 
ATOM     81  C   UNL     1       8.059 -22.188  -0.820  1.00  0.00     0.040 A 
ATOM     82  C   UNL     1       7.331 -23.285   1.196  1.00  0.00     0.040 A 
ATOM     83  F   UNL     1       6.292 -22.048   2.897  1.00  0.00    -0.206 F 
ATOM     84  C   UNL     1       7.929 -23.349  -0.060  1.00  0.00     0.006 A 
ENDBRANCH  60  77
ENDBRANCH  34  35
ENDBRANCH  27  29
ENDBRANCH  26  27
ENDBRANCH  25  26
ENDBRANCH   1  25
TORSDOF 15
