REMARK SMILES CC(C)(C)OC(=O)N1C[C@@H](Oc2cccnc2)C[C@H]1C(=O)OCCOCCOC(=O)c1ccc(-c2c3nc(c(-c4c(F)cccc4F)c4ccc([nH]4)c(-c4c(F)cccc4F)c4nc(c(-c5c(F)cccc5F)c5ccc2[nH]5)C=C4)C=C3)cc1
REMARK SMILES IDX 24 1 23 2 22 3 20 4 21 5 19 6 8 7 9 8 10 9 18 10 6 11 7 12
REMARK SMILES IDX 5 13 2 14 1 15 3 16 4 17 11 18 12 19 13 20 17 21 14 22 16 23
REMARK SMILES IDX 15 24 25 25 26 26 27 27 28 28 29 29 30 30 31 31 32 32 84 33
REMARK SMILES IDX 33 34 83 35 34 36 35 37 36 38 77 39 37 40 82 41 76 42 78 43
REMARK SMILES IDX 38 44 81 45 75 46 74 47 39 49 65 50 48 51 64 52 49 53 52 54
REMARK SMILES IDX 63 55 79 56 50 57 51 58 62 60 80 61 53 62 40 63 41 64 46 65
REMARK SMILES IDX 42 66 43 67 45 68 47 69 44 70 66 71 67 72 72 73 68 74 69 75
REMARK SMILES IDX 71 76 73 77 70 78 54 79 55 80 60 81 56 82 57 83 59 84 61 85
REMARK SMILES IDX 58 86
REMARK H PARENT 78 48 52 59
REMARK Flexibility Score: inf
ROOT
ATOM      1  C   UNL     1      -0.494  -5.538   7.433  1.00  0.00     0.202 C 
ENDROOT
BRANCH   1   2
ATOM      2  C   UNL     1      -0.937  -4.449   6.448  1.00  0.00     0.261 C 
BRANCH   2   3
ATOM      3  O   UNL     1      -0.814  -4.876   5.077  1.00  0.00    -0.462 OA
BRANCH   3   4
ATOM      4  C   UNL     1       0.282  -4.412   4.413  1.00  0.00     0.329 C 
ATOM      5  O   UNL     1       1.190  -3.761   4.921  1.00  0.00    -0.250 OA
BRANCH   4   6
ATOM      6  C   UNL     1       0.288  -4.907   2.960  1.00  0.00     0.202 C 
ATOM      7  N   UNL     1       0.941  -3.869   2.178  1.00  0.00    -0.291 N 
ATOM      8  C   UNL     1       2.292  -4.242   1.795  1.00  0.00     0.169 C 
ATOM      9  C   UNL     1       2.224  -5.767   1.755  1.00  0.00     0.195 C 
ATOM     10  C   UNL     1       1.135  -6.168   2.763  1.00  0.00     0.084 C 
BRANCH   7  11
ATOM     11  C   UNL     1       0.322  -2.658   2.046  1.00  0.00     0.411 C 
ATOM     12  O   UNL     1      -0.765  -2.434   2.576  1.00  0.00    -0.224 OA
BRANCH  11  13
ATOM     13  O   UNL     1       1.026  -1.777   1.305  1.00  0.00    -0.444 OA
BRANCH  13  14
ATOM     14  C   UNL     1       0.583  -0.397   1.204  1.00  0.00     0.106 C 
ATOM     15  C   UNL     1       1.300   0.153  -0.035  1.00  0.00     0.056 C 
ATOM     16  C   UNL     1       1.053   0.359   2.451  1.00  0.00     0.056 C 
ATOM     17  C   UNL     1      -0.930  -0.224   0.990  1.00  0.00     0.056 C 
ENDBRANCH  13  14
ENDBRANCH  11  13
ENDBRANCH   7  11
BRANCH   9  18
ATOM     18  O   UNL     1       3.454  -6.482   1.788  1.00  0.00    -0.487 OA
BRANCH  18  19
ATOM     19  C   UNL     1       4.135  -6.773   2.926  1.00  0.00     0.138 A 
ATOM     20  C   UNL     1       4.165  -6.035   4.100  1.00  0.00     0.050 A 
ATOM     21  C   UNL     1       4.935  -7.915   2.884  1.00  0.00     0.157 A 
ATOM     22  C   UNL     1       4.957  -6.469   5.171  1.00  0.00     0.024 A 
ATOM     23  N   UNL     1       5.697  -8.372   3.909  1.00  0.00    -0.261 NA
ATOM     24  C   UNL     1       5.691  -7.635   5.034  1.00  0.00     0.111 A 
ENDBRANCH  18  19
ENDBRANCH   9  18
ENDBRANCH   4   6
ENDBRANCH   3   4
ENDBRANCH   2   3
ENDBRANCH   1   2
BRANCH   1  25
ATOM     25  O   UNL     1       0.916  -5.707   7.610  1.00  0.00    -0.374 OA
BRANCH  25  26
ATOM     26  C   UNL     1       1.599  -6.353   6.542  1.00  0.00     0.202 C 
BRANCH  26  27
ATOM     27  C   UNL     1       1.858  -7.849   6.701  1.00  0.00     0.261 C 
BRANCH  27  28
ATOM     28  O   UNL     1       0.608  -8.539   6.817  1.00  0.00    -0.460 OA
BRANCH  28  29
ATOM     29  C   UNL     1       0.247  -8.773   8.098  1.00  0.00     0.338 C 
ATOM     30  O   UNL     1       0.938  -8.661   9.097  1.00  0.00    -0.246 OA
BRANCH  29  31
ATOM     31  C   UNL     1      -1.205  -9.005   8.154  1.00  0.00     0.060 A 
ATOM     32  C   UNL     1      -1.909  -8.331   9.159  1.00  0.00     0.016 A 
ATOM     33  C   UNL     1      -1.860  -9.866   7.270  1.00  0.00     0.016 A 
ATOM     34  C   UNL     1      -3.262  -8.575   9.337  1.00  0.00     0.010 A 
ATOM     35  C   UNL     1      -3.220 -10.116   7.454  1.00  0.00     0.010 A 
ATOM     36  C   UNL     1      -3.909  -9.508   8.518  1.00  0.00    -0.014 A 
BRANCH  36  37
ATOM     37  C   UNL     1      -5.252  -9.985   8.907  1.00  0.00     0.031 A 
ATOM     38  C   UNL     1      -5.360 -11.291   9.640  1.00  0.00     0.074 A 
ATOM     39  C   UNL     1      -6.340  -9.237   8.662  1.00  0.00     0.049 A 
ATOM     40  N   UNL     1      -6.425 -11.920  10.063  1.00  0.00    -0.248 NA
ATOM     41  C   UNL     1      -4.094 -11.984   9.935  1.00  0.00     0.031 C 
ATOM     42  C   UNL     1      -6.336  -7.929   8.007  1.00  0.00     0.029 A 
ATOM     43  N   UNL     1      -7.660  -9.474   8.938  1.00  0.00    -0.354 N 
ATOM     44  C   UNL     1      -5.958 -13.081  10.668  1.00  0.00     0.074 A 
ATOM     45  C   UNL     1      -4.520 -13.090  10.526  1.00  0.00     0.031 C 
ATOM     46  C   UNL     1      -7.600  -7.481   7.926  1.00  0.00     0.029 A 
ATOM     47  C   UNL     1      -8.499  -8.485   8.491  1.00  0.00     0.049 A 
ATOM     48  H   UNL     1      -7.977 -10.277   9.412  1.00  0.00     0.167 HD
ATOM     49  C   UNL     1      -6.670 -14.046  11.294  1.00  0.00     0.037 A 
ATOM     50  C   UNL     1      -9.844  -8.416   8.517  1.00  0.00     0.037 A 
ATOM     51  C   UNL     1      -8.102 -14.025  11.428  1.00  0.00     0.049 A 
ATOM     52  C   UNL     1     -10.618  -9.545   9.144  1.00  0.00     0.074 A 
ATOM     53  C   UNL     1      -8.925 -14.946  12.049  1.00  0.00     0.029 A 
ATOM     54  N   UNL     1      -8.924 -13.028  10.921  1.00  0.00    -0.354 N 
ATOM     55  N   UNL     1     -10.171 -10.633   9.726  1.00  0.00    -0.248 NA
ATOM     56  C   UNL     1     -12.083  -9.437   9.118  1.00  0.00     0.031 C 
ATOM     57  C   UNL     1     -10.249 -14.535  11.871  1.00  0.00     0.029 A 
ATOM     58  C   UNL     1     -10.248 -13.326  11.191  1.00  0.00     0.049 A 
ATOM     59  H   UNL     1      -8.611 -12.227  10.441  1.00  0.00     0.167 HD
ATOM     60  C   UNL     1     -11.296 -11.323  10.162  1.00  0.00     0.074 A 
ATOM     61  C   UNL     1     -12.444 -10.523   9.787  1.00  0.00     0.031 C 
ATOM     62  C   UNL     1     -11.374 -12.509  10.814  1.00  0.00     0.037 A 
BRANCH  49  63
ATOM     63  C   UNL     1      -5.911 -15.215  11.852  1.00  0.00     0.057 A 
ATOM     64  C   UNL     1      -5.077 -15.095  12.972  1.00  0.00     0.134 A 
ATOM     65  C   UNL     1      -6.035 -16.485  11.274  1.00  0.00     0.134 A 
ATOM     66  F   UNL     1      -4.900 -13.903  13.563  1.00  0.00    -0.206 F 
ATOM     67  C   UNL     1      -4.377 -16.190  13.482  1.00  0.00     0.040 A 
ATOM     68  C   UNL     1      -5.362 -17.593  11.792  1.00  0.00     0.040 A 
ATOM     69  F   UNL     1      -6.817 -16.672  10.200  1.00  0.00    -0.206 F 
ATOM     70  C   UNL     1      -4.524 -17.445  12.896  1.00  0.00     0.006 A 
ENDBRANCH  49  63
BRANCH  50  71
ATOM     71  C   UNL     1     -10.541  -7.249   7.922  1.00  0.00     0.057 A 
ATOM     72  C   UNL     1     -11.247  -6.341   8.718  1.00  0.00     0.134 A 
ATOM     73  C   UNL     1     -10.530  -7.021   6.540  1.00  0.00     0.134 A 
ATOM     74  F   UNL     1     -11.312  -6.516  10.046  1.00  0.00    -0.206 F 
ATOM     75  C   UNL     1     -11.932  -5.259   8.162  1.00  0.00     0.040 A 
ATOM     76  C   UNL     1     -11.187  -5.928   5.972  1.00  0.00     0.040 A 
ATOM     77  F   UNL     1      -9.868  -7.852   5.721  1.00  0.00    -0.206 F 
ATOM     78  C   UNL     1     -11.898  -5.047   6.785  1.00  0.00     0.006 A 
ENDBRANCH  50  71
BRANCH  62  79
ATOM     79  C   UNL     1     -12.742 -12.993  11.198  1.00  0.00     0.057 A 
ATOM     80  C   UNL     1     -13.651 -13.476  10.249  1.00  0.00     0.134 A 
ATOM     81  C   UNL     1     -13.132 -13.024  12.544  1.00  0.00     0.134 A 
ATOM     82  F   UNL     1     -13.343 -13.463   8.944  1.00  0.00    -0.206 F 
ATOM     83  C   UNL     1     -14.910 -13.950  10.623  1.00  0.00     0.040 A 
ATOM     84  C   UNL     1     -14.376 -13.523  12.932  1.00  0.00     0.040 A 
ATOM     85  F   UNL     1     -12.303 -12.587  13.504  1.00  0.00    -0.206 F 
ATOM     86  C   UNL     1     -15.271 -13.982  11.969  1.00  0.00     0.006 A 
ENDBRANCH  62  79
ENDBRANCH  36  37
ENDBRANCH  29  31
ENDBRANCH  28  29
ENDBRANCH  27  28
ENDBRANCH  26  27
ENDBRANCH  25  26
ENDBRANCH   1  25
TORSDOF 19
