REMARK SMILES [NH3+][C@@]1(C(=O)OCCOCCOC(=O)c2ccc(-c3c4nc(c(-c5c(F)cccc5F)c5ccc([nH]5)c(-c5c(F)cccc5F)c5nc(c(-c6c(F)cccc6F)c6ccc3[nH]6)C=C5)C=C4)cc2)CC[C@@H]([N@H+]2CC[C@H]([NH+]3CCOCC3)C2)C1
REMARK SMILES IDX 8 1 7 2 6 3 5 4 3 5 4 6 2 7 68 8 82 9 69 10 70 11 1 12 71 16
REMARK SMILES IDX 72 17 81 18 73 20 74 21 75 22 76 23 80 24 77 26 79 27 78 28
REMARK SMILES IDX 9 29 10 30 11 31 12 32 13 33 14 34 15 35 67 36 16 37 66 38
REMARK SMILES IDX 17 39 18 40 19 41 60 42 20 43 65 44 59 45 61 46 21 47 64 48
REMARK SMILES IDX 58 49 57 50 22 52 48 53 31 54 47 55 32 56 35 57 46 58 62 59
REMARK SMILES IDX 33 60 34 61 45 63 63 64 36 65 23 66 24 67 29 68 25 69 26 70
REMARK SMILES IDX 28 71 30 72 27 73 49 74 50 75 55 76 51 77 52 78 54 79 56 80
REMARK SMILES IDX 53 81 37 82 38 83 43 84 39 85 40 86 42 87 44 88 41 89
REMARK H PARENT 1 13 1 14 1 15 71 19 75 25 61 51 35 62
REMARK Flexibility Score: inf
ROOT
ATOM      1  O   UNL     1      -3.497   0.525  -0.022  1.00  0.00    -0.374 OA
ENDROOT
BRANCH   1   2
ATOM      2  C   UNL     1      -3.825   0.079   1.294  1.00  0.00     0.202 C 
BRANCH   2   3
ATOM      3  C   UNL     1      -2.946  -1.025   1.885  1.00  0.00     0.261 C 
BRANCH   3   4
ATOM      4  O   UNL     1      -1.608  -0.552   2.117  1.00  0.00    -0.459 OA
BRANCH   4   5
ATOM      5  C   UNL     1      -0.644  -1.162   1.375  1.00  0.00     0.368 C 
ATOM      6  O   UNL     1      -0.839  -2.157   0.685  1.00  0.00    -0.245 OA
BRANCH   5   7
ATOM      7  C   UNL     1       0.735  -0.437   1.470  1.00  0.00     0.198 C 
ATOM      8  C   UNL     1       1.573  -1.156   2.537  1.00  0.00     0.087 C 
ATOM      9  C   UNL     1       0.686   1.051   1.910  1.00  0.00     0.145 C 
ATOM     10  C   UNL     1       1.467  -0.270   3.771  1.00  0.00     0.072 C 
ATOM     11  C   UNL     1       1.454   1.170   3.243  1.00  0.00     0.191 C 
BRANCH   7  12
ATOM     12  N   UNL     1       1.380  -0.571   0.141  1.00  0.00    -0.343 N 
ATOM     13  H   UNL     1       1.402  -1.554  -0.129  1.00  0.00     0.345 HD
ATOM     14  H   UNL     1       2.333  -0.210   0.188  1.00  0.00     0.345 HD
ATOM     15  H   UNL     1       0.849  -0.041  -0.550  1.00  0.00     0.345 HD
ENDBRANCH   7  12
BRANCH  11  16
ATOM     16  N   UNL     1       2.794   1.773   3.189  1.00  0.00    -0.327 N 
ATOM     17  C   UNL     1       3.726   1.250   2.201  1.00  0.00     0.269 C 
ATOM     18  C   UNL     1       2.782   3.229   2.996  1.00  0.00     0.328 C 
ATOM     19  H   UNL     1       3.127   1.507   4.116  1.00  0.00     0.348 HD
ATOM     20  C   UNL     1       4.845   2.270   2.132  1.00  0.00     0.132 C 
ATOM     21  C   UNL     1       4.236   3.593   2.598  1.00  0.00     0.245 C 
BRANCH  21  22
ATOM     22  N   UNL     1       4.995   4.392   3.573  1.00  0.00    -0.324 N 
ATOM     23  C   UNL     1       6.338   4.801   3.122  1.00  0.00     0.291 C 
ATOM     24  C   UNL     1       5.066   3.870   4.949  1.00  0.00     0.291 C 
ATOM     25  H   UNL     1       4.401   5.220   3.619  1.00  0.00     0.348 HD
ATOM     26  C   UNL     1       7.486   3.834   3.465  1.00  0.00     0.221 C 
ATOM     27  C   UNL     1       6.222   2.899   5.232  1.00  0.00     0.221 C 
ATOM     28  O   UNL     1       7.483   3.457   4.846  1.00  0.00    -0.370 OA
ENDBRANCH  21  22
ENDBRANCH  11  16
ENDBRANCH   5   7
ENDBRANCH   4   5
ENDBRANCH   3   4
ENDBRANCH   2   3
ENDBRANCH   1   2
BRANCH   1  29
ATOM     29  C   UNL     1      -2.394   1.417  -0.167  1.00  0.00     0.202 C 
BRANCH  29  30
ATOM     30  C   UNL     1      -2.617   2.872   0.268  1.00  0.00     0.261 C 
BRANCH  30  31
ATOM     31  O   UNL     1      -2.861   2.995   1.681  1.00  0.00    -0.460 OA
BRANCH  31  32
ATOM     32  C   UNL     1      -4.104   3.424   2.004  1.00  0.00     0.338 C 
ATOM     33  O   UNL     1      -4.982   3.798   1.235  1.00  0.00    -0.246 OA
BRANCH  32  34
ATOM     34  C   UNL     1      -4.367   3.217   3.438  1.00  0.00     0.060 A 
ATOM     35  C   UNL     1      -5.489   2.453   3.783  1.00  0.00     0.016 A 
ATOM     36  C   UNL     1      -3.595   3.830   4.428  1.00  0.00     0.016 A 
ATOM     37  C   UNL     1      -5.878   2.343   5.116  1.00  0.00     0.010 A 
ATOM     38  C   UNL     1      -3.994   3.727   5.767  1.00  0.00     0.010 A 
ATOM     39  C   UNL     1      -5.158   3.016   6.112  1.00  0.00    -0.014 A 
BRANCH  39  40
ATOM     40  C   UNL     1      -5.727   3.102   7.479  1.00  0.00     0.031 A 
ATOM     41  C   UNL     1      -6.494   4.335   7.874  1.00  0.00     0.074 A 
ATOM     42  C   UNL     1      -5.618   2.073   8.339  1.00  0.00     0.049 A 
ATOM     43  N   UNL     1      -7.081   4.620   9.008  1.00  0.00    -0.248 NA
ATOM     44  C   UNL     1      -6.618   5.385   6.850  1.00  0.00     0.031 C 
ATOM     45  C   UNL     1      -4.944   0.807   8.062  1.00  0.00     0.029 A 
ATOM     46  N   UNL     1      -6.080   1.936   9.624  1.00  0.00    -0.354 N 
ATOM     47  C   UNL     1      -7.648   5.877   8.834  1.00  0.00     0.074 A 
ATOM     48  C   UNL     1      -7.304   6.315   7.498  1.00  0.00     0.031 C 
ATOM     49  C   UNL     1      -5.034   0.019   9.148  1.00  0.00     0.029 A 
ATOM     50  C   UNL     1      -5.747   0.736  10.203  1.00  0.00     0.049 A 
ATOM     51  H   UNL     1      -6.602   2.631  10.086  1.00  0.00     0.167 HD
ATOM     52  C   UNL     1      -8.399   6.596   9.701  1.00  0.00     0.037 A 
ATOM     53  C   UNL     1      -5.980   0.278  11.448  1.00  0.00     0.037 A 
ATOM     54  C   UNL     1      -8.740   6.166  11.031  1.00  0.00     0.049 A 
ATOM     55  C   UNL     1      -6.745   1.133  12.423  1.00  0.00     0.074 A 
ATOM     56  C   UNL     1      -9.494   6.827  11.986  1.00  0.00     0.029 A 
ATOM     57  N   UNL     1      -8.343   4.965  11.597  1.00  0.00    -0.354 N 
ATOM     58  N   UNL     1      -7.288   2.313  12.242  1.00  0.00    -0.248 NA
ATOM     59  C   UNL     1      -6.931   0.590  13.777  1.00  0.00     0.031 C 
ATOM     60  C   UNL     1      -9.520   6.042  13.143  1.00  0.00     0.029 A 
ATOM     61  C   UNL     1      -8.820   4.873  12.894  1.00  0.00     0.049 A 
ATOM     62  H   UNL     1      -7.803   4.278  11.144  1.00  0.00     0.167 HD
ATOM     63  C   UNL     1      -7.904   2.638  13.445  1.00  0.00     0.074 A 
ATOM     64  C   UNL     1      -7.677   1.527  14.345  1.00  0.00     0.031 C 
ATOM     65  C   UNL     1      -8.596   3.756  13.774  1.00  0.00     0.037 A 
BRANCH  52  66
ATOM     66  C   UNL     1      -8.891   7.936   9.239  1.00  0.00     0.057 A 
ATOM     67  C   UNL     1      -9.919   8.057   8.295  1.00  0.00     0.134 A 
ATOM     68  C   UNL     1      -8.352   9.116   9.765  1.00  0.00     0.134 A 
ATOM     69  F   UNL     1     -10.467   6.965   7.742  1.00  0.00    -0.206 F 
ATOM     70  C   UNL     1     -10.380   9.307   7.877  1.00  0.00     0.040 A 
ATOM     71  C   UNL     1      -8.820  10.370   9.372  1.00  0.00     0.040 A 
ATOM     72  F   UNL     1      -7.367   9.069  10.675  1.00  0.00    -0.206 F 
ATOM     73  C   UNL     1      -9.835  10.468   8.421  1.00  0.00     0.006 A 
ENDBRANCH  52  66
BRANCH  53  74
ATOM     74  C   UNL     1      -5.476  -1.057  11.858  1.00  0.00     0.057 A 
ATOM     75  C   UNL     1      -6.353  -2.117  12.115  1.00  0.00     0.134 A 
ATOM     76  C   UNL     1      -4.108  -1.293  12.038  1.00  0.00     0.134 A 
ATOM     77  F   UNL     1      -7.676  -1.945  11.985  1.00  0.00    -0.206 F 
ATOM     78  C   UNL     1      -5.890  -3.358  12.556  1.00  0.00     0.040 A 
ATOM     79  C   UNL     1      -3.629  -2.536  12.455  1.00  0.00     0.040 A 
ATOM     80  F   UNL     1      -3.216  -0.317  11.810  1.00  0.00    -0.206 F 
ATOM     81  C   UNL     1      -4.522  -3.571  12.723  1.00  0.00     0.006 A 
ENDBRANCH  53  74
BRANCH  65  82
ATOM     82  C   UNL     1      -9.192   3.815  15.150  1.00  0.00     0.057 A 
ATOM     83  C   UNL     1      -8.404   4.014  16.290  1.00  0.00     0.134 A 
ATOM     84  C   UNL     1     -10.577   3.708  15.332  1.00  0.00     0.134 A 
ATOM     85  F   UNL     1      -7.070   4.112  16.186  1.00  0.00    -0.206 F 
ATOM     86  C   UNL     1      -8.970   4.082  17.565  1.00  0.00     0.040 A 
ATOM     87  C   UNL     1     -11.157   3.799  16.598  1.00  0.00     0.040 A 
ATOM     88  F   UNL     1     -11.390   3.526  14.280  1.00  0.00    -0.206 F 
ATOM     89  C   UNL     1     -10.351   3.980  17.720  1.00  0.00     0.006 A 
ENDBRANCH  65  82
ENDBRANCH  39  40
ENDBRANCH  32  34
ENDBRANCH  31  32
ENDBRANCH  30  31
ENDBRANCH  29  30
ENDBRANCH   1  29
TORSDOF 17
