REMARK SMILES CCOC(=O)C1=NN(c2ccc(C)cc2Cl)[C@@](C)(C(=O)OCCOCCOC(=O)c2ccc(-c3c4nc(c(-c5c(F)cccc5F)c5ccc([nH]5)c(-c5c(F)cccc5F)c5nc(c(-c6c(F)cccc6F)c6ccc3[nH]6)C=C5)C=C4)cc2)C1
REMARK SMILES IDX 23 1 22 2 21 3 19 4 20 5 17 6 6 7 7 8 84 9 8 10 18 11 4 12
REMARK SMILES IDX 5 13 3 14 2 15 1 16 9 17 10 18 15 19 11 20 14 21 16 22 12 23
REMARK SMILES IDX 13 24 24 25 25 26 26 27 27 28 28 29 29 30 30 31 31 32 83 33
REMARK SMILES IDX 32 34 82 35 33 36 34 37 35 38 76 39 36 40 81 41 75 42 77 43
REMARK SMILES IDX 37 44 80 45 74 46 73 47 38 49 64 50 47 51 63 52 48 53 51 54
REMARK SMILES IDX 62 55 78 56 49 57 50 58 61 60 79 61 52 62 39 63 40 64 45 65
REMARK SMILES IDX 41 66 42 67 44 68 46 69 43 70 65 71 66 72 71 73 67 74 68 75
REMARK SMILES IDX 70 76 72 77 69 78 53 79 54 80 59 81 55 82 56 83 58 84 60 85
REMARK SMILES IDX 57 86
REMARK H PARENT 77 48 51 59
REMARK Flexibility Score: inf
ROOT
ATOM      1  C   UNL     1       7.640   3.427   5.433  1.00  0.00     0.202 C 
ENDROOT
BRANCH   1   2
ATOM      2  C   UNL     1       7.459   4.726   4.636  1.00  0.00     0.261 C 
BRANCH   2   3
ATOM      3  O   UNL     1       6.102   5.018   4.246  1.00  0.00    -0.461 OA
BRANCH   3   4
ATOM      4  C   UNL     1       5.851   4.881   2.916  1.00  0.00     0.334 C 
ATOM      5  O   UNL     1       6.713   4.567   2.093  1.00  0.00    -0.249 OA
BRANCH   4   6
ATOM      6  C   UNL     1       4.411   5.190   2.468  1.00  0.00     0.163 C 
ATOM      7  C   UNL     1       3.062   3.314   2.517  1.00  0.00     0.149 C 
ATOM      8  N   UNL     1       2.699   3.975   3.566  1.00  0.00    -0.169 NA
ATOM      9  C   UNL     1       3.962   4.010   1.571  1.00  0.00     0.108 C 
ATOM     10  N   UNL     1       3.369   5.177   3.549  1.00  0.00    -0.246 N 
ATOM     11  C   UNL     1       4.501   6.444   1.605  1.00  0.00     0.050 C 
BRANCH   7  12
ATOM     12  C   UNL     1       2.613   1.915   2.225  1.00  0.00     0.354 C 
ATOM     13  O   UNL     1       3.381   0.974   2.335  1.00  0.00    -0.245 OA
BRANCH  12  14
ATOM     14  O   UNL     1       1.338   1.915   1.802  1.00  0.00    -0.461 OA
BRANCH  14  15
ATOM     15  C   UNL     1       0.785   0.618   1.533  1.00  0.00     0.230 C 
ATOM     16  C   UNL     1       1.076   0.209   0.101  1.00  0.00     0.049 C 
ENDBRANCH  14  15
ENDBRANCH  12  14
ENDBRANCH   7  12
BRANCH  10  17
ATOM     17  C   UNL     1       2.927   6.172   4.433  1.00  0.00     0.079 A 
ATOM     18  C   UNL     1       2.967   7.535   4.085  1.00  0.00     0.030 A 
ATOM     19  C   UNL     1       2.323   5.913   5.696  1.00  0.00     0.066 A 
ATOM     20  C   UNL     1       2.496   8.567   4.916  1.00  0.00     0.006 A 
ATOM     21  C   UNL     1       1.863   6.949   6.539  1.00  0.00     0.026 A 
ATOM     22  Cl  UNL     1       2.079   4.330   6.365  1.00  0.00    -0.082 Cl
ATOM     23  C   UNL     1       1.942   8.283   6.155  1.00  0.00    -0.049 A 
ATOM     24  C   UNL     1       1.465   9.373   7.065  1.00  0.00     0.044 C 
ENDBRANCH  10  17
ENDBRANCH   4   6
ENDBRANCH   3   4
ENDBRANCH   2   3
ENDBRANCH   1   2
BRANCH   1  25
ATOM     25  O   UNL     1       7.049   2.242   4.913  1.00  0.00    -0.374 OA
BRANCH  25  26
ATOM     26  C   UNL     1       5.625   2.139   4.947  1.00  0.00     0.202 C 
BRANCH  26  27
ATOM     27  C   UNL     1       4.946   2.200   6.318  1.00  0.00     0.261 C 
BRANCH  27  28
ATOM     28  O   UNL     1       5.160   3.466   6.973  1.00  0.00    -0.460 OA
BRANCH  28  29
ATOM     29  C   UNL     1       5.492   3.363   8.279  1.00  0.00     0.338 C 
ATOM     30  O   UNL     1       5.516   2.351   8.961  1.00  0.00    -0.246 OA
BRANCH  29  31
ATOM     31  C   UNL     1       6.027   4.638   8.789  1.00  0.00     0.060 A 
ATOM     32  C   UNL     1       7.370   4.647   9.187  1.00  0.00     0.016 A 
ATOM     33  C   UNL     1       5.196   5.724   9.067  1.00  0.00     0.016 A 
ATOM     34  C   UNL     1       7.861   5.701   9.951  1.00  0.00     0.010 A 
ATOM     35  C   UNL     1       5.694   6.786   9.835  1.00  0.00     0.010 A 
ATOM     36  C   UNL     1       7.009   6.747  10.335  1.00  0.00    -0.014 A 
BRANCH  36  37
ATOM     37  C   UNL     1       7.465   7.663  11.414  1.00  0.00     0.031 A 
ATOM     38  C   UNL     1       6.991   7.431  12.826  1.00  0.00     0.074 A 
ATOM     39  C   UNL     1       8.372   8.624  11.167  1.00  0.00     0.049 A 
ATOM     40  N   UNL     1       7.348   8.033  13.933  1.00  0.00    -0.248 NA
ATOM     41  C   UNL     1       5.981   6.378  13.015  1.00  0.00     0.031 C 
ATOM     42  C   UNL     1       8.930   8.939   9.854  1.00  0.00     0.029 A 
ATOM     43  N   UNL     1       8.994   9.502  12.019  1.00  0.00    -0.354 N 
ATOM     44  C   UNL     1       6.605   7.436  14.946  1.00  0.00     0.074 A 
ATOM     45  C   UNL     1       5.750   6.452  14.317  1.00  0.00     0.031 C 
ATOM     46  C   UNL     1       9.819   9.938   9.988  1.00  0.00     0.029 A 
ATOM     47  C   UNL     1       9.882  10.340  11.393  1.00  0.00     0.049 A 
ATOM     48  H   UNL     1       8.819   9.529  12.988  1.00  0.00     0.167 HD
ATOM     49  C   UNL     1       6.640   7.672  16.280  1.00  0.00     0.037 A 
ATOM     50  C   UNL     1      10.660  11.319  11.894  1.00  0.00     0.037 A 
ATOM     51  C   UNL     1       7.496   8.641  16.913  1.00  0.00     0.049 A 
ATOM     52  C   UNL     1      10.670  11.579  13.376  1.00  0.00     0.074 A 
ATOM     53  C   UNL     1       7.625   8.930  18.261  1.00  0.00     0.029 A 
ATOM     54  N   UNL     1       8.365   9.486  16.239  1.00  0.00    -0.354 N 
ATOM     55  N   UNL     1       9.997  10.978  14.327  1.00  0.00    -0.248 NA
ATOM     56  C   UNL     1      11.564  12.643  13.856  1.00  0.00     0.031 C 
ATOM     57  C   UNL     1       8.538   9.983  18.398  1.00  0.00     0.029 A 
ATOM     58  C   UNL     1       9.016  10.314  17.141  1.00  0.00     0.049 A 
ATOM     59  H   UNL     1       8.499   9.497  15.264  1.00  0.00     0.167 HD
ATOM     60  C   UNL     1      10.404  11.569  15.517  1.00  0.00     0.074 A 
ATOM     61  C   UNL     1      11.394  12.568  15.168  1.00  0.00     0.031 C 
ATOM     62  C   UNL     1       9.998  11.306  16.784  1.00  0.00     0.037 A 
BRANCH  49  63
ATOM     63  C   UNL     1       5.698   6.880  17.142  1.00  0.00     0.057 A 
ATOM     64  C   UNL     1       5.878   5.511  17.378  1.00  0.00     0.134 A 
ATOM     65  C   UNL     1       4.599   7.501  17.750  1.00  0.00     0.134 A 
ATOM     66  F   UNL     1       6.903   4.853  16.816  1.00  0.00    -0.206 F 
ATOM     67  C   UNL     1       4.981   4.781  18.160  1.00  0.00     0.040 A 
ATOM     68  C   UNL     1       3.711   6.787  18.556  1.00  0.00     0.040 A 
ATOM     69  F   UNL     1       4.371   8.811  17.571  1.00  0.00    -0.206 F 
ATOM     70  C   UNL     1       3.895   5.421  18.756  1.00  0.00     0.006 A 
ENDBRANCH  49  63
BRANCH  50  71
ATOM     71  C   UNL     1      11.509  12.121  10.978  1.00  0.00     0.057 A 
ATOM     72  C   UNL     1      12.901  11.989  10.968  1.00  0.00     0.134 A 
ATOM     73  C   UNL     1      10.940  13.039  10.086  1.00  0.00     0.134 A 
ATOM     74  F   UNL     1      13.505  11.142  11.814  1.00  0.00    -0.206 F 
ATOM     75  C   UNL     1      13.701  12.749  10.112  1.00  0.00     0.040 A 
ATOM     76  C   UNL     1      11.725  13.788   9.209  1.00  0.00     0.040 A 
ATOM     77  F   UNL     1       9.610  13.210  10.047  1.00  0.00    -0.206 F 
ATOM     78  C   UNL     1      13.111  13.647   9.224  1.00  0.00     0.006 A 
ENDBRANCH  50  71
BRANCH  62  79
ATOM     79  C   UNL     1      10.647  12.089  17.890  1.00  0.00     0.057 A 
ATOM     80  C   UNL     1      10.384  13.450  18.091  1.00  0.00     0.134 A 
ATOM     81  C   UNL     1      11.534  11.466  18.778  1.00  0.00     0.134 A 
ATOM     82  F   UNL     1       9.553  14.110  17.271  1.00  0.00    -0.206 F 
ATOM     83  C   UNL     1      11.004  14.170  19.114  1.00  0.00     0.040 A 
ATOM     84  C   UNL     1      12.139  12.168  19.821  1.00  0.00     0.040 A 
ATOM     85  F   UNL     1      11.823  10.162  18.650  1.00  0.00    -0.206 F 
ATOM     86  C   UNL     1      11.881  13.527  19.986  1.00  0.00     0.006 A 
ENDBRANCH  62  79
ENDBRANCH  36  37
ENDBRANCH  29  31
ENDBRANCH  28  29
ENDBRANCH  27  28
ENDBRANCH  26  27
ENDBRANCH  25  26
ENDBRANCH   1  25
TORSDOF 18
