REMARK SMILES C[C@H](CNS(=O)(=O)CCC(=O)OCCOCCOC(=O)c1ccc(-c2c3nc(c(-c4c(F)cccc4F)c4ccc([nH]4)c(-c4c(F)cccc4F)c4nc(c(-c5c(F)cccc5F)c5ccc2[nH]5)C=C4)C=C3)cc1)c1ccccc1
REMARK SMILES IDX 13 1 12 2 10 3 11 4 9 5 8 6 5 7 6 8 7 9 4 10 3 12 2 13 1 14
REMARK SMILES IDX 75 15 76 16 80 17 77 18 79 19 78 20 14 21 15 22 16 23 17 24
REMARK SMILES IDX 18 25 19 26 20 27 21 28 22 29 74 30 23 31 73 32 24 33 25 34
REMARK SMILES IDX 26 35 67 36 27 37 72 38 66 39 68 40 28 41 71 42 65 43 64 44
REMARK SMILES IDX 29 46 55 47 38 48 54 49 39 50 42 51 53 52 69 53 40 54 41 55
REMARK SMILES IDX 52 57 70 58 43 59 30 60 31 61 36 62 32 63 33 64 35 65 37 66
REMARK SMILES IDX 34 67 56 68 57 69 62 70 58 71 59 72 61 73 63 74 60 75 44 76
REMARK SMILES IDX 45 77 50 78 46 79 47 80 49 81 51 82 48 83
REMARK H PARENT 4 11 68 45 42 56
REMARK Flexibility Score: inf
ROOT
ATOM      1  C   UNL     1       2.034   4.132  -0.321  1.00  0.00     0.261 C 
ENDROOT
BRANCH   1   2
ATOM      2  O   UNL     1       1.822   3.346  -1.499  1.00  0.00    -0.463 OA
BRANCH   2   3
ATOM      3  C   UNL     1       2.591   3.612  -2.572  1.00  0.00     0.306 C 
ATOM      4  O   UNL     1       3.453   4.478  -2.618  1.00  0.00    -0.252 OA
BRANCH   3   5
ATOM      5  C   UNL     1       2.221   2.753  -3.754  1.00  0.00     0.140 C 
BRANCH   5   6
ATOM      6  C   UNL     1       2.130   1.272  -3.446  1.00  0.00     0.165 C 
BRANCH   6   7
ATOM      7  S   UNL     1       0.472   0.655  -3.166  1.00  0.00     0.212 S 
ATOM      8  O   UNL     1       0.573  -0.739  -2.812  1.00  0.00    -0.212 OA
ATOM      9  O   UNL     1      -0.354   1.072  -4.286  1.00  0.00    -0.212 OA
BRANCH   7  10
ATOM     10  N   UNL     1      -0.126   1.488  -1.830  1.00  0.00    -0.215 NA
ATOM     11  H   UNL     1       0.152   2.465  -1.928  1.00  0.00     0.141 HD
BRANCH  10  12
ATOM     12  C   UNL     1       0.318   1.031  -0.498  1.00  0.00     0.106 C 
BRANCH  12  13
ATOM     13  C   UNL     1      -0.466   1.552   0.738  1.00  0.00     0.031 C 
ATOM     14  C   UNL     1       0.153   2.004   2.090  1.00  0.00     0.014 C 
BRANCH  13  15
ATOM     15  C   UNL     1      -1.817   2.197   0.543  1.00  0.00    -0.044 A 
ATOM     16  C   UNL     1      -2.172   3.387   1.206  1.00  0.00     0.004 A 
ATOM     17  C   UNL     1      -2.789   1.277   0.207  1.00  0.00     0.004 A 
ATOM     18  C   UNL     1      -3.437   3.510   1.775  1.00  0.00     0.000 A 
ATOM     19  C   UNL     1      -3.947   1.356   0.943  1.00  0.00     0.000 A 
ATOM     20  C   UNL     1      -4.307   2.447   1.702  1.00  0.00     0.000 A 
ENDBRANCH  13  15
ENDBRANCH  12  13
ENDBRANCH  10  12
ENDBRANCH   7  10
ENDBRANCH   6   7
ENDBRANCH   5   6
ENDBRANCH   3   5
ENDBRANCH   2   3
ENDBRANCH   1   2
BRANCH   1  21
ATOM     21  C   UNL     1       2.662   3.296   0.806  1.00  0.00     0.202 C 
BRANCH  21  22
ATOM     22  O   UNL     1       3.893   2.625   0.596  1.00  0.00    -0.374 OA
BRANCH  22  23
ATOM     23  C   UNL     1       3.829   1.213   0.273  1.00  0.00     0.202 C 
BRANCH  23  24
ATOM     24  C   UNL     1       3.350   0.147   1.348  1.00  0.00     0.261 C 
BRANCH  24  25
ATOM     25  O   UNL     1       1.975  -0.407   1.195  1.00  0.00    -0.460 OA
BRANCH  25  26
ATOM     26  C   UNL     1       1.439  -1.138   2.244  1.00  0.00     0.338 C 
ATOM     27  O   UNL     1       2.043  -1.361   3.284  1.00  0.00    -0.246 OA
BRANCH  26  28
ATOM     28  C   UNL     1      -0.050  -1.500   2.103  1.00  0.00     0.060 A 
ATOM     29  C   UNL     1      -0.968  -1.029   3.061  1.00  0.00     0.016 A 
ATOM     30  C   UNL     1      -0.600  -2.254   1.054  1.00  0.00     0.016 A 
ATOM     31  C   UNL     1      -2.381  -1.208   2.907  1.00  0.00     0.010 A 
ATOM     32  C   UNL     1      -2.023  -2.481   0.933  1.00  0.00     0.010 A 
ATOM     33  C   UNL     1      -2.957  -1.942   1.837  1.00  0.00    -0.014 A 
BRANCH  33  34
ATOM     34  C   UNL     1      -4.470  -2.277   1.867  1.00  0.00     0.031 A 
ATOM     35  C   UNL     1      -4.926  -3.247   2.929  1.00  0.00     0.074 A 
ATOM     36  C   UNL     1      -5.477  -1.810   1.069  1.00  0.00     0.049 A 
ATOM     37  N   UNL     1      -6.137  -3.652   3.220  1.00  0.00    -0.248 NA
ATOM     38  C   UNL     1      -3.862  -3.926   3.679  1.00  0.00     0.031 C 
ATOM     39  C   UNL     1      -5.323  -1.069  -0.175  1.00  0.00     0.029 A 
ATOM     40  N   UNL     1      -6.860  -1.747   1.273  1.00  0.00    -0.354 N 
ATOM     41  C   UNL     1      -5.975  -4.701   4.111  1.00  0.00     0.074 A 
ATOM     42  C   UNL     1      -4.553  -4.828   4.354  1.00  0.00     0.031 C 
ATOM     43  C   UNL     1      -6.444  -0.356  -0.412  1.00  0.00     0.029 A 
ATOM     44  C   UNL     1      -7.508  -0.797   0.482  1.00  0.00     0.049 A 
ATOM     45  H   UNL     1      -7.334  -2.321   1.917  1.00  0.00     0.167 HD
ATOM     46  C   UNL     1      -6.911  -5.536   4.623  1.00  0.00     0.037 A 
ATOM     47  C   UNL     1      -8.796  -0.360   0.431  1.00  0.00     0.037 A 
ATOM     48  C   UNL     1      -8.320  -5.472   4.340  1.00  0.00     0.049 A 
ATOM     49  C   UNL     1      -9.839  -1.229   1.095  1.00  0.00     0.074 A 
ATOM     50  C   UNL     1      -9.325  -6.317   4.781  1.00  0.00     0.029 A 
ATOM     51  N   UNL     1      -8.928  -4.522   3.531  1.00  0.00    -0.354 N 
ATOM     52  N   UNL     1      -9.665  -2.239   1.909  1.00  0.00    -0.248 NA
ATOM     53  C   UNL     1     -11.247  -1.006   0.715  1.00  0.00     0.031 C 
ATOM     54  C   UNL     1     -10.534  -5.898   4.217  1.00  0.00     0.029 A 
ATOM     55  C   UNL     1     -10.295  -4.755   3.474  1.00  0.00     0.049 A 
ATOM     56  H   UNL     1      -8.459  -3.792   3.067  1.00  0.00     0.167 HD
ATOM     57  C   UNL     1     -10.919  -2.803   2.091  1.00  0.00     0.074 A 
ATOM     58  C   UNL     1     -11.864  -1.984   1.363  1.00  0.00     0.031 C 
ATOM     59  C   UNL     1     -11.242  -3.933   2.764  1.00  0.00     0.037 A 
BRANCH  46  60
ATOM     60  C   UNL     1      -6.385  -6.658   5.467  1.00  0.00     0.057 A 
ATOM     61  C   UNL     1      -5.805  -6.430   6.722  1.00  0.00     0.134 A 
ATOM     62  C   UNL     1      -6.367  -7.968   4.971  1.00  0.00     0.134 A 
ATOM     63  F   UNL     1      -5.758  -5.189   7.232  1.00  0.00    -0.206 F 
ATOM     64  C   UNL     1      -5.173  -7.454   7.427  1.00  0.00     0.040 A 
ATOM     65  C   UNL     1      -5.771  -9.007   5.685  1.00  0.00     0.040 A 
ATOM     66  F   UNL     1      -6.901  -8.254   3.774  1.00  0.00    -0.206 F 
ATOM     67  C   UNL     1      -5.155  -8.747   6.908  1.00  0.00     0.006 A 
ENDBRANCH  46  60
BRANCH  47  68
ATOM     68  C   UNL     1      -9.263   0.816  -0.395  1.00  0.00     0.057 A 
ATOM     69  C   UNL     1     -10.029   1.859   0.168  1.00  0.00     0.134 A 
ATOM     70  C   UNL     1      -9.058   0.897  -1.778  1.00  0.00     0.134 A 
ATOM     71  F   UNL     1     -10.354   1.834   1.470  1.00  0.00    -0.206 F 
ATOM     72  C   UNL     1     -10.543   2.917  -0.600  1.00  0.00     0.040 A 
ATOM     73  C   UNL     1      -9.514   1.976  -2.546  1.00  0.00     0.040 A 
ATOM     74  F   UNL     1      -8.428  -0.091  -2.429  1.00  0.00    -0.206 F 
ATOM     75  C   UNL     1     -10.266   2.988  -1.960  1.00  0.00     0.006 A 
ENDBRANCH  47  68
BRANCH  59  76
ATOM     76  C   UNL     1     -12.690  -4.324   2.803  1.00  0.00     0.057 A 
ATOM     77  C   UNL     1     -13.353  -4.862   1.692  1.00  0.00     0.134 A 
ATOM     78  C   UNL     1     -13.418  -4.193   3.991  1.00  0.00     0.134 A 
ATOM     79  F   UNL     1     -12.718  -4.997   0.518  1.00  0.00    -0.206 F 
ATOM     80  C   UNL     1     -14.695  -5.242   1.760  1.00  0.00     0.040 A 
ATOM     81  C   UNL     1     -14.752  -4.593   4.079  1.00  0.00     0.040 A 
ATOM     82  F   UNL     1     -12.840  -3.686   5.091  1.00  0.00    -0.206 F 
ATOM     83  C   UNL     1     -15.395  -5.116   2.959  1.00  0.00     0.006 A 
ENDBRANCH  59  76
ENDBRANCH  33  34
ENDBRANCH  26  28
ENDBRANCH  25  26
ENDBRANCH  24  25
ENDBRANCH  23  24
ENDBRANCH  22  23
ENDBRANCH  21  22
ENDBRANCH   1  21
TORSDOF 20
