REMARK SMILES COc1ccc(-c2noc(CC(=O)OCCOCCOC(=O)c3ccc(-c4c5nc(c(-c6c(F)cccc6F)c6ccc([nH]6)c(-c6c(F)cccc6F)c6nc(c(-c7c(F)cccc7F)c7ccc4[nH]7)C=C6)C=C5)cc3)c2-c2ccc(OC)cc2)cc1
REMARK SMILES IDX 16 1 15 2 14 3 12 4 13 5 11 6 10 7 7 8 8 9 77 10 9 11 6 12
REMARK SMILES IDX 3 13 4 14 87 15 5 16 86 17 2 18 1 19 78 20 79 21 85 22 80 23
REMARK SMILES IDX 84 24 81 25 82 26 83 27 17 28 18 29 19 30 20 31 21 32 22 33
REMARK SMILES IDX 23 34 24 35 76 36 25 37 75 38 26 39 27 40 28 41 69 42 29 43
REMARK SMILES IDX 74 44 68 45 70 46 30 47 73 48 67 49 66 50 31 52 57 53 40 54
REMARK SMILES IDX 56 55 41 56 44 57 55 58 71 59 42 60 43 61 54 63 72 64 45 65
REMARK SMILES IDX 32 66 33 67 38 68 34 69 35 70 37 71 39 72 36 73 58 74 59 75
REMARK SMILES IDX 64 76 60 77 61 78 63 79 65 80 62 81 46 82 47 83 52 84 48 85
REMARK SMILES IDX 49 86 51 87 53 88 50 89
REMARK H PARENT 70 51 44 62
REMARK Flexibility Score: inf
ROOT
ATOM      1  C   UNL     1       1.879  10.865  -6.503  1.00  0.00     0.202 C 
ENDROOT
BRANCH   1   2
ATOM      2  C   UNL     1       2.953   9.870  -6.952  1.00  0.00     0.261 C 
BRANCH   2   3
ATOM      3  O   UNL     1       3.252   8.915  -5.920  1.00  0.00    -0.463 OA
BRANCH   3   4
ATOM      4  C   UNL     1       4.556   8.844  -5.554  1.00  0.00     0.313 C 
ATOM      5  O   UNL     1       5.476   9.393  -6.157  1.00  0.00    -0.252 OA
BRANCH   4   6
ATOM      6  C   UNL     1       4.811   8.122  -4.259  1.00  0.00     0.201 C 
BRANCH   6   7
ATOM      7  C   UNL     1       3.707   7.281  -3.735  1.00  0.00     0.156 A 
ATOM      8  C   UNL     1       2.343   5.780  -2.835  1.00  0.00     0.122 A 
ATOM      9  N   UNL     1       1.952   6.973  -2.363  1.00  0.00    -0.079 NA
ATOM     10  C   UNL     1       3.403   5.938  -3.777  1.00  0.00     0.053 A 
ATOM     11  O   UNL     1       2.821   7.900  -2.905  1.00  0.00    -0.359 OA
BRANCH   8  12
ATOM     12  C   UNL     1       1.788   4.531  -2.331  1.00  0.00     0.005 A 
ATOM     13  C   UNL     1       0.796   2.071  -1.403  1.00  0.00     0.118 A 
ATOM     14  C   UNL     1      -0.053   2.993  -2.024  1.00  0.00     0.047 A 
ATOM     15  C   UNL     1       2.146   2.380  -1.248  1.00  0.00     0.047 A 
ATOM     16  C   UNL     1       0.433   4.226  -2.474  1.00  0.00     0.014 A 
ATOM     17  C   UNL     1       2.638   3.604  -1.710  1.00  0.00     0.014 A 
BRANCH  13  18
ATOM     18  O   UNL     1       0.205   0.898  -1.023  1.00  0.00    -0.497 OA
ATOM     19  C   UNL     1       0.872   0.162  -0.004  1.00  0.00     0.278 C 
ENDBRANCH  13  18
ENDBRANCH   8  12
BRANCH  10  20
ATOM     20  C   UNL     1       4.114   4.947  -4.551  1.00  0.00    -0.012 A 
ATOM     21  C   UNL     1       3.424   4.189  -5.501  1.00  0.00     0.013 A 
ATOM     22  C   UNL     1       5.478   4.723  -4.350  1.00  0.00     0.013 A 
ATOM     23  C   UNL     1       4.105   3.240  -6.264  1.00  0.00     0.047 A 
ATOM     24  C   UNL     1       6.159   3.779  -5.123  1.00  0.00     0.047 A 
ATOM     25  C   UNL     1       5.477   3.043  -6.093  1.00  0.00     0.118 A 
BRANCH  25  26
ATOM     26  O   UNL     1       6.032   2.104  -6.917  1.00  0.00    -0.497 OA
ATOM     27  C   UNL     1       7.452   2.039  -6.937  1.00  0.00     0.278 C 
ENDBRANCH  25  26
ENDBRANCH  10  20
ENDBRANCH   6   7
ENDBRANCH   4   6
ENDBRANCH   3   4
ENDBRANCH   2   3
ENDBRANCH   1   2
BRANCH   1  28
ATOM     28  O   UNL     1       2.179  11.639  -5.343  1.00  0.00    -0.374 OA
BRANCH  28  29
ATOM     29  C   UNL     1       2.092  10.990  -4.072  1.00  0.00     0.202 C 
BRANCH  29  30
ATOM     30  C   UNL     1       0.686  10.646  -3.565  1.00  0.00     0.261 C 
BRANCH  30  31
ATOM     31  O   UNL     1       0.055   9.623  -4.358  1.00  0.00    -0.460 OA
BRANCH  31  32
ATOM     32  C   UNL     1      -1.086   9.999  -4.976  1.00  0.00     0.338 C 
ATOM     33  O   UNL     1      -1.665  11.075  -4.881  1.00  0.00    -0.246 OA
BRANCH  32  34
ATOM     34  C   UNL     1      -1.489   8.984  -5.963  1.00  0.00     0.060 A 
ATOM     35  C   UNL     1      -1.715   9.413  -7.279  1.00  0.00     0.016 A 
ATOM     36  C   UNL     1      -1.740   7.661  -5.594  1.00  0.00     0.016 A 
ATOM     37  C   UNL     1      -2.253   8.536  -8.218  1.00  0.00     0.010 A 
ATOM     38  C   UNL     1      -2.293   6.785  -6.534  1.00  0.00     0.010 A 
ATOM     39  C   UNL     1      -2.590   7.231  -7.836  1.00  0.00    -0.014 A 
BRANCH  39  40
ATOM     40  C   UNL     1      -3.419   6.394  -8.737  1.00  0.00     0.031 A 
ATOM     41  C   UNL     1      -4.904   6.343  -8.508  1.00  0.00     0.074 A 
ATOM     42  C   UNL     1      -2.869   5.710  -9.754  1.00  0.00     0.049 A 
ATOM     43  N   UNL     1      -5.814   5.621  -9.110  1.00  0.00    -0.248 NA
ATOM     44  C   UNL     1      -5.434   7.226  -7.456  1.00  0.00     0.031 C 
ATOM     45  C   UNL     1      -1.454   5.727 -10.119  1.00  0.00     0.029 A 
ATOM     46  N   UNL     1      -3.443   4.856 -10.662  1.00  0.00    -0.354 N 
ATOM     47  C   UNL     1      -7.019   5.953  -8.504  1.00  0.00     0.074 A 
ATOM     48  C   UNL     1      -6.724   6.926  -7.475  1.00  0.00     0.031 C 
ATOM     49  C   UNL     1      -1.267   4.905 -11.167  1.00  0.00     0.029 A 
ATOM     50  C   UNL     1      -2.540   4.280 -11.520  1.00  0.00     0.049 A 
ATOM     51  H   UNL     1      -4.410   4.674 -10.695  1.00  0.00     0.167 HD
ATOM     52  C   UNL     1      -8.261   5.491  -8.782  1.00  0.00     0.037 A 
ATOM     53  C   UNL     1      -2.719   3.334 -12.463  1.00  0.00     0.037 A 
ATOM     54  C   UNL     1      -8.555   4.525  -9.806  1.00  0.00     0.049 A 
ATOM     55  C   UNL     1      -4.096   2.773 -12.699  1.00  0.00     0.074 A 
ATOM     56  C   UNL     1      -9.782   3.994 -10.165  1.00  0.00     0.029 A 
ATOM     57  N   UNL     1      -7.608   3.942 -10.633  1.00  0.00    -0.354 N 
ATOM     58  N   UNL     1      -5.230   3.090 -12.121  1.00  0.00    -0.248 NA
ATOM     59  C   UNL     1      -4.219   1.718 -13.717  1.00  0.00     0.031 C 
ATOM     60  C   UNL     1      -9.571   3.060 -11.185  1.00  0.00     0.029 A 
ATOM     61  C   UNL     1      -8.219   3.043 -11.489  1.00  0.00     0.049 A 
ATOM     62  H   UNL     1      -6.643   4.139 -10.615  1.00  0.00     0.167 HD
ATOM     63  C   UNL     1      -6.201   2.302 -12.725  1.00  0.00     0.074 A 
ATOM     64  C   UNL     1      -5.526   1.490 -13.716  1.00  0.00     0.031 C 
ATOM     65  C   UNL     1      -7.534   2.258 -12.484  1.00  0.00     0.037 A 
BRANCH  52  66
ATOM     66  C   UNL     1      -9.390   6.005  -7.941  1.00  0.00     0.057 A 
ATOM     67  C   UNL     1      -9.885   7.308  -8.083  1.00  0.00     0.134 A 
ATOM     68  C   UNL     1     -10.003   5.180  -6.990  1.00  0.00     0.134 A 
ATOM     69  F   UNL     1      -9.331   8.153  -8.966  1.00  0.00    -0.206 F 
ATOM     70  C   UNL     1     -10.935   7.779  -7.293  1.00  0.00     0.040 A 
ATOM     71  C   UNL     1     -11.069   5.631  -6.211  1.00  0.00     0.040 A 
ATOM     72  F   UNL     1      -9.579   3.921  -6.807  1.00  0.00    -0.206 F 
ATOM     73  C   UNL     1     -11.534   6.937  -6.358  1.00  0.00     0.006 A 
ENDBRANCH  52  66
BRANCH  53  74
ATOM     74  C   UNL     1      -1.559   2.838 -13.244  1.00  0.00     0.057 A 
ATOM     75  C   UNL     1      -1.422   3.134 -14.605  1.00  0.00     0.134 A 
ATOM     76  C   UNL     1      -0.570   2.043 -12.653  1.00  0.00     0.134 A 
ATOM     77  F   UNL     1      -2.351   3.870 -15.232  1.00  0.00    -0.206 F 
ATOM     78  C   UNL     1      -0.349   2.649 -15.353  1.00  0.00     0.040 A 
ATOM     79  C   UNL     1       0.521   1.570 -13.384  1.00  0.00     0.040 A 
ATOM     80  F   UNL     1      -0.645   1.723 -11.353  1.00  0.00    -0.206 F 
ATOM     81  C   UNL     1       0.630   1.868 -14.740  1.00  0.00     0.006 A 
ENDBRANCH  53  74
BRANCH  65  82
ATOM     82  C   UNL     1      -8.363   1.343 -13.335  1.00  0.00     0.057 A 
ATOM     83  C   UNL     1      -8.369  -0.043 -13.145  1.00  0.00     0.134 A 
ATOM     84  C   UNL     1      -9.217   1.867 -14.315  1.00  0.00     0.134 A 
ATOM     85  F   UNL     1      -7.565  -0.607 -12.230  1.00  0.00    -0.206 F 
ATOM     86  C   UNL     1      -9.187  -0.879 -13.907  1.00  0.00     0.040 A 
ATOM     87  C   UNL     1     -10.056   1.044 -15.068  1.00  0.00     0.040 A 
ATOM     88  F   UNL     1      -9.265   3.189 -14.540  1.00  0.00    -0.206 F 
ATOM     89  C   UNL     1     -10.040  -0.334 -14.866  1.00  0.00     0.006 A 
ENDBRANCH  65  82
ENDBRANCH  39  40
ENDBRANCH  32  34
ENDBRANCH  31  32
ENDBRANCH  30  31
ENDBRANCH  29  30
ENDBRANCH  28  29
ENDBRANCH   1  28
TORSDOF 19
