REMARK SMILES CC1(C)[C@H](C#N)C(SCC(=O)OCCOCCOC(=O)c2ccc(-c3c4nc(c(-c5c(F)cccc5F)c5ccc([nH]5)c(-c5c(F)cccc5F)c5nc(c(-c6c(F)cccc6F)c6ccc3[nH]6)C=C5)C=C4)cc2)=NC(=O)[C@@H]1C#N
REMARK SMILES IDX 14 1 13 2 12 3 10 4 11 5 9 6 8 7 7 8 1 9 2 10 3 11 4 12
REMARK SMILES IDX 78 13 76 14 75 15 77 16 5 17 6 18 79 19 80 20 15 21 16 22
REMARK SMILES IDX 17 23 18 24 19 25 20 26 21 27 22 28 74 29 23 30 73 31 24 32
REMARK SMILES IDX 25 33 26 34 67 35 27 36 72 37 66 38 68 39 28 40 71 41 65 42
REMARK SMILES IDX 64 43 29 45 55 46 38 47 54 48 39 49 42 50 53 51 69 52 40 53
REMARK SMILES IDX 41 54 52 56 70 57 43 58 30 59 31 60 36 61 32 62 33 63 35 64
REMARK SMILES IDX 37 65 34 66 56 67 57 68 62 69 58 70 59 71 61 72 63 73 60 74
REMARK SMILES IDX 44 75 45 76 50 77 46 78 47 79 49 80 51 81 48 82
REMARK H PARENT 68 44 42 55
REMARK Flexibility Score: inf
ROOT
ATOM      1  C   UNL     1       0.504   4.510  -5.493  1.00  0.00     0.202 C 
ENDROOT
BRANCH   1   2
ATOM      2  C   UNL     1       1.222   5.710  -4.867  1.00  0.00     0.261 C 
BRANCH   2   3
ATOM      3  O   UNL     1       1.460   5.529  -3.462  1.00  0.00    -0.463 OA
BRANCH   3   4
ATOM      4  C   UNL     1       0.939   6.472  -2.626  1.00  0.00     0.316 C 
ATOM      5  O   UNL     1       0.358   7.484  -3.001  1.00  0.00    -0.251 OA
BRANCH   4   6
ATOM      6  C   UNL     1       1.127   6.158  -1.154  1.00  0.00     0.198 C 
BRANCH   6   7
ATOM      7  S   UNL     1       2.055   4.628  -0.827  1.00  0.00    -0.097 SA
BRANCH   7   8
ATOM      8  C   UNL     1       0.810   3.501  -0.303  1.00  0.00     0.095 C 
ATOM      9  C   UNL     1       0.941   0.011  -0.466  1.00  0.00     0.015 C 
ATOM     10  C   UNL     1       0.384   1.065   0.522  1.00  0.00     0.012 C 
ATOM     11  C   UNL     1       0.461   0.336   1.913  1.00  0.00     0.015 C 
ATOM     12  C   UNL     1       1.334   2.330   0.467  1.00  0.00     0.156 C 
ATOM     13  C   UNL     1      -1.096   1.412   0.135  1.00  0.00     0.191 C 
ATOM     14  C   UNL     1      -1.408   2.903  -0.020  1.00  0.00     0.264 C 
ATOM     15  N   UNL     1      -0.435   3.742  -0.515  1.00  0.00    -0.209 NA
ATOM     16  O   UNL     1      -2.548   3.329   0.128  1.00  0.00    -0.271 OA
BRANCH  12  17
ATOM     17  C   UNL     1       1.432   2.828   1.899  1.00  0.00     0.073 C 
ATOM     18  N   UNL     1       1.514   3.242   3.088  1.00  0.00    -0.198 NA
ENDBRANCH  12  17
BRANCH  13  19
ATOM     19  C   UNL     1      -2.111   0.803   1.015  1.00  0.00     0.076 C 
ATOM     20  N   UNL     1      -2.880   0.271   1.712  1.00  0.00    -0.197 NA
ENDBRANCH  13  19
ENDBRANCH   7   8
ENDBRANCH   6   7
ENDBRANCH   4   6
ENDBRANCH   3   4
ENDBRANCH   2   3
ENDBRANCH   1   2
BRANCH   1  21
ATOM     21  O   UNL     1      -0.804   4.220  -5.003  1.00  0.00    -0.374 OA
BRANCH  21  22
ATOM     22  C   UNL     1      -0.908   3.712  -3.676  1.00  0.00     0.202 C 
BRANCH  22  23
ATOM     23  C   UNL     1      -0.338   2.311  -3.467  1.00  0.00     0.261 C 
BRANCH  23  24
ATOM     24  O   UNL     1       1.076   2.249  -3.687  1.00  0.00    -0.460 OA
BRANCH  24  25
ATOM     25  C   UNL     1       1.475   1.074  -4.223  1.00  0.00     0.338 C 
ATOM     26  O   UNL     1       0.837   0.040  -4.304  1.00  0.00    -0.246 OA
BRANCH  25  27
ATOM     27  C   UNL     1       2.811   1.234  -4.797  1.00  0.00     0.060 A 
ATOM     28  C   UNL     1       2.910   1.464  -6.172  1.00  0.00     0.016 A 
ATOM     29  C   UNL     1       3.941   1.014  -4.009  1.00  0.00     0.016 A 
ATOM     30  C   UNL     1       4.157   1.415  -6.782  1.00  0.00     0.010 A 
ATOM     31  C   UNL     1       5.192   0.976  -4.622  1.00  0.00     0.010 A 
ATOM     32  C   UNL     1       5.296   1.130  -6.015  1.00  0.00    -0.014 A 
BRANCH  32  33
ATOM     33  C   UNL     1       6.574   0.848  -6.703  1.00  0.00     0.031 A 
ATOM     34  C   UNL     1       7.014  -0.579  -6.865  1.00  0.00     0.074 A 
ATOM     35  C   UNL     1       7.298   1.860  -7.210  1.00  0.00     0.049 A 
ATOM     36  N   UNL     1       8.090  -1.055  -7.434  1.00  0.00    -0.248 NA
ATOM     37  C   UNL     1       6.122  -1.610  -6.308  1.00  0.00     0.031 C 
ATOM     38  C   UNL     1       6.938   3.275  -7.126  1.00  0.00     0.029 A 
ATOM     39  N   UNL     1       8.483   1.851  -7.895  1.00  0.00    -0.354 N 
ATOM     40  C   UNL     1       8.008  -2.436  -7.300  1.00  0.00     0.074 A 
ATOM     41  C   UNL     1       6.797  -2.720  -6.563  1.00  0.00     0.031 C 
ATOM     42  C   UNL     1       7.888   4.001  -7.738  1.00  0.00     0.029 A 
ATOM     43  C   UNL     1       8.933   3.105  -8.224  1.00  0.00     0.049 A 
ATOM     44  H   UNL     1       8.965   1.025  -8.129  1.00  0.00     0.167 HD
ATOM     45  C   UNL     1       8.862  -3.378  -7.763  1.00  0.00     0.037 A 
ATOM     46  C   UNL     1      10.072   3.481  -8.834  1.00  0.00     0.037 A 
ATOM     47  C   UNL     1      10.063  -3.074  -8.497  1.00  0.00     0.049 A 
ATOM     48  C   UNL     1      11.034   2.417  -9.289  1.00  0.00     0.074 A 
ATOM     49  C   UNL     1      10.992  -3.947  -9.034  1.00  0.00     0.029 A 
ATOM     50  N   UNL     1      10.503  -1.790  -8.789  1.00  0.00    -0.354 N 
ATOM     51  N   UNL     1      10.932   1.113  -9.188  1.00  0.00    -0.248 NA
ATOM     52  C   UNL     1      12.264   2.875  -9.948  1.00  0.00     0.031 C 
ATOM     53  C   UNL     1      12.022  -3.189  -9.601  1.00  0.00     0.029 A 
ATOM     54  C   UNL     1      11.706  -1.846  -9.471  1.00  0.00     0.049 A 
ATOM     55  H   UNL     1      10.029  -0.962  -8.546  1.00  0.00     0.167 HD
ATOM     56  C   UNL     1      12.071   0.593  -9.790  1.00  0.00     0.074 A 
ATOM     57  C   UNL     1      12.839   1.725 -10.269  1.00  0.00     0.031 C 
ATOM     58  C   UNL     1      12.449  -0.701  -9.936  1.00  0.00     0.037 A 
BRANCH  45  59
ATOM     59  C   UNL     1       8.542  -4.814  -7.464  1.00  0.00     0.057 A 
ATOM     60  C   UNL     1       7.463  -5.478  -8.062  1.00  0.00     0.134 A 
ATOM     61  C   UNL     1       9.338  -5.551  -6.577  1.00  0.00     0.134 A 
ATOM     62  F   UNL     1       6.650  -4.828  -8.909  1.00  0.00    -0.206 F 
ATOM     63  C   UNL     1       7.171  -6.812  -7.770  1.00  0.00     0.040 A 
ATOM     64  C   UNL     1       9.073  -6.893  -6.298  1.00  0.00     0.040 A 
ATOM     65  F   UNL     1      10.388  -4.980  -5.968  1.00  0.00    -0.206 F 
ATOM     66  C   UNL     1       7.982  -7.526  -6.890  1.00  0.00     0.006 A 
ENDBRANCH  45  59
BRANCH  46  67
ATOM     67  C   UNL     1      10.363   4.922  -9.035  1.00  0.00     0.057 A 
ATOM     68  C   UNL     1      10.381   5.491 -10.313  1.00  0.00     0.134 A 
ATOM     69  C   UNL     1      10.625   5.768  -7.950  1.00  0.00     0.134 A 
ATOM     70  F   UNL     1      10.153   4.731 -11.394  1.00  0.00    -0.206 F 
ATOM     71  C   UNL     1      10.665   6.844 -10.507  1.00  0.00     0.040 A 
ATOM     72  C   UNL     1      10.884   7.128  -8.127  1.00  0.00     0.040 A 
ATOM     73  F   UNL     1      10.614   5.287  -6.698  1.00  0.00    -0.206 F 
ATOM     74  C   UNL     1      10.912   7.668  -9.410  1.00  0.00     0.006 A 
ENDBRANCH  46  67
BRANCH  58  75
ATOM     75  C   UNL     1      13.735  -0.958 -10.667  1.00  0.00     0.057 A 
ATOM     76  C   UNL     1      14.980  -0.667 -10.097  1.00  0.00     0.134 A 
ATOM     77  C   UNL     1      13.724  -1.543 -11.940  1.00  0.00     0.134 A 
ATOM     78  F   UNL     1      15.058  -0.096  -8.886  1.00  0.00    -0.206 F 
ATOM     79  C   UNL     1      16.171  -0.926 -10.779  1.00  0.00     0.040 A 
ATOM     80  C   UNL     1      14.908  -1.834 -12.618  1.00  0.00     0.040 A 
ATOM     81  F   UNL     1      12.564  -1.856 -12.537  1.00  0.00    -0.206 F 
ATOM     82  C   UNL     1      16.136  -1.518 -12.040  1.00  0.00     0.006 A 
ENDBRANCH  58  75
ENDBRANCH  32  33
ENDBRANCH  25  27
ENDBRANCH  24  25
ENDBRANCH  23  24
ENDBRANCH  22  23
ENDBRANCH  21  22
ENDBRANCH   1  21
TORSDOF 18
