REMARK SMILES CCCOc1ccc(C[N@H+]2CC[C@H](C(=O)OCCOCCOC(=O)c3ccc(-c4c5nc(c(-c6c(F)cccc6F)c6ccc([nH]6)c(-c6c(F)cccc6F)c6nc(c(-c7c(F)cccc7F)c7ccc4[nH]7)C=C6)C=C5)cc3)[C@@H]2C)cc1
REMARK SMILES IDX 17 1 16 2 14 3 15 4 13 5 10 6 11 7 79 8 12 10 80 11 9 12
REMARK SMILES IDX 8 13 5 14 6 15 82 16 7 17 81 18 4 19 3 20 2 21 1 22 18 23
REMARK SMILES IDX 19 24 20 25 21 26 22 27 23 28 24 29 25 30 26 31 78 32 27 33
REMARK SMILES IDX 77 34 28 35 29 36 30 37 71 38 31 39 76 40 70 41 72 42 32 43
REMARK SMILES IDX 75 44 69 45 68 46 33 48 59 49 42 50 58 51 43 52 46 53 57 54
REMARK SMILES IDX 73 55 44 56 45 57 56 59 74 60 47 61 34 62 35 63 40 64 36 65
REMARK SMILES IDX 37 66 39 67 41 68 38 69 60 70 61 71 66 72 62 73 63 74 65 75
REMARK SMILES IDX 67 76 64 77 48 78 49 79 54 80 50 81 51 82 53 83 55 84 52 85
REMARK H PARENT 10 9 72 47 46 58
REMARK Flexibility Score: inf
ROOT
ATOM      1  C   UNL     1      -3.791   3.533   8.553  1.00  0.00     0.261 C 
ENDROOT
BRANCH   1   2
ATOM      2  O   UNL     1      -3.065   2.969   7.458  1.00  0.00    -0.463 OA
BRANCH   2   3
ATOM      3  C   UNL     1      -2.249   3.834   6.792  1.00  0.00     0.315 C 
ATOM      4  O   UNL     1      -2.291   5.052   6.882  1.00  0.00    -0.252 OA
BRANCH   3   5
ATOM      5  C   UNL     1      -1.307   3.053   5.903  1.00  0.00     0.162 C 
ATOM      6  N   UNL     1       0.515   4.102   4.714  1.00  0.00    -0.328 N 
ATOM      7  C   UNL     1      -0.742   4.366   4.011  1.00  0.00     0.263 C 
ATOM      8  C   UNL     1       0.182   3.439   5.987  1.00  0.00     0.195 C 
ATOM      9  H   UNL     1       0.974   4.993   4.902  1.00  0.00     0.348 HD
ATOM     10  C   UNL     1      -1.704   3.281   4.457  1.00  0.00     0.083 C 
ATOM     11  C   UNL     1       0.624   4.332   7.145  1.00  0.00     0.076 C 
BRANCH   6  12
ATOM     12  C   UNL     1       1.565   3.442   3.926  1.00  0.00     0.299 C 
BRANCH  12  13
ATOM     13  C   UNL     1       1.255   2.051   3.414  1.00  0.00     0.006 A 
ATOM     14  C   UNL     1       0.560  -0.497   2.504  1.00  0.00     0.119 A 
ATOM     15  C   UNL     1       1.372  -0.370   3.627  1.00  0.00     0.047 A 
ATOM     16  C   UNL     1       0.053   0.626   1.866  1.00  0.00     0.047 A 
ATOM     17  C   UNL     1       1.715   0.905   4.084  1.00  0.00     0.013 A 
ATOM     18  C   UNL     1       0.452   1.891   2.277  1.00  0.00     0.013 A 
BRANCH  14  19
ATOM     19  O   UNL     1       0.217  -1.732   2.035  1.00  0.00    -0.494 OA
BRANCH  19  20
ATOM     20  C   UNL     1       1.125  -2.164   1.007  1.00  0.00     0.229 C 
BRANCH  20  21
ATOM     21  C   UNL     1       0.702  -1.690  -0.390  1.00  0.00     0.038 C 
ATOM     22  C   UNL     1       1.539  -0.526  -0.911  1.00  0.00     0.007 C 
ENDBRANCH  20  21
ENDBRANCH  19  20
ENDBRANCH  14  19
ENDBRANCH  12  13
ENDBRANCH   6  12
ENDBRANCH   3   5
ENDBRANCH   2   3
ENDBRANCH   1   2
BRANCH   1  23
ATOM     23  C   UNL     1      -3.422   2.840   9.868  1.00  0.00     0.202 C 
BRANCH  23  24
ATOM     24  O   UNL     1      -2.038   2.746  10.198  1.00  0.00    -0.374 OA
BRANCH  24  25
ATOM     25  C   UNL     1      -1.224   1.822   9.474  1.00  0.00     0.202 C 
BRANCH  25  26
ATOM     26  C   UNL     1      -1.481   0.321   9.650  1.00  0.00     0.261 C 
BRANCH  26  27
ATOM     27  O   UNL     1      -2.771  -0.088   9.166  1.00  0.00    -0.460 OA
BRANCH  27  28
ATOM     28  C   UNL     1      -3.602  -0.578  10.118  1.00  0.00     0.338 C 
ATOM     29  O   UNL     1      -3.365  -0.742  11.302  1.00  0.00    -0.246 OA
BRANCH  28  30
ATOM     30  C   UNL     1      -4.954  -0.737   9.558  1.00  0.00     0.060 A 
ATOM     31  C   UNL     1      -5.984   0.042  10.101  1.00  0.00     0.016 A 
ATOM     32  C   UNL     1      -5.221  -1.703   8.589  1.00  0.00     0.016 A 
ATOM     33  C   UNL     1      -7.298  -0.162   9.693  1.00  0.00     0.010 A 
ATOM     34  C   UNL     1      -6.544  -1.919   8.193  1.00  0.00     0.010 A 
ATOM     35  C   UNL     1      -7.588  -1.168   8.763  1.00  0.00    -0.014 A 
BRANCH  35  36
ATOM     36  C   UNL     1      -8.997  -1.527   8.491  1.00  0.00     0.031 A 
ATOM     37  C   UNL     1      -9.599  -2.704   9.205  1.00  0.00     0.074 A 
ATOM     38  C   UNL     1      -9.731  -0.802   7.630  1.00  0.00     0.049 A 
ATOM     39  N   UNL     1     -10.788  -3.232   9.076  1.00  0.00    -0.248 NA
ATOM     40  C   UNL     1      -8.744  -3.375  10.197  1.00  0.00     0.031 C 
ATOM     41  C   UNL     1      -9.265   0.386   6.917  1.00  0.00     0.029 A 
ATOM     42  N   UNL     1     -11.023  -0.968   7.204  1.00  0.00    -0.354 N 
ATOM     43  C   UNL     1     -10.823  -4.301   9.962  1.00  0.00     0.074 A 
ATOM     44  C   UNL     1      -9.528  -4.362  10.605  1.00  0.00     0.031 C 
ATOM     45  C   UNL     1     -10.255   0.833   6.125  1.00  0.00     0.029 A 
ATOM     46  C   UNL     1     -11.407  -0.056   6.253  1.00  0.00     0.049 A 
ATOM     47  H   UNL     1     -11.618  -1.673   7.547  1.00  0.00     0.167 HD
ATOM     48  C   UNL     1     -11.845  -5.150  10.219  1.00  0.00     0.037 A 
ATOM     49  C   UNL     1     -12.551   0.030   5.547  1.00  0.00     0.037 A 
ATOM     50  C   UNL     1     -13.129  -5.085   9.573  1.00  0.00     0.049 A 
ATOM     51  C   UNL     1     -13.644  -0.975   5.793  1.00  0.00     0.074 A 
ATOM     52  C   UNL     1     -14.239  -5.886   9.774  1.00  0.00     0.029 A 
ATOM     53  N   UNL     1     -13.470  -4.168   8.590  1.00  0.00    -0.354 N 
ATOM     54  N   UNL     1     -13.677  -1.969   6.648  1.00  0.00    -0.248 NA
ATOM     55  C   UNL     1     -14.858  -0.847   4.975  1.00  0.00     0.031 C 
ATOM     56  C   UNL     1     -15.235  -5.485   8.878  1.00  0.00     0.029 A 
ATOM     57  C   UNL     1     -14.764  -4.401   8.154  1.00  0.00     0.049 A 
ATOM     58  H   UNL     1     -12.880  -3.456   8.252  1.00  0.00     0.167 HD
ATOM     59  C   UNL     1     -14.921  -2.567   6.489  1.00  0.00     0.074 A 
ATOM     60  C   UNL     1     -15.617  -1.818   5.464  1.00  0.00     0.031 C 
ATOM     61  C   UNL     1     -15.441  -3.640   7.135  1.00  0.00     0.037 A 
BRANCH  48  62
ATOM     62  C   UNL     1     -11.604  -6.239  11.222  1.00  0.00     0.057 A 
ATOM     63  C   UNL     1     -11.501  -5.975  12.594  1.00  0.00     0.134 A 
ATOM     64  C   UNL     1     -11.498  -7.574  10.812  1.00  0.00     0.134 A 
ATOM     65  F   UNL     1     -11.577  -4.716  13.051  1.00  0.00    -0.206 F 
ATOM     66  C   UNL     1     -11.279  -6.997  13.519  1.00  0.00     0.040 A 
ATOM     67  C   UNL     1     -11.302  -8.607  11.729  1.00  0.00     0.040 A 
ATOM     68  F   UNL     1     -11.590  -7.897   9.513  1.00  0.00    -0.206 F 
ATOM     69  C   UNL     1     -11.186  -8.319  13.088  1.00  0.00     0.006 A 
ENDBRANCH  48  62
BRANCH  49  70
ATOM     70  C   UNL     1     -12.714   1.095   4.526  1.00  0.00     0.057 A 
ATOM     71  C   UNL     1     -13.622   2.143   4.709  1.00  0.00     0.134 A 
ATOM     72  C   UNL     1     -11.975   1.081   3.336  1.00  0.00     0.134 A 
ATOM     73  F   UNL     1     -14.375   2.197   5.817  1.00  0.00    -0.206 F 
ATOM     74  C   UNL     1     -13.801   3.132   3.741  1.00  0.00     0.040 A 
ATOM     75  C   UNL     1     -12.126   2.077   2.370  1.00  0.00     0.040 A 
ATOM     76  F   UNL     1     -11.088   0.104   3.101  1.00  0.00    -0.206 F 
ATOM     77  C   UNL     1     -13.047   3.103   2.569  1.00  0.00     0.006 A 
ENDBRANCH  49  70
BRANCH  61  78
ATOM     78  C   UNL     1     -16.841  -4.047   6.777  1.00  0.00     0.057 A 
ATOM     79  C   UNL     1     -17.139  -4.680   5.564  1.00  0.00     0.134 A 
ATOM     80  C   UNL     1     -17.894  -3.844   7.678  1.00  0.00     0.134 A 
ATOM     81  F   UNL     1     -16.177  -4.891   4.652  1.00  0.00    -0.206 F 
ATOM     82  C   UNL     1     -18.439  -5.081   5.252  1.00  0.00     0.040 A 
ATOM     83  C   UNL     1     -19.193  -4.264   7.388  1.00  0.00     0.040 A 
ATOM     84  F   UNL     1     -17.674  -3.252   8.861  1.00  0.00    -0.206 F 
ATOM     85  C   UNL     1     -19.469  -4.880   6.170  1.00  0.00     0.006 A 
ENDBRANCH  61  78
ENDBRANCH  35  36
ENDBRANCH  28  30
ENDBRANCH  27  28
ENDBRANCH  26  27
ENDBRANCH  25  26
ENDBRANCH  24  25
ENDBRANCH  23  24
ENDBRANCH   1  23
TORSDOF 19
