REMARK SMILES C[C@@H](C(=O)OCCOCCOC(=O)c1ccc(-c2c3nc(c(-c4c(F)cccc4F)c4ccc([nH]4)c(-c4c(F)cccc4F)c4nc(c(-c5c(F)cccc5F)c5ccc2[nH]5)C=C4)C=C3)cc1)c1ccc(NC2CCCC2)cc1F
REMARK SMILES IDX 7 1 6 2 5 3 3 4 4 5 2 6 1 7 68 8 69 9 79 10 70 11 78 12
REMARK SMILES IDX 80 13 71 14 72 15 73 17 74 18 77 19 75 20 76 21 8 22 9 23
REMARK SMILES IDX 10 24 11 25 12 26 13 27 14 28 15 29 67 30 16 31 66 32 17 33
REMARK SMILES IDX 18 34 19 35 60 36 20 37 65 38 59 39 61 40 21 41 64 42 58 43
REMARK SMILES IDX 57 44 22 46 48 47 31 48 47 49 32 50 35 51 46 52 62 53 33 54
REMARK SMILES IDX 34 55 45 57 63 58 36 59 23 60 24 61 29 62 25 63 26 64 28 65
REMARK SMILES IDX 30 66 27 67 49 68 50 69 55 70 51 71 52 72 54 73 56 74 53 75
REMARK SMILES IDX 37 76 38 77 43 78 39 79 40 80 42 81 44 82 41 83
REMARK H PARENT 72 16 61 45 35 56
REMARK Flexibility Score: inf
ROOT
ATOM      1  C   UNL     1       2.640  -3.458  -3.163  1.00  0.00     0.202 C 
ENDROOT
BRANCH   1   2
ATOM      2  C   UNL     1       2.290  -2.077  -3.727  1.00  0.00     0.261 C 
BRANCH   2   3
ATOM      3  O   UNL     1       2.015  -1.160  -2.645  1.00  0.00    -0.463 OA
BRANCH   3   4
ATOM      4  C   UNL     1       0.908  -0.382  -2.788  1.00  0.00     0.313 C 
ATOM      5  O   UNL     1       0.254  -0.306  -3.822  1.00  0.00    -0.252 OA
BRANCH   4   6
ATOM      6  C   UNL     1       0.580   0.420  -1.521  1.00  0.00     0.129 C 
ATOM      7  C   UNL     1       1.349   0.007  -0.264  1.00  0.00     0.025 C 
BRANCH   6   8
ATOM      8  C   UNL     1      -0.922   0.444  -1.285  1.00  0.00     0.002 A 
ATOM      9  C   UNL     1      -1.648   1.615  -1.509  1.00  0.00     0.010 A 
ATOM     10  C   UNL     1      -1.644  -0.696  -0.929  1.00  0.00     0.129 A 
ATOM     11  C   UNL     1      -3.048   1.613  -1.421  1.00  0.00     0.026 A 
ATOM     12  C   UNL     1      -3.035  -0.701  -0.867  1.00  0.00     0.065 A 
ATOM     13  F   UNL     1      -1.009  -1.836  -0.634  1.00  0.00    -0.207 F 
ATOM     14  C   UNL     1      -3.774   0.452  -1.137  1.00  0.00     0.037 A 
BRANCH  14  15
ATOM     15  N   UNL     1      -5.149   0.381  -1.075  1.00  0.00    -0.382 N 
ATOM     16  H   UNL     1      -5.519  -0.524  -0.955  1.00  0.00     0.160 HD
BRANCH  15  17
ATOM     17  C   UNL     1      -6.128   1.448  -1.160  1.00  0.00     0.079 C 
ATOM     18  C   UNL     1      -5.993   2.483  -0.048  1.00  0.00     0.025 C 
ATOM     19  C   UNL     1      -6.131   2.211  -2.487  1.00  0.00     0.025 C 
ATOM     20  C   UNL     1      -6.620   3.732  -0.643  1.00  0.00     0.002 C 
ATOM     21  C   UNL     1      -6.239   3.690  -2.117  1.00  0.00     0.002 C 
ENDBRANCH  15  17
ENDBRANCH  14  15
ENDBRANCH   6   8
ENDBRANCH   4   6
ENDBRANCH   3   4
ENDBRANCH   2   3
ENDBRANCH   1   2
BRANCH   1  22
ATOM     22  O   UNL     1       1.536  -4.279  -2.763  1.00  0.00    -0.374 OA
BRANCH  22  23
ATOM     23  C   UNL     1       0.741  -3.795  -1.683  1.00  0.00     0.202 C 
BRANCH  23  24
ATOM     24  C   UNL     1       1.234  -4.128  -0.269  1.00  0.00     0.261 C 
BRANCH  24  25
ATOM     25  O   UNL     1       2.625  -3.828  -0.092  1.00  0.00    -0.460 OA
BRANCH  25  26
ATOM     26  C   UNL     1       3.428  -4.915  -0.149  1.00  0.00     0.338 C 
ATOM     27  O   UNL     1       3.095  -6.093  -0.178  1.00  0.00    -0.246 OA
BRANCH  26  28
ATOM     28  C   UNL     1       4.821  -4.491  -0.352  1.00  0.00     0.060 A 
ATOM     29  C   UNL     1       5.497  -5.030  -1.454  1.00  0.00     0.016 A 
ATOM     30  C   UNL     1       5.471  -3.632   0.537  1.00  0.00     0.016 A 
ATOM     31  C   UNL     1       6.846  -4.753  -1.644  1.00  0.00     0.010 A 
ATOM     32  C   UNL     1       6.831  -3.365   0.352  1.00  0.00     0.010 A 
ATOM     33  C   UNL     1       7.529  -3.955  -0.717  1.00  0.00    -0.014 A 
BRANCH  33  34
ATOM     34  C   UNL     1       9.006  -3.889  -0.783  1.00  0.00     0.031 A 
ATOM     35  C   UNL     1       9.809  -4.809   0.094  1.00  0.00     0.074 A 
ATOM     36  C   UNL     1       9.620  -3.066  -1.651  1.00  0.00     0.049 A 
ATOM     37  N   UNL     1      11.107  -4.938   0.194  1.00  0.00    -0.248 NA
ATOM     38  C   UNL     1       9.044  -5.705   0.976  1.00  0.00     0.031 C 
ATOM     39  C   UNL     1       8.944  -2.163  -2.580  1.00  0.00     0.029 A 
ATOM     40  N   UNL     1      10.955  -2.863  -1.890  1.00  0.00    -0.354 N 
ATOM     41  C   UNL     1      11.313  -5.926   1.149  1.00  0.00     0.074 A 
ATOM     42  C   UNL     1      10.011  -6.341   1.621  1.00  0.00     0.031 C 
ATOM     43  C   UNL     1       9.872  -1.498  -3.291  1.00  0.00     0.029 A 
ATOM     44  C   UNL     1      11.202  -1.910  -2.846  1.00  0.00     0.049 A 
ATOM     45  H   UNL     1      11.668  -3.353  -1.421  1.00  0.00     0.167 HD
ATOM     46  C   UNL     1      12.484  -6.446   1.585  1.00  0.00     0.037 A 
ATOM     47  C   UNL     1      12.372  -1.419  -3.298  1.00  0.00     0.037 A 
ATOM     48  C   UNL     1      13.777  -6.031   1.111  1.00  0.00     0.049 A 
ATOM     49  C   UNL     1      13.661  -1.965  -2.745  1.00  0.00     0.074 A 
ATOM     50  C   UNL     1      15.024  -6.509   1.475  1.00  0.00     0.029 A 
ATOM     51  N   UNL     1      13.989  -5.031   0.174  1.00  0.00    -0.354 N 
ATOM     52  N   UNL     1      13.847  -2.917  -1.863  1.00  0.00    -0.248 NA
ATOM     53  C   UNL     1      14.905  -1.367  -3.252  1.00  0.00     0.031 C 
ATOM     54  C   UNL     1      15.992  -5.765   0.792  1.00  0.00     0.029 A 
ATOM     55  C   UNL     1      15.347  -4.857  -0.032  1.00  0.00     0.049 A 
ATOM     56  H   UNL     1      13.278  -4.520  -0.277  1.00  0.00     0.167 HD
ATOM     57  C   UNL     1      15.223  -3.053  -1.731  1.00  0.00     0.074 A 
ATOM     58  C   UNL     1      15.825  -2.091  -2.631  1.00  0.00     0.031 C 
ATOM     59  C   UNL     1      15.926  -3.898  -0.938  1.00  0.00     0.037 A 
BRANCH  46  60
ATOM     60  C   UNL     1      12.416  -7.500   2.649  1.00  0.00     0.057 A 
ATOM     61  C   UNL     1      11.970  -8.800   2.377  1.00  0.00     0.134 A 
ATOM     62  C   UNL     1      12.824  -7.217   3.959  1.00  0.00     0.134 A 
ATOM     63  F   UNL     1      11.549  -9.131   1.147  1.00  0.00    -0.206 F 
ATOM     64  C   UNL     1      11.911  -9.775   3.375  1.00  0.00     0.040 A 
ATOM     65  C   UNL     1      12.793  -8.190   4.959  1.00  0.00     0.040 A 
ATOM     66  F   UNL     1      13.263  -5.993   4.285  1.00  0.00    -0.206 F 
ATOM     67  C   UNL     1      12.330  -9.472   4.670  1.00  0.00     0.006 A 
ENDBRANCH  46  60
BRANCH  47  68
ATOM     68  C   UNL     1      12.382  -0.348  -4.326  1.00  0.00     0.057 A 
ATOM     69  C   UNL     1      12.836  -0.594  -5.626  1.00  0.00     0.134 A 
ATOM     70  C   UNL     1      11.957   0.952  -4.026  1.00  0.00     0.134 A 
ATOM     71  F   UNL     1      13.279  -1.812  -5.968  1.00  0.00    -0.206 F 
ATOM     72  C   UNL     1      12.882   0.418  -6.588  1.00  0.00     0.040 A 
ATOM     73  C   UNL     1      11.975   1.967  -4.983  1.00  0.00     0.040 A 
ATOM     74  F   UNL     1      11.510   1.252  -2.797  1.00  0.00    -0.206 F 
ATOM     75  C   UNL     1      12.445   1.702  -6.268  1.00  0.00     0.006 A 
ENDBRANCH  47  68
BRANCH  59  76
ATOM     76  C   UNL     1      17.423  -3.845  -1.033  1.00  0.00     0.057 A 
ATOM     77  C   UNL     1      18.160  -2.785  -0.492  1.00  0.00     0.134 A 
ATOM     78  C   UNL     1      18.136  -4.890  -1.635  1.00  0.00     0.134 A 
ATOM     79  F   UNL     1      17.536  -1.748   0.087  1.00  0.00    -0.206 F 
ATOM     80  C   UNL     1      19.554  -2.755  -0.565  1.00  0.00     0.040 A 
ATOM     81  C   UNL     1      19.530  -4.884  -1.691  1.00  0.00     0.040 A 
ATOM     82  F   UNL     1      17.489  -5.940  -2.163  1.00  0.00    -0.206 F 
ATOM     83  C   UNL     1      20.243  -3.811  -1.160  1.00  0.00     0.006 A 
ENDBRANCH  59  76
ENDBRANCH  33  34
ENDBRANCH  26  28
ENDBRANCH  25  26
ENDBRANCH  24  25
ENDBRANCH  23  24
ENDBRANCH  22  23
ENDBRANCH   1  22
TORSDOF 17
