REMARK SMILES COc1ccc(N2C(=O)S[C@@H](CC(=O)Nc3nc(CC(=O)OCCOCCOC(=O)c4ccc(-c5c6nc(c(-c7c(F)cccc7F)c7ccc([nH]7)c(-c7c(F)cccc7F)c7nc(c(-c8c(F)cccc8F)c8ccc5[nH]8)C=C7)C=C6)cc4)cs3)C2=O)cc1
REMARK SMILES IDX 23 1 22 2 20 3 21 4 19 5 18 6 16 7 17 8 86 9 85 10 15 11
REMARK SMILES IDX 13 12 14 13 12 15 11 16 7 17 8 18 87 19 9 20 10 21 88 22
REMARK SMILES IDX 6 23 3 24 4 25 90 26 5 27 89 28 2 29 1 30 24 31 25 32 26 33
REMARK SMILES IDX 27 34 28 35 29 36 30 37 31 38 32 39 84 40 33 41 83 42 34 43
REMARK SMILES IDX 35 44 36 45 77 46 37 47 82 48 76 49 78 50 38 51 81 52 75 53
REMARK SMILES IDX 74 54 39 56 65 57 48 58 64 59 49 60 52 61 63 62 79 63 50 64
REMARK SMILES IDX 51 65 62 67 80 68 53 69 40 70 41 71 46 72 42 73 43 74 45 75
REMARK SMILES IDX 47 76 44 77 66 78 67 79 72 80 68 81 69 82 71 83 73 84 70 85
REMARK SMILES IDX 54 86 55 87 60 88 56 89 57 90 59 91 61 92 58 93
REMARK H PARENT 15 14 78 55 52 66
REMARK Flexibility Score: inf
ROOT
ATOM      1  C   UNL     1       7.348   7.707   0.897  1.00  0.00     0.261 C 
ENDROOT
BRANCH   1   2
ATOM      2  O   UNL     1       6.150   8.337   1.387  1.00  0.00    -0.463 OA
BRANCH   2   3
ATOM      3  C   UNL     1       6.339   9.261   2.365  1.00  0.00     0.311 C 
ATOM      4  O   UNL     1       7.431   9.526   2.864  1.00  0.00    -0.252 OA
BRANCH   3   5
ATOM      5  C   UNL     1       5.104  10.007   2.799  1.00  0.00     0.179 C 
BRANCH   5   6
ATOM      6  C   UNL     1       3.828   9.784   2.052  1.00  0.00     0.065 A 
ATOM      7  C   UNL     1       1.762   9.019   1.950  1.00  0.00     0.189 A 
ATOM      8  N   UNL     1       2.860   8.999   2.649  1.00  0.00    -0.224 NA
ATOM      9  S   UNL     1       1.812   9.873   0.483  1.00  0.00    -0.105 S 
ATOM     10  C   UNL     1       3.389  10.420   0.903  1.00  0.00     0.093 A 
BRANCH   7  11
ATOM     11  N   UNL     1       0.562   8.476   2.278  1.00  0.00    -0.302 N 
ATOM     12  C   UNL     1       0.207   8.023   3.508  1.00  0.00     0.227 C 
ATOM     13  O   UNL     1      -0.916   7.525   3.627  1.00  0.00    -0.275 OA
ATOM     14  H   UNL     1      -0.110   8.405   1.562  1.00  0.00     0.172 HD
BRANCH  12  15
ATOM     15  C   UNL     1       1.118   8.145   4.726  1.00  0.00     0.125 C 
BRANCH  15  16
ATOM     16  C   UNL     1       1.877   6.878   5.125  1.00  0.00     0.156 C 
ATOM     17  N   UNL     1       2.199   5.310   3.346  1.00  0.00    -0.240 N 
ATOM     18  C   UNL     1       3.458   5.874   3.348  1.00  0.00     0.293 C 
ATOM     19  C   UNL     1       1.384   5.646   4.414  1.00  0.00     0.248 C 
ATOM     20  O   UNL     1       4.358   5.746   2.539  1.00  0.00    -0.261 OA
ATOM     21  S   UNL     1       3.657   6.900   4.762  1.00  0.00    -0.050 SA
ATOM     22  O   UNL     1       0.397   5.031   4.810  1.00  0.00    -0.273 OA
BRANCH  17  23
ATOM     23  C   UNL     1       1.787   4.336   2.393  1.00  0.00     0.053 A 
ATOM     24  C   UNL     1       0.911   2.320   0.630  1.00  0.00     0.119 A 
ATOM     25  C   UNL     1       0.011   3.263   1.117  1.00  0.00     0.048 A 
ATOM     26  C   UNL     1       2.255   2.410   0.984  1.00  0.00     0.048 A 
ATOM     27  C   UNL     1       0.439   4.247   2.011  1.00  0.00     0.031 A 
ATOM     28  C   UNL     1       2.695   3.427   1.839  1.00  0.00     0.031 A 
BRANCH  24  29
ATOM     29  O   UNL     1       0.398   1.381  -0.219  1.00  0.00    -0.497 OA
ATOM     30  C   UNL     1       0.959   0.078  -0.065  1.00  0.00     0.278 C 
ENDBRANCH  24  29
ENDBRANCH  17  23
ENDBRANCH  15  16
ENDBRANCH  12  15
ENDBRANCH   7  11
ENDBRANCH   5   6
ENDBRANCH   3   5
ENDBRANCH   2   3
ENDBRANCH   1   2
BRANCH   1  31
ATOM     31  C   UNL     1       7.574   7.930  -0.603  1.00  0.00     0.202 C 
BRANCH  31  32
ATOM     32  O   UNL     1       7.582   9.271  -1.087  1.00  0.00    -0.374 OA
BRANCH  32  33
ATOM     33  C   UNL     1       6.354   9.993  -1.072  1.00  0.00     0.202 C 
BRANCH  33  34
ATOM     34  C   UNL     1       5.244   9.554  -2.039  1.00  0.00     0.261 C 
BRANCH  34  35
ATOM     35  O   UNL     1       4.833   8.189  -1.864  1.00  0.00    -0.460 OA
BRANCH  35  36
ATOM     36  C   UNL     1       5.102   7.396  -2.931  1.00  0.00     0.338 C 
ATOM     37  O   UNL     1       5.561   7.741  -4.008  1.00  0.00    -0.246 OA
BRANCH  36  38
ATOM     38  C   UNL     1       4.935   5.973  -2.591  1.00  0.00     0.060 A 
ATOM     39  C   UNL     1       6.045   5.141  -2.791  1.00  0.00     0.016 A 
ATOM     40  C   UNL     1       3.701   5.438  -2.220  1.00  0.00     0.016 A 
ATOM     41  C   UNL     1       5.909   3.761  -2.683  1.00  0.00     0.010 A 
ATOM     42  C   UNL     1       3.566   4.048  -2.118  1.00  0.00     0.010 A 
ATOM     43  C   UNL     1       4.658   3.203  -2.387  1.00  0.00    -0.014 A 
BRANCH  43  44
ATOM     44  C   UNL     1       4.487   1.734  -2.486  1.00  0.00     0.031 A 
ATOM     45  C   UNL     1       3.804   1.147  -3.691  1.00  0.00     0.074 A 
ATOM     46  C   UNL     1       4.989   0.928  -1.535  1.00  0.00     0.049 A 
ATOM     47  N   UNL     1       3.562  -0.107  -3.979  1.00  0.00    -0.248 NA
ATOM     48  C   UNL     1       3.338   2.100  -4.711  1.00  0.00     0.031 C 
ATOM     49  C   UNL     1       5.709   1.377  -0.344  1.00  0.00     0.029 A 
ATOM     50  N   UNL     1       4.963  -0.439  -1.419  1.00  0.00    -0.354 N 
ATOM     51  C   UNL     1       2.916  -0.093  -5.210  1.00  0.00     0.074 A 
ATOM     52  C   UNL     1       2.770   1.294  -5.596  1.00  0.00     0.031 C 
ATOM     53  C   UNL     1       6.050   0.303   0.389  1.00  0.00     0.029 A 
ATOM     54  C   UNL     1       5.551  -0.903  -0.268  1.00  0.00     0.049 A 
ATOM     55  H   UNL     1       4.561  -1.030  -2.096  1.00  0.00     0.167 HD
ATOM     56  C   UNL     1       2.493  -1.143  -5.955  1.00  0.00     0.037 A 
ATOM     57  C   UNL     1       5.658  -2.158   0.208  1.00  0.00     0.037 A 
ATOM     58  C   UNL     1       2.640  -2.522  -5.566  1.00  0.00     0.049 A 
ATOM     59  C   UNL     1       5.111  -3.302  -0.601  1.00  0.00     0.074 A 
ATOM     60  C   UNL     1       2.261  -3.659  -6.258  1.00  0.00     0.029 A 
ATOM     61  N   UNL     1       3.203  -2.950  -4.373  1.00  0.00    -0.354 N 
ATOM     62  N   UNL     1       4.522  -3.280  -1.773  1.00  0.00    -0.248 NA
ATOM     63  C   UNL     1       5.248  -4.647  -0.025  1.00  0.00     0.031 C 
ATOM     64  C   UNL     1       2.536  -4.771  -5.457  1.00  0.00     0.029 A 
ATOM     65  C   UNL     1       3.148  -4.332  -4.293  1.00  0.00     0.049 A 
ATOM     66  H   UNL     1       3.585  -2.359  -3.685  1.00  0.00     0.167 HD
ATOM     67  C   UNL     1       4.250  -4.606  -2.089  1.00  0.00     0.074 A 
ATOM     68  C   UNL     1       4.747  -5.406  -0.989  1.00  0.00     0.031 C 
ATOM     69  C   UNL     1       3.646  -5.116  -3.191  1.00  0.00     0.037 A 
BRANCH  56  70
ATOM     70  C   UNL     1       1.801  -0.840  -7.254  1.00  0.00     0.057 A 
ATOM     71  C   UNL     1       2.486  -0.325  -8.363  1.00  0.00     0.134 A 
ATOM     72  C   UNL     1       0.433  -1.104  -7.410  1.00  0.00     0.134 A 
ATOM     73  F   UNL     1       3.795  -0.039  -8.280  1.00  0.00    -0.206 F 
ATOM     74  C   UNL     1       1.833  -0.060  -9.568  1.00  0.00     0.040 A 
ATOM     75  C   UNL     1      -0.225  -0.871  -8.619  1.00  0.00     0.040 A 
ATOM     76  F   UNL     1      -0.284  -1.606  -6.393  1.00  0.00    -0.206 F 
ATOM     77  C   UNL     1       0.474  -0.341  -9.700  1.00  0.00     0.006 A 
ENDBRANCH  56  70
BRANCH  57  78
ATOM     78  C   UNL     1       6.302  -2.397   1.525  1.00  0.00     0.057 A 
ATOM     79  C   UNL     1       7.521  -3.075   1.628  1.00  0.00     0.134 A 
ATOM     80  C   UNL     1       5.702  -1.963   2.714  1.00  0.00     0.134 A 
ATOM     81  F   UNL     1       8.134  -3.534   0.527  1.00  0.00    -0.206 F 
ATOM     82  C   UNL     1       8.113  -3.330   2.867  1.00  0.00     0.040 A 
ATOM     83  C   UNL     1       6.296  -2.185   3.957  1.00  0.00     0.040 A 
ATOM     84  F   UNL     1       4.535  -1.303   2.681  1.00  0.00    -0.206 F 
ATOM     85  C   UNL     1       7.502  -2.879   4.035  1.00  0.00     0.006 A 
ENDBRANCH  57  78
BRANCH  69  86
ATOM     86  C   UNL     1       3.519  -6.610  -3.279  1.00  0.00     0.057 A 
ATOM     87  C   UNL     1       2.640  -7.330  -2.459  1.00  0.00     0.134 A 
ATOM     88  C   UNL     1       4.259  -7.334  -4.223  1.00  0.00     0.134 A 
ATOM     89  F   UNL     1       1.910  -6.700  -1.526  1.00  0.00    -0.206 F 
ATOM     90  C   UNL     1       2.522  -8.718  -2.558  1.00  0.00     0.040 A 
ATOM     91  C   UNL     1       4.126  -8.717  -4.353  1.00  0.00     0.040 A 
ATOM     92  F   UNL     1       5.112  -6.706  -5.048  1.00  0.00    -0.206 F 
ATOM     93  C   UNL     1       3.261  -9.414  -3.512  1.00  0.00     0.006 A 
ENDBRANCH  69  86
ENDBRANCH  43  44
ENDBRANCH  36  38
ENDBRANCH  35  36
ENDBRANCH  34  35
ENDBRANCH  33  34
ENDBRANCH  32  33
ENDBRANCH  31  32
ENDBRANCH   1  31
TORSDOF 20
