REMARK SMILES C[C@@H](C(=O)OCCOCCOC(=O)c1ccc(-c2c3nc(c(-c4c(F)cccc4F)c4ccc([nH]4)c(-c4c(F)cccc4F)c4nc(c(-c5c(F)cccc5F)c5ccc2[nH]5)C=C4)C=C3)cc1)c1ccc2c(c1)[nH]c1ccc(Cl)cc12
REMARK SMILES IDX 9 1 8 2 7 3 6 4 5 5 3 6 4 7 2 8 1 9 68 10 69 11 73 12 70 13
REMARK SMILES IDX 72 14 71 15 74 16 81 17 75 18 80 20 76 21 78 22 77 23 79 24
REMARK SMILES IDX 10 25 11 26 12 27 13 28 14 29 15 30 67 31 16 32 66 33 17 34
REMARK SMILES IDX 18 35 19 36 60 37 20 38 65 39 59 40 61 41 21 42 64 43 58 44
REMARK SMILES IDX 57 45 22 47 48 48 31 49 47 50 32 51 35 52 46 53 62 54 33 55
REMARK SMILES IDX 34 56 45 58 63 59 36 60 23 61 24 62 29 63 25 64 26 65 28 66
REMARK SMILES IDX 30 67 27 68 49 69 50 70 55 71 51 72 52 73 54 74 56 75 53 76
REMARK SMILES IDX 37 77 38 78 43 79 39 80 40 81 42 82 44 83 41 84
REMARK H PARENT 74 19 61 46 35 57
REMARK Flexibility Score: inf
ROOT
ATOM      1  C   UNL     1       0.472   3.545  -0.790  1.00  0.00     0.202 C 
ENDROOT
BRANCH   1   2
ATOM      2  O   UNL     1       0.918   4.672  -0.038  1.00  0.00    -0.374 OA
BRANCH   2   3
ATOM      3  C   UNL     1       2.159   4.550   0.657  1.00  0.00     0.202 C 
BRANCH   3   4
ATOM      4  C   UNL     1       2.133   3.734   1.952  1.00  0.00     0.261 C 
BRANCH   4   5
ATOM      5  O   UNL     1       1.870   2.348   1.671  1.00  0.00    -0.463 OA
BRANCH   5   6
ATOM      6  C   UNL     1       0.748   1.826   2.239  1.00  0.00     0.313 C 
ATOM      7  O   UNL     1       0.081   2.402   3.091  1.00  0.00    -0.252 OA
BRANCH   6   8
ATOM      8  C   UNL     1       0.435   0.420   1.714  1.00  0.00     0.126 C 
ATOM      9  C   UNL     1       1.162   0.009   0.428  1.00  0.00     0.025 C 
BRANCH   8  10
ATOM     10  C   UNL     1      -1.062   0.148   1.563  1.00  0.00    -0.032 A 
ATOM     11  C   UNL     1      -1.984   1.137   1.183  1.00  0.00     0.005 A 
ATOM     12  C   UNL     1      -1.522  -1.152   1.827  1.00  0.00     0.031 A 
ATOM     13  C   UNL     1      -3.362   0.873   1.129  1.00  0.00     0.011 A 
ATOM     14  C   UNL     1      -2.900  -1.386   1.806  1.00  0.00     0.047 A 
ATOM     15  C   UNL     1      -3.835  -0.407   1.479  1.00  0.00     0.007 A 
ATOM     16  N   UNL     1      -3.597  -2.527   2.115  1.00  0.00    -0.355 N 
ATOM     17  C   UNL     1      -5.135  -0.988   1.646  1.00  0.00     0.009 A 
ATOM     18  C   UNL     1      -4.950  -2.292   2.105  1.00  0.00     0.047 A 
ATOM     19  H   UNL     1      -3.183  -3.397   2.317  1.00  0.00     0.167 HD
ATOM     20  C   UNL     1      -6.454  -0.508   1.503  1.00  0.00     0.031 A 
ATOM     21  C   UNL     1      -6.005  -3.130   2.479  1.00  0.00     0.028 A 
ATOM     22  C   UNL     1      -7.520  -1.338   1.869  1.00  0.00     0.041 A 
ATOM     23  C   UNL     1      -7.301  -2.622   2.364  1.00  0.00     0.022 A 
ATOM     24  Cl  UNL     1      -9.135  -0.756   1.724  1.00  0.00    -0.084 Cl
ENDBRANCH   8  10
ENDBRANCH   6   8
ENDBRANCH   5   6
ENDBRANCH   4   5
ENDBRANCH   3   4
ENDBRANCH   2   3
ENDBRANCH   1   2
BRANCH   1  25
ATOM     25  C   UNL     1       1.137   3.315  -2.152  1.00  0.00     0.261 C 
BRANCH  25  26
ATOM     26  O   UNL     1       2.542   3.031  -2.036  1.00  0.00    -0.460 OA
BRANCH  26  27
ATOM     27  C   UNL     1       3.353   4.011  -2.499  1.00  0.00     0.338 C 
ATOM     28  O   UNL     1       3.019   5.043  -3.068  1.00  0.00    -0.246 OA
BRANCH  27  29
ATOM     29  C   UNL     1       4.744   3.771  -2.077  1.00  0.00     0.060 A 
ATOM     30  C   UNL     1       5.400   4.813  -1.410  1.00  0.00     0.016 A 
ATOM     31  C   UNL     1       5.425   2.596  -2.403  1.00  0.00     0.016 A 
ATOM     32  C   UNL     1       6.757   4.710  -1.118  1.00  0.00     0.010 A 
ATOM     33  C   UNL     1       6.791   2.497  -2.116  1.00  0.00     0.010 A 
ATOM     34  C   UNL     1       7.471   3.569  -1.509  1.00  0.00    -0.014 A 
BRANCH  34  35
ATOM     35  C   UNL     1       8.951   3.576  -1.419  1.00  0.00     0.031 A 
ATOM     36  C   UNL     1       9.755   3.886  -2.653  1.00  0.00     0.074 A 
ATOM     37  C   UNL     1       9.571   3.355  -0.247  1.00  0.00     0.049 A 
ATOM     38  N   UNL     1      11.053   3.938  -2.806  1.00  0.00    -0.248 NA
ATOM     39  C   UNL     1       8.991   4.179  -3.877  1.00  0.00     0.031 C 
ATOM     40  C   UNL     1       8.903   3.088   1.025  1.00  0.00     0.029 A 
ATOM     41  N   UNL     1      10.908   3.322   0.060  1.00  0.00    -0.354 N 
ATOM     42  C   UNL     1      11.262   4.261  -4.141  1.00  0.00     0.074 A 
ATOM     43  C   UNL     1       9.959   4.367  -4.761  1.00  0.00     0.031 C 
ATOM     44  C   UNL     1       9.835   2.912   1.978  1.00  0.00     0.029 A 
ATOM     45  C   UNL     1      11.162   3.026   1.376  1.00  0.00     0.049 A 
ATOM     46  H   UNL     1      11.617   3.495  -0.601  1.00  0.00     0.167 HD
ATOM     47  C   UNL     1      12.434   4.462  -4.789  1.00  0.00     0.037 A 
ATOM     48  C   UNL     1      12.334   2.849   2.016  1.00  0.00     0.037 A 
ATOM     49  C   UNL     1      13.730   4.364  -4.171  1.00  0.00     0.049 A 
ATOM     50  C   UNL     1      13.624   3.010   1.256  1.00  0.00     0.074 A 
ATOM     51  C   UNL     1      14.975   4.573  -4.739  1.00  0.00     0.029 A 
ATOM     52  N   UNL     1      13.947   4.024  -2.845  1.00  0.00    -0.354 N 
ATOM     53  N   UNL     1      13.810   3.340   0.001  1.00  0.00    -0.248 NA
ATOM     54  C   UNL     1      14.868   2.773   2.004  1.00  0.00     0.031 C 
ATOM     55  C   UNL     1      15.947   4.313  -3.768  1.00  0.00     0.029 A 
ATOM     56  C   UNL     1      15.306   3.990  -2.583  1.00  0.00     0.049 A 
ATOM     57  H   UNL     1      13.240   3.834  -2.187  1.00  0.00     0.167 HD
ATOM     58  C   UNL     1      15.187   3.380  -0.183  1.00  0.00     0.074 A 
ATOM     59  C   UNL     1      15.789   3.050   1.091  1.00  0.00     0.031 C 
ATOM     60  C   UNL     1      15.890   3.667  -1.306  1.00  0.00     0.037 A 
BRANCH  47  61
ATOM     61  C   UNL     1      12.369   4.784  -6.253  1.00  0.00     0.057 A 
ATOM     62  C   UNL     1      11.938   6.033  -6.718  1.00  0.00     0.134 A 
ATOM     63  C   UNL     1      12.777   3.844  -7.207  1.00  0.00     0.134 A 
ATOM     64  F   UNL     1      11.521   6.972  -5.856  1.00  0.00    -0.206 F 
ATOM     65  C   UNL     1      11.898   6.329  -8.082  1.00  0.00     0.040 A 
ATOM     66  C   UNL     1      12.764   4.136  -8.572  1.00  0.00     0.040 A 
ATOM     67  F   UNL     1      13.204   2.630  -6.828  1.00  0.00    -0.206 F 
ATOM     68  C   UNL     1      12.318   5.380  -9.013  1.00  0.00     0.006 A 
ENDBRANCH  47  61
BRANCH  48  69
ATOM     69  C   UNL     1      12.349   2.488   3.456  1.00  0.00     0.057 A 
ATOM     70  C   UNL     1      12.810   3.385   4.425  1.00  0.00     0.134 A 
ATOM     71  C   UNL     1      11.927   1.226   3.893  1.00  0.00     0.134 A 
ATOM     72  F   UNL     1      13.251   4.600   4.065  1.00  0.00    -0.206 F 
ATOM     73  C   UNL     1      12.868   3.037   5.775  1.00  0.00     0.040 A 
ATOM     74  C   UNL     1      11.957   0.873   5.242  1.00  0.00     0.040 A 
ATOM     75  F   UNL     1      11.475   0.321   3.013  1.00  0.00    -0.206 F 
ATOM     76  C   UNL     1      12.436   1.777   6.188  1.00  0.00     0.006 A 
ENDBRANCH  48  69
BRANCH  60  77
ATOM     77  C   UNL     1      17.387   3.673  -1.199  1.00  0.00     0.057 A 
ATOM     78  C   UNL     1      18.125   2.488  -1.086  1.00  0.00     0.134 A 
ATOM     79  C   UNL     1      18.100   4.877  -1.253  1.00  0.00     0.134 A 
ATOM     80  F   UNL     1      17.501   1.302  -1.017  1.00  0.00    -0.206 F 
ATOM     81  C   UNL     1      19.518   2.503  -1.008  1.00  0.00     0.040 A 
ATOM     82  C   UNL     1      19.494   4.903  -1.202  1.00  0.00     0.040 A 
ATOM     83  F   UNL     1      17.454   6.047  -1.371  1.00  0.00    -0.206 F 
ATOM     84  C   UNL     1      20.207   3.713  -1.073  1.00  0.00     0.006 A 
ENDBRANCH  60  77
ENDBRANCH  34  35
ENDBRANCH  27  29
ENDBRANCH  26  27
ENDBRANCH  25  26
ENDBRANCH   1  25
TORSDOF 15
