REMARK SMILES CC(C)[NH2+][C@]1(C(=O)OCCOCCOC(=O)c2ccc(-c3c4nc(c(-c5c(F)cccc5F)c5ccc([nH]5)c(-c5c(F)cccc5F)c5nc(c(-c6c(F)cccc6F)c6ccc3[nH]6)C=C5)C=C4)cc2)CC[C@@H]([N@@H+](C)[C@@H](C)C(C)C)C1
REMARK SMILES IDX 10 1 9 2 8 3 6 4 7 5 5 6 71 7 81 8 72 9 73 10 4 11 2 14 1 15
REMARK SMILES IDX 3 16 74 17 75 18 76 20 77 21 78 22 79 23 80 24 11 25 12 26
REMARK SMILES IDX 13 27 14 28 15 29 16 30 17 31 18 32 70 33 19 34 69 35 20 36
REMARK SMILES IDX 21 37 22 38 63 39 23 40 68 41 62 42 64 43 24 44 67 45 61 46
REMARK SMILES IDX 60 47 25 49 51 50 34 51 50 52 35 53 38 54 49 55 65 56 36 57
REMARK SMILES IDX 37 58 48 60 66 61 39 62 26 63 27 64 32 65 28 66 29 67 31 68
REMARK SMILES IDX 33 69 30 70 52 71 53 72 58 73 54 74 55 75 57 76 59 77 56 78
REMARK SMILES IDX 40 79 41 80 46 81 42 82 43 83 45 84 47 85 44 86
REMARK H PARENT 4 12 4 13 74 19 64 48 38 59
REMARK Flexibility Score: inf
ROOT
ATOM      1  C   UNL     1      -0.034   0.188  -1.377  1.00  0.00     0.202 C 
ENDROOT
BRANCH   1   2
ATOM      2  C   UNL     1       0.530   0.343   0.042  1.00  0.00     0.261 C 
BRANCH   2   3
ATOM      3  O   UNL     1      -0.144  -0.406   1.066  1.00  0.00    -0.459 OA
BRANCH   3   4
ATOM      4  C   UNL     1      -1.016   0.332   1.812  1.00  0.00     0.368 C 
ATOM      5  O   UNL     1      -1.292   1.508   1.584  1.00  0.00    -0.245 OA
BRANCH   4   6
ATOM      6  C   UNL     1      -1.495  -0.381   3.111  1.00  0.00     0.200 C 
ATOM      7  C   UNL     1      -2.978  -0.007   3.276  1.00  0.00     0.087 C 
ATOM      8  C   UNL     1      -1.622  -1.925   2.996  1.00  0.00     0.146 C 
ATOM      9  C   UNL     1      -3.568  -1.035   4.224  1.00  0.00     0.072 C 
ATOM     10  C   UNL     1      -2.803  -2.331   3.924  1.00  0.00     0.191 C 
BRANCH   6  11
ATOM     11  N   UNL     1      -0.520   0.051   4.147  1.00  0.00    -0.330 N 
ATOM     12  H   UNL     1       0.246  -0.621   4.108  1.00  0.00     0.347 HD
ATOM     13  H   UNL     1      -0.361   1.023   3.882  1.00  0.00     0.347 HD
BRANCH  11  14
ATOM     14  C   UNL     1      -0.864   0.187   5.559  1.00  0.00     0.176 C 
ATOM     15  C   UNL     1       0.472   0.307   6.310  1.00  0.00     0.075 C 
ATOM     16  C   UNL     1      -1.684   1.442   5.881  1.00  0.00     0.075 C 
ENDBRANCH  11  14
ENDBRANCH   6  11
BRANCH  10  17
ATOM     17  N   UNL     1      -3.582  -3.556   3.623  1.00  0.00    -0.332 N 
ATOM     18  C   UNL     1      -4.153  -4.099   4.869  1.00  0.00     0.333 C 
ATOM     19  H   UNL     1      -2.847  -4.120   3.195  1.00  0.00     0.348 HD
BRANCH  17  20
ATOM     20  C   UNL     1      -4.597  -3.616   2.533  1.00  0.00     0.183 C 
ATOM     21  C   UNL     1      -5.769  -2.626   2.621  1.00  0.00     0.075 C 
BRANCH  20  22
ATOM     22  C   UNL     1      -3.988  -3.674   1.102  1.00  0.00     0.041 C 
ATOM     23  C   UNL     1      -3.075  -4.897   0.947  1.00  0.00     0.013 C 
ATOM     24  C   UNL     1      -5.060  -3.712  -0.000  1.00  0.00     0.013 C 
ENDBRANCH  20  22
ENDBRANCH  17  20
ENDBRANCH  10  17
ENDBRANCH   4   6
ENDBRANCH   3   4
ENDBRANCH   2   3
ENDBRANCH   1   2
BRANCH   1  25
ATOM     25  O   UNL     1      -1.445   0.276  -1.541  1.00  0.00    -0.374 OA
BRANCH  25  26
ATOM     26  C   UNL     1      -2.235  -0.821  -1.083  1.00  0.00     0.202 C 
BRANCH  26  27
ATOM     27  C   UNL     1      -2.000  -2.162  -1.777  1.00  0.00     0.261 C 
BRANCH  27  28
ATOM     28  O   UNL     1      -0.683  -2.676  -1.529  1.00  0.00    -0.460 OA
BRANCH  28  29
ATOM     29  C   UNL     1      -0.164  -3.329  -2.591  1.00  0.00     0.338 C 
ATOM     30  O   UNL     1      -0.738  -3.644  -3.625  1.00  0.00    -0.246 OA
BRANCH  29  31
ATOM     31  C   UNL     1       1.283  -3.498  -2.426  1.00  0.00     0.060 A 
ATOM     32  C   UNL     1       2.116  -2.795  -3.304  1.00  0.00     0.016 A 
ATOM     33  C   UNL     1       1.799  -4.454  -1.549  1.00  0.00     0.016 A 
ATOM     34  C   UNL     1       3.469  -3.109  -3.363  1.00  0.00     0.010 A 
ATOM     35  C   UNL     1       3.160  -4.766  -1.610  1.00  0.00     0.010 A 
ATOM     36  C   UNL     1       3.985  -4.133  -2.556  1.00  0.00    -0.014 A 
BRANCH  36  37
ATOM     37  C   UNL     1       5.349  -4.635  -2.840  1.00  0.00     0.031 A 
ATOM     38  C   UNL     1       5.512  -5.848  -3.714  1.00  0.00     0.074 A 
ATOM     39  C   UNL     1       6.422  -3.962  -2.393  1.00  0.00     0.049 A 
ATOM     40  N   UNL     1       6.606  -6.392  -4.182  1.00  0.00    -0.248 NA
ATOM     41  C   UNL     1       4.276  -6.539  -4.118  1.00  0.00     0.031 C 
ATOM     42  C   UNL     1       6.377  -2.767  -1.552  1.00  0.00     0.029 A 
ATOM     43  N   UNL     1       7.759  -4.181  -2.599  1.00  0.00    -0.354 N 
ATOM     44  C   UNL     1       6.191  -7.480  -4.940  1.00  0.00     0.074 A 
ATOM     45  C   UNL     1       4.750  -7.545  -4.839  1.00  0.00     0.031 C 
ATOM     46  C   UNL     1       7.633  -2.349  -1.323  1.00  0.00     0.029 A 
ATOM     47  C   UNL     1       8.566  -3.252  -1.992  1.00  0.00     0.049 A 
ATOM     48  H   UNL     1       8.107  -4.933  -3.132  1.00  0.00     0.167 HD
ATOM     49  C   UNL     1       6.945  -8.339  -5.667  1.00  0.00     0.037 A 
ATOM     50  C   UNL     1       9.908  -3.143  -1.986  1.00  0.00     0.037 A 
ATOM     51  C   UNL     1       8.379  -8.271  -5.761  1.00  0.00     0.049 A 
ATOM     52  C   UNL     1      10.725  -4.124  -2.781  1.00  0.00     0.074 A 
ATOM     53  C   UNL     1       9.239  -9.083  -6.477  1.00  0.00     0.029 A 
ATOM     54  N   UNL     1       9.163  -7.330  -5.109  1.00  0.00    -0.354 N 
ATOM     55  N   UNL     1      10.319  -5.125  -3.526  1.00  0.00    -0.248 NA
ATOM     56  C   UNL     1      12.183  -3.953  -2.745  1.00  0.00     0.031 C 
ATOM     57  C   UNL     1      10.549  -8.655  -6.230  1.00  0.00     0.029 A 
ATOM     58  C   UNL     1      10.500  -7.553  -5.391  1.00  0.00     0.049 A 
ATOM     59  H   UNL     1       8.819  -6.612  -4.531  1.00  0.00     0.167 HD
ATOM     60  C   UNL     1      11.468  -5.691  -4.062  1.00  0.00     0.074 A 
ATOM     61  C   UNL     1      12.586  -4.910  -3.570  1.00  0.00     0.031 C 
ATOM     62  C   UNL     1      11.591  -6.760  -4.886  1.00  0.00     0.037 A 
BRANCH  49  63
ATOM     63  C   UNL     1       6.226  -9.432  -6.402  1.00  0.00     0.057 A 
ATOM     64  C   UNL     1       5.468  -9.172  -7.552  1.00  0.00     0.134 A 
ATOM     65  C   UNL     1       6.303 -10.760  -5.965  1.00  0.00     0.134 A 
ATOM     66  F   UNL     1       5.341  -7.919  -8.014  1.00  0.00    -0.206 F 
ATOM     67  C   UNL     1       4.793 -10.192  -8.227  1.00  0.00     0.040 A 
ATOM     68  C   UNL     1       5.650 -11.790  -6.644  1.00  0.00     0.040 A 
ATOM     69  F   UNL     1       7.013 -11.077  -4.872  1.00  0.00    -0.206 F 
ATOM     70  C   UNL     1       4.888 -11.507  -7.775  1.00  0.00     0.006 A 
ENDBRANCH  49  63
BRANCH  50  71
ATOM     71  C   UNL     1      10.556  -2.050  -1.220  1.00  0.00     0.057 A 
ATOM     72  C   UNL     1      11.172  -0.974  -1.868  1.00  0.00     0.134 A 
ATOM     73  C   UNL     1      10.567  -2.054   0.180  1.00  0.00     0.134 A 
ATOM     74  F   UNL     1      11.209  -0.924  -3.208  1.00  0.00    -0.206 F 
ATOM     75  C   UNL     1      11.787   0.054  -1.151  1.00  0.00     0.040 A 
ATOM     76  C   UNL     1      11.159  -1.023   0.909  1.00  0.00     0.040 A 
ATOM     77  F   UNL     1       9.989  -3.056   0.858  1.00  0.00    -0.206 F 
ATOM     78  C   UNL     1      11.777   0.034   0.242  1.00  0.00     0.006 A 
ENDBRANCH  50  71
BRANCH  62  79
ATOM     79  C   UNL     1      12.979  -7.131  -5.314  1.00  0.00     0.057 A 
ATOM     80  C   UNL     1      13.875  -7.759  -4.439  1.00  0.00     0.134 A 
ATOM     81  C   UNL     1      13.414  -6.882  -6.621  1.00  0.00     0.134 A 
ATOM     82  F   UNL     1      13.521  -8.012  -3.170  1.00  0.00    -0.206 F 
ATOM     83  C   UNL     1      15.164  -8.105  -4.844  1.00  0.00     0.040 A 
ATOM     84  C   UNL     1      14.693  -7.245  -7.044  1.00  0.00     0.040 A 
ATOM     85  F   UNL     1      12.600  -6.291  -7.509  1.00  0.00    -0.206 F 
ATOM     86  C   UNL     1      15.574  -7.853  -6.152  1.00  0.00     0.006 A 
ENDBRANCH  62  79
ENDBRANCH  36  37
ENDBRANCH  29  31
ENDBRANCH  28  29
ENDBRANCH  27  28
ENDBRANCH  26  27
ENDBRANCH  25  26
ENDBRANCH   1  25
TORSDOF 19
