REMARK SMILES O=C1CCCC2=C1[C@H](c1ccc([N+](=O)[O-])cc1)CC(=O)N2c1ccccc1C(=O)OCCOCCOC(=O)c1ccc(-c2c3nc(c(-c4c(F)cccc4F)c4ccc([nH]4)c(-c4c(F)cccc4F)c4nc(c(-c5c(F)cccc5F)c5ccc2[nH]5)C=C4)C=C3)cc1
REMARK SMILES IDX 32 1 31 2 30 3 28 4 29 5 27 6 22 7 23 8 24 9 26 10 25 11
REMARK SMILES IDX 21 12 1 13 2 14 3 15 7 16 4 17 6 18 8 19 5 20 18 21 19 22
REMARK SMILES IDX 20 23 9 24 10 25 17 26 11 27 16 28 12 29 13 30 14 31 15 32
REMARK SMILES IDX 33 33 34 34 35 35 36 36 37 37 38 38 39 39 40 40 92 41 41 42
REMARK SMILES IDX 91 43 42 44 43 45 44 46 85 47 45 48 90 49 84 50 86 51 46 52
REMARK SMILES IDX 89 53 83 54 82 55 47 57 73 58 56 59 72 60 57 61 60 62 71 63
REMARK SMILES IDX 87 64 58 65 59 66 70 68 88 69 61 70 48 71 49 72 54 73 50 74
REMARK SMILES IDX 51 75 53 76 55 77 52 78 74 79 75 80 80 81 76 82 77 83 79 84
REMARK SMILES IDX 81 85 78 86 62 87 63 88 68 89 64 90 65 91 67 92 69 93 66 94
REMARK H PARENT 86 56 60 67
REMARK Flexibility Score: inf
ROOT
ATOM      1  C   UNL     1       6.639   0.197   3.427  1.00  0.00     0.202 C 
ENDROOT
BRANCH   1   2
ATOM      2  C   UNL     1       5.968   0.331   2.053  1.00  0.00     0.261 C 
BRANCH   2   3
ATOM      3  O   UNL     1       6.261  -0.702   1.105  1.00  0.00    -0.460 OA
BRANCH   3   4
ATOM      4  C   UNL     1       7.231  -0.350   0.226  1.00  0.00     0.340 C 
ATOM      5  O   UNL     1       7.848   0.707   0.230  1.00  0.00    -0.246 OA
BRANCH   4   6
ATOM      6  C   UNL     1       7.531  -1.398  -0.773  1.00  0.00     0.084 A 
ATOM      7  C   UNL     1       6.615  -2.246  -1.423  1.00  0.00     0.063 A 
ATOM      8  C   UNL     1       7.138  -3.143  -2.386  1.00  0.00     0.027 A 
ATOM      9  C   UNL     1       8.502  -3.225  -2.674  1.00  0.00     0.002 A 
ATOM     10  C   UNL     1       8.912  -1.502  -1.063  1.00  0.00     0.018 A 
ATOM     11  C   UNL     1       9.395  -2.411  -1.998  1.00  0.00     0.001 A 
BRANCH   7  12
ATOM     12  N   UNL     1       5.185  -2.321  -1.196  1.00  0.00    -0.284 N 
ATOM     13  O   UNL     1       0.829  -0.444  -1.066  1.00  0.00    -0.294 OA
ATOM     14  C   UNL     1       2.042  -0.272  -1.010  1.00  0.00     0.161 C 
ATOM     15  C   UNL     1       2.648   1.099  -0.892  1.00  0.00     0.081 C 
ATOM     16  C   UNL     1       2.987  -1.425  -0.942  1.00  0.00     0.023 C 
ATOM     17  C   UNL     1       3.732   1.218  -1.938  1.00  0.00     0.015 C 
ATOM     18  C   UNL     1       4.284  -1.235  -1.281  1.00  0.00     0.033 C 
ATOM     19  C   UNL     1       2.413  -2.749  -0.496  1.00  0.00     0.064 C 
ATOM     20  C   UNL     1       4.780   0.110  -1.795  1.00  0.00     0.055 C 
ATOM     21  C   UNL     1       3.226  -3.835  -1.175  1.00  0.00     0.114 C 
ATOM     22  C   UNL     1       4.701  -3.632  -0.931  1.00  0.00     0.232 C 
ATOM     23  O   UNL     1       5.402  -4.599  -0.624  1.00  0.00    -0.274 OA
BRANCH  19  24
ATOM     24  C   UNL     1       2.350  -2.888   1.032  1.00  0.00    -0.039 A 
ATOM     25  C   UNL     1       2.296  -4.511   1.777  1.00  0.00     0.011 A 
ATOM     26  C   UNL     1       2.271  -1.405   1.980  1.00  0.00     0.011 A 
ATOM     27  C   UNL     1       2.184  -4.790   3.518  1.00  0.00     0.086 A 
ATOM     28  C   UNL     1       2.157  -1.527   3.764  1.00  0.00     0.086 A 
ATOM     29  C   UNL     1       2.108  -3.362   4.623  1.00  0.00     0.269 A 
BRANCH  29  30
ATOM     30  N   UNL     1       2.288  -3.951   6.038  1.00  0.00     0.062 N 
ATOM     31  O   UNL     1       3.325  -4.609   6.212  1.00  0.00    -0.258 OA
ATOM     32  O   UNL     1       1.372  -3.862   6.866  1.00  0.00    -0.258 OA
ENDBRANCH  29  30
ENDBRANCH  19  24
ENDBRANCH   7  12
ENDBRANCH   4   6
ENDBRANCH   3   4
ENDBRANCH   2   3
ENDBRANCH   1   2
BRANCH   1  33
ATOM     33  O   UNL     1       7.934  -0.372   3.551  1.00  0.00    -0.374 OA
BRANCH  33  34
ATOM     34  C   UNL     1       8.180  -1.710   3.133  1.00  0.00     0.202 C 
BRANCH  34  35
ATOM     35  C   UNL     1       7.412  -2.867   3.776  1.00  0.00     0.261 C 
BRANCH  35  36
ATOM     36  O   UNL     1       5.995  -2.711   3.701  1.00  0.00    -0.460 OA
BRANCH  36  37
ATOM     37  C   UNL     1       5.392  -2.385   4.864  1.00  0.00     0.338 C 
ATOM     38  O   UNL     1       5.895  -2.165   5.949  1.00  0.00    -0.246 OA
BRANCH  37  39
ATOM     39  C   UNL     1       3.965  -2.227   4.596  1.00  0.00     0.060 A 
ATOM     40  C   UNL     1       2.892  -1.534   5.826  1.00  0.00     0.016 A 
ATOM     41  C   UNL     1       3.220  -2.951   3.130  1.00  0.00     0.016 A 
ATOM     42  C   UNL     1       1.104  -1.550   5.686  1.00  0.00     0.010 A 
ATOM     43  C   UNL     1       1.203  -2.963   2.991  1.00  0.00     0.010 A 
ATOM     44  C   UNL     1       0.236  -2.254   4.321  1.00  0.00    -0.014 A 
BRANCH  44  45
ATOM     45  C   UNL     1      -1.230  -2.350   4.221  1.00  0.00     0.031 A 
ATOM     46  C   UNL     1      -1.955  -3.455   4.923  1.00  0.00     0.074 A 
ATOM     47  C   UNL     1      -1.893  -1.569   3.353  1.00  0.00     0.049 A 
ATOM     48  N   UNL     1      -3.227  -3.577   5.192  1.00  0.00    -0.248 NA
ATOM     49  C   UNL     1      -1.143  -4.580   5.389  1.00  0.00     0.031 C 
ATOM     50  C   UNL     1      -1.295  -0.550   2.492  1.00  0.00     0.029 A 
ATOM     51  N   UNL     1      -3.219  -1.558   3.011  1.00  0.00    -0.354 N 
ATOM     52  C   UNL     1      -3.326  -4.714   5.987  1.00  0.00     0.074 A 
ATOM     53  C   UNL     1      -2.009  -5.286   6.096  1.00  0.00     0.031 C 
ATOM     54  C   UNL     1      -2.240  -0.058   1.672  1.00  0.00     0.029 A 
ATOM     55  C   UNL     1      -3.516  -0.689   1.992  1.00  0.00     0.049 A 
ATOM     56  H   UNL     1      -3.895  -2.120   3.454  1.00  0.00     0.167 HD
ATOM     57  C   UNL     1      -4.430  -5.245   6.558  1.00  0.00     0.037 A 
ATOM     58  C   UNL     1      -4.698  -0.421   1.408  1.00  0.00     0.037 A 
ATOM     59  C   UNL     1      -5.755  -4.819   6.213  1.00  0.00     0.049 A 
ATOM     60  C   UNL     1      -5.932  -1.066   1.978  1.00  0.00     0.074 A 
ATOM     61  C   UNL     1      -6.970  -5.262   6.696  1.00  0.00     0.029 A 
ATOM     62  N   UNL     1      -6.026  -3.900   5.207  1.00  0.00    -0.354 N 
ATOM     63  N   UNL     1      -6.032  -1.948   2.946  1.00  0.00    -0.248 NA
ATOM     64  C   UNL     1      -7.219  -0.638   1.418  1.00  0.00     0.031 C 
ATOM     65  C   UNL     1      -7.977  -4.664   5.927  1.00  0.00     0.029 A 
ATOM     66  C   UNL     1      -7.389  -3.801   5.013  1.00  0.00     0.049 A 
ATOM     67  H   UNL     1      -5.346  -3.394   4.707  1.00  0.00     0.167 HD
ATOM     68  C   UNL     1      -7.392  -2.146   3.145  1.00  0.00     0.074 A 
ATOM     69  C   UNL     1      -8.075  -1.290   2.194  1.00  0.00     0.031 C 
ATOM     70  C   UNL     1      -8.024  -2.945   4.042  1.00  0.00     0.037 A 
BRANCH  57  71
ATOM     71  C   UNL     1      -4.221  -6.347   7.554  1.00  0.00     0.057 A 
ATOM     72  C   UNL     1      -3.624  -6.088   8.798  1.00  0.00     0.134 A 
ATOM     73  C   UNL     1      -4.602  -7.666   7.288  1.00  0.00     0.134 A 
ATOM     74  F   UNL     1      -3.221  -4.847   9.113  1.00  0.00    -0.206 F 
ATOM     75  C   UNL     1      -3.399  -7.102   9.731  1.00  0.00     0.040 A 
ATOM     76  C   UNL     1      -4.400  -8.686   8.222  1.00  0.00     0.040 A 
ATOM     77  F   UNL     1      -5.165  -7.990   6.115  1.00  0.00    -0.206 F 
ATOM     78  C   UNL     1      -3.793  -8.406   9.445  1.00  0.00     0.006 A 
ENDBRANCH  57  71
BRANCH  58  79
ATOM     79  C   UNL     1      -4.768   0.577   0.312  1.00  0.00     0.057 A 
ATOM     80  C   UNL     1      -5.284   1.858   0.538  1.00  0.00     0.134 A 
ATOM     81  C   UNL     1      -4.276   0.298  -0.969  1.00  0.00     0.134 A 
ATOM     82  F   UNL     1      -5.777   2.182   1.742  1.00  0.00    -0.206 F 
ATOM     83  C   UNL     1      -5.320   2.823  -0.470  1.00  0.00     0.040 A 
ATOM     84  C   UNL     1      -4.287   1.261  -1.982  1.00  0.00     0.040 A 
ATOM     85  F   UNL     1      -3.762  -0.908  -1.250  1.00  0.00    -0.206 F 
ATOM     86  C   UNL     1      -4.814   2.527  -1.734  1.00  0.00     0.006 A 
ENDBRANCH  58  79
BRANCH  70  87
ATOM     87  C   UNL     1      -9.521  -2.912   4.041  1.00  0.00     0.057 A 
ATOM     88  C   UNL     1     -10.273  -3.493   3.013  1.00  0.00     0.134 A 
ATOM     89  C   UNL     1     -10.215  -2.333   5.111  1.00  0.00     0.134 A 
ATOM     90  F   UNL     1      -9.663  -4.055   1.958  1.00  0.00    -0.206 F 
ATOM     91  C   UNL     1     -11.667  -3.477   3.037  1.00  0.00     0.040 A 
ATOM     92  C   UNL     1     -11.607  -2.337   5.160  1.00  0.00     0.040 A 
ATOM     93  F   UNL     1      -9.550  -1.772   6.132  1.00  0.00    -0.206 F 
ATOM     94  C   UNL     1     -12.337  -2.904   4.117  1.00  0.00     0.006 A 
ENDBRANCH  70  87
ENDBRANCH  44  45
ENDBRANCH  37  39
ENDBRANCH  36  37
ENDBRANCH  35  36
ENDBRANCH  34  35
ENDBRANCH  33  34
ENDBRANCH   1  33
TORSDOF 17
