REMARK SMILES O=C(N[C@H](CCBr)C(=O)OCCOCCOC(=O)c1ccc(-c2c3nc(c(-c4c(F)cccc4F)c4ccc([nH]4)c(-c4c(F)cccc4F)c4nc(c(-c5c(F)cccc5F)c5ccc2[nH]5)C=C4)C=C3)cc1)OCc1ccccc1
REMARK SMILES IDX 12 1 11 2 10 3 8 4 9 5 4 6 3 7 1 8 2 9 73 11 74 12 75 13
REMARK SMILES IDX 76 14 80 15 77 16 79 17 78 18 5 19 6 20 7 21 13 22 14 23
REMARK SMILES IDX 15 24 16 25 17 26 18 27 19 28 20 29 72 30 21 31 71 32 22 33
REMARK SMILES IDX 23 34 24 35 65 36 25 37 70 38 64 39 66 40 26 41 69 42 63 43
REMARK SMILES IDX 62 44 27 46 53 47 36 48 52 49 37 50 40 51 51 52 67 53 38 54
REMARK SMILES IDX 39 55 50 57 68 58 41 59 28 60 29 61 34 62 30 63 31 64 33 65
REMARK SMILES IDX 35 66 32 67 54 68 55 69 60 70 56 71 57 72 59 73 61 74 58 75
REMARK SMILES IDX 42 76 43 77 48 78 44 79 45 80 47 81 49 82 46 83
REMARK H PARENT 3 10 66 45 40 56
REMARK Flexibility Score: inf
ROOT
ATOM      1  C   UNL     1       4.824  -5.348  -0.350  1.00  0.00     0.202 C 
ENDROOT
BRANCH   1   2
ATOM      2  C   UNL     1       5.151  -4.547   1.142  1.00  0.00     0.261 C 
BRANCH   2   3
ATOM      3  O   UNL     1       4.878  -2.600   1.688  1.00  0.00    -0.462 OA
BRANCH   3   4
ATOM      4  C   UNL     1       4.693  -1.167   1.237  1.00  0.00     0.328 C 
ATOM      5  O   UNL     1       4.562  -0.723   0.083  1.00  0.00    -0.250 OA
BRANCH   4   6
ATOM      6  C   UNL     1       4.515  -0.161   2.325  1.00  0.00     0.196 C 
BRANCH   6   7
ATOM      7  N   UNL     1       5.356  -0.543   3.422  1.00  0.00    -0.308 N 
ATOM      8  O   UNL     1       7.510  -0.980   4.099  1.00  0.00    -0.225 OA
ATOM      9  C   UNL     1       6.730  -0.728   3.190  1.00  0.00     0.408 C 
ATOM     10  H   UNL     1       4.978  -0.674   4.321  1.00  0.00     0.168 HD
BRANCH   9  11
ATOM     11  O   UNL     1       7.107  -0.612   1.869  1.00  0.00    -0.445 OA
BRANCH  11  12
ATOM     12  C   UNL     1       7.648  -1.742   1.069  1.00  0.00     0.270 C 
BRANCH  12  13
ATOM     13  C   UNL     1       6.668  -2.923   1.040  1.00  0.00    -0.011 A 
ATOM     14  C   UNL     1       5.296  -2.906  -0.155  1.00  0.00     0.007 A 
ATOM     15  C   UNL     1       6.348  -3.453   2.725  1.00  0.00     0.007 A 
ATOM     16  C   UNL     1       3.583  -3.262   0.461  1.00  0.00     0.000 A 
ATOM     17  C   UNL     1       4.715  -3.802   3.280  1.00  0.00     0.000 A 
ATOM     18  C   UNL     1       3.326  -3.696   2.181  1.00  0.00     0.000 A 
ENDBRANCH  12  13
ENDBRANCH  11  12
ENDBRANCH   9  11
ENDBRANCH   6   7
BRANCH   6  19
ATOM     19  C   UNL     1       2.974  -0.023   2.267  1.00  0.00     0.048 C 
BRANCH  19  20
ATOM     20  C   UNL     1       2.131  -0.043   3.500  1.00  0.00     0.083 C 
ATOM     21  Br  UNL     1       2.243   1.651   4.417  1.00  0.00    -0.093 Br
ENDBRANCH  19  20
ENDBRANCH   6  19
ENDBRANCH   4   6
ENDBRANCH   3   4
ENDBRANCH   2   3
ENDBRANCH   1   2
BRANCH   1  22
ATOM     22  O   UNL     1       5.036  -4.754  -1.623  1.00  0.00    -0.374 OA
BRANCH  22  23
ATOM     23  C   UNL     1       3.980  -4.593  -2.578  1.00  0.00     0.202 C 
BRANCH  23  24
ATOM     24  C   UNL     1       2.505  -4.246  -2.240  1.00  0.00     0.261 C 
BRANCH  24  25
ATOM     25  O   UNL     1       1.893  -4.897  -1.111  1.00  0.00    -0.460 OA
BRANCH  25  26
ATOM     26  C   UNL     1       1.755  -6.237  -1.180  1.00  0.00     0.338 C 
ATOM     27  O   UNL     1       1.961  -6.930  -2.160  1.00  0.00    -0.246 OA
BRANCH  26  28
ATOM     28  C   UNL     1       1.571  -6.775   0.197  1.00  0.00     0.060 A 
ATOM     29  C   UNL     1       2.408  -7.830   0.587  1.00  0.00     0.016 A 
ATOM     30  C   UNL     1       0.603  -6.295   1.085  1.00  0.00     0.016 A 
ATOM     31  C   UNL     1       2.198  -8.493   1.794  1.00  0.00     0.010 A 
ATOM     32  C   UNL     1       0.381  -6.973   2.297  1.00  0.00     0.010 A 
ATOM     33  C   UNL     1       1.120  -8.132   2.610  1.00  0.00    -0.014 A 
BRANCH  33  34
ATOM     34  C   UNL     1       0.587  -9.167   3.545  1.00  0.00     0.031 A 
ATOM     35  C   UNL     1      -0.613  -9.971   3.092  1.00  0.00     0.074 A 
ATOM     36  C   UNL     1       1.208  -9.505   4.691  1.00  0.00     0.049 A 
ATOM     37  N   UNL     1      -1.213 -10.981   3.672  1.00  0.00    -0.248 NA
ATOM     38  C   UNL     1      -1.215  -9.583   1.806  1.00  0.00     0.031 C 
ATOM     39  C   UNL     1       2.406  -8.867   5.230  1.00  0.00     0.029 A 
ATOM     40  N   UNL     1       0.914 -10.493   5.601  1.00  0.00    -0.354 N 
ATOM     41  C   UNL     1      -2.257 -11.338   2.825  1.00  0.00     0.074 A 
ATOM     42  C   UNL     1      -2.247 -10.405   1.722  1.00  0.00     0.031 C 
ATOM     43  C   UNL     1       2.748  -9.483   6.377  1.00  0.00     0.029 A 
ATOM     44  C   UNL     1       1.784 -10.546   6.664  1.00  0.00     0.049 A 
ATOM     45  H   UNL     1       0.151 -11.107   5.501  1.00  0.00     0.167 HD
ATOM     46  C   UNL     1      -3.136 -12.362   2.931  1.00  0.00     0.037 A 
ATOM     47  C   UNL     1       1.798 -11.354   7.745  1.00  0.00     0.037 A 
ATOM     48  C   UNL     1      -3.156 -13.306   4.016  1.00  0.00     0.049 A 
ATOM     49  C   UNL     1       0.758 -12.441   7.884  1.00  0.00     0.074 A 
ATOM     50  C   UNL     1      -4.007 -14.380   4.205  1.00  0.00     0.029 A 
ATOM     51  N   UNL     1      -2.289 -13.286   5.096  1.00  0.00    -0.354 N 
ATOM     52  N   UNL     1      -0.210 -12.777   7.066  1.00  0.00    -0.248 NA
ATOM     53  C   UNL     1       0.827 -13.272   9.096  1.00  0.00     0.031 C 
ATOM     54  C   UNL     1      -3.699 -14.971   5.434  1.00  0.00     0.029 A 
ATOM     55  C   UNL     1      -2.603 -14.315   5.969  1.00  0.00     0.049 A 
ATOM     56  H   UNL     1      -1.560 -12.637   5.225  1.00  0.00     0.167 HD
ATOM     57  C   UNL     1      -0.830 -13.885   7.640  1.00  0.00     0.074 A 
ATOM     58  C   UNL     1      -0.123 -14.168   8.869  1.00  0.00     0.031 C 
ATOM     59  C   UNL     1      -1.885 -14.606   7.184  1.00  0.00     0.037 A 
BRANCH  46  60
ATOM     60  C   UNL     1      -4.175 -12.495   1.852  1.00  0.00     0.057 A 
ATOM     61  C   UNL     1      -3.847 -12.871   0.542  1.00  0.00     0.134 A 
ATOM     62  C   UNL     1      -5.526 -12.260   2.136  1.00  0.00     0.134 A 
ATOM     63  F   UNL     1      -2.570 -13.093   0.197  1.00  0.00    -0.206 F 
ATOM     64  C   UNL     1      -4.821 -12.977  -0.453  1.00  0.00     0.040 A 
ATOM     65  C   UNL     1      -6.513 -12.397   1.159  1.00  0.00     0.040 A 
ATOM     66  F   UNL     1      -5.911 -11.900   3.370  1.00  0.00    -0.206 F 
ATOM     67  C   UNL     1      -6.160 -12.748  -0.142  1.00  0.00     0.006 A 
ENDBRANCH  46  60
BRANCH  47  68
ATOM     68  C   UNL     1       2.829 -11.175   8.805  1.00  0.00     0.057 A 
ATOM     69  C   UNL     1       3.789 -12.161   9.068  1.00  0.00     0.134 A 
ATOM     70  C   UNL     1       2.836 -10.040   9.624  1.00  0.00     0.134 A 
ATOM     71  F   UNL     1       3.818 -13.287   8.340  1.00  0.00    -0.206 F 
ATOM     72  C   UNL     1       4.696 -12.039  10.123  1.00  0.00     0.040 A 
ATOM     73  C   UNL     1       3.758  -9.889  10.661  1.00  0.00     0.040 A 
ATOM     74  F   UNL     1       1.943  -9.059   9.430  1.00  0.00    -0.206 F 
ATOM     75  C   UNL     1       4.684 -10.897  10.921  1.00  0.00     0.006 A 
ENDBRANCH  47  68
BRANCH  59  76
ATOM     76  C   UNL     1      -2.297 -15.820   7.974  1.00  0.00     0.057 A 
ATOM     77  C   UNL     1      -2.865 -15.733   9.251  1.00  0.00     0.134 A 
ATOM     78  C   UNL     1      -2.142 -17.103   7.428  1.00  0.00     0.134 A 
ATOM     79  F   UNL     1      -3.041 -14.540   9.838  1.00  0.00    -0.206 F 
ATOM     80  C   UNL     1      -3.220 -16.875   9.973  1.00  0.00     0.040 A 
ATOM     81  C   UNL     1      -2.528 -18.250   8.124  1.00  0.00     0.040 A 
ATOM     82  F   UNL     1      -1.622 -17.265   6.202  1.00  0.00    -0.206 F 
ATOM     83  C   UNL     1      -3.057 -18.138   9.407  1.00  0.00     0.006 A 
ENDBRANCH  59  76
ENDBRANCH  33  34
ENDBRANCH  26  28
ENDBRANCH  25  26
ENDBRANCH  24  25
ENDBRANCH  23  24
ENDBRANCH  22  23
ENDBRANCH   1  22
TORSDOF 20
