REMARK SMILES C[C@@H](C(=O)OCCOCCOC(=O)c1ccc(-c2c3nc(c(-c4c(F)cccc4F)c4ccc([nH]4)c(-c4c(F)cccc4F)c4nc(c(-c5c(F)cccc5F)c5ccc2[nH]5)C=C4)C=C3)cc1)c1ccc(C[C@H]2CCC[C@@H]2O)cc1F
REMARK SMILES IDX 7 1 6 2 5 3 3 4 4 5 2 6 1 7 68 8 69 9 80 10 70 11 79 12
REMARK SMILES IDX 81 13 71 14 72 15 73 16 74 17 77 18 75 19 76 20 78 21 8 23
REMARK SMILES IDX 9 24 10 25 11 26 12 27 13 28 14 29 15 30 67 31 16 32 66 33
REMARK SMILES IDX 17 34 18 35 19 36 60 37 20 38 65 39 59 40 61 41 21 42 64 43
REMARK SMILES IDX 58 44 57 45 22 47 48 48 31 49 47 50 32 51 35 52 46 53 62 54
REMARK SMILES IDX 33 55 34 56 45 58 63 59 36 60 23 61 24 62 29 63 25 64 26 65
REMARK SMILES IDX 28 66 30 67 27 68 49 69 50 70 55 71 51 72 52 73 54 74 56 75
REMARK SMILES IDX 53 76 37 77 38 78 43 79 39 80 40 81 42 82 44 83 41 84
REMARK H PARENT 78 22 61 46 35 57
REMARK Flexibility Score: inf
ROOT
ATOM      1  C   UNL     1       2.055   4.329  -1.682  1.00  0.00     0.202 C 
ENDROOT
BRANCH   1   2
ATOM      2  C   UNL     1       2.168   4.095  -0.173  1.00  0.00     0.261 C 
BRANCH   2   3
ATOM      3  O   UNL     1       1.952   2.708   0.127  1.00  0.00    -0.463 OA
BRANCH   3   4
ATOM      4  C   UNL     1       1.270   2.453   1.277  1.00  0.00     0.313 C 
ATOM      5  O   UNL     1       1.085   3.279   2.164  1.00  0.00    -0.252 OA
BRANCH   4   6
ATOM      6  C   UNL     1       0.626   1.066   1.267  1.00  0.00     0.129 C 
ATOM      7  C   UNL     1       1.368   0.070   0.365  1.00  0.00     0.025 C 
BRANCH   6   8
ATOM      8  C   UNL     1      -0.877   1.098   0.995  1.00  0.00     0.002 A 
ATOM      9  C   UNL     1      -1.561   2.258   0.594  1.00  0.00     0.008 A 
ATOM     10  C   UNL     1      -1.642  -0.055   1.203  1.00  0.00     0.127 A 
ATOM     11  C   UNL     1      -2.955   2.272   0.477  1.00  0.00     0.004 A 
ATOM     12  C   UNL     1      -3.032  -0.047   1.093  1.00  0.00     0.043 A 
ATOM     13  F   UNL     1      -1.045  -1.198   1.569  1.00  0.00    -0.207 F 
ATOM     14  C   UNL     1      -3.709   1.138   0.786  1.00  0.00    -0.045 A 
BRANCH  14  15
ATOM     15  C   UNL     1      -5.216   1.207   0.875  1.00  0.00     0.041 C 
BRANCH  15  16
ATOM     16  C   UNL     1      -5.770   1.756   2.207  1.00  0.00     0.022 C 
ATOM     17  C   UNL     1      -5.267   1.070   3.492  1.00  0.00     0.007 C 
ATOM     18  C   UNL     1      -5.535   3.252   2.448  1.00  0.00     0.117 C 
ATOM     19  C   UNL     1      -5.029   2.189   4.509  1.00  0.00     0.003 C 
ATOM     20  C   UNL     1      -5.752   3.400   3.946  1.00  0.00     0.032 C 
BRANCH  18  21
ATOM     21  O   UNL     1      -6.450   4.035   1.706  1.00  0.00    -0.393 OA
ATOM     22  H   UNL     1      -7.357   3.783   1.942  1.00  0.00     0.210 HD
ENDBRANCH  18  21
ENDBRANCH  15  16
ENDBRANCH  14  15
ENDBRANCH   6   8
ENDBRANCH   4   6
ENDBRANCH   3   4
ENDBRANCH   2   3
ENDBRANCH   1   2
BRANCH   1  23
ATOM     23  O   UNL     1       0.775   4.063  -2.259  1.00  0.00    -0.374 OA
BRANCH  23  24
ATOM     24  C   UNL     1       0.382   2.696  -2.403  1.00  0.00     0.202 C 
BRANCH  24  25
ATOM     25  C   UNL     1       1.067   1.892  -3.513  1.00  0.00     0.261 C 
BRANCH  25  26
ATOM     26  O   UNL     1       2.472   1.704  -3.264  1.00  0.00    -0.460 OA
BRANCH  26  27
ATOM     27  C   UNL     1       3.289   2.251  -4.195  1.00  0.00     0.338 C 
ATOM     28  O   UNL     1       2.962   2.799  -5.239  1.00  0.00    -0.246 OA
BRANCH  27  29
ATOM     29  C   UNL     1       4.680   2.263  -3.714  1.00  0.00     0.060 A 
ATOM     30  C   UNL     1       5.337   3.499  -3.679  1.00  0.00     0.016 A 
ATOM     31  C   UNL     1       5.364   1.087  -3.405  1.00  0.00     0.016 A 
ATOM     32  C   UNL     1       6.697   3.560  -3.385  1.00  0.00     0.010 A 
ATOM     33  C   UNL     1       6.734   1.147  -3.119  1.00  0.00     0.010 A 
ATOM     34  C   UNL     1       7.413   2.379  -3.144  1.00  0.00    -0.014 A 
BRANCH  34  35
ATOM     35  C   UNL     1       8.893   2.432  -3.071  1.00  0.00     0.031 A 
ATOM     36  C   UNL     1       9.698   2.093  -4.296  1.00  0.00     0.074 A 
ATOM     37  C   UNL     1       9.513   2.821  -1.944  1.00  0.00     0.049 A 
ATOM     38  N   UNL     1      10.996   2.064  -4.455  1.00  0.00    -0.248 NA
ATOM     39  C   UNL     1       8.935   1.741  -5.505  1.00  0.00     0.031 C 
ATOM     40  C   UNL     1       8.845   3.214  -0.705  1.00  0.00     0.029 A 
ATOM     41  N   UNL     1      10.850   2.947  -1.663  1.00  0.00    -0.354 N 
ATOM     42  C   UNL     1      11.207   1.693  -5.777  1.00  0.00     0.074 A 
ATOM     43  C   UNL     1       9.905   1.477  -6.369  1.00  0.00     0.031 C 
ATOM     44  C   UNL     1       9.778   3.527   0.211  1.00  0.00     0.029 A 
ATOM     45  C   UNL     1      11.105   3.332  -0.370  1.00  0.00     0.049 A 
ATOM     46  H   UNL     1      11.559   2.778  -2.324  1.00  0.00     0.167 HD
ATOM     47  C   UNL     1      12.379   1.555  -6.441  1.00  0.00     0.037 A 
ATOM     48  C   UNL     1      12.277   3.490   0.276  1.00  0.00     0.037 A 
ATOM     49  C   UNL     1      13.675   1.768  -5.853  1.00  0.00     0.049 A 
ATOM     50  C   UNL     1      13.568   3.263  -0.465  1.00  0.00     0.074 A 
ATOM     51  C   UNL     1      14.921   1.662  -6.448  1.00  0.00     0.029 A 
ATOM     52  N   UNL     1      13.893   2.126  -4.532  1.00  0.00    -0.354 N 
ATOM     53  N   UNL     1      13.755   2.931  -1.719  1.00  0.00    -0.248 NA
ATOM     54  C   UNL     1      14.811   3.437   0.301  1.00  0.00     0.031 C 
ATOM     55  C   UNL     1      15.893   1.915  -5.475  1.00  0.00     0.029 A 
ATOM     56  C   UNL     1      15.252   2.223  -4.286  1.00  0.00     0.049 A 
ATOM     57  H   UNL     1      13.185   2.287  -3.866  1.00  0.00     0.167 HD
ATOM     58  C   UNL     1      15.132   2.881  -1.899  1.00  0.00     0.074 A 
ATOM     59  C   UNL     1      15.733   3.228  -0.629  1.00  0.00     0.031 C 
ATOM     60  C   UNL     1      15.835   2.575  -3.017  1.00  0.00     0.037 A 
BRANCH  47  61
ATOM     61  C   UNL     1      12.311   1.135  -7.879  1.00  0.00     0.057 A 
ATOM     62  C   UNL     1      11.885   2.012  -8.884  1.00  0.00     0.134 A 
ATOM     63  C   UNL     1      12.704  -0.152  -8.266  1.00  0.00     0.134 A 
ATOM     64  F   UNL     1      11.481   3.254  -8.577  1.00  0.00    -0.206 F 
ATOM     65  C   UNL     1      11.835   1.617 -10.223  1.00  0.00     0.040 A 
ATOM     66  C   UNL     1      12.680  -0.551  -9.603  1.00  0.00     0.040 A 
ATOM     67  F   UNL     1      13.126  -1.039  -7.352  1.00  0.00    -0.206 F 
ATOM     68  C   UNL     1      12.239   0.334 -10.585  1.00  0.00     0.006 A 
ENDBRANCH  47  61
BRANCH  48  69
ATOM     69  C   UNL     1      12.287   3.868   1.711  1.00  0.00     0.057 A 
ATOM     70  C   UNL     1      12.730   5.128   2.128  1.00  0.00     0.134 A 
ATOM     71  C   UNL     1      11.875   2.967   2.700  1.00  0.00     0.134 A 
ATOM     72  F   UNL     1      13.161   6.024   1.228  1.00  0.00    -0.206 F 
ATOM     73  C   UNL     1      12.777   5.474   3.479  1.00  0.00     0.040 A 
ATOM     74  C   UNL     1      11.894   3.308   4.053  1.00  0.00     0.040 A 
ATOM     75  F   UNL     1      11.441   1.744   2.364  1.00  0.00    -0.206 F 
ATOM     76  C   UNL     1      12.353   4.564   4.446  1.00  0.00     0.006 A 
ENDBRANCH  48  69
BRANCH  60  77
ATOM     77  C   UNL     1      17.332   2.633  -2.926  1.00  0.00     0.057 A 
ATOM     78  C   UNL     1      18.069   1.653  -2.250  1.00  0.00     0.134 A 
ATOM     79  C   UNL     1      18.045   3.660  -3.558  1.00  0.00     0.134 A 
ATOM     80  F   UNL     1      17.444   0.651  -1.614  1.00  0.00    -0.206 F 
ATOM     81  C   UNL     1      19.463   1.703  -2.190  1.00  0.00     0.040 A 
ATOM     82  C   UNL     1      19.439   3.707  -3.525  1.00  0.00     0.040 A 
ATOM     83  F   UNL     1      17.399   4.625  -4.230  1.00  0.00    -0.206 F 
ATOM     84  C   UNL     1      20.152   2.729  -2.834  1.00  0.00     0.006 A 
ENDBRANCH  60  77
ENDBRANCH  34  35
ENDBRANCH  27  29
ENDBRANCH  26  27
ENDBRANCH  25  26
ENDBRANCH  24  25
ENDBRANCH  23  24
ENDBRANCH   1  23
TORSDOF 18
