REMARK SMILES CSc1ccc(/C=C2\C(C)=C(CC(=O)OCCOCCOC(=O)c3ccc(-c4c5nc(c(-c6c(F)cccc6F)c6ccc([nH]6)c(-c6c(F)cccc6F)c6nc(c(-c7c(F)cccc7F)c7ccc4[nH]7)C=C6)C=C5)cc3)c3cc(F)ccc32)cc1
REMARK SMILES IDX 17 1 16 2 15 3 13 4 14 5 12 6 11 7 7 8 8 9 9 10 84 11 10 12
REMARK SMILES IDX 78 13 83 14 79 15 82 16 80 17 81 18 6 19 3 20 4 21 86 22
REMARK SMILES IDX 5 23 85 24 2 25 1 26 18 27 19 28 20 29 21 30 22 31 23 32
REMARK SMILES IDX 24 33 25 34 77 35 26 36 76 37 27 38 28 39 29 40 70 41 30 42
REMARK SMILES IDX 75 43 69 44 71 45 31 46 74 47 68 48 67 49 32 51 58 52 41 53
REMARK SMILES IDX 57 54 42 55 45 56 56 57 72 58 43 59 44 60 55 62 73 63 46 64
REMARK SMILES IDX 33 65 34 66 39 67 35 68 36 69 38 70 40 71 37 72 59 73 60 74
REMARK SMILES IDX 65 75 61 76 62 77 64 78 66 79 63 80 47 81 48 82 53 83 49 84
REMARK SMILES IDX 50 85 52 86 54 87 51 88
REMARK H PARENT 71 50 45 61
REMARK Flexibility Score: inf
ROOT
ATOM      1  C   UNL     1       5.494 -10.199  -6.451  1.00  0.00     0.202 C 
ENDROOT
BRANCH   1   2
ATOM      2  C   UNL     1       5.457  -8.940  -7.323  1.00  0.00     0.261 C 
BRANCH   2   3
ATOM      3  O   UNL     1       4.417  -8.037  -6.916  1.00  0.00    -0.463 OA
BRANCH   3   4
ATOM      4  C   UNL     1       3.522  -7.690  -7.881  1.00  0.00     0.310 C 
ATOM      5  O   UNL     1       3.595  -8.019  -9.059  1.00  0.00    -0.252 OA
BRANCH   4   6
ATOM      6  C   UNL     1       2.417  -6.799  -7.356  1.00  0.00     0.159 C 
BRANCH   6   7
ATOM      7  C   UNL     1       1.944  -7.167  -5.964  1.00  0.00    -0.025 C 
ATOM      8  C   UNL     1       0.697  -4.170  -4.939  1.00  0.00     0.017 C 
ATOM      9  C   UNL     1       0.867  -5.498  -4.977  1.00  0.00    -0.014 C 
ATOM     10  C   UNL     1       2.105  -6.298  -4.919  1.00  0.00    -0.039 C 
ATOM     11  C   UNL     1      -0.189  -6.479  -5.250  1.00  0.00    -0.010 A 
ATOM     12  C   UNL     1       2.271  -6.900  -3.517  1.00  0.00     0.045 C 
ATOM     13  C   UNL     1       0.489  -7.533  -5.884  1.00  0.00    -0.011 A 
ATOM     14  C   UNL     1      -1.327  -6.710  -4.484  1.00  0.00     0.012 A 
ATOM     15  C   UNL     1      -0.038  -8.813  -5.899  1.00  0.00     0.048 A 
ATOM     16  C   UNL     1      -1.790  -8.026  -4.389  1.00  0.00     0.040 A 
ATOM     17  C   UNL     1      -1.161  -9.051  -5.109  1.00  0.00     0.123 A 
ATOM     18  F   UNL     1      -1.562 -10.316  -4.924  1.00  0.00    -0.207 F 
BRANCH   8  19
ATOM     19  C   UNL     1       1.488  -3.162  -4.188  1.00  0.00    -0.025 A 
ATOM     20  C   UNL     1       1.220  -1.651  -1.866  1.00  0.00     0.007 A 
ATOM     21  C   UNL     1       1.931  -2.846  -1.836  1.00  0.00     0.015 A 
ATOM     22  C   UNL     1       0.887  -1.086  -3.100  1.00  0.00     0.015 A 
ATOM     23  C   UNL     1       2.125  -3.564  -3.011  1.00  0.00     0.009 A 
ATOM     24  C   UNL     1       1.037  -1.839  -4.271  1.00  0.00     0.009 A 
BRANCH  20  25
ATOM     25  S   UNL     1       0.494  -1.084  -0.340  1.00  0.00    -0.130 SA
ATOM     26  C   UNL     1       1.347   0.482  -0.126  1.00  0.00     0.091 C 
ENDBRANCH  20  25
ENDBRANCH   8  19
ENDBRANCH   6   7
ENDBRANCH   4   6
ENDBRANCH   3   4
ENDBRANCH   2   3
ENDBRANCH   1   2
BRANCH   1  27
ATOM     27  O   UNL     1       4.393 -11.101  -6.541  1.00  0.00    -0.374 OA
BRANCH  27  28
ATOM     28  C   UNL     1       3.124 -10.656  -6.075  1.00  0.00     0.202 C 
BRANCH  28  29
ATOM     29  C   UNL     1       2.918 -10.554  -4.558  1.00  0.00     0.261 C 
BRANCH  29  30
ATOM     30  O   UNL     1       3.891  -9.725  -3.911  1.00  0.00    -0.460 OA
BRANCH  30  31
ATOM     31  C   UNL     1       4.723 -10.399  -3.081  1.00  0.00     0.338 C 
ATOM     32  O   UNL     1       4.688 -11.575  -2.779  1.00  0.00    -0.246 OA
BRANCH  31  33
ATOM     33  C   UNL     1       5.836  -9.522  -2.691  1.00  0.00     0.060 A 
ATOM     34  C   UNL     1       7.125  -9.944  -3.034  1.00  0.00     0.016 A 
ATOM     35  C   UNL     1       5.630  -8.375  -1.923  1.00  0.00     0.016 A 
ATOM     36  C   UNL     1       8.225  -9.247  -2.556  1.00  0.00     0.010 A 
ATOM     37  C   UNL     1       6.736  -7.672  -1.447  1.00  0.00     0.010 A 
ATOM     38  C   UNL     1       8.034  -8.136  -1.724  1.00  0.00    -0.014 A 
BRANCH  38  39
ATOM     39  C   UNL     1       9.202  -7.577  -1.015  1.00  0.00     0.031 A 
ATOM     40  C   UNL     1       9.428  -7.958   0.419  1.00  0.00     0.074 A 
ATOM     41  C   UNL     1      10.072  -6.792  -1.670  1.00  0.00     0.049 A 
ATOM     42  N   UNL     1      10.400  -7.620   1.225  1.00  0.00    -0.248 NA
ATOM     43  C   UNL     1       8.415  -8.834   1.030  1.00  0.00     0.031 C 
ATOM     44  C   UNL     1       9.947  -6.388  -3.070  1.00  0.00     0.029 A 
ATOM     45  N   UNL     1      11.230  -6.200  -1.246  1.00  0.00    -0.354 N 
ATOM     46  C   UNL     1      10.112  -8.235   2.438  1.00  0.00     0.074 A 
ATOM     47  C   UNL     1       8.855  -8.931   2.274  1.00  0.00     0.031 C 
ATOM     48  C   UNL     1      10.992  -5.608  -3.390  1.00  0.00     0.029 A 
ATOM     49  C   UNL     1      11.838  -5.439  -2.211  1.00  0.00     0.049 A 
ATOM     50  H   UNL     1      11.592  -6.309  -0.336  1.00  0.00     0.167 HD
ATOM     51  C   UNL     1      10.840  -8.226   3.580  1.00  0.00     0.037 A 
ATOM     52  C   UNL     1      12.948  -4.681  -2.141  1.00  0.00     0.037 A 
ATOM     53  C   UNL     1      12.087  -7.520   3.721  1.00  0.00     0.049 A 
ATOM     54  C   UNL     1      13.723  -4.652  -0.854  1.00  0.00     0.074 A 
ATOM     55  C   UNL     1      12.927  -7.457   4.818  1.00  0.00     0.029 A 
ATOM     56  N   UNL     1      12.665  -6.740   2.727  1.00  0.00    -0.354 N 
ATOM     57  N   UNL     1      13.467  -5.266   0.278  1.00  0.00    -0.248 NA
ATOM     58  C   UNL     1      14.945  -3.839  -0.835  1.00  0.00     0.031 C 
ATOM     59  C   UNL     1      13.981  -6.590   4.507  1.00  0.00     0.029 A 
ATOM     60  C   UNL     1      13.835  -6.165   3.195  1.00  0.00     0.049 A 
ATOM     61  H   UNL     1      12.298  -6.615   1.823  1.00  0.00     0.167 HD
ATOM     62  C   UNL     1      14.504  -4.931   1.139  1.00  0.00     0.074 A 
ATOM     63  C   UNL     1      15.400  -4.071   0.389  1.00  0.00     0.031 C 
ATOM     64  C   UNL     1      14.702  -5.302   2.429  1.00  0.00     0.037 A 
BRANCH  51  65
ATOM     65  C   UNL     1      10.272  -8.961   4.762  1.00  0.00     0.057 A 
ATOM     66  C   UNL     1      10.146 -10.358   4.787  1.00  0.00     0.134 A 
ATOM     67  C   UNL     1       9.816  -8.258   5.885  1.00  0.00     0.134 A 
ATOM     68  F   UNL     1      10.547 -11.095   3.739  1.00  0.00    -0.206 F 
ATOM     69  C   UNL     1       9.549 -11.021   5.861  1.00  0.00     0.040 A 
ATOM     70  C   UNL     1       9.247  -8.912   6.979  1.00  0.00     0.040 A 
ATOM     71  F   UNL     1       9.907  -6.920   5.934  1.00  0.00    -0.206 F 
ATOM     72  C   UNL     1       9.100 -10.297   6.963  1.00  0.00     0.006 A 
ENDBRANCH  51  65
BRANCH  52  73
ATOM     73  C   UNL     1      13.373  -3.904  -3.331  1.00  0.00     0.057 A 
ATOM     74  C   UNL     1      14.506  -4.261  -4.070  1.00  0.00     0.134 A 
ATOM     75  C   UNL     1      12.621  -2.814  -3.789  1.00  0.00     0.134 A 
ATOM     76  F   UNL     1      15.275  -5.285  -3.675  1.00  0.00    -0.206 F 
ATOM     77  C   UNL     1      14.876  -3.563  -5.222  1.00  0.00     0.040 A 
ATOM     78  C   UNL     1      12.965  -2.123  -4.952  1.00  0.00     0.040 A 
ATOM     79  F   UNL     1      11.519  -2.428  -3.130  1.00  0.00    -0.206 F 
ATOM     80  C   UNL     1      14.098  -2.497  -5.671  1.00  0.00     0.006 A 
ENDBRANCH  52  73
BRANCH  64  81
ATOM     81  C   UNL     1      15.946  -4.794   3.100  1.00  0.00     0.057 A 
ATOM     82  C   UNL     1      16.097  -3.450   3.463  1.00  0.00     0.134 A 
ATOM     83  C   UNL     1      16.989  -5.673   3.419  1.00  0.00     0.134 A 
ATOM     84  F   UNL     1      15.139  -2.556   3.175  1.00  0.00    -0.206 F 
ATOM     85  C   UNL     1      17.254  -2.993   4.095  1.00  0.00     0.040 A 
ATOM     86  C   UNL     1      18.137  -5.233   4.079  1.00  0.00     0.040 A 
ATOM     87  F   UNL     1      16.903  -6.975   3.109  1.00  0.00    -0.206 F 
ATOM     88  C   UNL     1      18.275  -3.887   4.412  1.00  0.00     0.006 A 
ENDBRANCH  64  81
ENDBRANCH  38  39
ENDBRANCH  31  33
ENDBRANCH  30  31
ENDBRANCH  29  30
ENDBRANCH  28  29
ENDBRANCH  27  28
ENDBRANCH   1  27
TORSDOF 17
