REMARK SMILES CC(=O)Oc1ccccc1C(=O)OCCOCCOC(=O)c1ccc(-c2c3nc(c(-c4c(F)cccc4F)c4ccc([nH]4)c(-c4c(F)cccc4F)c4nc(c(-c5c(F)cccc5F)c5ccc2[nH]5)C=C4)C=C3)cc1
REMARK SMILES IDX 16 1 15 2 14 3 13 4 11 5 12 6 10 7 5 8 6 9 7 10 9 11 8 12
REMARK SMILES IDX 4 13 2 14 1 15 3 16 17 17 18 18 19 19 20 20 21 21 22 22
REMARK SMILES IDX 23 23 75 24 24 25 74 26 25 27 26 28 27 29 68 30 28 31 73 32
REMARK SMILES IDX 67 33 69 34 29 35 72 36 66 37 65 38 30 40 56 41 39 42 55 43
REMARK SMILES IDX 40 44 43 45 54 46 70 47 41 48 42 49 53 51 71 52 44 53 31 54
REMARK SMILES IDX 32 55 37 56 33 57 34 58 36 59 38 60 35 61 57 62 58 63 63 64
REMARK SMILES IDX 59 65 60 66 62 67 64 68 61 69 45 70 46 71 51 72 47 73 48 74
REMARK SMILES IDX 50 75 52 76 49 77
REMARK H PARENT 69 39 43 50
REMARK Flexibility Score: inf
ROOT
ATOM      1  O   UNL     1      -4.477   2.124  -0.418  1.00  0.00    -0.374 OA
ENDROOT
BRANCH   1   2
ATOM      2  C   UNL     1      -3.815   0.874  -0.224  1.00  0.00     0.202 C 
BRANCH   2   3
ATOM      3  C   UNL     1      -2.890   0.417  -1.355  1.00  0.00     0.261 C 
BRANCH   3   4
ATOM      4  O   UNL     1      -1.755   1.291  -1.472  1.00  0.00    -0.460 OA
BRANCH   4   5
ATOM      5  C   UNL     1      -1.586   1.870  -2.686  1.00  0.00     0.342 C 
ATOM      6  O   UNL     1      -2.240   1.636  -3.692  1.00  0.00    -0.246 OA
BRANCH   5   7
ATOM      7  C   UNL     1      -0.617   2.990  -2.611  1.00  0.00     0.102 A 
ATOM      8  C   UNL     1       0.498   3.044  -1.764  1.00  0.00     0.145 A 
ATOM      9  C   UNL     1       1.329   4.171  -1.754  1.00  0.00     0.048 A 
ATOM     10  C   UNL     1       1.047   5.256  -2.586  1.00  0.00     0.004 A 
ATOM     11  C   UNL     1      -0.891   4.095  -3.435  1.00  0.00     0.019 A 
ATOM     12  C   UNL     1      -0.070   5.223  -3.418  1.00  0.00     0.001 A 
BRANCH   8  13
ATOM     13  O   UNL     1       0.796   2.070  -0.799  1.00  0.00    -0.426 OA
BRANCH  13  14
ATOM     14  C   UNL     1       1.122   0.805  -1.272  1.00  0.00     0.308 C 
ATOM     15  C   UNL     1       1.317  -0.116  -0.103  1.00  0.00     0.139 C 
ATOM     16  O   UNL     1       1.264   0.483  -2.442  1.00  0.00    -0.252 OA
ENDBRANCH  13  14
ENDBRANCH   8  13
ENDBRANCH   5   7
ENDBRANCH   4   5
ENDBRANCH   3   4
ENDBRANCH   2   3
ENDBRANCH   1   2
BRANCH   1  17
ATOM     17  C   UNL     1      -3.702   3.312  -0.268  1.00  0.00     0.202 C 
BRANCH  17  18
ATOM     18  C   UNL     1      -3.417   3.765   1.169  1.00  0.00     0.261 C 
BRANCH  18  19
ATOM     19  O   UNL     1      -2.654   2.799   1.914  1.00  0.00    -0.460 OA
BRANCH  19  20
ATOM     20  C   UNL     1      -3.334   2.207   2.924  1.00  0.00     0.338 C 
ATOM     21  O   UNL     1      -4.469   2.459   3.304  1.00  0.00    -0.246 OA
BRANCH  20  22
ATOM     22  C   UNL     1      -2.576   1.060   3.454  1.00  0.00     0.060 A 
ATOM     23  C   UNL     1      -3.232  -0.175   3.497  1.00  0.00     0.016 A 
ATOM     24  C   UNL     1      -1.296   1.205   3.996  1.00  0.00     0.016 A 
ATOM     25  C   UNL     1      -2.633  -1.258   4.133  1.00  0.00     0.010 A 
ATOM     26  C   UNL     1      -0.697   0.114   4.638  1.00  0.00     0.010 A 
ATOM     27  C   UNL     1      -1.380  -1.111   4.744  1.00  0.00    -0.014 A 
BRANCH  27  28
ATOM     28  C   UNL     1      -0.867  -2.218   5.587  1.00  0.00     0.031 A 
ATOM     29  C   UNL     1      -1.055  -2.165   7.078  1.00  0.00     0.074 A 
ATOM     30  C   UNL     1      -0.316  -3.304   5.019  1.00  0.00     0.049 A 
ATOM     31  N   UNL     1      -0.806  -3.082   7.979  1.00  0.00    -0.248 NA
ATOM     32  C   UNL     1      -1.600  -0.914   7.626  1.00  0.00     0.031 C 
ATOM     33  C   UNL     1      -0.098  -3.485   3.585  1.00  0.00     0.029 A 
ATOM     34  N   UNL     1       0.138  -4.470   5.582  1.00  0.00    -0.354 N 
ATOM     35  C   UNL     1      -1.174  -2.525   9.197  1.00  0.00     0.074 A 
ATOM     36  C   UNL     1      -1.620  -1.175   8.925  1.00  0.00     0.031 C 
ATOM     37  C   UNL     1       0.428  -4.705   3.377  1.00  0.00     0.029 A 
ATOM     38  C   UNL     1       0.592  -5.381   4.662  1.00  0.00     0.049 A 
ATOM     39  H   UNL     1       0.138  -4.636   6.552  1.00  0.00     0.167 HD
ATOM     40  C   UNL     1      -1.158  -3.091  10.429  1.00  0.00     0.037 A 
ATOM     41  C   UNL     1       1.072  -6.627   4.836  1.00  0.00     0.037 A 
ATOM     42  C   UNL     1      -0.706  -4.430  10.704  1.00  0.00     0.049 A 
ATOM     43  C   UNL     1       1.127  -7.216   6.218  1.00  0.00     0.074 A 
ATOM     44  C   UNL     1      -0.669  -5.099  11.916  1.00  0.00     0.029 A 
ATOM     45  N   UNL     1      -0.199  -5.302   9.753  1.00  0.00    -0.354 N 
ATOM     46  N   UNL     1       0.736  -6.698   7.357  1.00  0.00    -0.248 NA
ATOM     47  C   UNL     1       1.683  -8.572   6.335  1.00  0.00     0.031 C 
ATOM     48  C   UNL     1      -0.099  -6.360  11.704  1.00  0.00     0.029 A 
ATOM     49  C   UNL     1       0.177  -6.494  10.353  1.00  0.00     0.049 A 
ATOM     50  H   UNL     1      -0.117  -5.104   8.792  1.00  0.00     0.167 HD
ATOM     51  C   UNL     1       0.970  -7.671   8.320  1.00  0.00     0.074 A 
ATOM     52  C   UNL     1       1.528  -8.816   7.629  1.00  0.00     0.031 C 
ATOM     53  C   UNL     1       0.739  -7.623   9.656  1.00  0.00     0.037 A 
BRANCH  40  54
ATOM     54  C   UNL     1      -1.629  -2.242  11.574  1.00  0.00     0.057 A 
ATOM     55  C   UNL     1      -2.981  -1.909  11.740  1.00  0.00     0.134 A 
ATOM     56  C   UNL     1      -0.722  -1.750  12.520  1.00  0.00     0.134 A 
ATOM     57  F   UNL     1      -3.899  -2.335  10.860  1.00  0.00    -0.206 F 
ATOM     58  C   UNL     1      -3.408  -1.091  12.788  1.00  0.00     0.040 A 
ATOM     59  C   UNL     1      -1.141  -0.953  13.587  1.00  0.00     0.040 A 
ATOM     60  F   UNL     1       0.585  -2.035  12.423  1.00  0.00    -0.206 F 
ATOM     61  C   UNL     1      -2.486  -0.613  13.718  1.00  0.00     0.006 A 
ENDBRANCH  40  54
BRANCH  41  62
ATOM     62  C   UNL     1       1.499  -7.420   3.658  1.00  0.00     0.057 A 
ATOM     63  C   UNL     1       0.742  -8.506   3.206  1.00  0.00     0.134 A 
ATOM     64  C   UNL     1       2.667  -7.107   2.954  1.00  0.00     0.134 A 
ATOM     65  F   UNL     1      -0.376  -8.865   3.853  1.00  0.00    -0.206 F 
ATOM     66  C   UNL     1       1.134  -9.259   2.098  1.00  0.00     0.040 A 
ATOM     67  C   UNL     1       3.061  -7.838   1.833  1.00  0.00     0.040 A 
ATOM     68  F   UNL     1       3.433  -6.075   3.338  1.00  0.00    -0.206 F 
ATOM     69  C   UNL     1       2.295  -8.920   1.405  1.00  0.00     0.006 A 
ENDBRANCH  41  62
BRANCH  53  70
ATOM     70  C   UNL     1       1.069  -8.855  10.449  1.00  0.00     0.057 A 
ATOM     71  C   UNL     1       2.392  -9.241  10.701  1.00  0.00     0.134 A 
ATOM     72  C   UNL     1       0.050  -9.661  10.973  1.00  0.00     0.134 A 
ATOM     73  F   UNL     1       3.415  -8.520  10.217  1.00  0.00    -0.206 F 
ATOM     74  C   UNL     1       2.690 -10.401  11.419  1.00  0.00     0.040 A 
ATOM     75  C   UNL     1       0.335 -10.809  11.713  1.00  0.00     0.040 A 
ATOM     76  F   UNL     1      -1.238  -9.344  10.776  1.00  0.00    -0.206 F 
ATOM     77  C   UNL     1       1.659 -11.187  11.930  1.00  0.00     0.006 A 
ENDBRANCH  53  70
ENDBRANCH  27  28
ENDBRANCH  20  22
ENDBRANCH  19  20
ENDBRANCH  18  19
ENDBRANCH  17  18
ENDBRANCH   1  17
TORSDOF 16
