REMARK SMILES O=C(OCCOCCOC(=O)c1ccc2nc(-c3c[nH]nc3-c3ccc(F)cc3F)[nH]c2c1)c1ccc(-c2c3nc(c(-c4c(F)cccc4F)c4ccc([nH]4)c(-c4c(F)cccc4F)c4nc(c(-c5c(F)cccc5F)c5ccc2[nH]5)C=C4)C=C3)cc1
REMARK SMILES IDX 6 1 5 2 4 3 3 4 2 5 1 6 34 7 35 8 87 9 36 10 86 11 37 12
REMARK SMILES IDX 38 13 39 14 80 15 40 16 85 17 79 18 81 19 41 20 84 21 78 22
REMARK SMILES IDX 77 23 42 25 68 26 51 27 67 28 52 29 55 30 66 31 82 32 53 33
REMARK SMILES IDX 54 34 65 36 83 37 56 38 43 39 44 40 49 41 45 42 46 43 48 44
REMARK SMILES IDX 50 45 47 46 69 47 70 48 75 49 71 50 72 51 74 52 76 53 73 54
REMARK SMILES IDX 57 55 58 56 63 57 59 58 60 59 62 60 64 61 61 62 7 63 8 64
REMARK SMILES IDX 9 65 10 66 11 67 12 68 13 69 33 70 14 71 32 72 15 73 31 74
REMARK SMILES IDX 16 75 17 76 18 78 19 79 22 80 20 81 21 82 23 84 24 85 29 86
REMARK SMILES IDX 25 87 28 88 30 89 26 90 27 91
REMARK H PARENT 81 24 55 35 31 77 20 83
REMARK Flexibility Score: inf
ROOT
ATOM      1  O   UNL     1       4.107  -0.265   1.796  1.00  0.00    -0.374 OA
ENDROOT
BRANCH   1   2
ATOM      2  C   UNL     1       4.278   1.081   1.356  1.00  0.00     0.202 C 
BRANCH   2   3
ATOM      3  C   UNL     1       3.945   1.319  -0.117  1.00  0.00     0.261 C 
BRANCH   3   4
ATOM      4  O   UNL     1       2.573   0.981  -0.375  1.00  0.00    -0.460 OA
BRANCH   4   5
ATOM      5  C   UNL     1       2.105  -0.017  -1.159  1.00  0.00     0.338 C 
ATOM      6  O   UNL     1       0.907  -0.049  -1.433  1.00  0.00    -0.246 OA
BRANCH   5   7
ATOM      7  C   UNL     1       2.977  -1.101  -1.700  1.00  0.00     0.060 A 
ATOM      8  C   UNL     1       4.109  -1.593  -1.050  1.00  0.00     0.016 A 
ATOM      9  C   UNL     1       2.554  -1.745  -2.874  1.00  0.00     0.016 A 
ATOM     10  C   UNL     1       4.836  -2.656  -1.563  1.00  0.00     0.010 A 
ATOM     11  C   UNL     1       3.244  -2.856  -3.367  1.00  0.00     0.010 A 
ATOM     12  C   UNL     1       4.387  -3.316  -2.704  1.00  0.00    -0.014 A 
BRANCH  12  13
ATOM     13  C   UNL     1       5.132  -4.502  -3.158  1.00  0.00     0.031 A 
ATOM     14  C   UNL     1       6.012  -4.396  -4.359  1.00  0.00     0.074 A 
ATOM     15  C   UNL     1       5.073  -5.625  -2.417  1.00  0.00     0.049 A 
ATOM     16  N   UNL     1       6.697  -5.330  -4.960  1.00  0.00    -0.248 NA
ATOM     17  C   UNL     1       6.156  -3.058  -4.958  1.00  0.00     0.031 C 
ATOM     18  C   UNL     1       4.318  -5.771  -1.168  1.00  0.00     0.029 A 
ATOM     19  N   UNL     1       5.672  -6.845  -2.585  1.00  0.00    -0.354 N 
ATOM     20  C   UNL     1       7.332  -4.702  -6.021  1.00  0.00     0.074 A 
ATOM     21  C   UNL     1       6.961  -3.305  -5.982  1.00  0.00     0.031 C 
ATOM     22  C   UNL     1       4.518  -7.002  -0.673  1.00  0.00     0.029 A 
ATOM     23  C   UNL     1       5.347  -7.754  -1.606  1.00  0.00     0.049 A 
ATOM     24  H   UNL     1       6.277  -7.051  -3.334  1.00  0.00     0.167 HD
ATOM     25  C   UNL     1       8.144  -5.260  -6.945  1.00  0.00     0.037 A 
ATOM     26  C   UNL     1       5.651  -9.062  -1.508  1.00  0.00     0.037 A 
ATOM     27  C   UNL     1       8.498  -6.653  -6.948  1.00  0.00     0.049 A 
ATOM     28  C   UNL     1       6.475  -9.674  -2.606  1.00  0.00     0.074 A 
ATOM     29  C   UNL     1       9.278  -7.343  -7.856  1.00  0.00     0.029 A 
ATOM     30  N   UNL     1       8.088  -7.567  -5.987  1.00  0.00    -0.354 N 
ATOM     31  N   UNL     1       7.031  -9.089  -3.641  1.00  0.00    -0.248 NA
ATOM     32  C   UNL     1       6.689 -11.126  -2.548  1.00  0.00     0.031 C 
ATOM     33  C   UNL     1       9.306  -8.685  -7.465  1.00  0.00     0.029 A 
ATOM     34  C   UNL     1       8.576  -8.823  -6.294  1.00  0.00     0.049 A 
ATOM     35  H   UNL     1       7.533  -7.352  -5.202  1.00  0.00     0.167 HD
ATOM     36  C   UNL     1       7.655 -10.097  -4.359  1.00  0.00     0.074 A 
ATOM     37  C   UNL     1       7.436 -11.328  -3.625  1.00  0.00     0.031 C 
ATOM     38  C   UNL     1       8.333 -10.020  -5.530  1.00  0.00     0.037 A 
BRANCH  25  39
ATOM     39  C   UNL     1       8.649  -4.384  -8.048  1.00  0.00     0.057 A 
ATOM     40  C   UNL     1       8.105  -4.485  -9.335  1.00  0.00     0.134 A 
ATOM     41  C   UNL     1       9.689  -3.468  -7.853  1.00  0.00     0.134 A 
ATOM     42  F   UNL     1       7.101  -5.339  -9.584  1.00  0.00    -0.206 F 
ATOM     43  C   UNL     1       8.588  -3.714 -10.393  1.00  0.00     0.040 A 
ATOM     44  C   UNL     1      10.170  -2.680  -8.901  1.00  0.00     0.040 A 
ATOM     45  F   UNL     1      10.235  -3.307  -6.639  1.00  0.00    -0.206 F 
ATOM     46  C   UNL     1       9.623  -2.808 -10.178  1.00  0.00     0.006 A 
ENDBRANCH  25  39
BRANCH  26  47
ATOM     47  C   UNL     1       5.115  -9.879  -0.387  1.00  0.00     0.057 A 
ATOM     48  C   UNL     1       3.738 -10.101  -0.241  1.00  0.00     0.134 A 
ATOM     49  C   UNL     1       5.960 -10.467   0.560  1.00  0.00     0.134 A 
ATOM     50  F   UNL     1       2.869  -9.570  -1.114  1.00  0.00    -0.206 F 
ATOM     51  C   UNL     1       3.222 -10.858   0.811  1.00  0.00     0.040 A 
ATOM     52  C   UNL     1       5.459 -11.252   1.602  1.00  0.00     0.040 A 
ATOM     53  F   UNL     1       7.289 -10.314   0.466  1.00  0.00    -0.206 F 
ATOM     54  C   UNL     1       4.085 -11.443   1.734  1.00  0.00     0.006 A 
ENDBRANCH  26  47
BRANCH  38  55
ATOM     55  C   UNL     1       8.876 -11.299  -6.086  1.00  0.00     0.057 A 
ATOM     56  C   UNL     1      10.250 -11.563  -6.060  1.00  0.00     0.134 A 
ATOM     57  C   UNL     1       8.042 -12.221  -6.729  1.00  0.00     0.134 A 
ATOM     58  F   UNL     1      11.097 -10.709  -5.467  1.00  0.00    -0.206 F 
ATOM     59  C   UNL     1      10.781 -12.695  -6.677  1.00  0.00     0.040 A 
ATOM     60  C   UNL     1       8.559 -13.367  -7.330  1.00  0.00     0.040 A 
ATOM     61  F   UNL     1       6.716 -12.024  -6.772  1.00  0.00    -0.206 F 
ATOM     62  C   UNL     1       9.934 -13.600  -7.315  1.00  0.00     0.006 A 
ENDBRANCH  38  55
ENDBRANCH  12  13
ENDBRANCH   5   7
ENDBRANCH   4   5
ENDBRANCH   3   4
ENDBRANCH   2   3
ENDBRANCH   1   2
BRANCH   1  63
ATOM     63  C   UNL     1       2.782  -0.619   2.215  1.00  0.00     0.202 C 
BRANCH  63  64
ATOM     64  C   UNL     1       2.865  -1.492   3.474  1.00  0.00     0.261 C 
BRANCH  64  65
ATOM     65  O   UNL     1       3.407  -0.694   4.539  1.00  0.00    -0.460 OA
BRANCH  65  66
ATOM     66  C   UNL     1       4.766  -0.650   4.576  1.00  0.00     0.338 C 
ATOM     67  O   UNL     1       5.549  -1.465   4.136  1.00  0.00    -0.246 OA
BRANCH  66  68
ATOM     68  C   UNL     1       5.135   0.720   4.998  1.00  0.00     0.062 A 
ATOM     69  C   UNL     1       4.466   1.351   6.054  1.00  0.00     0.018 A 
ATOM     70  C   UNL     1       6.095   1.393   4.221  1.00  0.00     0.044 A 
ATOM     71  C   UNL     1       4.753   2.681   6.375  1.00  0.00     0.031 A 
ATOM     72  C   UNL     1       6.295   2.741   4.515  1.00  0.00     0.067 A 
ATOM     73  C   UNL     1       5.685   3.376   5.591  1.00  0.00     0.089 A 
ATOM     74  N   UNL     1       7.046   3.728   3.921  1.00  0.00    -0.338 N 
ATOM     75  N   UNL     1       6.155   4.650   5.730  1.00  0.00    -0.228 NA
ATOM     76  C   UNL     1       6.982   4.836   4.725  1.00  0.00     0.142 A 
ATOM     77  H   UNL     1       7.539   3.652   3.073  1.00  0.00     0.168 HD
BRANCH  76  78
ATOM     78  C   UNL     1       7.886   5.996   4.629  1.00  0.00     0.063 A 
ATOM     79  C   UNL     1       8.018   6.889   3.598  1.00  0.00     0.117 A 
ATOM     80  C   UNL     1       8.838   6.380   5.609  1.00  0.00     0.106 A 
ATOM     81  N   UNL     1       8.936   7.801   4.040  1.00  0.00    -0.284 N 
ATOM     82  N   UNL     1       9.504   7.476   5.216  1.00  0.00    -0.175 NA
ATOM     83  H   UNL     1       9.160   8.621   3.543  1.00  0.00     0.189 HD
BRANCH  80  84
ATOM     84  C   UNL     1       9.202   5.612   6.789  1.00  0.00     0.039 A 
ATOM     85  C   UNL     1       9.811   4.355   6.621  1.00  0.00     0.016 A 
ATOM     86  C   UNL     1       8.876   6.046   8.074  1.00  0.00     0.135 A 
ATOM     87  C   UNL     1      10.070   3.546   7.727  1.00  0.00     0.040 A 
ATOM     88  C   UNL     1       9.139   5.244   9.182  1.00  0.00     0.079 A 
ATOM     89  F   UNL     1       8.272   7.228   8.269  1.00  0.00    -0.206 F 
ATOM     90  C   UNL     1       9.729   3.999   8.996  1.00  0.00     0.126 A 
ATOM     91  F   UNL     1       9.967   3.216  10.056  1.00  0.00    -0.207 F 
ENDBRANCH  80  84
ENDBRANCH  76  78
ENDBRANCH  66  68
ENDBRANCH  65  66
ENDBRANCH  64  65
ENDBRANCH  63  64
ENDBRANCH   1  63
TORSDOF 16
