REMARK SMILES CC1CC[NH+]([C@H](c2ccc(F)cc2)c2ccc([C@@H](C)C(=O)OCCOCCOC(=O)c3ccc(-c4c5nc(c(-c6c(F)cccc6F)c6ccc([nH]6)c(-c6c(F)cccc6F)c6nc(c(-c7c(F)cccc7F)c7ccc4[nH]7)C=C6)C=C5)cc3)cc2-c2ccc(C(F)(F)F)cc2)CC1
REMARK SMILES IDX 24 1 23 2 22 3 20 4 21 5 18 6 19 7 17 8 14 9 15 10 86 11
REMARK SMILES IDX 16 12 85 13 6 14 5 15 1 16 2 17 3 18 98 19 4 20 97 21 7 23
REMARK SMILES IDX 8 24 13 25 9 26 12 27 10 28 11 29 87 30 88 31 96 32 89 33
REMARK SMILES IDX 95 34 90 35 91 36 92 37 93 38 94 39 25 40 26 41 27 42 28 43
REMARK SMILES IDX 29 44 30 45 31 46 32 47 84 48 33 49 83 50 34 51 35 52 36 53
REMARK SMILES IDX 77 54 37 55 82 56 76 57 78 58 38 59 81 60 75 61 74 62 39 64
REMARK SMILES IDX 65 65 48 66 64 67 49 68 52 69 63 70 79 71 50 72 51 73 62 75
REMARK SMILES IDX 80 76 53 77 40 78 41 79 46 80 42 81 43 82 45 83 47 84 44 85
REMARK SMILES IDX 66 86 67 87 72 88 68 89 69 90 71 91 73 92 70 93 54 94 55 95
REMARK SMILES IDX 60 96 56 97 57 98 59 99 61 100 58 101
REMARK H PARENT 5 22 78 63 52 74
REMARK Flexibility Score: inf
ROOT
ATOM      1  C   UNL     1       2.660   7.619  -2.010  1.00  0.00     0.202 C 
ENDROOT
BRANCH   1   2
ATOM      2  C   UNL     1       3.314   7.600  -3.394  1.00  0.00     0.261 C 
BRANCH   2   3
ATOM      3  O   UNL     1       3.569   6.246  -3.814  1.00  0.00    -0.463 OA
BRANCH   3   4
ATOM      4  C   UNL     1       4.871   5.895  -3.974  1.00  0.00     0.313 C 
ATOM      5  O   UNL     1       5.811   6.683  -3.926  1.00  0.00    -0.252 OA
BRANCH   4   6
ATOM      6  C   UNL     1       5.070   4.416  -4.281  1.00  0.00     0.126 C 
ATOM      7  C   UNL     1       5.053   4.212  -5.794  1.00  0.00     0.025 C 
BRANCH   6   8
ATOM      8  C   UNL     1       4.171   3.415  -3.560  1.00  0.00    -0.033 A 
ATOM      9  C   UNL     1       2.562   1.385  -2.296  1.00  0.00     0.022 A 
ATOM     10  C   UNL     1       2.005   2.415  -3.083  1.00  0.00     0.011 A 
ATOM     11  C   UNL     1       3.974   1.416  -2.106  1.00  0.00    -0.009 A 
ATOM     12  C   UNL     1       2.787   3.389  -3.719  1.00  0.00     0.005 A 
ATOM     13  C   UNL     1       4.740   2.431  -2.736  1.00  0.00     0.013 A 
BRANCH   9  14
ATOM     14  C   UNL     1       1.690   0.239  -1.692  1.00  0.00     0.247 C 
BRANCH  14  15
ATOM     15  N   UNL     1       0.280   0.064  -2.174  1.00  0.00    -0.325 N 
ATOM     16  C   UNL     1      -3.383   1.204  -4.333  1.00  0.00     0.008 C 
ATOM     17  C   UNL     1      -1.998   1.087  -3.707  1.00  0.00    -0.003 C 
ATOM     18  C   UNL     1      -1.246  -0.150  -4.197  1.00  0.00     0.065 C 
ATOM     19  C   UNL     1      -2.084   0.978  -2.190  1.00  0.00     0.065 C 
ATOM     20  C   UNL     1       0.171  -0.209  -3.610  1.00  0.00     0.263 C 
ATOM     21  C   UNL     1      -0.689   0.975  -1.573  1.00  0.00     0.263 C 
ATOM     22  H   UNL     1      -0.042  -0.820  -1.780  1.00  0.00     0.348 HD
ENDBRANCH  14  15
BRANCH  14  23
ATOM     23  C   UNL     1       1.761   0.162  -0.154  1.00  0.00     0.014 A 
ATOM     24  C   UNL     1       1.596   1.302   0.654  1.00  0.00     0.013 A 
ATOM     25  C   UNL     1       1.975  -1.080   0.474  1.00  0.00     0.013 A 
ATOM     26  C   UNL     1       1.655   1.206   2.045  1.00  0.00     0.040 A 
ATOM     27  C   UNL     1       2.054  -1.171   1.865  1.00  0.00     0.040 A 
ATOM     28  C   UNL     1       1.891  -0.028   2.637  1.00  0.00     0.123 A 
ATOM     29  F   UNL     1       1.956  -0.118   3.972  1.00  0.00    -0.207 F 
ENDBRANCH  14  23
ENDBRANCH   9  14
BRANCH  11  30
ATOM     30  C   UNL     1       4.706   0.448  -1.266  1.00  0.00    -0.018 A 
ATOM     31  C   UNL     1       5.250   0.852  -0.035  1.00  0.00     0.009 A 
ATOM     32  C   UNL     1       4.884  -0.885  -1.662  1.00  0.00     0.009 A 
ATOM     33  C   UNL     1       5.910  -0.058   0.795  1.00  0.00     0.014 A 
ATOM     34  C   UNL     1       5.535  -1.801  -0.828  1.00  0.00     0.014 A 
ATOM     35  C   UNL     1       6.042  -1.400   0.416  1.00  0.00     0.056 A 
BRANCH  35  36
ATOM     36  C   UNL     1       6.731  -2.380   1.334  1.00  0.00     0.416 C 
ATOM     37  F   UNL     1       8.079  -2.187   1.382  1.00  0.00    -0.166 F 
ATOM     38  F   UNL     1       6.295  -2.292   2.621  1.00  0.00    -0.166 F 
ATOM     39  F   UNL     1       6.553  -3.681   0.971  1.00  0.00    -0.166 F 
ENDBRANCH  35  36
ENDBRANCH  11  30
ENDBRANCH   6   8
ENDBRANCH   4   6
ENDBRANCH   3   4
ENDBRANCH   2   3
ENDBRANCH   1   2
BRANCH   1  40
ATOM     40  O   UNL     1       3.517   7.266  -0.924  1.00  0.00    -0.374 OA
BRANCH  40  41
ATOM     41  C   UNL     1       3.745   5.873  -0.714  1.00  0.00     0.202 C 
BRANCH  41  42
ATOM     42  C   UNL     1       2.666   5.134   0.083  1.00  0.00     0.261 C 
BRANCH  42  43
ATOM     43  O   UNL     1       1.402   5.103  -0.605  1.00  0.00    -0.460 OA
BRANCH  43  44
ATOM     44  C   UNL     1       0.461   5.945  -0.116  1.00  0.00     0.338 C 
ATOM     45  O   UNL     1       0.540   6.644   0.885  1.00  0.00    -0.246 OA
BRANCH  44  46
ATOM     46  C   UNL     1      -0.676   6.027  -1.053  1.00  0.00     0.060 A 
ATOM     47  C   UNL     1      -1.183   7.289  -1.380  1.00  0.00     0.016 A 
ATOM     48  C   UNL     1      -1.282   4.878  -1.559  1.00  0.00     0.016 A 
ATOM     49  C   UNL     1      -2.327   7.398  -2.171  1.00  0.00     0.010 A 
ATOM     50  C   UNL     1      -2.419   4.985  -2.363  1.00  0.00     0.010 A 
ATOM     51  C   UNL     1      -2.973   6.244  -2.637  1.00  0.00    -0.014 A 
BRANCH  51  52
ATOM     52  C   UNL     1      -4.303   6.341  -3.286  1.00  0.00     0.031 A 
ATOM     53  C   UNL     1      -5.533   5.984  -2.497  1.00  0.00     0.074 A 
ATOM     54  C   UNL     1      -4.417   6.748  -4.562  1.00  0.00     0.049 A 
ATOM     55  N   UNL     1      -6.788   5.992  -2.868  1.00  0.00    -0.248 NA
ATOM     56  C   UNL     1      -5.321   5.550  -1.106  1.00  0.00     0.031 C 
ATOM     57  C   UNL     1      -3.304   7.122  -5.431  1.00  0.00     0.029 A 
ATOM     58  N   UNL     1      -5.530   6.912  -5.348  1.00  0.00    -0.354 N 
ATOM     59  C   UNL     1      -7.511   5.566  -1.762  1.00  0.00     0.074 A 
ATOM     60  C   UNL     1      -6.555   5.263  -0.720  1.00  0.00     0.031 C 
ATOM     61  C   UNL     1      -3.790   7.478  -6.631  1.00  0.00     0.029 A 
ATOM     62  C   UNL     1      -5.245   7.335  -6.622  1.00  0.00     0.049 A 
ATOM     63  H   UNL     1      -6.446   6.741  -5.028  1.00  0.00     0.167 HD
ATOM     64  C   UNL     1      -8.853   5.455  -1.619  1.00  0.00     0.037 A 
ATOM     65  C   UNL     1      -6.064   7.575  -7.664  1.00  0.00     0.037 A 
ATOM     66  C   UNL     1      -9.806   5.771  -2.650  1.00  0.00     0.049 A 
ATOM     67  C   UNL     1      -7.550   7.409  -7.499  1.00  0.00     0.074 A 
ATOM     68  C   UNL     1     -11.187   5.737  -2.583  1.00  0.00     0.029 A 
ATOM     69  N   UNL     1      -9.475   6.172  -3.935  1.00  0.00    -0.354 N 
ATOM     70  N   UNL     1      -8.225   7.047  -6.434  1.00  0.00    -0.248 NA
ATOM     71  C   UNL     1      -8.388   7.686  -8.675  1.00  0.00     0.031 C 
ATOM     72  C   UNL     1     -11.693   6.071  -3.843  1.00  0.00     0.029 A 
ATOM     73  C   UNL     1     -10.627   6.362  -4.680  1.00  0.00     0.049 A 
ATOM     74  H   UNL     1      -8.558   6.302  -4.269  1.00  0.00     0.167 HD
ATOM     75  C   UNL     1      -9.564   7.072  -6.805  1.00  0.00     0.074 A 
ATOM     76  C   UNL     1      -9.608   7.492  -8.190  1.00  0.00     0.031 C 
ATOM     77  C   UNL     1     -10.658   6.776  -6.060  1.00  0.00     0.037 A 
BRANCH  64  78
ATOM     78  C   UNL     1      -9.374   4.970  -0.299  1.00  0.00     0.057 A 
ATOM     79  C   UNL     1      -9.966   3.706  -0.185  1.00  0.00     0.134 A 
ATOM     80  C   UNL     1      -9.334   5.771   0.850  1.00  0.00     0.134 A 
ATOM     81  F   UNL     1     -10.042   2.891  -1.248  1.00  0.00    -0.206 F 
ATOM     82  C   UNL     1     -10.506   3.259   1.022  1.00  0.00     0.040 A 
ATOM     83  C   UNL     1      -9.847   5.325   2.069  1.00  0.00     0.040 A 
ATOM     84  F   UNL     1      -8.768   6.987   0.810  1.00  0.00    -0.206 F 
ATOM     85  C   UNL     1     -10.443   4.069   2.155  1.00  0.00     0.006 A 
ENDBRANCH  64  78
BRANCH  65  86
ATOM     86  C   UNL     1      -5.484   8.025  -8.954  1.00  0.00     0.057 A 
ATOM     87  C   UNL     1      -4.748   7.152  -9.764  1.00  0.00     0.134 A 
ATOM     88  C   UNL     1      -5.617   9.349  -9.382  1.00  0.00     0.134 A 
ATOM     89  F   UNL     1      -4.582   5.871  -9.405  1.00  0.00    -0.206 F 
ATOM     90  C   UNL     1      -4.145   7.588 -10.945  1.00  0.00     0.040 A 
ATOM     91  C   UNL     1      -5.035   9.794 -10.570  1.00  0.00     0.040 A 
ATOM     92  F   UNL     1      -6.327  10.225  -8.656  1.00  0.00    -0.206 F 
ATOM     93  C   UNL     1      -4.288   8.913 -11.351  1.00  0.00     0.006 A 
ENDBRANCH  65  86
BRANCH  77  94
ATOM     94  C   UNL     1     -12.003   6.902  -6.712  1.00  0.00     0.057 A 
ATOM     95  C   UNL     1     -12.882   7.930  -6.344  1.00  0.00     0.134 A 
ATOM     96  C   UNL     1     -12.463   5.958  -7.638  1.00  0.00     0.134 A 
ATOM     97  F   UNL     1     -12.506   8.860  -5.453  1.00  0.00    -0.206 F 
ATOM     98  C   UNL     1     -14.176   8.003  -6.860  1.00  0.00     0.040 A 
ATOM     99  C   UNL     1     -13.748   6.034  -8.178  1.00  0.00     0.040 A 
ATOM    100  F   UNL     1     -11.667   4.955  -8.037  1.00  0.00    -0.206 F 
ATOM    101  C   UNL     1     -14.612   7.053  -7.781  1.00  0.00     0.006 A 
ENDBRANCH  77  94
ENDBRANCH  51  52
ENDBRANCH  44  46
ENDBRANCH  43  44
ENDBRANCH  42  43
ENDBRANCH  41  42
ENDBRANCH  40  41
ENDBRANCH   1  40
TORSDOF 20
