REMARK SMILES C[C@H](NC1=[NH+]S(=O)(=O)c2ccccc21)C(=O)OCCOCCOC(=O)c1ccc(-c2c3nc(c(-c4c(F)cccc4F)c4ccc([nH]4)c(-c4c(F)cccc4F)c4nc(c(-c5c(F)cccc5F)c5ccc2[nH]5)C=C4)C=C3)cc1
REMARK SMILES IDX 21 1 20 2 19 3 18 4 17 5 15 6 16 7 2 8 1 9 3 10 4 11 5 13
REMARK SMILES IDX 14 14 6 15 9 17 13 18 7 19 8 20 10 21 12 22 11 23 22 24
REMARK SMILES IDX 23 25 24 26 25 27 26 28 27 29 79 30 28 31 78 32 29 33 30 34
REMARK SMILES IDX 31 35 72 36 32 37 77 38 71 39 73 40 33 41 76 42 70 43 69 44
REMARK SMILES IDX 34 46 60 47 43 48 59 49 44 50 47 51 58 52 74 53 45 54 46 55
REMARK SMILES IDX 57 57 75 58 48 59 35 60 36 61 41 62 37 63 38 64 40 65 42 66
REMARK SMILES IDX 39 67 61 68 62 69 67 70 63 71 64 72 66 73 68 74 65 75 49 76
REMARK SMILES IDX 50 77 55 78 51 79 52 80 54 81 56 82 53 83
REMARK H PARENT 3 12 5 16 73 45 47 56
REMARK Flexibility Score: inf
ROOT
ATOM      1  C   UNL     1      -1.853   0.522  -1.875  1.00  0.00     0.202 C 
ENDROOT
BRANCH   1   2
ATOM      2  O   UNL     1      -3.054  -0.252  -1.873  1.00  0.00    -0.374 OA
BRANCH   2   3
ATOM      3  C   UNL     1      -3.576  -0.680  -0.621  1.00  0.00     0.202 C 
BRANCH   3   4
ATOM      4  C   UNL     1      -2.868  -1.849   0.067  1.00  0.00     0.261 C 
BRANCH   4   5
ATOM      5  O   UNL     1      -1.457  -1.630   0.239  1.00  0.00    -0.460 OA
BRANCH   5   6
ATOM      6  C   UNL     1      -0.666  -2.408  -0.561  1.00  0.00     0.350 C 
ATOM      7  O   UNL     1      -1.082  -3.281  -1.315  1.00  0.00    -0.247 OA
BRANCH   6   8
ATOM      8  C   UNL     1       0.823  -2.124  -0.382  1.00  0.00     0.279 C 
ATOM      9  C   UNL     1       1.416  -3.254   0.456  1.00  0.00     0.071 C 
BRANCH   8  10
ATOM     10  N   UNL     1       1.134  -0.832   0.261  1.00  0.00    -0.260 N 
ATOM     11  C   UNL     1       2.436  -0.395   0.326  1.00  0.00     0.292 C 
ATOM     12  H   UNL     1       0.410  -0.284   0.642  1.00  0.00     0.306 HD
ATOM     13  N   UNL     1       3.345  -0.782  -0.524  1.00  0.00    -0.162 N 
ATOM     14  C   UNL     1       2.928   0.458   1.432  1.00  0.00     0.087 A 
ATOM     15  S   UNL     1       4.831  -0.245  -0.095  1.00  0.00     0.329 S 
ATOM     16  H   UNL     1       3.162  -1.327  -1.323  1.00  0.00     0.327 HD
ATOM     17  C   UNL     1       4.304   0.567   1.348  1.00  0.00     0.124 A 
ATOM     18  C   UNL     1       2.250   1.020   2.498  1.00  0.00     0.018 A 
ATOM     19  O   UNL     1       5.292   0.769  -1.013  1.00  0.00    -0.179 OA
ATOM     20  O   UNL     1       5.657  -1.361   0.324  1.00  0.00    -0.179 OA
ATOM     21  C   UNL     1       5.084   1.174   2.312  1.00  0.00     0.025 A 
ATOM     22  C   UNL     1       3.008   1.666   3.486  1.00  0.00     0.001 A 
ATOM     23  C   UNL     1       4.414   1.730   3.401  1.00  0.00     0.002 A 
ENDBRANCH   8  10
ENDBRANCH   6   8
ENDBRANCH   5   6
ENDBRANCH   4   5
ENDBRANCH   3   4
ENDBRANCH   2   3
ENDBRANCH   1   2
BRANCH   1  24
ATOM     24  C   UNL     1      -1.942   1.950  -1.322  1.00  0.00     0.261 C 
BRANCH  24  25
ATOM     25  O   UNL     1      -2.203   1.976   0.096  1.00  0.00    -0.460 OA
BRANCH  25  26
ATOM     26  C   UNL     1      -3.360   2.595   0.443  1.00  0.00     0.338 C 
ATOM     27  O   UNL     1      -4.143   3.172  -0.293  1.00  0.00    -0.246 OA
BRANCH  26  28
ATOM     28  C   UNL     1      -3.671   2.337   1.861  1.00  0.00     0.060 A 
ATOM     29  C   UNL     1      -4.913   1.759   2.157  1.00  0.00     0.016 A 
ATOM     30  C   UNL     1      -2.819   2.753   2.886  1.00  0.00     0.016 A 
ATOM     31  C   UNL     1      -5.330   1.640   3.481  1.00  0.00     0.010 A 
ATOM     32  C   UNL     1      -3.244   2.642   4.215  1.00  0.00     0.010 A 
ATOM     33  C   UNL     1      -4.516   2.119   4.516  1.00  0.00    -0.014 A 
BRANCH  33  34
ATOM     34  C   UNL     1      -5.064   2.209   5.891  1.00  0.00     0.031 A 
ATOM     35  C   UNL     1      -5.601   3.526   6.381  1.00  0.00     0.074 A 
ATOM     36  C   UNL     1      -5.123   1.123   6.681  1.00  0.00     0.049 A 
ATOM     37  N   UNL     1      -6.111   3.833   7.546  1.00  0.00    -0.248 NA
ATOM     38  C   UNL     1      -5.559   4.647   5.428  1.00  0.00     0.031 C 
ATOM     39  C   UNL     1      -4.675  -0.218   6.310  1.00  0.00     0.029 A 
ATOM     40  N   UNL     1      -5.586   0.981   7.965  1.00  0.00    -0.354 N 
ATOM     41  C   UNL     1      -6.451   5.178   7.467  1.00  0.00     0.074 A 
ATOM     42  C   UNL     1      -6.059   5.637   6.152  1.00  0.00     0.031 C 
ATOM     43  C   UNL     1      -4.878  -1.048   7.348  1.00  0.00     0.029 A 
ATOM     44  C   UNL     1      -5.445  -0.291   8.463  1.00  0.00     0.049 A 
ATOM     45  H   UNL     1      -5.981   1.721   8.481  1.00  0.00     0.167 HD
ATOM     46  C   UNL     1      -7.048   5.958   8.400  1.00  0.00     0.037 A 
ATOM     47  C   UNL     1      -5.728  -0.783   9.684  1.00  0.00     0.037 A 
ATOM     48  C   UNL     1      -7.439   5.505   9.709  1.00  0.00     0.049 A 
ATOM     49  C   UNL     1      -6.324   0.122  10.729  1.00  0.00     0.074 A 
ATOM     50  C   UNL     1      -8.055   6.220  10.721  1.00  0.00     0.029 A 
ATOM     51  N   UNL     1      -7.248   4.218  10.187  1.00  0.00    -0.354 N 
ATOM     52  N   UNL     1      -6.655   1.387  10.637  1.00  0.00    -0.248 NA
ATOM     53  C   UNL     1      -6.588  -0.472  12.048  1.00  0.00     0.031 C 
ATOM     54  C   UNL     1      -8.201   5.375  11.827  1.00  0.00     0.029 A 
ATOM     55  C   UNL     1      -7.715   4.123  11.487  1.00  0.00     0.049 A 
ATOM     56  H   UNL     1      -6.841   3.481   9.677  1.00  0.00     0.167 HD
ATOM     57  C   UNL     1      -7.191   1.732  11.872  1.00  0.00     0.074 A 
ATOM     58  C   UNL     1      -7.151   0.540  12.693  1.00  0.00     0.031 C 
ATOM     59  C   UNL     1      -7.675   2.927  12.289  1.00  0.00     0.037 A 
BRANCH  46  60
ATOM     60  C   UNL     1      -7.299   7.392   8.040  1.00  0.00     0.057 A 
ATOM     61  C   UNL     1      -8.304   7.761   7.136  1.00  0.00     0.134 A 
ATOM     62  C   UNL     1      -6.547   8.418   8.626  1.00  0.00     0.134 A 
ATOM     63  F   UNL     1      -9.049   6.824   6.529  1.00  0.00    -0.206 F 
ATOM     64  C   UNL     1      -8.539   9.098   6.812  1.00  0.00     0.040 A 
ATOM     65  C   UNL     1      -6.788   9.761   8.328  1.00  0.00     0.040 A 
ATOM     66  F   UNL     1      -5.572   8.133   9.502  1.00  0.00    -0.206 F 
ATOM     67  C   UNL     1      -7.784  10.103   7.414  1.00  0.00     0.006 A 
ENDBRANCH  46  60
BRANCH  47  68
ATOM     68  C   UNL     1      -5.442  -2.206   9.997  1.00  0.00     0.057 A 
ATOM     69  C   UNL     1      -6.476  -3.126  10.200  1.00  0.00     0.134 A 
ATOM     70  C   UNL     1      -4.128  -2.670  10.130  1.00  0.00     0.134 A 
ATOM     71  F   UNL     1      -7.756  -2.735  10.111  1.00  0.00    -0.206 F 
ATOM     72  C   UNL     1      -6.215  -4.454  10.542  1.00  0.00     0.040 A 
ATOM     73  C   UNL     1      -3.852  -4.000  10.448  1.00  0.00     0.040 A 
ATOM     74  F   UNL     1      -3.093  -1.837   9.947  1.00  0.00    -0.206 F 
ATOM     75  C   UNL     1      -4.898  -4.895  10.662  1.00  0.00     0.006 A 
ENDBRANCH  47  68
BRANCH  59  76
ATOM     76  C   UNL     1      -8.232   2.997  13.681  1.00  0.00     0.057 A 
ATOM     77  C   UNL     1      -7.403   2.986  14.809  1.00  0.00     0.134 A 
ATOM     78  C   UNL     1      -9.612   3.111  13.892  1.00  0.00     0.134 A 
ATOM     79  F   UNL     1      -6.073   2.865  14.675  1.00  0.00    -0.206 F 
ATOM     80  C   UNL     1      -7.929   3.064  16.100  1.00  0.00     0.040 A 
ATOM     81  C   UNL     1     -10.147   3.215  15.176  1.00  0.00     0.040 A 
ATOM     82  F   UNL     1     -10.460   3.136  12.853  1.00  0.00    -0.206 F 
ATOM     83  C   UNL     1      -9.305   3.185  16.285  1.00  0.00     0.006 A 
ENDBRANCH  59  76
ENDBRANCH  33  34
ENDBRANCH  26  28
ENDBRANCH  25  26
ENDBRANCH  24  25
ENDBRANCH   1  24
TORSDOF 15
