REMARK SMILES O=C(OCCOCCOC(=O)[C@@H]1C[C@@H]2CC(=O)[C@H]1C2)c1ccc(-c2c3nc(c(-c4c(F)cccc4F)c4ccc([nH]4)c(-c4c(F)cccc4F)c4nc(c(-c5c(F)cccc5F)c5ccc2[nH]5)C=C4)C=C3)cc1
REMARK SMILES IDX 5 1 4 2 3 3 2 4 1 5 20 6 21 7 73 8 22 9 72 10 23 11 24 12
REMARK SMILES IDX 25 13 66 14 26 15 71 16 65 17 67 18 27 19 70 20 64 21 63 22
REMARK SMILES IDX 28 24 54 25 37 26 53 27 38 28 41 29 52 30 68 31 39 32 40 33
REMARK SMILES IDX 51 35 69 36 42 37 29 38 30 39 35 40 31 41 32 42 34 43 36 44
REMARK SMILES IDX 33 45 55 46 56 47 61 48 57 49 58 50 60 51 62 52 59 53 43 54
REMARK SMILES IDX 44 55 49 56 45 57 46 58 48 59 50 60 47 61 6 62 7 63 8 64
REMARK SMILES IDX 9 65 10 66 11 67 12 68 13 69 18 70 14 71 16 72 19 73 15 74
REMARK SMILES IDX 17 75
REMARK H PARENT 67 23 41 34
REMARK Flexibility Score: inf
ROOT
ATOM      1  C   UNL     1       4.395   1.357  -0.077  1.00  0.00     0.202 C 
ENDROOT
BRANCH   1   2
ATOM      2  C   UNL     1       4.105   0.332  -1.180  1.00  0.00     0.261 C 
BRANCH   2   3
ATOM      3  O   UNL     1       2.718  -0.048  -1.174  1.00  0.00    -0.460 OA
BRANCH   3   4
ATOM      4  C   UNL     1       2.163  -1.144  -0.603  1.00  0.00     0.338 C 
ATOM      5  O   UNL     1       0.953  -1.330  -0.700  1.00  0.00    -0.246 OA
BRANCH   4   6
ATOM      6  C   UNL     1       2.975  -2.159   0.127  1.00  0.00     0.060 A 
ATOM      7  C   UNL     1       4.170  -1.869   0.777  1.00  0.00     0.016 A 
ATOM      8  C   UNL     1       2.480  -3.468   0.222  1.00  0.00     0.016 A 
ATOM      9  C   UNL     1       4.904  -2.823   1.430  1.00  0.00     0.010 A 
ATOM     10  C   UNL     1       3.182  -4.441   0.944  1.00  0.00     0.010 A 
ATOM     11  C   UNL     1       4.400  -4.106   1.545  1.00  0.00    -0.014 A 
BRANCH  11  12
ATOM     12  C   UNL     1       5.285  -5.049   2.233  1.00  0.00     0.031 A 
ATOM     13  C   UNL     1       6.076  -5.998   1.398  1.00  0.00     0.074 A 
ATOM     14  C   UNL     1       5.547  -4.836   3.536  1.00  0.00     0.049 A 
ATOM     15  N   UNL     1       6.947  -6.890   1.773  1.00  0.00    -0.248 NA
ATOM     16  C   UNL     1       5.883  -5.912  -0.062  1.00  0.00     0.031 C 
ATOM     17  C   UNL     1       4.939  -3.779   4.359  1.00  0.00     0.029 A 
ATOM     18  N   UNL     1       6.434  -5.439   4.380  1.00  0.00    -0.354 N 
ATOM     19  C   UNL     1       7.383  -7.493   0.603  1.00  0.00     0.074 A 
ATOM     20  C   UNL     1       6.685  -6.870  -0.497  1.00  0.00     0.031 C 
ATOM     21  C   UNL     1       5.495  -3.796   5.579  1.00  0.00     0.029 A 
ATOM     22  C   UNL     1       6.422  -4.915   5.650  1.00  0.00     0.049 A 
ATOM     23  H   UNL     1       7.024  -6.178   4.106  1.00  0.00     0.167 HD
ATOM     24  C   UNL     1       8.288  -8.488   0.480  1.00  0.00     0.037 A 
ATOM     25  C   UNL     1       7.059  -5.341   6.754  1.00  0.00     0.037 A 
ATOM     26  C   UNL     1       8.956  -9.074   1.609  1.00  0.00     0.049 A 
ATOM     27  C   UNL     1       7.951  -6.542   6.606  1.00  0.00     0.074 A 
ATOM     28  C   UNL     1       9.813 -10.155   1.645  1.00  0.00     0.029 A 
ATOM     29  N   UNL     1       8.834  -8.608   2.913  1.00  0.00    -0.354 N 
ATOM     30  N   UNL     1       8.282  -7.195   5.515  1.00  0.00    -0.248 NA
ATOM     31  C   UNL     1       8.542  -7.080   7.834  1.00  0.00     0.031 C 
ATOM     32  C   UNL     1      10.175 -10.372   2.979  1.00  0.00     0.029 A 
ATOM     33  C   UNL     1       9.589  -9.390   3.767  1.00  0.00     0.049 A 
ATOM     34  H   UNL     1       8.290  -7.835   3.189  1.00  0.00     0.167 HD
ATOM     35  C   UNL     1       9.130  -8.212   5.922  1.00  0.00     0.074 A 
ATOM     36  C   UNL     1       9.290  -8.063   7.356  1.00  0.00     0.031 C 
ATOM     37  C   UNL     1       9.718  -9.191   5.189  1.00  0.00     0.037 A 
BRANCH  24  38
ATOM     38  C   UNL     1       8.519  -9.035  -0.894  1.00  0.00     0.057 A 
ATOM     39  C   UNL     1       9.217  -8.323  -1.877  1.00  0.00     0.134 A 
ATOM     40  C   UNL     1       8.000 -10.287  -1.250  1.00  0.00     0.134 A 
ATOM     41  F   UNL     1       9.705  -7.100  -1.615  1.00  0.00    -0.206 F 
ATOM     42  C   UNL     1       9.379  -8.830  -3.169  1.00  0.00     0.040 A 
ATOM     43  C   UNL     1       8.175 -10.814  -2.529  1.00  0.00     0.040 A 
ATOM     44  F   UNL     1       7.304 -11.012  -0.361  1.00  0.00    -0.206 F 
ATOM     45  C   UNL     1       8.863 -10.083  -3.495  1.00  0.00     0.006 A 
ENDBRANCH  24  38
BRANCH  25  46
ATOM     46  C   UNL     1       6.803  -4.715   8.079  1.00  0.00     0.057 A 
ATOM     47  C   UNL     1       7.827  -4.127   8.828  1.00  0.00     0.134 A 
ATOM     48  C   UNL     1       5.525  -4.745   8.658  1.00  0.00     0.134 A 
ATOM     49  F   UNL     1       9.076  -4.078   8.344  1.00  0.00    -0.206 F 
ATOM     50  C   UNL     1       7.601  -3.628  10.114  1.00  0.00     0.040 A 
ATOM     51  C   UNL     1       5.277  -4.218   9.926  1.00  0.00     0.040 A 
ATOM     52  F   UNL     1       4.492  -5.291   7.999  1.00  0.00    -0.206 F 
ATOM     53  C   UNL     1       6.322  -3.671  10.665  1.00  0.00     0.006 A 
ENDBRANCH  25  46
BRANCH  37  54
ATOM     54  C   UNL     1      10.606 -10.137   5.938  1.00  0.00     0.057 A 
ATOM     55  C   UNL     1      10.090 -11.088   6.826  1.00  0.00     0.134 A 
ATOM     56  C   UNL     1      11.992 -10.105   5.746  1.00  0.00     0.134 A 
ATOM     57  F   UNL     1       8.771 -11.155   7.062  1.00  0.00    -0.206 F 
ATOM     58  C   UNL     1      10.928 -11.954   7.527  1.00  0.00     0.040 A 
ATOM     59  C   UNL     1      12.837 -10.990   6.414  1.00  0.00     0.040 A 
ATOM     60  F   UNL     1      12.544  -9.223   4.899  1.00  0.00    -0.206 F 
ATOM     61  C   UNL     1      12.305 -11.911   7.315  1.00  0.00     0.006 A 
ENDBRANCH  37  54
ENDBRANCH  11  12
ENDBRANCH   4   6
ENDBRANCH   3   4
ENDBRANCH   2   3
ENDBRANCH   1   2
BRANCH   1  62
ATOM     62  O   UNL     1       4.010   1.005   1.253  1.00  0.00    -0.374 OA
BRANCH  62  63
ATOM     63  C   UNL     1       2.641   1.261   1.591  1.00  0.00     0.202 C 
BRANCH  63  64
ATOM     64  C   UNL     1       2.576   2.251   2.754  1.00  0.00     0.261 C 
BRANCH  64  65
ATOM     65  O   UNL     1       3.142   3.495   2.312  1.00  0.00    -0.463 OA
BRANCH  65  66
ATOM     66  C   UNL     1       4.490   3.578   2.373  1.00  0.00     0.309 C 
ATOM     67  O   UNL     1       5.197   2.970   3.168  1.00  0.00    -0.252 OA
BRANCH  66  68
ATOM     68  C   UNL     1       5.053   4.561   1.361  1.00  0.00     0.110 C 
ATOM     69  C   UNL     1       5.064   5.981   1.955  1.00  0.00     0.020 C 
ATOM     70  C   UNL     1       4.355   4.769  -0.001  1.00  0.00     0.070 C 
ATOM     71  C   UNL     1       4.299   6.811   0.904  1.00  0.00    -0.002 C 
ATOM     72  C   UNL     1       2.897   5.094   0.220  1.00  0.00     0.137 C 
ATOM     73  C   UNL     1       4.805   6.176  -0.391  1.00  0.00     0.016 C 
ATOM     74  C   UNL     1       2.796   6.436   0.901  1.00  0.00     0.079 C 
ATOM     75  O   UNL     1       1.957   4.382  -0.110  1.00  0.00    -0.299 OA
ENDBRANCH  66  68
ENDBRANCH  65  66
ENDBRANCH  64  65
ENDBRANCH  63  64
ENDBRANCH  62  63
ENDBRANCH   1  62
TORSDOF 14
