REMARK SMILES O=C(CN(Cc1ccccc1Cl)S(=O)(=O)c1ccc(Cl)cc1)OCCOCCOC(=O)c1ccc(-c2c3nc(c(-c4c(F)cccc4F)c4ccc([nH]4)c(-c4c(F)cccc4F)c4nc(c(-c5c(F)cccc5F)c5ccc2[nH]5)C=C4)C=C3)cc1
REMARK SMILES IDX 25 1 24 2 23 3 2 4 1 5 3 6 4 7 5 8 6 9 7 10 11 11 8 12 10 13
REMARK SMILES IDX 12 14 9 15 13 16 14 17 15 18 16 19 17 20 22 21 18 22 21 23
REMARK SMILES IDX 19 24 20 25 26 26 27 27 28 28 29 29 30 30 31 31 32 32 33 33
REMARK SMILES IDX 85 34 34 35 84 36 35 37 36 38 37 39 78 40 38 41 83 42 77 43
REMARK SMILES IDX 79 44 39 45 82 46 76 47 75 48 40 50 66 51 49 52 65 53 50 54
REMARK SMILES IDX 53 55 64 56 80 57 51 58 52 59 63 61 81 62 54 63 41 64 42 65
REMARK SMILES IDX 47 66 43 67 44 68 46 69 48 70 45 71 67 72 68 73 73 74 69 75
REMARK SMILES IDX 70 76 72 77 74 78 71 79 55 80 56 81 61 82 57 83 58 84 60 85
REMARK SMILES IDX 62 86 59 87
REMARK H PARENT 79 49 53 60
REMARK Flexibility Score: inf
ROOT
ATOM      1  C   UNL     1       4.829   0.854   0.878  1.00  0.00     0.202 C 
ENDROOT
BRANCH   1   2
ATOM      2  C   UNL     1       4.581   0.542  -0.596  1.00  0.00     0.261 C 
BRANCH   2   3
ATOM      3  O   UNL     1       3.245   0.913  -0.993  1.00  0.00    -0.462 OA
BRANCH   3   4
ATOM      4  C   UNL     1       2.145   0.150  -0.808  1.00  0.00     0.321 C 
ATOM      5  O   UNL     1       1.032   0.675  -0.807  1.00  0.00    -0.251 OA
BRANCH   4   6
ATOM      6  C   UNL     1       2.309  -1.312  -0.476  1.00  0.00     0.225 C 
BRANCH   6   7
ATOM      7  N   UNL     1       3.206  -2.117  -1.332  1.00  0.00    -0.182 NA
BRANCH   7   8
ATOM      8  C   UNL     1       4.020  -3.128  -0.600  1.00  0.00     0.140 C 
BRANCH   8   9
ATOM      9  C   UNL     1       3.351  -4.388  -0.091  1.00  0.00    -0.014 A 
ATOM     10  C   UNL     1       2.165  -4.320   0.666  1.00  0.00     0.006 A 
ATOM     11  C   UNL     1       3.921  -5.661  -0.272  1.00  0.00     0.045 A 
ATOM     12  C   UNL     1       1.526  -5.468   1.139  1.00  0.00     0.000 A 
ATOM     13  C   UNL     1       3.285  -6.812   0.212  1.00  0.00     0.021 A 
ATOM     14  Cl  UNL     1       5.445  -5.892  -1.059  1.00  0.00    -0.084 Cl
ATOM     15  C   UNL     1       2.079  -6.716   0.901  1.00  0.00     0.002 A 
ENDBRANCH   8   9
ENDBRANCH   7   8
BRANCH   7  16
ATOM     16  S   UNL     1       2.507  -2.517  -2.817  1.00  0.00     0.243 S 
ATOM     17  O   UNL     1       1.665  -3.667  -2.626  1.00  0.00    -0.207 OA
ATOM     18  O   UNL     1       1.967  -1.288  -3.374  1.00  0.00    -0.207 OA
BRANCH  16  19
ATOM     19  C   UNL     1       3.876  -2.971  -3.848  1.00  0.00     0.082 A 
ATOM     20  C   UNL     1       4.077  -4.318  -4.164  1.00  0.00     0.023 A 
ATOM     21  C   UNL     1       4.648  -1.971  -4.450  1.00  0.00     0.023 A 
ATOM     22  C   UNL     1       5.060  -4.666  -5.091  1.00  0.00     0.022 A 
ATOM     23  C   UNL     1       5.627  -2.325  -5.380  1.00  0.00     0.022 A 
ATOM     24  C   UNL     1       5.824  -3.670  -5.701  1.00  0.00     0.041 A 
ATOM     25  Cl  UNL     1       6.996  -4.101  -6.884  1.00  0.00    -0.084 Cl
ENDBRANCH  16  19
ENDBRANCH   7  16
ENDBRANCH   6   7
ENDBRANCH   4   6
ENDBRANCH   3   4
ENDBRANCH   2   3
ENDBRANCH   1   2
BRANCH   1  26
ATOM     26  O   UNL     1       4.260  -0.096   1.781  1.00  0.00    -0.374 OA
BRANCH  26  27
ATOM     27  C   UNL     1       3.051   0.308   2.439  1.00  0.00     0.202 C 
BRANCH  27  28
ATOM     28  C   UNL     1       3.213   1.226   3.653  1.00  0.00     0.261 C 
BRANCH  28  29
ATOM     29  O   UNL     1       3.511   2.563   3.230  1.00  0.00    -0.460 OA
BRANCH  29  30
ATOM     30  C   UNL     1       4.816   2.911   3.306  1.00  0.00     0.338 C 
ATOM     31  O   UNL     1       5.721   2.278   3.821  1.00  0.00    -0.246 OA
BRANCH  30  32
ATOM     32  C   UNL     1       5.038   4.092   2.449  1.00  0.00     0.060 A 
ATOM     33  C   UNL     1       6.209   4.118   1.677  1.00  0.00     0.016 A 
ATOM     34  C   UNL     1       4.125   5.148   2.397  1.00  0.00     0.016 A 
ATOM     35  C   UNL     1       6.512   5.237   0.909  1.00  0.00     0.010 A 
ATOM     36  C   UNL     1       4.433   6.273   1.635  1.00  0.00     0.010 A 
ATOM     37  C   UNL     1       5.651   6.339   0.936  1.00  0.00    -0.014 A 
BRANCH  37  38
ATOM     38  C   UNL     1       6.130   7.652   0.459  1.00  0.00     0.031 A 
ATOM     39  C   UNL     1       6.654   8.614   1.486  1.00  0.00     0.074 A 
ATOM     40  C   UNL     1       6.084   7.981  -0.841  1.00  0.00     0.049 A 
ATOM     41  N   UNL     1       7.003   9.866   1.355  1.00  0.00    -0.248 NA
ATOM     42  C   UNL     1       6.787   8.092   2.858  1.00  0.00     0.031 C 
ATOM     43  C   UNL     1       5.638   7.105  -1.921  1.00  0.00     0.029 A 
ATOM     44  N   UNL     1       6.399   9.160  -1.464  1.00  0.00    -0.354 N 
ATOM     45  C   UNL     1       7.371  10.286   2.627  1.00  0.00     0.074 A 
ATOM     46  C   UNL     1       7.180   9.167   3.521  1.00  0.00     0.031 C 
ATOM     47  C   UNL     1       5.682   7.788  -3.078  1.00  0.00     0.029 A 
ATOM     48  C   UNL     1       6.121   9.156  -2.808  1.00  0.00     0.049 A 
ATOM     49  H   UNL     1       6.786   9.933  -0.994  1.00  0.00     0.167 HD
ATOM     50  C   UNL     1       7.830  11.499   3.011  1.00  0.00     0.037 A 
ATOM     51  C   UNL     1       6.183  10.160  -3.703  1.00  0.00     0.037 A 
ATOM     52  C   UNL     1       8.013  12.602   2.108  1.00  0.00     0.049 A 
ATOM     53  C   UNL     1       6.638  11.520  -3.244  1.00  0.00     0.074 A 
ATOM     54  C   UNL     1       8.486  13.872   2.380  1.00  0.00     0.029 A 
ATOM     55  N   UNL     1       7.720  12.561   0.752  1.00  0.00    -0.354 N 
ATOM     56  N   UNL     1       6.998  11.912  -2.044  1.00  0.00    -0.248 NA
ATOM     57  C   UNL     1       6.697  12.577  -4.262  1.00  0.00     0.031 C 
ATOM     58  C   UNL     1       8.433  14.616   1.197  1.00  0.00     0.029 A 
ATOM     59  C   UNL     1       7.983  13.791   0.176  1.00  0.00     0.049 A 
ATOM     60  H   UNL     1       7.377  11.774   0.271  1.00  0.00     0.167 HD
ATOM     61  C   UNL     1       7.359  13.248  -2.169  1.00  0.00     0.074 A 
ATOM     62  C   UNL     1       7.176  13.598  -3.563  1.00  0.00     0.031 C 
ATOM     63  C   UNL     1       7.806  14.107  -1.219  1.00  0.00     0.037 A 
BRANCH  50  64
ATOM     64  C   UNL     1       8.122  11.693   4.471  1.00  0.00     0.057 A 
ATOM     65  C   UNL     1       9.196  11.056   5.107  1.00  0.00     0.134 A 
ATOM     66  C   UNL     1       7.312  12.527   5.252  1.00  0.00     0.134 A 
ATOM     67  F   UNL     1       9.998  10.227   4.422  1.00  0.00    -0.206 F 
ATOM     68  C   UNL     1       9.435  11.217   6.474  1.00  0.00     0.040 A 
ATOM     69  C   UNL     1       7.559  12.719   6.613  1.00  0.00     0.040 A 
ATOM     70  F   UNL     1       6.266  13.166   4.708  1.00  0.00    -0.206 F 
ATOM     71  C   UNL     1       8.617  12.055   7.229  1.00  0.00     0.006 A 
ENDBRANCH  50  64
BRANCH  51  72
ATOM     72  C   UNL     1       5.795   9.916  -5.114  1.00  0.00     0.057 A 
ATOM     73  C   UNL     1       6.750   9.911  -6.136  1.00  0.00     0.134 A 
ATOM     74  C   UNL     1       4.464   9.674  -5.474  1.00  0.00     0.134 A 
ATOM     75  F   UNL     1       8.039  10.156  -5.857  1.00  0.00    -0.206 F 
ATOM     76  C   UNL     1       6.395   9.684  -7.467  1.00  0.00     0.040 A 
ATOM     77  C   UNL     1       4.098   9.421  -6.797  1.00  0.00     0.040 A 
ATOM     78  F   UNL     1       3.501   9.662  -4.540  1.00  0.00    -0.206 F 
ATOM     79  C   UNL     1       5.066   9.431  -7.799  1.00  0.00     0.006 A 
ENDBRANCH  51  72
BRANCH  63  80
ATOM     80  C   UNL     1       8.183  15.490  -1.664  1.00  0.00     0.057 A 
ATOM     81  C   UNL     1       7.223  16.446  -2.015  1.00  0.00     0.134 A 
ATOM     82  C   UNL     1       9.528  15.884  -1.679  1.00  0.00     0.134 A 
ATOM     83  F   UNL     1       5.920  16.128  -2.030  1.00  0.00    -0.206 F 
ATOM     84  C   UNL     1       7.589  17.742  -2.384  1.00  0.00     0.040 A 
ATOM     85  C   UNL     1       9.903  17.184  -2.018  1.00  0.00     0.040 A 
ATOM     86  F   UNL     1      10.496  15.018  -1.341  1.00  0.00    -0.206 F 
ATOM     87  C   UNL     1       8.932  18.116  -2.377  1.00  0.00     0.006 A 
ENDBRANCH  63  80
ENDBRANCH  37  38
ENDBRANCH  30  32
ENDBRANCH  29  30
ENDBRANCH  28  29
ENDBRANCH  27  28
ENDBRANCH  26  27
ENDBRANCH   1  26
TORSDOF 19
