REMARK SMILES O=C(OCCOCCOC(=O)c1ccc(-c2c3nc(c(-c4c(F)cccc4F)c4ccc([nH]4)c(-c4c(F)cccc4F)c4nc(c(-c5c(F)cccc5F)c5ccc2[nH]5)C=C4)C=C3)cc1)C1=Cc2cc(S(F)(F)(F)(F)F)ccc2O[C@@H]1C(F)(F)F
REMARK SMILES IDX 7 1 6 2 5 3 4 4 3 5 2 6 1 7 66 8 67 9 81 10 68 11 80 12
REMARK SMILES IDX 69 13 79 14 70 15 78 16 77 17 82 18 83 19 84 20 85 21 71 22
REMARK SMILES IDX 72 23 73 24 74 25 75 26 76 27 8 28 9 29 10 30 11 31 12 32
REMARK SMILES IDX 13 33 65 34 14 35 64 36 15 37 16 38 17 39 58 40 18 41 63 42
REMARK SMILES IDX 57 43 59 44 19 45 62 46 56 47 55 48 20 50 46 51 29 52 45 53
REMARK SMILES IDX 30 54 33 55 44 56 60 57 31 58 32 59 43 61 61 62 34 63 21 64
REMARK SMILES IDX 22 65 27 66 23 67 24 68 26 69 28 70 25 71 47 72 48 73 53 74
REMARK SMILES IDX 49 75 50 76 52 77 54 78 51 79 35 80 36 81 41 82 37 83 38 84
REMARK SMILES IDX 40 85 42 86 39 87
REMARK H PARENT 59 49 33 60
REMARK Flexibility Score: inf
ROOT
ATOM      1  C   UNL     1       3.017   0.343  -1.548  1.00  0.00     0.202 C 
ENDROOT
BRANCH   1   2
ATOM      2  O   UNL     1       4.437   0.343  -1.548  1.00  0.00    -0.374 OA
BRANCH   2   3
ATOM      3  C   UNL     1       4.910  -0.896  -1.040  1.00  0.00     0.202 C 
BRANCH   3   4
ATOM      4  C   UNL     1       4.404  -1.087   0.381  1.00  0.00     0.261 C 
BRANCH   4   5
ATOM      5  O   UNL     1       2.984  -1.087   0.381  1.00  0.00    -0.460 OA
BRANCH   5   6
ATOM      6  C   UNL     1       2.274   0.050  -0.086  1.00  0.00     0.338 C 
ATOM      7  O   UNL     1       1.003   0.050  -0.086  1.00  0.00    -0.246 OA
BRANCH   6   8
ATOM      8  C   UNL     1       3.034   1.268  -0.586  1.00  0.00     0.087 C 
ATOM      9  C   UNL     1       4.394   1.268  -0.586  1.00  0.00     0.027 C 
ATOM     10  C   UNL     1       2.274   2.486  -1.086  1.00  0.00     0.316 C 
ATOM     11  C   UNL     1       5.154   0.050  -0.086  1.00  0.00     0.019 A 
ATOM     12  O   UNL     1       3.582  -1.394  -1.130  1.00  0.00    -0.475 OA
ATOM     13  C   UNL     1       6.262   0.280   0.713  1.00  0.00     0.036 A 
ATOM     14  C   UNL     1       4.808  -1.180  -0.447  1.00  0.00     0.128 A 
ATOM     15  C   UNL     1       7.115  -0.841   0.846  1.00  0.00     0.107 A 
ATOM     16  C   UNL     1       5.625  -2.248  -0.164  1.00  0.00     0.048 A 
ATOM     17  C   UNL     1       6.766  -2.084   0.571  1.00  0.00     0.028 A 
BRANCH  10  18
ATOM     18  C   UNL     1       2.641   2.752  -2.537  1.00  0.00     0.430 C 
ATOM     19  F   UNL     1       2.320   1.694  -3.277  1.00  0.00    -0.167 F 
ATOM     20  F   UNL     1       1.976   3.817  -2.975  1.00  0.00    -0.167 F 
ATOM     21  F   UNL     1       3.949   2.977  -2.630  1.00  0.00    -0.167 F 
ENDBRANCH  10  18
BRANCH  15  22
ATOM     22  S   UNL     1       8.802  -0.550   1.435  1.00  0.00     0.310 S 
ATOM     23  F   UNL     1       8.339  -0.582   2.951  1.00  0.00    -0.094 F 
ATOM     24  F   UNL     1       8.497   0.996   1.447  1.00  0.00    -0.094 F 
ATOM     25  F   UNL     1      10.249  -0.297   1.945  1.00  0.00    -0.094 F 
ATOM     26  F   UNL     1       9.042  -2.106   1.550  1.00  0.00    -0.094 F 
ATOM     27  F   UNL     1       7.300  -0.826   1.025  1.00  0.00    -0.094 F 
ENDBRANCH  15  22
ENDBRANCH   6   8
ENDBRANCH   5   6
ENDBRANCH   4   5
ENDBRANCH   3   4
ENDBRANCH   2   3
ENDBRANCH   1   2
BRANCH   1  28
ATOM     28  C   UNL     1       2.510  -0.792  -2.424  1.00  0.00     0.261 C 
BRANCH  28  29
ATOM     29  O   UNL     1       2.984  -2.030  -1.915  1.00  0.00    -0.460 OA
BRANCH  29  30
ATOM     30  C   UNL     1       4.380  -2.270  -1.817  1.00  0.00     0.338 C 
ATOM     31  O   UNL     1       5.206  -1.377  -2.184  1.00  0.00    -0.246 OA
BRANCH  30  32
ATOM     32  C   UNL     1       4.887  -3.596  -1.272  1.00  0.00     0.060 A 
ATOM     33  C   UNL     1       5.987  -3.560  -0.432  1.00  0.00     0.016 A 
ATOM     34  C   UNL     1       4.359  -4.748  -1.667  1.00  0.00     0.016 A 
ATOM     35  C   UNL     1       6.642  -4.806  -0.292  1.00  0.00     0.010 A 
ATOM     36  C   UNL     1       4.981  -5.939  -1.379  1.00  0.00     0.010 A 
ATOM     37  C   UNL     1       6.106  -5.973  -0.602  1.00  0.00    -0.014 A 
BRANCH  37  38
ATOM     38  C   UNL     1       6.708  -7.284  -0.122  1.00  0.00     0.031 A 
ATOM     39  C   UNL     1       7.149  -8.251  -1.027  1.00  0.00     0.074 A 
ATOM     40  C   UNL     1       6.835  -7.394   1.252  1.00  0.00     0.049 A 
ATOM     41  N   UNL     1       7.777  -9.396  -0.752  1.00  0.00    -0.248 NA
ATOM     42  C   UNL     1       6.986  -8.152  -2.485  1.00  0.00     0.031 C 
ATOM     43  C   UNL     1       6.400  -6.418   2.170  1.00  0.00     0.029 A 
ATOM     44  N   UNL     1       7.385  -8.433   1.969  1.00  0.00    -0.354 N 
ATOM     45  C   UNL     1       8.057 -10.050  -1.881  1.00  0.00     0.074 A 
ATOM     46  C   UNL     1       7.547  -9.262  -3.011  1.00  0.00     0.031 C 
ATOM     47  C   UNL     1       6.674  -6.868   3.423  1.00  0.00     0.029 A 
ATOM     48  C   UNL     1       7.285  -8.131   3.309  1.00  0.00     0.049 A 
ATOM     49  H   UNL     1       7.782  -9.250   1.590  1.00  0.00     0.167 HD
ATOM     50  C   UNL     1       8.720 -11.271  -2.013  1.00  0.00     0.037 A 
ATOM     51  C   UNL     1       7.695  -8.901   4.386  1.00  0.00     0.037 A 
ATOM     52  C   UNL     1       9.169 -12.021  -0.937  1.00  0.00     0.049 A 
ATOM     53  C   UNL     1       8.306 -10.151   4.257  1.00  0.00     0.074 A 
ATOM     54  C   UNL     1       9.846 -13.251  -1.052  1.00  0.00     0.029 A 
ATOM     55  N   UNL     1       9.047 -11.731   0.404  1.00  0.00    -0.354 N 
ATOM     56  N   UNL     1       8.621 -10.786   3.127  1.00  0.00    -0.248 NA
ATOM     57  C   UNL     1       8.715 -10.990   5.391  1.00  0.00     0.031 C 
ATOM     58  C   UNL     1      10.120 -13.700   0.201  1.00  0.00     0.029 A 
ATOM     59  C   UNL     1       9.618 -12.759   1.120  1.00  0.00     0.049 A 
ATOM     60  H   UNL     1       8.624 -10.927   0.784  1.00  0.00     0.167 HD
ATOM     61  C   UNL     1       9.212 -11.950   3.404  1.00  0.00     0.074 A 
ATOM     62  C   UNL     1       9.275 -12.102   4.864  1.00  0.00     0.031 C 
ATOM     63  C   UNL     1       9.705 -12.891   2.498  1.00  0.00     0.037 A 
BRANCH  50  64
ATOM     64  C   UNL     1       8.963 -11.809  -3.413  1.00  0.00     0.057 A 
ATOM     65  C   UNL     1       9.811 -11.082  -4.233  1.00  0.00     0.134 A 
ATOM     66  C   UNL     1       8.469 -12.979  -3.799  1.00  0.00     0.134 A 
ATOM     67  F   UNL     1      10.524 -10.045  -3.802  1.00  0.00    -0.206 F 
ATOM     68  C   UNL     1       9.850 -11.542  -5.570  1.00  0.00     0.040 A 
ATOM     69  C   UNL     1       8.661 -13.431  -5.082  1.00  0.00     0.040 A 
ATOM     70  F   UNL     1       7.782 -13.722  -2.935  1.00  0.00    -0.206 F 
ATOM     71  C   UNL     1       9.439 -12.733  -5.965  1.00  0.00     0.006 A 
ENDBRANCH  50  64
BRANCH  51  72
ATOM     72  C   UNL     1       7.467  -8.356   5.786  1.00  0.00     0.057 A 
ATOM     73  C   UNL     1       8.530  -8.251   6.668  1.00  0.00     0.134 A 
ATOM     74  C   UNL     1       6.223  -8.094   6.171  1.00  0.00     0.134 A 
ATOM     75  F   UNL     1       9.800  -8.254   6.276  1.00  0.00    -0.206 F 
ATOM     76  C   UNL     1       8.141  -8.139   8.024  1.00  0.00     0.040 A 
ATOM     77  C   UNL     1       5.936  -7.860   7.495  1.00  0.00     0.040 A 
ATOM     78  F   UNL     1       5.247  -8.058   5.269  1.00  0.00    -0.206 F 
ATOM     79  C   UNL     1       6.931  -7.801   8.431  1.00  0.00     0.006 A 
ENDBRANCH  51  72
BRANCH  63  80
ATOM     80  C   UNL     1      10.379 -14.134   3.055  1.00  0.00     0.057 A 
ATOM     81  C   UNL     1       9.642 -14.904   3.939  1.00  0.00     0.134 A 
ATOM     82  C   UNL     1      11.644 -14.427   2.774  1.00  0.00     0.134 A 
ATOM     83  F   UNL     1       8.321 -14.807   4.059  1.00  0.00    -0.206 F 
ATOM     84  C   UNL     1      10.422 -15.803   4.705  1.00  0.00     0.040 A 
ATOM     85  C   UNL     1      12.304 -15.411   3.470  1.00  0.00     0.040 A 
ATOM     86  F   UNL     1      12.277 -13.763   1.812  1.00  0.00    -0.206 F 
ATOM     87  C   UNL     1      11.653 -16.172   4.401  1.00  0.00     0.006 A 
ENDBRANCH  63  80
ENDBRANCH  37  38
ENDBRANCH  30  32
ENDBRANCH  29  30
ENDBRANCH  28  29
ENDBRANCH   1  28
TORSDOF 16
