REMARK SMILES O=C(OCCOCCOC(=O)c1cc(F)c(F)cc1NS(=O)(=O)c1ccc2c(c1)CCC2)c1ccc(-c2c3nc(c(-c4c(F)cccc4F)c4ccc([nH]4)c(-c4c(F)cccc4F)c4nc(c(-c5c(F)cccc5F)c5ccc2[nH]5)C=C4)C=C3)cc1
REMARK SMILES IDX 7 1 6 2 5 3 4 4 3 5 2 6 1 7 33 8 34 9 86 10 35 11 85 12
REMARK SMILES IDX 36 13 37 14 38 15 79 16 39 17 84 18 78 19 80 20 40 21 83 22
REMARK SMILES IDX 77 23 76 24 41 26 67 27 50 28 66 29 51 30 54 31 65 32 81 33
REMARK SMILES IDX 52 34 53 35 64 37 82 38 55 39 42 40 43 41 48 42 44 43 45 44
REMARK SMILES IDX 47 45 49 46 46 47 68 48 69 49 74 50 70 51 71 52 73 53 75 54
REMARK SMILES IDX 72 55 56 56 57 57 62 58 58 59 59 60 61 61 63 62 60 63 8 64
REMARK SMILES IDX 9 65 10 66 11 67 12 68 13 69 19 70 14 71 18 72 15 73 16 74
REMARK SMILES IDX 17 75 20 76 21 78 22 79 23 80 24 81 25 82 29 83 26 84 28 85
REMARK SMILES IDX 27 86 30 87 32 88 31 89
REMARK H PARENT 80 25 54 36 20 77
REMARK Flexibility Score: inf
ROOT
ATOM      1  C   UNL     1       2.713   1.112  -1.951  1.00  0.00     0.202 C 
ENDROOT
BRANCH   1   2
ATOM      2  O   UNL     1       3.954   0.722  -1.368  1.00  0.00    -0.374 OA
BRANCH   2   3
ATOM      3  C   UNL     1       4.195  -0.682  -1.289  1.00  0.00     0.202 C 
BRANCH   3   4
ATOM      4  C   UNL     1       3.789  -1.321   0.040  1.00  0.00     0.261 C 
BRANCH   4   5
ATOM      5  O   UNL     1       2.416  -1.022   0.338  1.00  0.00    -0.460 OA
BRANCH   5   6
ATOM      6  C   UNL     1       1.931  -0.044   1.138  1.00  0.00     0.338 C 
ATOM      7  O   UNL     1       0.712   0.047   1.275  1.00  0.00    -0.246 OA
BRANCH   6   8
ATOM      8  C   UNL     1       2.786   0.926   1.892  1.00  0.00     0.060 A 
ATOM      9  C   UNL     1       4.067   1.333   1.517  1.00  0.00     0.016 A 
ATOM     10  C   UNL     1       2.217   1.528   3.029  1.00  0.00     0.016 A 
ATOM     11  C   UNL     1       4.787   2.254   2.258  1.00  0.00     0.010 A 
ATOM     12  C   UNL     1       2.924   2.481   3.771  1.00  0.00     0.010 A 
ATOM     13  C   UNL     1       4.223   2.828   3.391  1.00  0.00    -0.014 A 
BRANCH  13  14
ATOM     14  C   UNL     1       5.106   3.666   4.217  1.00  0.00     0.031 A 
ATOM     15  C   UNL     1       5.732   3.045   5.426  1.00  0.00     0.074 A 
ATOM     16  C   UNL     1       5.480   4.875   3.764  1.00  0.00     0.049 A 
ATOM     17  N   UNL     1       6.578   3.558   6.277  1.00  0.00    -0.248 NA
ATOM     18  C   UNL     1       5.372   1.642   5.702  1.00  0.00     0.031 C 
ATOM     19  C   UNL     1       5.021   5.483   2.512  1.00  0.00     0.029 A 
ATOM     20  N   UNL     1       6.369   5.782   4.271  1.00  0.00    -0.354 N 
ATOM     21  C   UNL     1       6.829   2.554   7.202  1.00  0.00     0.074 A 
ATOM     22  C   UNL     1       6.050   1.401   6.812  1.00  0.00     0.031 C 
ATOM     23  C   UNL     1       5.663   6.648   2.331  1.00  0.00     0.029 A 
ATOM     24  C   UNL     1       6.527   6.894   3.480  1.00  0.00     0.049 A 
ATOM     25  H   UNL     1       6.849   5.651   5.120  1.00  0.00     0.167 HD
ATOM     26  C   UNL     1       7.635   2.603   8.287  1.00  0.00     0.037 A 
ATOM     27  C   UNL     1       7.277   7.993   3.685  1.00  0.00     0.037 A 
ATOM     28  C   UNL     1       8.400   3.765   8.643  1.00  0.00     0.049 A 
ATOM     29  C   UNL     1       8.098   8.055   4.944  1.00  0.00     0.074 A 
ATOM     30  C   UNL     1       9.190   3.978   9.756  1.00  0.00     0.029 A 
ATOM     31  N   UNL     1       8.471   4.918   7.869  1.00  0.00    -0.354 N 
ATOM     32  N   UNL     1       8.264   7.138   5.869  1.00  0.00    -0.248 NA
ATOM     33  C   UNL     1       8.822   9.306   5.200  1.00  0.00     0.031 C 
ATOM     34  C   UNL     1       9.708   5.277   9.675  1.00  0.00     0.029 A 
ATOM     35  C   UNL     1       9.280   5.853   8.487  1.00  0.00     0.049 A 
ATOM     36  H   UNL     1       8.012   5.049   7.008  1.00  0.00     0.167 HD
ATOM     37  C   UNL     1       9.126   7.690   6.805  1.00  0.00     0.074 A 
ATOM     38  C   UNL     1       9.461   9.017   6.325  1.00  0.00     0.031 C 
ATOM     39  C   UNL     1       9.596   7.158   7.961  1.00  0.00     0.037 A 
BRANCH  26  40
ATOM     40  C   UNL     1       7.636   1.401   9.182  1.00  0.00     0.057 A 
ATOM     41  C   UNL     1       8.248   0.194   8.820  1.00  0.00     0.134 A 
ATOM     42  C   UNL     1       6.955   1.437  10.406  1.00  0.00     0.134 A 
ATOM     43  F   UNL     1       8.888   0.082   7.646  1.00  0.00    -0.206 F 
ATOM     44  C   UNL     1       8.155  -0.942   9.627  1.00  0.00     0.040 A 
ATOM     45  C   UNL     1       6.875   0.315  11.232  1.00  0.00     0.040 A 
ATOM     46  F   UNL     1       6.338   2.558  10.809  1.00  0.00    -0.206 F 
ATOM     47  C   UNL     1       7.468  -0.882  10.838  1.00  0.00     0.006 A 
ENDBRANCH  26  40
BRANCH  27  48
ATOM     48  C   UNL     1       7.255   9.117   2.713  1.00  0.00     0.057 A 
ATOM     49  C   UNL     1       8.397   9.485   1.992  1.00  0.00     0.134 A 
ATOM     50  C   UNL     1       6.091   9.866   2.494  1.00  0.00     0.134 A 
ATOM     51  F   UNL     1       9.550   8.823   2.169  1.00  0.00    -0.206 F 
ATOM     52  C   UNL     1       8.387  10.563   1.104  1.00  0.00     0.040 A 
ATOM     53  C   UNL     1       6.059  10.928   1.588  1.00  0.00     0.040 A 
ATOM     54  F   UNL     1       4.960   9.570   3.151  1.00  0.00    -0.206 F 
ATOM     55  C   UNL     1       7.213  11.285   0.896  1.00  0.00     0.006 A 
ENDBRANCH  27  48
BRANCH  39  56
ATOM     56  C   UNL     1      10.552   8.001   8.748  1.00  0.00     0.057 A 
ATOM     57  C   UNL     1      10.123   9.113   9.482  1.00  0.00     0.134 A 
ATOM     58  C   UNL     1      11.910   7.667   8.799  1.00  0.00     0.134 A 
ATOM     59  F   UNL     1       8.836   9.488   9.460  1.00  0.00    -0.206 F 
ATOM     60  C   UNL     1      11.021   9.880  10.223  1.00  0.00     0.040 A 
ATOM     61  C   UNL     1      12.812   8.411   9.558  1.00  0.00     0.040 A 
ATOM     62  F   UNL     1      12.378   6.606   8.123  1.00  0.00    -0.206 F 
ATOM     63  C   UNL     1      12.369   9.525  10.268  1.00  0.00     0.006 A 
ENDBRANCH  39  56
ENDBRANCH  13  14
ENDBRANCH   6   8
ENDBRANCH   5   6
ENDBRANCH   4   5
ENDBRANCH   3   4
ENDBRANCH   2   3
ENDBRANCH   1   2
BRANCH   1  64
ATOM     64  C   UNL     1       3.003   1.943  -3.202  1.00  0.00     0.261 C 
BRANCH  64  65
ATOM     65  O   UNL     1       3.552   1.084  -4.216  1.00  0.00    -0.460 OA
BRANCH  65  66
ATOM     66  C   UNL     1       4.896   0.895  -4.214  1.00  0.00     0.340 C 
ATOM     67  O   UNL     1       5.753   1.533  -3.628  1.00  0.00    -0.246 OA
BRANCH  66  68
ATOM     68  C   UNL     1       5.132  -0.401  -4.887  1.00  0.00     0.087 A 
ATOM     69  C   UNL     1       4.363  -0.705  -6.024  1.00  0.00     0.060 A 
ATOM     70  C   UNL     1       5.993  -1.359  -4.306  1.00  0.00     0.066 A 
ATOM     71  C   UNL     1       4.415  -1.979  -6.561  1.00  0.00     0.159 A 
ATOM     72  C   UNL     1       5.947  -2.656  -4.824  1.00  0.00     0.070 A 
ATOM     73  F   UNL     1       3.696  -2.264  -7.654  1.00  0.00    -0.204 F 
ATOM     74  C   UNL     1       5.181  -2.955  -5.950  1.00  0.00     0.160 A 
ATOM     75  F   UNL     1       5.213  -4.197  -6.449  1.00  0.00    -0.204 F 
BRANCH  70  76
ATOM     76  N   UNL     1       6.973  -0.953  -3.332  1.00  0.00    -0.279 N 
ATOM     77  H   UNL     1       7.183   0.008  -3.292  1.00  0.00     0.180 HD
BRANCH  76  78
ATOM     78  S   UNL     1       7.796  -1.948  -2.253  1.00  0.00     0.261 S 
ATOM     79  O   UNL     1       8.735  -1.116  -1.535  1.00  0.00    -0.201 OA
ATOM     80  O   UNL     1       6.800  -2.737  -1.557  1.00  0.00    -0.201 OA
BRANCH  78  81
ATOM     81  C   UNL     1       8.742  -3.047  -3.288  1.00  0.00     0.088 A 
ATOM     82  C   UNL     1       8.659  -4.430  -3.019  1.00  0.00     0.022 A 
ATOM     83  C   UNL     1       9.216  -2.563  -4.512  1.00  0.00     0.026 A 
ATOM     84  C   UNL     1       8.928  -5.353  -4.029  1.00  0.00     0.005 A 
ATOM     85  C   UNL     1       9.418  -3.490  -5.516  1.00  0.00    -0.043 A 
ATOM     86  C   UNL     1       9.244  -4.863  -5.285  1.00  0.00    -0.045 A 
ATOM     87  C   UNL     1       9.713  -3.228  -6.959  1.00  0.00     0.036 C 
ATOM     88  C   UNL     1       9.379  -5.633  -6.563  1.00  0.00     0.036 C 
ATOM     89  C   UNL     1       9.167  -4.514  -7.595  1.00  0.00     0.010 C 
ENDBRANCH  78  81
ENDBRANCH  76  78
ENDBRANCH  70  76
ENDBRANCH  66  68
ENDBRANCH  65  66
ENDBRANCH  64  65
ENDBRANCH   1  64
TORSDOF 17
