REMARK SMILES Nc1nccc(N2CCC[C@@](Cc3ccc(F)cc3F)(C(=O)OCCOCCOC(=O)c3ccc(-c4c5nc(c(-c6c(F)cccc6F)c6ccc([nH]6)c(-c6c(F)cccc6F)c6nc(c(-c7c(F)cccc7F)c7ccc4[nH]7)C=C6)C=C5)cc3)C2)n1
REMARK SMILES IDX 26 1 25 2 24 3 23 4 21 5 22 6 11 7 7 8 8 9 86 10 9 11 10 12
REMARK SMILES IDX 6 13 2 14 3 15 87 16 4 17 5 18 1 19 12 22 13 23 14 24 19 25
REMARK SMILES IDX 15 26 18 27 20 28 16 29 17 30 27 31 28 32 29 33 30 34 31 35
REMARK SMILES IDX 32 36 33 37 85 38 34 39 84 40 35 41 36 42 37 43 78 44 38 45
REMARK SMILES IDX 83 46 77 47 79 48 39 49 82 50 76 51 75 52 40 54 66 55 49 56
REMARK SMILES IDX 65 57 50 58 53 59 64 60 80 61 51 62 52 63 63 65 81 66 54 67
REMARK SMILES IDX 41 68 42 69 47 70 43 71 44 72 46 73 48 74 45 75 67 76 68 77
REMARK SMILES IDX 73 78 69 79 70 80 72 81 74 82 71 83 55 84 56 85 61 86 57 87
REMARK SMILES IDX 58 88 60 89 62 90 59 91
REMARK H PARENT 1 20 1 21 79 53 53 64
REMARK Flexibility Score: inf
ROOT
ATOM      1  O   UNL     1       0.577  -7.106  -3.555  1.00  0.00    -0.374 OA
ENDROOT
BRANCH   1   2
ATOM      2  C   UNL     1       1.638  -7.220  -4.495  1.00  0.00     0.202 C 
BRANCH   2   3
ATOM      3  C   UNL     1       2.528  -5.992  -4.716  1.00  0.00     0.261 C 
BRANCH   3   4
ATOM      4  O   UNL     1       2.959  -5.348  -3.505  1.00  0.00    -0.463 OA
BRANCH   4   5
ATOM      5  C   UNL     1       2.454  -4.098  -3.312  1.00  0.00     0.314 C 
ATOM      6  O   UNL     1       1.700  -3.537  -4.100  1.00  0.00    -0.252 OA
BRANCH   5   7
ATOM      7  C   UNL     1       2.979  -3.409  -2.054  1.00  0.00     0.090 C 
ATOM      8  N   UNL     1       2.098  -2.053  -0.215  1.00  0.00    -0.355 N 
ATOM      9  C   UNL     1       2.577  -2.894   0.872  1.00  0.00     0.118 C 
ATOM     10  C   UNL     1       1.722  -2.741  -1.446  1.00  0.00     0.137 C 
ATOM     11  C   UNL     1       3.804  -3.667   0.380  1.00  0.00     0.023 C 
ATOM     12  C   UNL     1       3.571  -4.356  -0.976  1.00  0.00     0.023 C 
BRANCH   8  13
ATOM     13  C   UNL     1       1.274  -0.983   0.121  1.00  0.00     0.134 A 
ATOM     14  C   UNL     1      -0.798  -0.016   0.213  1.00  0.00     0.221 A 
ATOM     15  N   UNL     1      -0.312   1.198   0.484  1.00  0.00    -0.222 NA
ATOM     16  N   UNL     1      -0.059  -1.112   0.015  1.00  0.00    -0.196 NA
ATOM     17  C   UNL     1       1.024   1.292   0.583  1.00  0.00     0.119 A 
ATOM     18  C   UNL     1       1.868   0.223   0.428  1.00  0.00     0.067 A 
BRANCH  14  19
ATOM     19  N   UNL     1      -2.153  -0.137   0.104  1.00  0.00    -0.368 N 
ATOM     20  H   UNL     1      -2.730   0.649   0.242  1.00  0.00     0.159 HD
ATOM     21  H   UNL     1      -2.553  -1.009  -0.114  1.00  0.00     0.159 HD
ENDBRANCH  14  19
ENDBRANCH   8  13
BRANCH   7  22
ATOM     22  C   UNL     1       3.977  -2.304  -2.513  1.00  0.00     0.059 C 
BRANCH  22  23
ATOM     23  C   UNL     1       5.290  -2.804  -3.075  1.00  0.00    -0.011 A 
ATOM     24  C   UNL     1       5.367  -3.321  -4.377  1.00  0.00     0.010 A 
ATOM     25  C   UNL     1       6.458  -2.771  -2.301  1.00  0.00     0.129 A 
ATOM     26  C   UNL     1       6.570  -3.838  -4.859  1.00  0.00     0.040 A 
ATOM     27  C   UNL     1       7.662  -3.274  -2.778  1.00  0.00     0.078 A 
ATOM     28  F   UNL     1       6.431  -2.247  -1.068  1.00  0.00    -0.207 F 
ATOM     29  C   UNL     1       7.702  -3.815  -4.053  1.00  0.00     0.126 A 
ATOM     30  F   UNL     1       8.852  -4.317  -4.522  1.00  0.00    -0.207 F 
ENDBRANCH  22  23
ENDBRANCH   7  22
ENDBRANCH   5   7
ENDBRANCH   4   5
ENDBRANCH   3   4
ENDBRANCH   2   3
ENDBRANCH   1   2
BRANCH   1  31
ATOM     31  C   UNL     1       0.916  -7.039  -2.170  1.00  0.00     0.202 C 
BRANCH  31  32
ATOM     32  C   UNL     1       1.710  -8.209  -1.574  1.00  0.00     0.261 C 
BRANCH  32  33
ATOM     33  O   UNL     1       3.053  -8.301  -2.098  1.00  0.00    -0.460 OA
BRANCH  33  34
ATOM     34  C   UNL     1       3.394  -9.532  -2.552  1.00  0.00     0.338 C 
ATOM     35  O   UNL     1       2.721 -10.551  -2.507  1.00  0.00    -0.246 OA
BRANCH  34  36
ATOM     36  C   UNL     1       4.674  -9.491  -3.278  1.00  0.00     0.060 A 
ATOM     37  C   UNL     1       4.663  -9.800  -4.644  1.00  0.00     0.016 A 
ATOM     38  C   UNL     1       5.881  -9.325  -2.597  1.00  0.00     0.016 A 
ATOM     39  C   UNL     1       5.864  -9.994  -5.325  1.00  0.00     0.010 A 
ATOM     40  C   UNL     1       7.086  -9.529  -3.281  1.00  0.00     0.010 A 
ATOM     41  C   UNL     1       7.082  -9.902  -4.637  1.00  0.00    -0.014 A 
BRANCH  41  42
ATOM     42  C   UNL     1       8.334 -10.329  -5.308  1.00  0.00     0.031 A 
ATOM     43  C   UNL     1       8.856 -11.722  -5.084  1.00  0.00     0.074 A 
ATOM     44  C   UNL     1       8.982  -9.497  -6.141  1.00  0.00     0.049 A 
ATOM     45  N   UNL     1       9.931 -12.292  -5.566  1.00  0.00    -0.248 NA
ATOM     46  C   UNL     1       8.059 -12.588  -4.201  1.00  0.00     0.031 C 
ATOM     47  C   UNL     1       8.560  -8.138  -6.471  1.00  0.00     0.029 A 
ATOM     48  N   UNL     1      10.136  -9.679  -6.861  1.00  0.00    -0.354 N 
ATOM     49  C   UNL     1       9.941 -13.580  -5.047  1.00  0.00     0.074 A 
ATOM     50  C   UNL     1       8.779 -13.701  -4.192  1.00  0.00     0.031 C 
ATOM     51  C   UNL     1       9.446  -7.605  -7.328  1.00  0.00     0.029 A 
ATOM     52  C   UNL     1      10.509  -8.575  -7.586  1.00  0.00     0.049 A 
ATOM     53  H   UNL     1      10.646 -10.521  -6.858  1.00  0.00     0.167 HD
ATOM     54  C   UNL     1      10.832 -14.575  -5.269  1.00  0.00     0.037 A 
ATOM     55  C   UNL     1      11.594  -8.365  -8.356  1.00  0.00     0.037 A 
ATOM     56  C   UNL     1      11.989 -14.460  -6.118  1.00  0.00     0.049 A 
ATOM     57  C   UNL     1      12.611  -9.459  -8.529  1.00  0.00     0.074 A 
ATOM     58  C   UNL     1      12.934 -15.424  -6.423  1.00  0.00     0.029 A 
ATOM     59  N   UNL     1      12.362 -13.306  -6.790  1.00  0.00    -0.354 N 
ATOM     60  N   UNL     1      12.602 -10.678  -8.047  1.00  0.00    -0.248 NA
ATOM     61  C   UNL     1      13.793  -9.146  -9.347  1.00  0.00     0.031 C 
ATOM     62  C   UNL     1      13.903 -14.841  -7.246  1.00  0.00     0.029 A 
ATOM     63  C   UNL     1      13.540 -13.525  -7.485  1.00  0.00     0.049 A 
ATOM     64  H   UNL     1      11.864 -12.457  -6.774  1.00  0.00     0.167 HD
ATOM     65  C   UNL     1      13.765 -11.280  -8.510  1.00  0.00     0.074 A 
ATOM     66  C   UNL     1      14.452 -10.297  -9.322  1.00  0.00     0.031 C 
ATOM     67  C   UNL     1      14.220 -12.536  -8.281  1.00  0.00     0.037 A 
BRANCH  54  68
ATOM     68  C   UNL     1      10.601 -15.878  -4.565  1.00  0.00     0.057 A 
ATOM     69  C   UNL     1      11.415 -16.265  -3.494  1.00  0.00     0.134 A 
ATOM     70  C   UNL     1       9.597 -16.766  -4.970  1.00  0.00     0.134 A 
ATOM     71  F   UNL     1      12.398 -15.462  -3.060  1.00  0.00    -0.206 F 
ATOM     72  C   UNL     1      11.241 -17.492  -2.852  1.00  0.00     0.040 A 
ATOM     73  C   UNL     1       9.399 -17.987  -4.323  1.00  0.00     0.040 A 
ATOM     74  F   UNL     1       8.776 -16.448  -5.983  1.00  0.00    -0.206 F 
ATOM     75  C   UNL     1      10.227 -18.355  -3.264  1.00  0.00     0.006 A 
ENDBRANCH  54  68
BRANCH  55  76
ATOM     76  C   UNL     1      11.772  -7.051  -9.017  1.00  0.00     0.057 A 
ATOM     77  C   UNL     1      12.111  -5.908  -8.282  1.00  0.00     0.134 A 
ATOM     78  C   UNL     1      11.578  -6.902 -10.394  1.00  0.00     0.134 A 
ATOM     79  F   UNL     1      12.312  -5.990  -6.959  1.00  0.00    -0.206 F 
ATOM     80  C   UNL     1      12.228  -4.658  -8.890  1.00  0.00     0.040 A 
ATOM     81  C   UNL     1      11.711  -5.661 -11.019  1.00  0.00     0.040 A 
ATOM     82  F   UNL     1      11.274  -7.966 -11.152  1.00  0.00    -0.206 F 
ATOM     83  C   UNL     1      12.028  -4.533 -10.264  1.00  0.00     0.006 A 
ENDBRANCH  55  76
BRANCH  67  84
ATOM     84  C   UNL     1      15.521 -12.928  -8.915  1.00  0.00     0.057 A 
ATOM     85  C   UNL     1      15.552 -13.812 -10.001  1.00  0.00     0.134 A 
ATOM     86  C   UNL     1      16.747 -12.486  -8.404  1.00  0.00     0.134 A 
ATOM     87  F   UNL     1      14.412 -14.280 -10.531  1.00  0.00    -0.206 F 
ATOM     88  C   UNL     1      16.758 -14.252 -10.550  1.00  0.00     0.040 A 
ATOM     89  C   UNL     1      17.960 -12.903  -8.957  1.00  0.00     0.040 A 
ATOM     90  F   UNL     1      16.784 -11.630  -7.372  1.00  0.00    -0.206 F 
ATOM     91  C   UNL     1      17.966 -13.795 -10.028  1.00  0.00     0.006 A 
ENDBRANCH  67  84
ENDBRANCH  41  42
ENDBRANCH  34  36
ENDBRANCH  33  34
ENDBRANCH  32  33
ENDBRANCH  31  32
ENDBRANCH   1  31
TORSDOF 18
