REMARK SMILES COC(=O)c1c(NC(=O)[C@@H]2[C@H]3CC[C@H](CC3)[C@H]2C(=O)OCCOCCOC(=O)c2ccc(-c3c4nc(c(-c5c(F)cccc5F)c5ccc([nH]5)c(-c5c(F)cccc5F)c5nc(c(-c6c(F)cccc6F)c6ccc3[nH]6)C=C5)C=C4)cc2)sc(C)c1-c1ccc(C)cc1
REMARK SMILES IDX 22 1 21 2 20 3 18 4 19 5 17 6 10 7 11 8 12 9 16 10 14 11
REMARK SMILES IDX 13 12 15 13 8 14 7 15 9 17 6 18 5 19 86 20 83 21 84 22 85 23
REMARK SMILES IDX 3 24 4 25 2 26 1 27 87 28 88 29 93 30 89 31 92 32 90 33
REMARK SMILES IDX 91 34 23 35 24 36 25 37 26 38 27 39 28 40 29 41 30 42 82 43
REMARK SMILES IDX 31 44 81 45 32 46 33 47 34 48 75 49 35 50 80 51 74 52 76 53
REMARK SMILES IDX 36 54 79 55 73 56 72 57 37 59 63 60 46 61 62 62 47 63 50 64
REMARK SMILES IDX 61 65 77 66 48 67 49 68 60 70 78 71 51 72 38 73 39 74 44 75
REMARK SMILES IDX 40 76 41 77 43 78 45 79 42 80 64 81 65 82 70 83 66 84 67 85
REMARK SMILES IDX 69 86 71 87 68 88 52 89 53 90 58 91 54 92 55 93 57 94 59 95
REMARK SMILES IDX 56 96
REMARK H PARENT 7 16 76 58 50 69
REMARK Flexibility Score: inf
ROOT
ATOM      1  C   UNL     1       0.413  -1.177  -2.517  1.00  0.00     0.202 C 
ENDROOT
BRANCH   1   2
ATOM      2  C   UNL     1       0.348  -2.692  -2.269  1.00  0.00     0.261 C 
BRANCH   2   3
ATOM      3  O   UNL     1       1.075  -3.510  -3.204  1.00  0.00    -0.463 OA
BRANCH   3   4
ATOM      4  C   UNL     1       0.303  -4.116  -4.141  1.00  0.00     0.310 C 
ATOM      5  O   UNL     1      -0.911  -3.959  -4.238  1.00  0.00    -0.252 OA
BRANCH   4   6
ATOM      6  C   UNL     1       1.048  -5.092  -5.038  1.00  0.00     0.115 C 
ATOM      7  C   UNL     1       2.592  -4.907  -5.274  1.00  0.00     0.096 C 
ATOM      8  C   UNL     1       3.282  -6.271  -4.960  1.00  0.00     0.002 C 
ATOM      9  C   UNL     1       3.047  -6.597  -3.473  1.00  0.00     0.005 C 
ATOM     10  C   UNL     1       2.659  -7.429  -5.784  1.00  0.00     0.005 C 
ATOM     11  C   UNL     1       0.735  -6.504  -4.481  1.00  0.00     0.004 C 
ATOM     12  C   UNL     1       1.547  -6.764  -3.198  1.00  0.00     0.005 C 
ATOM     13  C   UNL     1       1.149  -7.526  -5.542  1.00  0.00     0.005 C 
BRANCH   7  14
ATOM     14  C   UNL     1       2.911  -4.505  -6.732  1.00  0.00     0.229 C 
ATOM     15  N   UNL     1       3.949  -3.734  -7.171  1.00  0.00    -0.317 N 
ATOM     16  H   UNL     1       3.957  -3.666  -8.153  1.00  0.00     0.170 HD
ATOM     17  O   UNL     1       2.168  -4.916  -7.637  1.00  0.00    -0.274 OA
BRANCH  15  18
ATOM     18  C   UNL     1       4.996  -3.020  -6.605  1.00  0.00     0.111 A 
ATOM     19  C   UNL     1       5.822  -2.093  -7.247  1.00  0.00     0.102 A 
ATOM     20  C   UNL     1       6.636  -1.359  -6.289  1.00  0.00     0.012 A 
ATOM     21  S   UNL     1       5.482  -3.251  -5.008  1.00  0.00    -0.122 S 
ATOM     22  C   UNL     1       6.466  -1.849  -5.005  1.00  0.00     0.012 A 
ATOM     23  C   UNL     1       7.012  -1.315  -3.716  1.00  0.00     0.057 C 
BRANCH  19  24
ATOM     24  C   UNL     1       5.803  -1.866  -8.689  1.00  0.00     0.341 C 
ATOM     25  O   UNL     1       4.858  -2.201  -9.408  1.00  0.00    -0.246 OA
BRANCH  24  26
ATOM     26  O   UNL     1       6.948  -1.294  -9.142  1.00  0.00    -0.465 OA
ATOM     27  C   UNL     1       7.005  -1.012 -10.537  1.00  0.00     0.282 C 
ENDBRANCH  24  26
ENDBRANCH  19  24
BRANCH  20  28
ATOM     28  C   UNL     1       7.497  -0.191  -6.513  1.00  0.00    -0.016 A 
ATOM     29  C   UNL     1       6.982   1.003  -7.030  1.00  0.00     0.009 A 
ATOM     30  C   UNL     1       8.845  -0.237  -6.129  1.00  0.00     0.009 A 
ATOM     31  C   UNL     1       7.799   2.137  -7.134  1.00  0.00     0.004 A 
ATOM     32  C   UNL     1       9.647   0.903  -6.196  1.00  0.00     0.004 A 
ATOM     33  C   UNL     1       9.128   2.103  -6.690  1.00  0.00    -0.051 A 
ATOM     34  C   UNL     1       9.996   3.323  -6.782  1.00  0.00     0.044 C 
ENDBRANCH  20  28
ENDBRANCH  15  18
ENDBRANCH   7  14
ENDBRANCH   4   6
ENDBRANCH   3   4
ENDBRANCH   2   3
ENDBRANCH   1   2
BRANCH   1  35
ATOM     35  O   UNL     1       0.194  -0.673  -3.825  1.00  0.00    -0.374 OA
BRANCH  35  36
ATOM     36  C   UNL     1       1.056  -1.073  -4.880  1.00  0.00     0.202 C 
BRANCH  36  37
ATOM     37  C   UNL     1       2.572  -0.946  -4.702  1.00  0.00     0.261 C 
BRANCH  37  38
ATOM     38  O   UNL     1       3.107  -1.604  -3.534  1.00  0.00    -0.460 OA
BRANCH  38  39
ATOM     39  C   UNL     1       3.657  -0.757  -2.634  1.00  0.00     0.338 C 
ATOM     40  O   UNL     1       3.718   0.461  -2.741  1.00  0.00    -0.246 OA
BRANCH  39  41
ATOM     41  C   UNL     1       4.161  -1.408  -1.401  1.00  0.00     0.060 A 
ATOM     42  C   UNL     1       3.964  -0.692  -0.217  1.00  0.00     0.016 A 
ATOM     43  C   UNL     1       5.032  -2.501  -1.412  1.00  0.00     0.016 A 
ATOM     44  C   UNL     1       4.731  -0.975   0.907  1.00  0.00     0.010 A 
ATOM     45  C   UNL     1       5.839  -2.758  -0.299  1.00  0.00     0.010 A 
ATOM     46  C   UNL     1       5.719  -1.965   0.850  1.00  0.00    -0.014 A 
BRANCH  46  47
ATOM     47  C   UNL     1       6.561  -2.208   2.038  1.00  0.00     0.031 A 
ATOM     48  C   UNL     1       7.888  -1.531   2.216  1.00  0.00     0.074 A 
ATOM     49  C   UNL     1       6.075  -3.032   2.980  1.00  0.00     0.049 A 
ATOM     50  N   UNL     1       8.696  -1.567   3.245  1.00  0.00    -0.248 NA
ATOM     51  C   UNL     1       8.375  -0.711   1.096  1.00  0.00     0.031 C 
ATOM     52  C   UNL     1       4.797  -3.739   2.888  1.00  0.00     0.029 A 
ATOM     53  N   UNL     1       6.591  -3.414   4.186  1.00  0.00    -0.354 N 
ATOM     54  C   UNL     1       9.780  -0.765   2.909  1.00  0.00     0.074 A 
ATOM     55  C   UNL     1       9.542  -0.282   1.564  1.00  0.00     0.031 C 
ATOM     56  C   UNL     1       4.631  -4.479   3.994  1.00  0.00     0.029 A 
ATOM     57  C   UNL     1       5.795  -4.307   4.856  1.00  0.00     0.049 A 
ATOM     58  H   UNL     1       7.448  -3.081   4.539  1.00  0.00     0.167 HD
ATOM     59  C   UNL     1      10.866  -0.462   3.665  1.00  0.00     0.037 A 
ATOM     60  C   UNL     1       5.989  -4.924   6.034  1.00  0.00     0.037 A 
ATOM     61  C   UNL     1      11.090  -0.972   4.997  1.00  0.00     0.049 A 
ATOM     62  C   UNL     1       7.216  -4.594   6.833  1.00  0.00     0.074 A 
ATOM     63  C   UNL     1      12.127  -0.685   5.869  1.00  0.00     0.029 A 
ATOM     64  N   UNL     1      10.273  -1.891   5.642  1.00  0.00    -0.354 N 
ATOM     65  N   UNL     1       8.191  -3.766   6.545  1.00  0.00    -0.248 NA
ATOM     66  C   UNL     1       7.359  -5.269   8.128  1.00  0.00     0.031 C 
ATOM     67  C   UNL     1      11.973  -1.477   7.012  1.00  0.00     0.029 A 
ATOM     68  C   UNL     1      10.804  -2.210   6.883  1.00  0.00     0.049 A 
ATOM     69  H   UNL     1       9.439  -2.262   5.273  1.00  0.00     0.167 HD
ATOM     70  C   UNL     1       9.052  -3.801   7.634  1.00  0.00     0.074 A 
ATOM     71  C   UNL     1       8.470  -4.717   8.594  1.00  0.00     0.031 C 
ATOM     72  C   UNL     1      10.216  -3.133   7.823  1.00  0.00     0.037 A 
BRANCH  59  73
ATOM     73  C   UNL     1      11.908   0.449   3.077  1.00  0.00     0.057 A 
ATOM     74  C   UNL     1      11.675   1.817   2.886  1.00  0.00     0.134 A 
ATOM     75  C   UNL     1      13.191  -0.030   2.778  1.00  0.00     0.134 A 
ATOM     76  F   UNL     1      10.470   2.345   3.150  1.00  0.00    -0.206 F 
ATOM     77  C   UNL     1      12.672   2.670   2.405  1.00  0.00     0.040 A 
ATOM     78  C   UNL     1      14.203   0.817   2.321  1.00  0.00     0.040 A 
ATOM     79  F   UNL     1      13.491  -1.327   2.949  1.00  0.00    -0.206 F 
ATOM     80  C   UNL     1      13.944   2.172   2.129  1.00  0.00     0.006 A 
ENDBRANCH  59  73
BRANCH  60  81
ATOM     81  C   UNL     1       4.987  -5.901   6.518  1.00  0.00     0.057 A 
ATOM     82  C   UNL     1       4.173  -5.625   7.620  1.00  0.00     0.134 A 
ATOM     83  C   UNL     1       4.804  -7.129   5.868  1.00  0.00     0.134 A 
ATOM     84  F   UNL     1       4.308  -4.468   8.286  1.00  0.00    -0.206 F 
ATOM     85  C   UNL     1       3.227  -6.543   8.076  1.00  0.00     0.040 A 
ATOM     86  C   UNL     1       3.843  -8.044   6.295  1.00  0.00     0.040 A 
ATOM     87  F   UNL     1       5.542  -7.443   4.793  1.00  0.00    -0.206 F 
ATOM     88  C   UNL     1       3.057  -7.755   7.408  1.00  0.00     0.006 A 
ENDBRANCH  60  81
BRANCH  72  89
ATOM     89  C   UNL     1      10.921  -3.355   9.131  1.00  0.00     0.057 A 
ATOM     90  C   UNL     1      11.545  -4.571   9.439  1.00  0.00     0.134 A 
ATOM     91  C   UNL     1      10.986  -2.335  10.089  1.00  0.00     0.134 A 
ATOM     92  F   UNL     1      11.507  -5.594   8.572  1.00  0.00    -0.206 F 
ATOM     93  C   UNL     1      12.181  -4.774  10.666  1.00  0.00     0.040 A 
ATOM     94  C   UNL     1      11.645  -2.515  11.305  1.00  0.00     0.040 A 
ATOM     95  F   UNL     1      10.416  -1.143   9.855  1.00  0.00    -0.206 F 
ATOM     96  C   UNL     1      12.236  -3.742  11.600  1.00  0.00     0.006 A 
ENDBRANCH  72  89
ENDBRANCH  46  47
ENDBRANCH  39  41
ENDBRANCH  38  39
ENDBRANCH  37  38
ENDBRANCH  36  37
ENDBRANCH  35  36
ENDBRANCH   1  35
TORSDOF 19
