REMARK SMILES Cc1ccc(-c2ccc(C(=O)Nc3ccc(C(=O)OCCOCCOC(=O)c4ccc(-c5c6nc(c(-c7c(F)cccc7F)c7ccc([nH]7)c(-c7c(F)cccc7F)c7nc(c(-c8c(F)cccc8F)c8ccc5[nH]8)C=C7)C=C6)cc4)c(O)c3)o2)c([N+](=O)[O-])c1
REMARK SMILES IDX 21 1 20 2 19 3 17 4 18 5 16 6 13 7 14 8 84 9 15 10 82 11
REMARK SMILES IDX 12 12 10 13 11 14 9 16 6 17 7 18 85 19 8 20 5 21 1 22 2 23
REMARK SMILES IDX 3 24 90 25 4 26 86 27 87 28 88 29 89 30 83 31 22 33 23 34
REMARK SMILES IDX 24 35 25 36 26 37 27 38 28 39 29 40 81 41 30 42 80 43 31 44
REMARK SMILES IDX 32 45 33 46 74 47 34 48 79 49 73 50 75 51 35 52 78 53 72 54
REMARK SMILES IDX 71 55 36 57 62 58 45 59 61 60 46 61 49 62 60 63 76 64 47 65
REMARK SMILES IDX 48 66 59 68 77 69 50 70 37 71 38 72 43 73 39 74 40 75 42 76
REMARK SMILES IDX 44 77 41 78 63 79 64 80 69 81 65 82 66 83 68 84 70 85 67 86
REMARK SMILES IDX 51 87 52 88 57 89 53 90 54 91 56 92 58 93 55 94
REMARK H PARENT 12 15 83 32 75 56 49 67
REMARK Flexibility Score: inf
ROOT
ATOM      1  C   UNL     1      -9.244   0.724  -5.789  1.00  0.00     0.202 C 
ENDROOT
BRANCH   1   2
ATOM      2  C   UNL     1      -7.817   1.179  -5.618  1.00  0.00     0.261 C 
BRANCH   2   3
ATOM      3  O   UNL     1      -7.449   1.374  -4.237  1.00  0.00    -0.460 OA
BRANCH   3   4
ATOM      4  C   UNL     1      -8.277   2.033  -3.387  1.00  0.00     0.341 C 
ATOM      5  O   UNL     1      -8.722   3.162  -3.493  1.00  0.00    -0.246 OA
BRANCH   4   6
ATOM      6  C   UNL     1      -8.467   1.190  -2.190  1.00  0.00     0.101 A 
ATOM      7  C   UNL     1      -8.279  -0.197   0.190  1.00  0.00     0.045 A 
ATOM      8  C   UNL     1      -7.836  -0.800  -0.987  1.00  0.00     0.027 A 
ATOM      9  C   UNL     1      -9.030   0.981   0.155  1.00  0.00     0.073 A 
ATOM     10  C   UNL     1      -7.935  -0.108  -2.179  1.00  0.00     0.022 A 
ATOM     11  C   UNL     1      -9.081   1.701  -1.040  1.00  0.00     0.132 A 
BRANCH   7  12
ATOM     12  N   UNL     1      -7.777  -0.653   1.413  1.00  0.00    -0.319 N 
ATOM     13  C   UNL     1      -6.431  -0.908   1.700  1.00  0.00     0.291 C 
ATOM     14  O   UNL     1      -6.187  -1.585   2.701  1.00  0.00    -0.265 OA
ATOM     15  H   UNL     1      -8.427  -0.808   2.136  1.00  0.00     0.170 HD
BRANCH  13  16
ATOM     16  C   UNL     1      -5.383  -0.284   0.879  1.00  0.00     0.192 A 
ATOM     17  C   UNL     1      -3.303   0.091   0.210  1.00  0.00     0.142 A 
ATOM     18  C   UNL     1      -4.103   0.911  -0.549  1.00  0.00     0.052 A 
ATOM     19  O   UNL     1      -4.069  -0.697   1.025  1.00  0.00    -0.451 OA
ATOM     20  C   UNL     1      -5.394   0.775  -0.017  1.00  0.00     0.057 A 
BRANCH  17  21
ATOM     21  C   UNL     1      -1.854   0.009   0.322  1.00  0.00     0.095 A 
ATOM     22  C   UNL     1       2.471  -0.211   0.047  1.00  0.00     0.044 C 
ATOM     23  C   UNL     1       0.980  -0.132   0.187  1.00  0.00    -0.044 A 
ATOM     24  C   UNL     1       0.198  -1.296   0.198  1.00  0.00     0.004 A 
ATOM     25  C   UNL     1       0.348   1.107   0.297  1.00  0.00     0.089 A 
ATOM     26  C   UNL     1      -1.203  -1.228   0.267  1.00  0.00     0.019 A 
ATOM     27  C   UNL     1      -1.050   1.164   0.372  1.00  0.00     0.280 A 
BRANCH  27  28
ATOM     28  N   UNL     1      -1.639   2.489   0.503  1.00  0.00     0.063 N 
ATOM     29  O   UNL     1      -2.404   2.691   1.454  1.00  0.00    -0.258 OA
ATOM     30  O   UNL     1      -1.305   3.333  -0.342  1.00  0.00    -0.258 OA
ENDBRANCH  27  28
ENDBRANCH  17  21
ENDBRANCH  13  16
ENDBRANCH   7  12
BRANCH  11  31
ATOM     31  O   UNL     1      -9.654   2.944  -0.981  1.00  0.00    -0.507 OA
ATOM     32  H   UNL     1      -9.714   3.469  -1.755  1.00  0.00     0.293 HD
ENDBRANCH  11  31
ENDBRANCH   4   6
ENDBRANCH   3   4
ENDBRANCH   2   3
ENDBRANCH   1   2
BRANCH   1  33
ATOM     33  O   UNL     1     -10.067   1.818  -5.429  1.00  0.00    -0.374 OA
BRANCH  33  34
ATOM     34  C   UNL     1     -11.458   1.561  -5.388  1.00  0.00     0.202 C 
BRANCH  34  35
ATOM     35  C   UNL     1     -12.023   1.246  -6.778  1.00  0.00     0.261 C 
BRANCH  35  36
ATOM     36  O   UNL     1     -11.847   2.385  -7.649  1.00  0.00    -0.460 OA
BRANCH  36  37
ATOM     37  C   UNL     1     -10.738   2.362  -8.439  1.00  0.00     0.338 C 
ATOM     38  O   UNL     1     -10.406   1.434  -9.165  1.00  0.00    -0.246 OA
BRANCH  37  39
ATOM     39  C   UNL     1      -9.833   3.493  -8.080  1.00  0.00     0.060 A 
ATOM     40  C   UNL     1      -8.509   3.516  -8.562  1.00  0.00     0.016 A 
ATOM     41  C   UNL     1     -10.196   4.305  -7.010  1.00  0.00     0.016 A 
ATOM     42  C   UNL     1      -7.517   4.220  -7.862  1.00  0.00     0.010 A 
ATOM     43  C   UNL     1      -9.199   4.887  -6.260  1.00  0.00     0.010 A 
ATOM     44  C   UNL     1      -7.853   4.831  -6.658  1.00  0.00    -0.014 A 
BRANCH  44  45
ATOM     45  C   UNL     1      -6.929   5.390  -5.666  1.00  0.00     0.031 A 
ATOM     46  C   UNL     1      -7.095   6.812  -5.280  1.00  0.00     0.074 A 
ATOM     47  C   UNL     1      -6.197   4.572  -4.872  1.00  0.00     0.049 A 
ATOM     48  N   UNL     1      -6.359   7.412  -4.414  1.00  0.00    -0.248 NA
ATOM     49  C   UNL     1      -8.098   7.700  -5.861  1.00  0.00     0.031 C 
ATOM     50  C   UNL     1      -5.728   4.828  -3.510  1.00  0.00     0.029 A 
ATOM     51  N   UNL     1      -5.677   3.303  -5.146  1.00  0.00    -0.354 N 
ATOM     52  C   UNL     1      -6.975   8.589  -4.064  1.00  0.00     0.074 A 
ATOM     53  C   UNL     1      -7.978   8.778  -5.080  1.00  0.00     0.031 C 
ATOM     54  C   UNL     1      -4.778   3.938  -3.183  1.00  0.00     0.029 A 
ATOM     55  C   UNL     1      -4.515   3.147  -4.369  1.00  0.00     0.049 A 
ATOM     56  H   UNL     1      -6.055   2.640  -5.768  1.00  0.00     0.167 HD
ATOM     57  C   UNL     1      -6.610   9.165  -2.882  1.00  0.00     0.037 A 
ATOM     58  C   UNL     1      -3.304   2.922  -4.943  1.00  0.00     0.037 A 
ATOM     59  C   UNL     1      -5.422   8.480  -2.334  1.00  0.00     0.049 A 
ATOM     60  C   UNL     1      -2.401   4.069  -4.606  1.00  0.00     0.074 A 
ATOM     61  C   UNL     1      -5.207   7.630  -1.261  1.00  0.00     0.029 A 
ATOM     62  N   UNL     1      -4.269   8.401  -3.123  1.00  0.00    -0.354 N 
ATOM     63  N   UNL     1      -2.859   5.271  -4.376  1.00  0.00    -0.248 NA
ATOM     64  C   UNL     1      -0.975   3.937  -4.332  1.00  0.00     0.031 C 
ATOM     65  C   UNL     1      -3.948   6.988  -1.455  1.00  0.00     0.029 A 
ATOM     66  C   UNL     1      -3.383   7.464  -2.630  1.00  0.00     0.049 A 
ATOM     67  H   UNL     1      -4.109   8.945  -3.928  1.00  0.00     0.167 HD
ATOM     68  C   UNL     1      -1.869   6.015  -3.807  1.00  0.00     0.074 A 
ATOM     69  C   UNL     1      -0.692   5.163  -3.856  1.00  0.00     0.031 C 
ATOM     70  C   UNL     1      -2.084   7.244  -3.261  1.00  0.00     0.037 A 
BRANCH  57  71
ATOM     71  C   UNL     1      -7.395  10.223  -2.114  1.00  0.00     0.057 A 
ATOM     72  C   UNL     1      -6.991  10.610  -0.817  1.00  0.00     0.134 A 
ATOM     73  C   UNL     1      -8.580  10.858  -2.538  1.00  0.00     0.134 A 
ATOM     74  F   UNL     1      -5.883  10.115  -0.248  1.00  0.00    -0.206 F 
ATOM     75  C   UNL     1      -7.706  11.522  -0.021  1.00  0.00     0.040 A 
ATOM     76  C   UNL     1      -9.294  11.785  -1.760  1.00  0.00     0.040 A 
ATOM     77  F   UNL     1      -9.146  10.625  -3.721  1.00  0.00    -0.206 F 
ATOM     78  C   UNL     1      -8.863  12.117  -0.491  1.00  0.00     0.006 A 
ENDBRANCH  57  71
BRANCH  58  79
ATOM     79  C   UNL     1      -3.414   2.109  -6.184  1.00  0.00     0.057 A 
ATOM     80  C   UNL     1      -3.725   0.744  -6.014  1.00  0.00     0.134 A 
ATOM     81  C   UNL     1      -3.744   2.677  -7.420  1.00  0.00     0.134 A 
ATOM     82  F   UNL     1      -3.458   0.135  -4.846  1.00  0.00    -0.206 F 
ATOM     83  C   UNL     1      -4.448   0.018  -6.967  1.00  0.00     0.040 A 
ATOM     84  C   UNL     1      -4.477   1.959  -8.380  1.00  0.00     0.040 A 
ATOM     85  F   UNL     1      -3.500   3.972  -7.663  1.00  0.00    -0.206 F 
ATOM     86  C   UNL     1      -4.867   0.641  -8.137  1.00  0.00     0.006 A 
ENDBRANCH  58  79
BRANCH  70  87
ATOM     87  C   UNL     1      -1.031   8.317  -3.216  1.00  0.00     0.057 A 
ATOM     88  C   UNL     1       0.110   8.313  -4.037  1.00  0.00     0.134 A 
ATOM     89  C   UNL     1      -1.242   9.508  -2.490  1.00  0.00     0.134 A 
ATOM     90  F   UNL     1       0.382   7.301  -4.871  1.00  0.00    -0.206 F 
ATOM     91  C   UNL     1       1.001   9.389  -4.091  1.00  0.00     0.040 A 
ATOM     92  C   UNL     1      -0.392  10.611  -2.584  1.00  0.00     0.040 A 
ATOM     93  F   UNL     1      -2.308   9.678  -1.694  1.00  0.00    -0.206 F 
ATOM     94  C   UNL     1       0.744  10.549  -3.375  1.00  0.00     0.006 A 
ENDBRANCH  70  87
ENDBRANCH  44  45
ENDBRANCH  37  39
ENDBRANCH  36  37
ENDBRANCH  35  36
ENDBRANCH  34  35
ENDBRANCH  33  34
ENDBRANCH   1  33
TORSDOF 19
