REMARK SMILES CC(C)[C@H](NC(=O)[C@H](C)NC(=O)C[NH3+])C(=O)OCCOCCOC(=O)c1ccc(-c2c3nc(c(-c4c(F)cccc4F)c4ccc([nH]4)c(-c4c(F)cccc4F)c4nc(c(-c5c(F)cccc5F)c5ccc2[nH]5)C=C4)C=C3)cc1
REMARK SMILES IDX 18 1 17 2 15 3 16 4 4 5 2 6 1 7 3 8 5 9 6 10 7 12 8 13 9 14
REMARK SMILES IDX 10 15 11 16 12 18 13 19 14 20 19 24 20 25 21 26 22 27 23 28
REMARK SMILES IDX 24 29 25 30 26 31 27 32 79 33 28 34 78 35 29 36 30 37 31 38
REMARK SMILES IDX 72 39 32 40 77 41 71 42 73 43 33 44 76 45 70 46 69 47 34 49
REMARK SMILES IDX 60 50 43 51 59 52 44 53 47 54 58 55 74 56 45 57 46 58 57 60
REMARK SMILES IDX 75 61 48 62 35 63 36 64 41 65 37 66 38 67 40 68 42 69 39 70
REMARK SMILES IDX 61 71 62 72 67 73 63 74 64 75 66 76 68 77 65 78 49 79 50 80
REMARK SMILES IDX 55 81 51 82 52 83 54 84 56 85 53 86
REMARK H PARENT 5 11 10 17 14 21 14 22 14 23 73 48 47 59
REMARK Flexibility Score: inf
ROOT
ATOM      1  C   UNL     1       1.550   2.832  -6.847  1.00  0.00     0.261 C 
ENDROOT
BRANCH   1   2
ATOM      2  O   UNL     1       0.653   2.069  -6.019  1.00  0.00    -0.462 OA
BRANCH   2   3
ATOM      3  C   UNL     1      -0.536   2.663  -5.715  1.00  0.00     0.328 C 
ATOM      4  O   UNL     1      -0.812   3.821  -6.004  1.00  0.00    -0.250 OA
BRANCH   3   5
ATOM      5  C   UNL     1      -1.529   1.674  -5.058  1.00  0.00     0.194 C 
BRANCH   5   6
ATOM      6  C   UNL     1      -2.467   2.357  -4.027  1.00  0.00     0.017 C 
ATOM      7  C   UNL     1      -3.637   3.059  -4.739  1.00  0.00     0.010 C 
ATOM      8  C   UNL     1      -3.064   1.409  -2.980  1.00  0.00     0.010 C 
ENDBRANCH   5   6
BRANCH   5   9
ATOM      9  N   UNL     1      -0.960   0.383  -4.648  1.00  0.00    -0.341 N 
ATOM     10  C   UNL     1      -0.010   0.017  -3.746  1.00  0.00     0.243 C 
ATOM     11  H   UNL     1      -1.351  -0.382  -5.130  1.00  0.00     0.164 HD
ATOM     12  O   UNL     1       0.188  -1.201  -3.657  1.00  0.00    -0.273 OA
BRANCH  10  13
ATOM     13  C   UNL     1       0.900   1.043  -3.022  1.00  0.00     0.168 C 
ATOM     14  C   UNL     1       1.701   0.321  -1.936  1.00  0.00     0.041 C 
BRANCH  13  15
ATOM     15  N   UNL     1       0.173   2.129  -2.372  1.00  0.00    -0.340 N 
ATOM     16  C   UNL     1       0.505   3.445  -2.246  1.00  0.00     0.275 C 
ATOM     17  H   UNL     1      -0.686   1.873  -1.963  1.00  0.00     0.164 HD
ATOM     18  O   UNL     1      -0.118   4.120  -1.423  1.00  0.00    -0.268 OA
BRANCH  16  19
ATOM     19  C   UNL     1       1.547   4.085  -3.160  1.00  0.00     0.360 C 
BRANCH  19  20
ATOM     20  N   UNL     1       2.889   3.525  -2.959  1.00  0.00    -0.350 N 
ATOM     21  H   UNL     1       3.191   3.700  -2.001  1.00  0.00     0.344 HD
ATOM     22  H   UNL     1       3.542   3.966  -3.607  1.00  0.00     0.344 HD
ATOM     23  H   UNL     1       2.867   2.520  -3.130  1.00  0.00     0.344 HD
ENDBRANCH  19  20
ENDBRANCH  16  19
ENDBRANCH  13  15
ENDBRANCH  10  13
ENDBRANCH   5   9
ENDBRANCH   3   5
ENDBRANCH   2   3
ENDBRANCH   1   2
BRANCH   1  24
ATOM     24  C   UNL     1       2.345   1.909  -7.771  1.00  0.00     0.202 C 
BRANCH  24  25
ATOM     25  O   UNL     1       1.578   1.269  -8.789  1.00  0.00    -0.374 OA
BRANCH  25  26
ATOM     26  C   UNL     1       0.622   0.291  -8.382  1.00  0.00     0.202 C 
BRANCH  26  27
ATOM     27  C   UNL     1       1.187  -1.046  -7.888  1.00  0.00     0.261 C 
BRANCH  27  28
ATOM     28  O   UNL     1       1.897  -0.948  -6.639  1.00  0.00    -0.460 OA
BRANCH  28  29
ATOM     29  C   UNL     1       3.213  -1.258  -6.706  1.00  0.00     0.338 C 
ATOM     30  O   UNL     1       3.864  -1.526  -7.707  1.00  0.00    -0.246 OA
BRANCH  29  31
ATOM     31  C   UNL     1       3.845  -1.162  -5.381  1.00  0.00     0.060 A 
ATOM     32  C   UNL     1       4.882  -0.240  -5.193  1.00  0.00     0.016 A 
ATOM     33  C   UNL     1       3.541  -2.099  -4.393  1.00  0.00     0.016 A 
ATOM     34  C   UNL     1       5.647  -0.277  -4.024  1.00  0.00     0.010 A 
ATOM     35  C   UNL     1       4.315  -2.141  -3.230  1.00  0.00     0.010 A 
ATOM     36  C   UNL     1       5.391  -1.251  -3.050  1.00  0.00    -0.014 A 
BRANCH  36  37
ATOM     37  C   UNL     1       6.318  -1.462  -1.909  1.00  0.00     0.031 A 
ATOM     38  C   UNL     1       7.267  -2.628  -1.955  1.00  0.00     0.074 A 
ATOM     39  C   UNL     1       6.299  -0.658  -0.832  1.00  0.00     0.049 A 
ATOM     40  N   UNL     1       8.030  -3.118  -1.012  1.00  0.00    -0.248 NA
ATOM     41  C   UNL     1       7.363  -3.340  -3.240  1.00  0.00     0.031 C 
ATOM     42  C   UNL     1       5.478   0.541  -0.682  1.00  0.00     0.029 A 
ATOM     43  N   UNL     1       6.980  -0.751   0.358  1.00  0.00    -0.354 N 
ATOM     44  C   UNL     1       8.679  -4.207  -1.581  1.00  0.00     0.074 A 
ATOM     45  C   UNL     1       8.212  -4.314  -2.947  1.00  0.00     0.031 C 
ATOM     46  C   UNL     1       5.680   1.056   0.544  1.00  0.00     0.029 A 
ATOM     47  C   UNL     1       6.613   0.202   1.276  1.00  0.00     0.049 A 
ATOM     48  H   UNL     1       7.666  -1.435   0.534  1.00  0.00     0.167 HD
ATOM     49  C   UNL     1       9.584  -5.041  -1.018  1.00  0.00     0.037 A 
ATOM     50  C   UNL     1       6.961   0.344   2.570  1.00  0.00     0.037 A 
ATOM     51  C   UNL     1      10.055  -4.934   0.337  1.00  0.00     0.049 A 
ATOM     52  C   UNL     1       7.904  -0.647   3.203  1.00  0.00     0.074 A 
ATOM     53  C   UNL     1      10.968  -5.737   0.999  1.00  0.00     0.029 A 
ATOM     54  N   UNL     1       9.649  -3.961   1.236  1.00  0.00    -0.354 N 
ATOM     55  N   UNL     1       8.502  -1.681   2.663  1.00  0.00    -0.248 NA
ATOM     56  C   UNL     1       8.213  -0.455   4.628  1.00  0.00     0.031 C 
ATOM     57  C   UNL     1      11.089  -5.268   2.311  1.00  0.00     0.029 A 
ATOM     58  C   UNL     1      10.284  -4.150   2.451  1.00  0.00     0.049 A 
ATOM     59  H   UNL     1       9.006  -3.242   1.039  1.00  0.00     0.167 HD
ATOM     60  C   UNL     1       9.284  -2.237   3.668  1.00  0.00     0.074 A 
ATOM     61  C   UNL     1       9.083  -1.431   4.853  1.00  0.00     0.031 C 
ATOM     62  C   UNL     1      10.098  -3.319   3.613  1.00  0.00     0.037 A 
BRANCH  49  63
ATOM     63  C   UNL     1      10.106  -6.164  -1.863  1.00  0.00     0.057 A 
ATOM     64  C   UNL     1      11.027  -5.945  -2.894  1.00  0.00     0.134 A 
ATOM     65  C   UNL     1       9.706  -7.484  -1.620  1.00  0.00     0.134 A 
ATOM     66  F   UNL     1      11.439  -4.701  -3.185  1.00  0.00    -0.206 F 
ATOM     67  C   UNL     1      11.520  -6.998  -3.667  1.00  0.00     0.040 A 
ATOM     68  C   UNL     1      10.208  -8.548  -2.371  1.00  0.00     0.040 A 
ATOM     69  F   UNL     1       8.829  -7.762  -0.643  1.00  0.00    -0.206 F 
ATOM     70  C   UNL     1      11.114  -8.305  -3.401  1.00  0.00     0.006 A 
ENDBRANCH  49  63
BRANCH  50  71
ATOM     71  C   UNL     1       6.397   1.456   3.375  1.00  0.00     0.057 A 
ATOM     72  C   UNL     1       7.201   2.518   3.802  1.00  0.00     0.134 A 
ATOM     73  C   UNL     1       5.051   1.468   3.763  1.00  0.00     0.134 A 
ATOM     74  F   UNL     1       8.503   2.548   3.484  1.00  0.00    -0.206 F 
ATOM     75  C   UNL     1       6.692   3.546   4.597  1.00  0.00     0.040 A 
ATOM     76  C   UNL     1       4.524   2.501   4.539  1.00  0.00     0.040 A 
ATOM     77  F   UNL     1       4.230   0.476   3.389  1.00  0.00    -0.206 F 
ATOM     78  C   UNL     1       5.348   3.541   4.964  1.00  0.00     0.006 A 
ENDBRANCH  50  71
BRANCH  62  79
ATOM     79  C   UNL     1      10.885  -3.663   4.841  1.00  0.00     0.057 A 
ATOM     80  C   UNL     1      10.299  -4.292   5.945  1.00  0.00     0.134 A 
ATOM     81  C   UNL     1      12.265  -3.425   4.886  1.00  0.00     0.134 A 
ATOM     82  F   UNL     1       8.980  -4.538   5.967  1.00  0.00    -0.206 F 
ATOM     83  C   UNL     1      11.057  -4.667   7.056  1.00  0.00     0.040 A 
ATOM     84  C   UNL     1      13.037  -3.813   5.982  1.00  0.00     0.040 A 
ATOM     85  F   UNL     1      12.888  -2.832   3.856  1.00  0.00    -0.206 F 
ATOM     86  C   UNL     1      12.432  -4.435   7.072  1.00  0.00     0.006 A 
ENDBRANCH  62  79
ENDBRANCH  36  37
ENDBRANCH  29  31
ENDBRANCH  28  29
ENDBRANCH  27  28
ENDBRANCH  26  27
ENDBRANCH  25  26
ENDBRANCH  24  25
ENDBRANCH   1  24
TORSDOF 20
