REMARK SMILES C[C@]1(C(=O)NCc2ccc(C(=O)OCCOCCOC(=O)c3ccc(-c4c5nc(c(-c6c(F)cccc6F)c6ccc([nH]6)c(-c6c(F)cccc6F)c6nc(c(-c7c(F)cccc7F)c7ccc4[nH]7)C=C6)C=C5)cc3)o2)CCC[NH2+]C1
REMARK SMILES IDX 15 1 14 2 13 3 11 4 12 5 10 6 7 7 8 8 76 9 9 10 6 11 5 12
REMARK SMILES IDX 3 13 4 14 2 16 1 17 77 18 81 19 78 20 80 21 79 22 16 25
REMARK SMILES IDX 17 26 18 27 19 28 20 29 21 30 22 31 23 32 75 33 24 34 74 35
REMARK SMILES IDX 25 36 26 37 27 38 68 39 28 40 73 41 67 42 69 43 29 44 72 45
REMARK SMILES IDX 66 46 65 47 30 49 56 50 39 51 55 52 40 53 43 54 54 55 70 56
REMARK SMILES IDX 41 57 42 58 53 60 71 61 44 62 31 63 32 64 37 65 33 66 34 67
REMARK SMILES IDX 36 68 38 69 35 70 57 71 58 72 63 73 59 74 60 75 62 76 64 77
REMARK SMILES IDX 61 78 45 79 46 80 51 81 47 82 48 83 50 84 52 85 49 86
REMARK H PARENT 5 15 80 23 80 24 69 48 43 59
REMARK Flexibility Score: inf
ROOT
ATOM      1  C   UNL     1       9.692  -3.332   2.621  1.00  0.00     0.202 C 
ENDROOT
BRANCH   1   2
ATOM      2  C   UNL     1       8.491  -3.807   3.445  1.00  0.00     0.261 C 
BRANCH   2   3
ATOM      3  O   UNL     1       7.290  -3.686   2.663  1.00  0.00    -0.457 OA
BRANCH   3   4
ATOM      4  C   UNL     1       6.405  -2.729   3.067  1.00  0.00     0.374 C 
ATOM      5  O   UNL     1       6.437  -2.156   4.149  1.00  0.00    -0.242 OA
BRANCH   4   6
ATOM      6  C   UNL     1       5.523  -2.411   1.968  1.00  0.00     0.211 A 
ATOM      7  C   UNL     1       4.241  -1.049   0.796  1.00  0.00     0.124 A 
ATOM      8  C   UNL     1       4.382  -2.197   0.043  1.00  0.00     0.048 A 
ATOM      9  O   UNL     1       4.911  -1.186   1.974  1.00  0.00    -0.452 OA
ATOM     10  C   UNL     1       5.210  -3.068   0.791  1.00  0.00     0.058 A 
BRANCH   7  11
ATOM     11  C   UNL     1       3.565   0.258   0.579  1.00  0.00     0.191 C 
BRANCH  11  12
ATOM     12  N   UNL     1       2.416   0.055  -0.272  1.00  0.00    -0.348 N 
ATOM     13  C   UNL     1       1.106  -0.169   0.010  1.00  0.00     0.232 C 
ATOM     14  O   UNL     1       0.456  -0.652  -0.922  1.00  0.00    -0.274 OA
ATOM     15  H   UNL     1       2.620   0.085  -1.235  1.00  0.00     0.163 HD
BRANCH  13  16
ATOM     16  C   UNL     1       0.480   0.149   1.390  1.00  0.00     0.095 C 
ATOM     17  C   UNL     1       1.137  -0.731   2.474  1.00  0.00     0.028 C 
ATOM     18  C   UNL     1       0.619   1.646   1.750  1.00  0.00     0.028 C 
ATOM     19  C   UNL     1      -1.037  -0.209   1.365  1.00  0.00     0.277 C 
ATOM     20  C   UNL     1      -0.281   2.533   0.890  1.00  0.00     0.063 C 
ATOM     21  N   UNL     1      -1.871   0.694   0.566  1.00  0.00    -0.345 N 
ATOM     22  C   UNL     1      -1.735   2.085   0.969  1.00  0.00     0.260 C 
ATOM     23  H   UNL     1      -1.599   0.609  -0.413  1.00  0.00     0.346 HD
ATOM     24  H   UNL     1      -2.844   0.424   0.710  1.00  0.00     0.346 HD
ENDBRANCH  13  16
ENDBRANCH  11  12
ENDBRANCH   7  11
ENDBRANCH   4   6
ENDBRANCH   3   4
ENDBRANCH   2   3
ENDBRANCH   1   2
BRANCH   1  25
ATOM     25  O   UNL     1       9.771  -1.911   2.479  1.00  0.00    -0.374 OA
BRANCH  25  26
ATOM     26  C   UNL     1       9.047  -1.342   1.386  1.00  0.00     0.202 C 
BRANCH  26  27
ATOM     27  C   UNL     1       9.823  -1.297   0.067  1.00  0.00     0.261 C 
BRANCH  27  28
ATOM     28  O   UNL     1       9.994  -2.622  -0.468  1.00  0.00    -0.460 OA
BRANCH  28  29
ATOM     29  C   UNL     1      11.255  -3.107  -0.387  1.00  0.00     0.338 C 
ATOM     30  O   UNL     1      12.254  -2.510  -0.024  1.00  0.00    -0.246 OA
BRANCH  29  31
ATOM     31  C   UNL     1      11.259  -4.559  -0.662  1.00  0.00     0.060 A 
ATOM     32  C   UNL     1      12.046  -5.362   0.171  1.00  0.00     0.016 A 
ATOM     33  C   UNL     1      10.576  -5.119  -1.746  1.00  0.00     0.016 A 
ATOM     34  C   UNL     1      12.211  -6.714  -0.115  1.00  0.00     0.010 A 
ATOM     35  C   UNL     1      10.745  -6.479  -2.035  1.00  0.00     0.010 A 
ATOM     36  C   UNL     1      11.600  -7.270  -1.247  1.00  0.00    -0.014 A 
BRANCH  36  37
ATOM     37  C   UNL     1      12.008  -8.625  -1.688  1.00  0.00     0.031 A 
ATOM     38  C   UNL     1      13.055  -8.755  -2.761  1.00  0.00     0.074 A 
ATOM     39  C   UNL     1      11.503  -9.725  -1.103  1.00  0.00     0.049 A 
ATOM     40  N   UNL     1      13.595  -9.833  -3.268  1.00  0.00    -0.248 NA
ATOM     41  C   UNL     1      13.560  -7.499  -3.338  1.00  0.00     0.031 C 
ATOM     42  C   UNL     1      10.505  -9.733  -0.036  1.00  0.00     0.029 A 
ATOM     43  N   UNL     1      11.772 -11.052  -1.326  1.00  0.00    -0.354 N 
ATOM     44  C   UNL     1      14.503  -9.387  -4.221  1.00  0.00     0.074 A 
ATOM     45  C   UNL     1      14.415  -7.943  -4.247  1.00  0.00     0.031 C 
ATOM     46  C   UNL     1      10.242 -11.008   0.303  1.00  0.00     0.029 A 
ATOM     47  C   UNL     1      11.043 -11.901  -0.532  1.00  0.00     0.049 A 
ATOM     48  H   UNL     1      12.426 -11.364  -1.993  1.00  0.00     0.167 HD
ATOM     49  C   UNL     1      15.344 -10.112  -4.996  1.00  0.00     0.037 A 
ATOM     50  C   UNL     1      11.024 -13.247  -0.489  1.00  0.00     0.037 A 
ATOM     51  C   UNL     1      15.437 -11.547  -4.973  1.00  0.00     0.049 A 
ATOM     52  C   UNL     1      11.938 -14.034  -1.389  1.00  0.00     0.074 A 
ATOM     53  C   UNL     1      16.268 -12.371  -5.712  1.00  0.00     0.029 A 
ATOM     54  N   UNL     1      14.667 -12.373  -4.169  1.00  0.00    -0.354 N 
ATOM     55  N   UNL     1      12.814 -13.600  -2.263  1.00  0.00    -0.248 NA
ATOM     56  C   UNL     1      11.869 -15.499  -1.286  1.00  0.00     0.031 C 
ATOM     57  C   UNL     1      15.975 -13.699  -5.380  1.00  0.00     0.029 A 
ATOM     58  C   UNL     1      14.991 -13.698  -4.404  1.00  0.00     0.049 A 
ATOM     59  H   UNL     1      13.989 -12.063  -3.525  1.00  0.00     0.167 HD
ATOM     60  C   UNL     1      13.419 -14.734  -2.792  1.00  0.00     0.074 A 
ATOM     61  C   UNL     1      12.816 -15.874  -2.134  1.00  0.00     0.031 C 
ATOM     62  C   UNL     1      14.388 -14.822  -3.735  1.00  0.00     0.037 A 
BRANCH  49  63
ATOM     63  C   UNL     1      16.218  -9.354  -5.949  1.00  0.00     0.057 A 
ATOM     64  C   UNL     1      17.317  -8.606  -5.507  1.00  0.00     0.134 A 
ATOM     65  C   UNL     1      15.963  -9.380  -7.326  1.00  0.00     0.134 A 
ATOM     66  F   UNL     1      17.604  -8.527  -4.199  1.00  0.00    -0.206 F 
ATOM     67  C   UNL     1      18.119  -7.891  -6.399  1.00  0.00     0.040 A 
ATOM     68  C   UNL     1      16.771  -8.687  -8.229  1.00  0.00     0.040 A 
ATOM     69  F   UNL     1      14.927 -10.078  -7.814  1.00  0.00    -0.206 F 
ATOM     70  C   UNL     1      17.848  -7.935  -7.766  1.00  0.00     0.006 A 
ENDBRANCH  49  63
BRANCH  50  71
ATOM     71  C   UNL     1      10.110 -13.943   0.449  1.00  0.00     0.057 A 
ATOM     72  C   UNL     1      10.599 -14.613   1.576  1.00  0.00     0.134 A 
ATOM     73  C   UNL     1       8.727 -13.968   0.231  1.00  0.00     0.134 A 
ATOM     74  F   UNL     1      11.917 -14.643   1.824  1.00  0.00    -0.206 F 
ATOM     75  C   UNL     1       9.748 -15.297   2.445  1.00  0.00     0.040 A 
ATOM     76  C   UNL     1       7.862 -14.630   1.103  1.00  0.00     0.040 A 
ATOM     77  F   UNL     1       8.199 -13.344  -0.832  1.00  0.00    -0.206 F 
ATOM     78  C   UNL     1       8.374 -15.303   2.212  1.00  0.00     0.006 A 
ENDBRANCH  50  71
BRANCH  62  79
ATOM     79  C   UNL     1      14.883 -16.195  -4.084  1.00  0.00     0.057 A 
ATOM     80  C   UNL     1      14.119 -17.085  -4.849  1.00  0.00     0.134 A 
ATOM     81  C   UNL     1      16.153 -16.619  -3.673  1.00  0.00     0.134 A 
ATOM     82  F   UNL     1      12.890 -16.743  -5.263  1.00  0.00    -0.206 F 
ATOM     83  C   UNL     1      14.592 -18.358  -5.173  1.00  0.00     0.040 A 
ATOM     84  C   UNL     1      16.646 -17.880  -4.010  1.00  0.00     0.040 A 
ATOM     85  F   UNL     1      16.939 -15.811  -2.945  1.00  0.00    -0.206 F 
ATOM     86  C   UNL     1      15.861 -18.756  -4.757  1.00  0.00     0.006 A 
ENDBRANCH  62  79
ENDBRANCH  36  37
ENDBRANCH  29  31
ENDBRANCH  28  29
ENDBRANCH  27  28
ENDBRANCH  26  27
ENDBRANCH  25  26
ENDBRANCH   1  25
TORSDOF 17
