REMARK SMILES Cc1ccccc1CCNS(=O)(=O)c1ccc(C(=O)OCCOCCOC(=O)c2ccc(-c3c4nc(c(-c5c(F)cccc5F)c5ccc([nH]5)c(-c5c(F)cccc5F)c5nc(c(-c6c(F)cccc6F)c6ccc3[nH]6)C=C5)C=C4)cc2)o1
REMARK SMILES IDX 21 1 20 2 18 3 19 4 17 5 14 6 15 7 83 8 16 9 11 10 12 11
REMARK SMILES IDX 13 12 10 13 9 15 8 16 7 17 1 18 2 19 3 20 4 21 6 22 5 23
REMARK SMILES IDX 22 24 23 25 24 26 25 27 26 28 27 29 28 30 29 31 30 32 82 33
REMARK SMILES IDX 31 34 81 35 32 36 33 37 34 38 75 39 35 40 80 41 74 42 76 43
REMARK SMILES IDX 36 44 79 45 73 46 72 47 37 49 63 50 46 51 62 52 47 53 50 54
REMARK SMILES IDX 61 55 77 56 48 57 49 58 60 60 78 61 51 62 38 63 39 64 44 65
REMARK SMILES IDX 40 66 41 67 43 68 45 69 42 70 64 71 65 72 70 73 66 74 67 75
REMARK SMILES IDX 69 76 71 77 68 78 52 79 53 80 58 81 54 82 55 83 57 84 59 85
REMARK SMILES IDX 56 86
REMARK H PARENT 10 14 76 48 50 59
REMARK Flexibility Score: inf
ROOT
ATOM      1  C   UNL     1       2.508   9.601  -1.504  1.00  0.00     0.261 C 
ENDROOT
BRANCH   1   2
ATOM      2  O   UNL     1       1.375   9.002  -2.150  1.00  0.00    -0.457 OA
BRANCH   2   3
ATOM      3  C   UNL     1       1.536   7.742  -2.664  1.00  0.00     0.374 C 
ATOM      4  O   UNL     1       2.595   7.170  -2.819  1.00  0.00    -0.242 OA
BRANCH   3   5
ATOM      5  C   UNL     1       0.223   7.192  -2.890  1.00  0.00     0.213 A 
ATOM      6  C   UNL     1      -1.208   5.502  -3.031  1.00  0.00     0.234 A 
ATOM      7  C   UNL     1      -1.950   6.673  -2.954  1.00  0.00     0.065 A 
ATOM      8  O   UNL     1       0.124   5.845  -3.050  1.00  0.00    -0.436 OA
ATOM      9  C   UNL     1      -1.039   7.749  -2.882  1.00  0.00     0.060 A 
BRANCH   6  10
ATOM     10  S   UNL     1      -1.692   3.789  -3.002  1.00  0.00     0.273 S 
ATOM     11  O   UNL     1      -1.007   3.147  -4.098  1.00  0.00    -0.204 OA
ATOM     12  O   UNL     1      -3.135   3.798  -2.894  1.00  0.00    -0.204 OA
BRANCH  10  13
ATOM     13  N   UNL     1      -1.110   3.127  -1.560  1.00  0.00    -0.208 NA
ATOM     14  H   UNL     1      -1.496   3.680  -0.794  1.00  0.00     0.141 HD
BRANCH  13  15
ATOM     15  C   UNL     1       0.365   3.069  -1.365  1.00  0.00     0.104 C 
BRANCH  15  16
ATOM     16  C   UNL     1       0.698   2.513   0.038  1.00  0.00     0.052 C 
BRANCH  16  17
ATOM     17  C   UNL     1       0.196   1.093   0.228  1.00  0.00    -0.044 A 
ATOM     18  C   UNL     1       2.465  -0.051  -0.208  1.00  0.00     0.044 C 
ATOM     19  C   UNL     1       0.974  -0.057  -0.005  1.00  0.00    -0.048 A 
ATOM     20  C   UNL     1       0.339  -1.314  -0.009  1.00  0.00     0.004 A 
ATOM     21  C   UNL     1      -1.031  -1.438   0.222  1.00  0.00     0.000 A 
ATOM     22  C   UNL     1      -1.169   0.935   0.553  1.00  0.00     0.004 A 
ATOM     23  C   UNL     1      -1.783  -0.313   0.523  1.00  0.00     0.000 A 
ENDBRANCH  16  17
ENDBRANCH  15  16
ENDBRANCH  13  15
ENDBRANCH  10  13
ENDBRANCH   6  10
ENDBRANCH   3   5
ENDBRANCH   2   3
ENDBRANCH   1   2
BRANCH   1  24
ATOM     24  C   UNL     1       2.664   9.106  -0.085  1.00  0.00     0.202 C 
BRANCH  24  25
ATOM     25  O   UNL     1       3.383   7.881  -0.158  1.00  0.00    -0.374 OA
BRANCH  25  26
ATOM     26  C   UNL     1       3.708   7.280   1.086  1.00  0.00     0.202 C 
BRANCH  26  27
ATOM     27  C   UNL     1       4.613   8.143   1.980  1.00  0.00     0.261 C 
BRANCH  27  28
ATOM     28  O   UNL     1       5.855   8.410   1.301  1.00  0.00    -0.460 OA
BRANCH  28  29
ATOM     29  C   UNL     1       5.987   9.655   0.768  1.00  0.00     0.338 C 
ATOM     30  O   UNL     1       5.713  10.703   1.331  1.00  0.00    -0.246 OA
BRANCH  29  31
ATOM     31  C   UNL     1       6.226   9.540  -0.699  1.00  0.00     0.060 A 
ATOM     32  C   UNL     1       6.114  10.679  -1.520  1.00  0.00     0.016 A 
ATOM     33  C   UNL     1       6.239   8.271  -1.273  1.00  0.00     0.016 A 
ATOM     34  C   UNL     1       5.882  10.537  -2.898  1.00  0.00     0.010 A 
ATOM     35  C   UNL     1       5.916   8.137  -2.606  1.00  0.00     0.010 A 
ATOM     36  C   UNL     1       5.719   9.256  -3.430  1.00  0.00    -0.014 A 
BRANCH  36  37
ATOM     37  C   UNL     1       5.210   8.933  -4.767  1.00  0.00     0.031 A 
ATOM     38  C   UNL     1       6.008   8.088  -5.689  1.00  0.00     0.074 A 
ATOM     39  C   UNL     1       3.902   9.121  -5.063  1.00  0.00     0.049 A 
ATOM     40  N   UNL     1       5.717   7.924  -6.935  1.00  0.00    -0.248 NA
ATOM     41  C   UNL     1       7.203   7.352  -5.288  1.00  0.00     0.031 C 
ATOM     42  C   UNL     1       3.096   8.372  -6.027  1.00  0.00     0.029 A 
ATOM     43  N   UNL     1       3.008  10.066  -4.558  1.00  0.00    -0.354 N 
ATOM     44  C   UNL     1       6.444   6.856  -7.400  1.00  0.00     0.074 A 
ATOM     45  C   UNL     1       7.396   6.569  -6.353  1.00  0.00     0.031 C 
ATOM     46  C   UNL     1       1.931   9.006  -6.220  1.00  0.00     0.029 A 
ATOM     47  C   UNL     1       1.989  10.264  -5.507  1.00  0.00     0.049 A 
ATOM     48  H   UNL     1       3.079  10.518  -3.686  1.00  0.00     0.167 HD
ATOM     49  C   UNL     1       6.082   6.259  -8.572  1.00  0.00     0.037 A 
ATOM     50  C   UNL     1       1.749  11.509  -5.998  1.00  0.00     0.037 A 
ATOM     51  C   UNL     1       4.879   6.874  -9.148  1.00  0.00     0.049 A 
ATOM     52  C   UNL     1       2.142  11.605  -7.450  1.00  0.00     0.074 A 
ATOM     53  C   UNL     1       3.540   6.522  -9.219  1.00  0.00     0.029 A 
ATOM     54  N   UNL     1       4.925   8.207  -9.513  1.00  0.00    -0.354 N 
ATOM     55  N   UNL     1       2.423  10.566  -8.188  1.00  0.00    -0.248 NA
ATOM     56  C   UNL     1       2.349  12.862  -8.165  1.00  0.00     0.031 C 
ATOM     57  C   UNL     1       2.796   7.666  -9.642  1.00  0.00     0.029 A 
ATOM     58  C   UNL     1       3.681   8.710  -9.842  1.00  0.00     0.049 A 
ATOM     59  H   UNL     1       5.753   8.740  -9.534  1.00  0.00     0.167 HD
ATOM     60  C   UNL     1       2.989  10.976  -9.356  1.00  0.00     0.074 A 
ATOM     61  C   UNL     1       2.871  12.425  -9.324  1.00  0.00     0.031 C 
ATOM     62  C   UNL     1       3.579  10.111 -10.231  1.00  0.00     0.037 A 
BRANCH  49  63
ATOM     63  C   UNL     1       6.713   4.987  -9.092  1.00  0.00     0.057 A 
ATOM     64  C   UNL     1       6.003   4.110  -9.933  1.00  0.00     0.134 A 
ATOM     65  C   UNL     1       8.029   4.575  -8.810  1.00  0.00     0.134 A 
ATOM     66  F   UNL     1       4.778   4.405 -10.386  1.00  0.00    -0.206 F 
ATOM     67  C   UNL     1       6.520   2.881 -10.366  1.00  0.00     0.040 A 
ATOM     68  C   UNL     1       8.538   3.322  -9.182  1.00  0.00     0.040 A 
ATOM     69  F   UNL     1       8.910   5.393  -8.218  1.00  0.00    -0.206 F 
ATOM     70  C   UNL     1       7.778   2.463  -9.959  1.00  0.00     0.006 A 
ENDBRANCH  49  63
BRANCH  50  71
ATOM     71  C   UNL     1       1.883  12.544  -4.933  1.00  0.00     0.057 A 
ATOM     72  C   UNL     1       0.885  12.579  -3.938  1.00  0.00     0.134 A 
ATOM     73  C   UNL     1       3.116  13.124  -4.612  1.00  0.00     0.134 A 
ATOM     74  F   UNL     1      -0.310  12.008  -4.161  1.00  0.00    -0.206 F 
ATOM     75  C   UNL     1       1.133  13.071  -2.652  1.00  0.00     0.040 A 
ATOM     76  C   UNL     1       3.378  13.608  -3.322  1.00  0.00     0.040 A 
ATOM     77  F   UNL     1       4.127  13.102  -5.491  1.00  0.00    -0.206 F 
ATOM     78  C   UNL     1       2.398  13.554  -2.331  1.00  0.00     0.006 A 
ENDBRANCH  50  71
BRANCH  62  79
ATOM     79  C   UNL     1       4.151  10.578 -11.534  1.00  0.00     0.057 A 
ATOM     80  C   UNL     1       3.439  11.442 -12.377  1.00  0.00     0.134 A 
ATOM     81  C   UNL     1       5.377  10.102 -12.035  1.00  0.00     0.134 A 
ATOM     82  F   UNL     1       2.223  11.893 -12.034  1.00  0.00    -0.206 F 
ATOM     83  C   UNL     1       3.947  11.865 -13.607  1.00  0.00     0.040 A 
ATOM     84  C   UNL     1       5.868  10.472 -13.287  1.00  0.00     0.040 A 
ATOM     85  F   UNL     1       6.164   9.283 -11.325  1.00  0.00    -0.206 F 
ATOM     86  C   UNL     1       5.163  11.374 -14.069  1.00  0.00     0.006 A 
ENDBRANCH  62  79
ENDBRANCH  36  37
ENDBRANCH  29  31
ENDBRANCH  28  29
ENDBRANCH  27  28
ENDBRANCH  26  27
ENDBRANCH  25  26
ENDBRANCH  24  25
ENDBRANCH   1  24
TORSDOF 19
