REMARK SMILES CC(C)CN(C)c1cc2c(cc1Cl)C=C(C(=O)OCCOCCOC(=O)c1ccc(-c3c4nc(c(-c5c(F)cccc5F)c5ccc([nH]5)c(-c5c(F)cccc5F)c5nc(c(-c6c(F)cccc6F)c6ccc3[nH]6)C=C5)C=C4)cc1)[C@@H](C(F)(F)F)O2
REMARK SMILES IDX 20 1 19 2 18 3 16 4 17 5 15 6 7 7 8 8 12 9 9 10 11 11 13 12
REMARK SMILES IDX 10 13 86 14 14 15 81 16 5 17 6 18 4 19 2 20 1 21 3 22 82 23
REMARK SMILES IDX 83 24 84 25 85 26 21 27 22 28 23 29 24 30 25 31 26 32 27 33
REMARK SMILES IDX 28 34 80 35 29 36 79 37 30 38 31 39 32 40 73 41 33 42 78 43
REMARK SMILES IDX 72 44 74 45 34 46 77 47 71 48 70 49 35 51 61 52 44 53 60 54
REMARK SMILES IDX 45 55 48 56 59 57 75 58 46 59 47 60 58 62 76 63 49 64 36 65
REMARK SMILES IDX 37 66 42 67 38 68 39 69 41 70 43 71 40 72 62 73 63 74 68 75
REMARK SMILES IDX 64 76 65 77 67 78 69 79 66 80 50 81 51 82 56 83 52 84 53 85
REMARK SMILES IDX 55 86 57 87 54 88
REMARK H PARENT 74 50 48 61
REMARK Flexibility Score: inf
ROOT
ATOM      1  C   UNL     1      -0.127  -3.793   9.149  1.00  0.00     0.202 C 
ENDROOT
BRANCH   1   2
ATOM      2  C   UNL     1      -0.615  -2.345   9.255  1.00  0.00     0.261 C 
BRANCH   2   3
ATOM      3  O   UNL     1      -1.159  -1.850   8.023  1.00  0.00    -0.460 OA
BRANCH   3   4
ATOM      4  C   UNL     1      -0.377  -0.918   7.430  1.00  0.00     0.338 C 
ATOM      5  O   UNL     1       0.632  -0.414   7.901  1.00  0.00    -0.246 OA
BRANCH   4   6
ATOM      6  C   UNL     1      -0.828  -0.643   6.056  1.00  0.00     0.087 C 
ATOM      7  C   UNL     1      -0.866   1.216   1.391  1.00  0.00     0.059 A 
ATOM      8  C   UNL     1      -1.842   0.585   2.195  1.00  0.00     0.074 A 
ATOM      9  C   UNL     1       0.418   1.397   1.948  1.00  0.00     0.065 A 
ATOM     10  C   UNL     1      -1.525   0.109   3.474  1.00  0.00     0.130 A 
ATOM     11  C   UNL     1       0.763   0.811   3.161  1.00  0.00     0.034 A 
ATOM     12  Cl  UNL     1       1.623   2.399   1.214  1.00  0.00    -0.082 Cl
ATOM     13  C   UNL     1      -0.205   0.159   3.915  1.00  0.00     0.019 A 
ATOM     14  O   UNL     1      -2.532  -0.411   4.249  1.00  0.00    -0.475 OA
ATOM     15  C   UNL     1       0.164  -0.392   5.197  1.00  0.00     0.027 C 
ATOM     16  C   UNL     1      -2.280  -0.517   5.693  1.00  0.00     0.316 C 
BRANCH   7  17
ATOM     17  N   UNL     1      -1.156   1.631   0.087  1.00  0.00    -0.373 N 
ATOM     18  C   UNL     1      -2.204   2.635  -0.051  1.00  0.00     0.143 C 
BRANCH  17  19
ATOM     19  C   UNL     1      -0.970   0.662  -1.015  1.00  0.00     0.119 C 
BRANCH  19  20
ATOM     20  C   UNL     1       0.515   0.433  -1.381  1.00  0.00     0.002 C 
ATOM     21  C   UNL     1       1.131  -0.748  -0.623  1.00  0.00     0.009 C 
ATOM     22  C   UNL     1       0.702   0.190  -2.881  1.00  0.00     0.009 C 
ENDBRANCH  19  20
ENDBRANCH  17  19
ENDBRANCH   7  17
BRANCH  16  23
ATOM     23  C   UNL     1      -2.940   0.646   6.449  1.00  0.00     0.430 C 
ATOM     24  F   UNL     1      -4.238   0.797   6.100  1.00  0.00    -0.167 F 
ATOM     25  F   UNL     1      -2.921   0.430   7.788  1.00  0.00    -0.167 F 
ATOM     26  F   UNL     1      -2.316   1.824   6.224  1.00  0.00    -0.167 F 
ENDBRANCH  16  23
ENDBRANCH   4   6
ENDBRANCH   3   4
ENDBRANCH   2   3
ENDBRANCH   1   2
BRANCH   1  27
ATOM     27  O   UNL     1       0.776  -4.128   8.102  1.00  0.00    -0.374 OA
BRANCH  27  28
ATOM     28  C   UNL     1       0.290  -4.193   6.762  1.00  0.00     0.202 C 
BRANCH  28  29
ATOM     29  C   UNL     1      -0.715  -5.292   6.389  1.00  0.00     0.261 C 
BRANCH  29  30
ATOM     30  O   UNL     1      -1.961  -5.186   7.096  1.00  0.00    -0.460 OA
BRANCH  30  31
ATOM     31  C   UNL     1      -2.190  -6.170   8.001  1.00  0.00     0.338 C 
ATOM     32  O   UNL     1      -1.471  -7.125   8.258  1.00  0.00    -0.246 OA
BRANCH  31  33
ATOM     33  C   UNL     1      -3.371  -5.821   8.808  1.00  0.00     0.060 A 
ATOM     34  C   UNL     1      -4.611  -5.610   8.208  1.00  0.00     0.016 A 
ATOM     35  C   UNL     1      -3.229  -5.752  10.201  1.00  0.00     0.016 A 
ATOM     36  C   UNL     1      -5.722  -5.350   9.013  1.00  0.00     0.010 A 
ATOM     37  C   UNL     1      -4.339  -5.491  11.003  1.00  0.00     0.010 A 
ATOM     38  C   UNL     1      -5.598  -5.308  10.415  1.00  0.00    -0.014 A 
BRANCH  38  39
ATOM     39  C   UNL     1      -6.811  -5.193  11.261  1.00  0.00     0.031 A 
ATOM     40  C   UNL     1      -7.138  -3.929  11.996  1.00  0.00     0.074 A 
ATOM     41  C   UNL     1      -7.617  -6.266  11.370  1.00  0.00     0.049 A 
ATOM     42  N   UNL     1      -8.199  -3.643  12.707  1.00  0.00    -0.248 NA
ATOM     43  C   UNL     1      -6.143  -2.851  11.933  1.00  0.00     0.031 C 
ATOM     44  C   UNL     1      -7.375  -7.566  10.743  1.00  0.00     0.029 A 
ATOM     45  N   UNL     1      -8.802  -6.432  12.038  1.00  0.00    -0.354 N 
ATOM     46  C   UNL     1      -8.014  -2.343  13.159  1.00  0.00     0.074 A 
ATOM     47  C   UNL     1      -6.710  -1.920  12.688  1.00  0.00     0.031 C 
ATOM     48  C   UNL     1      -8.396  -8.388  11.031  1.00  0.00     0.029 A 
ATOM     49  C   UNL     1      -9.346  -7.683  11.886  1.00  0.00     0.049 A 
ATOM     50  H   UNL     1      -9.223  -5.722  12.576  1.00  0.00     0.167 HD
ATOM     51  C   UNL     1      -8.862  -1.570  13.881  1.00  0.00     0.037 A 
ATOM     52  C   UNL     1     -10.484  -8.205  12.380  1.00  0.00     0.037 A 
ATOM     53  C   UNL     1     -10.143  -2.011  14.377  1.00  0.00     0.049 A 
ATOM     54  C   UNL     1     -11.379  -7.343  13.226  1.00  0.00     0.074 A 
ATOM     55  C   UNL     1     -11.089  -1.293  15.089  1.00  0.00     0.029 A 
ATOM     56  N   UNL     1     -10.648  -3.296  14.235  1.00  0.00    -0.354 N 
ATOM     57  N   UNL     1     -11.238  -6.084  13.566  1.00  0.00    -0.248 NA
ATOM     58  C   UNL     1     -12.596  -7.975  13.752  1.00  0.00     0.031 C 
ATOM     59  C   UNL     1     -12.135  -2.158  15.429  1.00  0.00     0.029 A 
ATOM     60  C   UNL     1     -11.874  -3.401  14.875  1.00  0.00     0.049 A 
ATOM     61  H   UNL     1     -10.201  -4.027  13.750  1.00  0.00     0.167 HD
ATOM     62  C   UNL     1     -12.359  -5.768  14.323  1.00  0.00     0.074 A 
ATOM     63  C   UNL     1     -13.180  -6.960  14.370  1.00  0.00     0.031 C 
ATOM     64  C   UNL     1     -12.679  -4.596  14.926  1.00  0.00     0.037 A 
BRANCH  51  65
ATOM     65  C   UNL     1      -8.420  -0.167  14.187  1.00  0.00     0.057 A 
ATOM     66  C   UNL     1      -8.125   0.226  15.499  1.00  0.00     0.134 A 
ATOM     67  C   UNL     1      -8.305   0.806  13.183  1.00  0.00     0.134 A 
ATOM     68  F   UNL     1      -8.225  -0.648  16.511  1.00  0.00    -0.206 F 
ATOM     69  C   UNL     1      -7.726   1.530  15.799  1.00  0.00     0.040 A 
ATOM     70  C   UNL     1      -7.878   2.104  13.467  1.00  0.00     0.040 A 
ATOM     71  F   UNL     1      -8.567   0.497  11.904  1.00  0.00    -0.206 F 
ATOM     72  C   UNL     1      -7.590   2.470  14.780  1.00  0.00     0.006 A 
ENDBRANCH  51  65
BRANCH  52  73
ATOM     73  C   UNL     1     -10.850  -9.612  12.082  1.00  0.00     0.057 A 
ATOM     74  C   UNL     1     -10.116 -10.682  12.610  1.00  0.00     0.134 A 
ATOM     75  C   UNL     1     -11.959  -9.921  11.286  1.00  0.00     0.134 A 
ATOM     76  F   UNL     1      -9.037 -10.453  13.373  1.00  0.00    -0.206 F 
ATOM     77  C   UNL     1     -10.472 -12.007  12.358  1.00  0.00     0.040 A 
ATOM     78  C   UNL     1     -12.344 -11.241  11.051  1.00  0.00     0.040 A 
ATOM     79  F   UNL     1     -12.710  -8.939  10.766  1.00  0.00    -0.206 F 
ATOM     80  C   UNL     1     -11.597 -12.289  11.585  1.00  0.00     0.006 A 
ENDBRANCH  52  73
BRANCH  64  81
ATOM     81  C   UNL     1     -13.987  -4.547  15.666  1.00  0.00     0.057 A 
ATOM     82  C   UNL     1     -15.053  -3.777  15.183  1.00  0.00     0.134 A 
ATOM     83  C   UNL     1     -14.194  -5.257  16.857  1.00  0.00     0.134 A 
ATOM     84  F   UNL     1     -14.923  -3.066  14.053  1.00  0.00    -0.206 F 
ATOM     85  C   UNL     1     -16.276  -3.718  15.853  1.00  0.00     0.040 A 
ATOM     86  C   UNL     1     -15.424  -5.232  17.518  1.00  0.00     0.040 A 
ATOM     87  F   UNL     1     -13.221  -6.027  17.368  1.00  0.00    -0.206 F 
ATOM     88  C   UNL     1     -16.468  -4.456  17.018  1.00  0.00     0.006 A 
ENDBRANCH  64  81
ENDBRANCH  38  39
ENDBRANCH  31  33
ENDBRANCH  30  31
ENDBRANCH  29  30
ENDBRANCH  28  29
ENDBRANCH  27  28
ENDBRANCH   1  27
TORSDOF 18
