REMARK SMILES Cc1cccc(O[C@H](C)C(=O)N2CCC[C@@H](C(=O)OCCOCCOC(=O)c3ccc(-c4c5nc(c(-c6c(F)cccc6F)c6ccc([nH]6)c(-c6c(F)cccc6F)c6nc(c(-c7c(F)cccc7F)c7ccc4[nH]7)C=C6)C=C5)cc3)C2)c1
REMARK SMILES IDX 21 1 20 2 19 3 17 4 18 5 16 6 12 7 13 8 82 9 14 10 15 11
REMARK SMILES IDX 10 12 11 13 8 14 9 15 7 16 6 17 1 18 2 19 3 20 83 21 4 22
REMARK SMILES IDX 5 23 22 24 23 25 24 26 25 27 26 28 27 29 28 30 29 31 81 32
REMARK SMILES IDX 30 33 80 34 31 35 32 36 33 37 74 38 34 39 79 40 73 41 75 42
REMARK SMILES IDX 35 43 78 44 72 45 71 46 36 48 62 49 45 50 61 51 46 52 49 53
REMARK SMILES IDX 60 54 76 55 47 56 48 57 59 59 77 60 50 61 37 62 38 63 43 64
REMARK SMILES IDX 39 65 40 66 42 67 44 68 41 69 63 70 64 71 69 72 65 73 66 74
REMARK SMILES IDX 68 75 70 76 67 77 51 78 52 79 57 80 53 81 54 82 56 83 58 84
REMARK SMILES IDX 55 85
REMARK H PARENT 75 47 49 58
REMARK Flexibility Score: inf
ROOT
ATOM      1  C   UNL     1      -1.594  -0.323  -0.464  1.00  0.00     0.202 C 
ENDROOT
BRANCH   1   2
ATOM      2  C   UNL     1      -0.267  -1.018  -0.399  1.00  0.00     0.261 C 
BRANCH   2   3
ATOM      3  O   UNL     1       0.760  -0.519  -1.281  1.00  0.00    -0.463 OA
BRANCH   3   4
ATOM      4  C   UNL     1       0.463  -0.065  -2.535  1.00  0.00     0.310 C 
ATOM      5  O   UNL     1      -0.055  -0.699  -3.428  1.00  0.00    -0.252 OA
BRANCH   4   6
ATOM      6  C   UNL     1       0.915   1.363  -2.662  1.00  0.00     0.119 C 
ATOM      7  N   UNL     1       1.177   3.414  -1.367  1.00  0.00    -0.339 N 
ATOM      8  C   UNL     1       2.475   3.702  -1.964  1.00  0.00     0.119 C 
ATOM      9  C   UNL     1       0.830   2.029  -1.286  1.00  0.00     0.134 C 
ATOM     10  C   UNL     1       2.701   2.979  -3.296  1.00  0.00     0.022 C 
ATOM     11  C   UNL     1       2.326   1.494  -3.226  1.00  0.00     0.019 C 
BRANCH   7  12
ATOM     12  C   UNL     1       0.255   4.400  -1.086  1.00  0.00     0.263 C 
ATOM     13  O   UNL     1       0.149   5.389  -1.816  1.00  0.00    -0.271 OA
BRANCH  12  14
ATOM     14  C   UNL     1      -0.629   4.260   0.202  1.00  0.00     0.259 C 
ATOM     15  C   UNL     1      -2.048   3.748  -0.040  1.00  0.00     0.064 C 
BRANCH  14  16
ATOM     16  O   UNL     1       0.068   3.958   1.411  1.00  0.00    -0.481 OA
BRANCH  16  17
ATOM     17  C   UNL     1       0.174   2.824   2.141  1.00  0.00     0.120 A 
ATOM     18  C   UNL     1       2.524   1.839   5.006  1.00  0.00     0.044 C 
ATOM     19  C   UNL     1       1.426   1.784   3.986  1.00  0.00    -0.047 A 
ATOM     20  C   UNL     1       0.630   0.644   3.891  1.00  0.00     0.003 A 
ATOM     21  C   UNL     1       1.201   2.852   3.096  1.00  0.00     0.049 A 
ATOM     22  C   UNL     1      -0.396   0.603   2.958  1.00  0.00     0.004 A 
ATOM     23  C   UNL     1      -0.636   1.701   2.120  1.00  0.00     0.046 A 
ENDBRANCH  16  17
ENDBRANCH  14  16
ENDBRANCH  12  14
ENDBRANCH   7  12
ENDBRANCH   4   6
ENDBRANCH   3   4
ENDBRANCH   2   3
ENDBRANCH   1   2
BRANCH   1  24
ATOM     24  O   UNL     1      -2.161  -0.422  -1.748  1.00  0.00    -0.374 OA
BRANCH  24  25
ATOM     25  C   UNL     1      -3.288   0.415  -1.971  1.00  0.00     0.202 C 
BRANCH  25  26
ATOM     26  C   UNL     1      -4.408   0.203  -0.939  1.00  0.00     0.261 C 
BRANCH  26  27
ATOM     27  O   UNL     1      -4.941  -1.140  -1.028  1.00  0.00    -0.460 OA
BRANCH  27  28
ATOM     28  C   UNL     1      -4.404  -2.071  -0.186  1.00  0.00     0.338 C 
ATOM     29  O   UNL     1      -4.346  -1.966   1.030  1.00  0.00    -0.246 OA
BRANCH  28  30
ATOM     30  C   UNL     1      -3.612  -3.071  -0.970  1.00  0.00     0.060 A 
ATOM     31  C   UNL     1      -2.687  -3.916  -0.320  1.00  0.00     0.016 A 
ATOM     32  C   UNL     1      -3.501  -2.855  -2.336  1.00  0.00     0.016 A 
ATOM     33  C   UNL     1      -1.552  -4.385  -1.008  1.00  0.00     0.010 A 
ATOM     34  C   UNL     1      -2.298  -3.150  -2.936  1.00  0.00     0.010 A 
ATOM     35  C   UNL     1      -1.309  -3.914  -2.293  1.00  0.00    -0.014 A 
BRANCH  35  36
ATOM     36  C   UNL     1      -0.091  -4.087  -3.099  1.00  0.00     0.031 A 
ATOM     37  C   UNL     1      -0.263  -4.677  -4.451  1.00  0.00     0.074 A 
ATOM     38  C   UNL     1       1.066  -3.441  -2.801  1.00  0.00     0.049 A 
ATOM     39  N   UNL     1       0.706  -4.905  -5.263  1.00  0.00    -0.248 NA
ATOM     40  C   UNL     1      -1.552  -5.111  -5.003  1.00  0.00     0.031 C 
ATOM     41  C   UNL     1       2.080  -2.928  -3.732  1.00  0.00     0.029 A 
ATOM     42  N   UNL     1       1.573  -3.047  -1.562  1.00  0.00    -0.354 N 
ATOM     43  C   UNL     1       0.162  -5.100  -6.508  1.00  0.00     0.074 A 
ATOM     44  C   UNL     1      -1.225  -5.386  -6.268  1.00  0.00     0.031 C 
ATOM     45  C   UNL     1       3.172  -2.535  -3.051  1.00  0.00     0.029 A 
ATOM     46  C   UNL     1       2.967  -2.911  -1.664  1.00  0.00     0.049 A 
ATOM     47  H   UNL     1       1.041  -2.890  -0.748  1.00  0.00     0.167 HD
ATOM     48  C   UNL     1       0.941  -4.832  -7.590  1.00  0.00     0.037 A 
ATOM     49  C   UNL     1       3.791  -3.635  -0.862  1.00  0.00     0.037 A 
ATOM     50  C   UNL     1       2.342  -4.645  -7.171  1.00  0.00     0.049 A 
ATOM     51  C   UNL     1       4.538  -4.587  -1.737  1.00  0.00     0.074 A 
ATOM     52  C   UNL     1       3.188  -3.551  -7.125  1.00  0.00     0.029 A 
ATOM     53  N   UNL     1       2.956  -5.641  -6.399  1.00  0.00    -0.354 N 
ATOM     54  N   UNL     1       4.086  -4.931  -2.912  1.00  0.00    -0.248 NA
ATOM     55  C   UNL     1       5.863  -5.123  -1.458  1.00  0.00     0.031 C 
ATOM     56  C   UNL     1       4.247  -3.863  -6.217  1.00  0.00     0.029 A 
ATOM     57  C   UNL     1       4.078  -5.160  -5.750  1.00  0.00     0.049 A 
ATOM     58  H   UNL     1       2.629  -6.566  -6.328  1.00  0.00     0.167 HD
ATOM     59  C   UNL     1       5.043  -5.613  -3.579  1.00  0.00     0.074 A 
ATOM     60  C   UNL     1       6.123  -5.759  -2.615  1.00  0.00     0.031 C 
ATOM     61  C   UNL     1       4.869  -6.019  -4.864  1.00  0.00     0.037 A 
BRANCH  48  62
ATOM     62  C   UNL     1       0.421  -4.557  -8.990  1.00  0.00     0.057 A 
ATOM     63  C   UNL     1       1.327  -4.364 -10.050  1.00  0.00     0.134 A 
ATOM     64  C   UNL     1      -0.932  -4.372  -9.358  1.00  0.00     0.134 A 
ATOM     65  F   UNL     1       2.650  -4.472  -9.863  1.00  0.00    -0.206 F 
ATOM     66  C   UNL     1       0.925  -4.032 -11.355  1.00  0.00     0.040 A 
ATOM     67  C   UNL     1      -1.349  -4.092 -10.669  1.00  0.00     0.040 A 
ATOM     68  F   UNL     1      -1.932  -4.388  -8.472  1.00  0.00    -0.206 F 
ATOM     69  C   UNL     1      -0.419  -3.911 -11.675  1.00  0.00     0.006 A 
ENDBRANCH  48  62
BRANCH  49  70
ATOM     70  C   UNL     1       3.190  -3.838   0.488  1.00  0.00     0.057 A 
ATOM     71  C   UNL     1       3.118  -2.692   1.306  1.00  0.00     0.134 A 
ATOM     72  C   UNL     1       2.244  -4.842   0.728  1.00  0.00     0.134 A 
ATOM     73  F   UNL     1       3.987  -1.683   1.129  1.00  0.00    -0.206 F 
ATOM     74  C   UNL     1       2.057  -2.479   2.191  1.00  0.00     0.040 A 
ATOM     75  C   UNL     1       1.173  -4.633   1.614  1.00  0.00     0.040 A 
ATOM     76  F   UNL     1       2.237  -5.962  -0.008  1.00  0.00    -0.206 F 
ATOM     77  C   UNL     1       1.050  -3.430   2.308  1.00  0.00     0.006 A 
ENDBRANCH  49  70
BRANCH  61  78
ATOM     78  C   UNL     1       5.528  -7.264  -5.362  1.00  0.00     0.057 A 
ATOM     79  C   UNL     1       5.918  -8.311  -4.506  1.00  0.00     0.134 A 
ATOM     80  C   UNL     1       5.638  -7.528  -6.737  1.00  0.00     0.134 A 
ATOM     81  F   UNL     1       5.713  -8.259  -3.182  1.00  0.00    -0.206 F 
ATOM     82  C   UNL     1       6.495  -9.487  -4.979  1.00  0.00     0.040 A 
ATOM     83  C   UNL     1       6.148  -8.731  -7.223  1.00  0.00     0.040 A 
ATOM     84  F   UNL     1       5.225  -6.649  -7.661  1.00  0.00    -0.206 F 
ATOM     85  C   UNL     1       6.609  -9.702  -6.344  1.00  0.00     0.006 A 
ENDBRANCH  61  78
ENDBRANCH  35  36
ENDBRANCH  28  30
ENDBRANCH  27  28
ENDBRANCH  26  27
ENDBRANCH  25  26
ENDBRANCH  24  25
ENDBRANCH   1  24
TORSDOF 18
