REMARK SMILES O=C(Cn1nc(-c2ccc(Br)cc2)ccc1=O)N[C@H](C(=O)OCCOCCOC(=O)c1ccc(-c2c3nc(c(-c4c(F)cccc4F)c4ccc([nH]4)c(-c4c(F)cccc4F)c4nc(c(-c5c(F)cccc5F)c5ccc2[nH]5)C=C4)C=C3)cc1)c1ccccc1
REMARK SMILES IDX 24 1 23 2 22 3 20 4 21 5 19 6 18 7 1 8 2 9 3 11 4 12 5 13
REMARK SMILES IDX 16 14 6 15 15 16 17 17 14 18 7 19 8 20 13 21 9 22 12 23
REMARK SMILES IDX 10 24 11 25 85 26 86 27 90 28 87 29 89 30 88 31 25 32 26 33
REMARK SMILES IDX 27 34 28 35 29 36 30 37 31 38 32 39 84 40 33 41 83 42 34 43
REMARK SMILES IDX 35 44 36 45 77 46 37 47 82 48 76 49 78 50 38 51 81 52 75 53
REMARK SMILES IDX 74 54 39 56 65 57 48 58 64 59 49 60 52 61 63 62 79 63 50 64
REMARK SMILES IDX 51 65 62 67 80 68 53 69 40 70 41 71 46 72 42 73 43 74 45 75
REMARK SMILES IDX 47 76 44 77 66 78 67 79 72 80 68 81 69 82 71 83 73 84 70 85
REMARK SMILES IDX 54 86 55 87 60 88 56 89 57 90 59 91 61 92 58 93
REMARK H PARENT 18 10 78 55 52 66
REMARK Flexibility Score: inf
ROOT
ATOM      1  C   UNL     1       5.372   0.441  -0.707  1.00  0.00     0.202 C 
ENDROOT
BRANCH   1   2
ATOM      2  C   UNL     1       5.207  -0.650   0.339  1.00  0.00     0.261 C 
BRANCH   2   3
ATOM      3  O   UNL     1       4.261  -1.629  -0.105  1.00  0.00    -0.461 OA
BRANCH   3   4
ATOM      4  C   UNL     1       2.992  -1.508   0.392  1.00  0.00     0.333 C 
ATOM      5  O   UNL     1       2.620  -0.600   1.129  1.00  0.00    -0.249 OA
BRANCH   4   6
ATOM      6  C   UNL     1       2.177  -2.788   0.119  1.00  0.00     0.223 C 
BRANCH   6   7
ATOM      7  N   UNL     1       2.631  -3.421  -1.129  1.00  0.00    -0.337 N 
ATOM      8  O   UNL     1       1.692  -1.962  -2.567  1.00  0.00    -0.273 OA
ATOM      9  C   UNL     1       2.413  -2.950  -2.391  1.00  0.00     0.242 C 
ATOM     10  H   UNL     1       3.139  -4.260  -1.046  1.00  0.00     0.164 HD
BRANCH   9  11
ATOM     11  C   UNL     1       2.906  -3.795  -3.615  1.00  0.00     0.248 C 
BRANCH  11  12
ATOM     12  N   UNL     1       4.050  -4.738  -3.701  1.00  0.00    -0.220 N 
ATOM     13  N   UNL     1       4.430  -5.088  -5.024  1.00  0.00    -0.169 NA
ATOM     14  C   UNL     1       4.553  -5.408  -2.600  1.00  0.00     0.267 A 
ATOM     15  C   UNL     1       5.290  -6.056  -5.185  1.00  0.00     0.091 A 
ATOM     16  C   UNL     1       5.502  -6.493  -2.838  1.00  0.00     0.075 A 
ATOM     17  O   UNL     1       4.301  -5.174  -1.423  1.00  0.00    -0.268 OA
ATOM     18  C   UNL     1       5.885  -6.814  -4.066  1.00  0.00     0.036 A 
BRANCH  15  19
ATOM     19  C   UNL     1       5.804  -6.463  -6.538  1.00  0.00     0.002 A 
ATOM     20  C   UNL     1       6.041  -5.514  -7.539  1.00  0.00     0.011 A 
ATOM     21  C   UNL     1       6.154  -7.801  -6.784  1.00  0.00     0.011 A 
ATOM     22  C   UNL     1       6.704  -5.876  -8.719  1.00  0.00     0.016 A 
ATOM     23  C   UNL     1       6.792  -8.169  -7.969  1.00  0.00     0.016 A 
ATOM     24  C   UNL     1       7.072  -7.203  -8.927  1.00  0.00     0.018 A 
ATOM     25  Br  UNL     1       7.898  -7.721 -10.540  1.00  0.00    -0.051 Br
ENDBRANCH  15  19
ENDBRANCH  11  12
ENDBRANCH   9  11
ENDBRANCH   6   7
BRANCH   6  26
ATOM     26  C   UNL     1       2.353  -3.772   1.290  1.00  0.00    -0.014 A 
ATOM     27  C   UNL     1       3.022  -3.413   2.480  1.00  0.00     0.006 A 
ATOM     28  C   UNL     1       1.897  -5.096   1.179  1.00  0.00     0.006 A 
ATOM     29  C   UNL     1       3.292  -4.348   3.479  1.00  0.00     0.000 A 
ATOM     30  C   UNL     1       2.166  -6.033   2.182  1.00  0.00     0.000 A 
ATOM     31  C   UNL     1       2.876  -5.662   3.323  1.00  0.00     0.000 A 
ENDBRANCH   6  26
ENDBRANCH   4   6
ENDBRANCH   3   4
ENDBRANCH   2   3
ENDBRANCH   1   2
BRANCH   1  32
ATOM     32  O   UNL     1       4.311   1.387  -0.786  1.00  0.00    -0.374 OA
BRANCH  32  33
ATOM     33  C   UNL     1       3.210   1.047  -1.634  1.00  0.00     0.202 C 
BRANCH  33  34
ATOM     34  C   UNL     1       3.439   1.281  -3.132  1.00  0.00     0.261 C 
BRANCH  34  35
ATOM     35  O   UNL     1       4.298   0.268  -3.695  1.00  0.00    -0.460 OA
BRANCH  35  36
ATOM     36  C   UNL     1       5.587   0.624  -3.918  1.00  0.00     0.338 C 
ATOM     37  O   UNL     1       6.079   1.736  -3.811  1.00  0.00    -0.246 OA
BRANCH  36  38
ATOM     38  C   UNL     1       6.390  -0.608  -4.098  1.00  0.00     0.060 A 
ATOM     39  C   UNL     1       5.936  -1.635  -4.911  1.00  0.00     0.016 A 
ATOM     40  C   UNL     1       7.612  -0.747  -3.419  1.00  0.00     0.016 A 
ATOM     41  C   UNL     1       6.725  -2.775  -5.062  1.00  0.00     0.010 A 
ATOM     42  C   UNL     1       8.397  -1.901  -3.580  1.00  0.00     0.010 A 
ATOM     43  C   UNL     1       7.970  -2.926  -4.429  1.00  0.00    -0.014 A 
BRANCH  43  44
ATOM     44  C   UNL     1       8.834  -4.085  -4.801  1.00  0.00     0.031 A 
ATOM     45  C   UNL     1       9.077  -5.245  -3.877  1.00  0.00     0.074 A 
ATOM     46  C   UNL     1       9.373  -4.116  -6.039  1.00  0.00     0.049 A 
ATOM     47  N   UNL     1       9.661  -6.391  -4.136  1.00  0.00    -0.248 NA
ATOM     48  C   UNL     1       8.583  -5.122  -2.500  1.00  0.00     0.031 C 
ATOM     49  C   UNL     1       9.214  -3.063  -7.042  1.00  0.00     0.029 A 
ATOM     50  N   UNL     1      10.144  -5.062  -6.672  1.00  0.00    -0.354 N 
ATOM     51  C   UNL     1       9.587  -7.136  -2.967  1.00  0.00     0.074 A 
ATOM     52  C   UNL     1       8.921  -6.301  -1.987  1.00  0.00     0.031 C 
ATOM     53  C   UNL     1       9.835  -3.434  -8.171  1.00  0.00     0.029 A 
ATOM     54  C   UNL     1      10.487  -4.724  -7.962  1.00  0.00     0.049 A 
ATOM     55  H   UNL     1      10.425  -5.903  -6.243  1.00  0.00     0.167 HD
ATOM     56  C   UNL     1      10.023  -8.399  -2.735  1.00  0.00     0.037 A 
ATOM     57  C   UNL     1      11.253  -5.364  -8.871  1.00  0.00     0.037 A 
ATOM     58  C   UNL     1      10.776  -9.201  -3.668  1.00  0.00     0.049 A 
ATOM     59  C   UNL     1      11.863  -6.694  -8.509  1.00  0.00     0.074 A 
ATOM     60  C   UNL     1      11.276 -10.483  -3.496  1.00  0.00     0.029 A 
ATOM     61  N   UNL     1      11.194  -8.782  -4.922  1.00  0.00    -0.354 N 
ATOM     62  N   UNL     1      11.661  -7.440  -7.450  1.00  0.00    -0.248 NA
ATOM     63  C   UNL     1      12.821  -7.264  -9.468  1.00  0.00     0.031 C 
ATOM     64  C   UNL     1      12.067 -10.803  -4.606  1.00  0.00     0.029 A 
ATOM     65  C   UNL     1      12.006  -9.748  -5.500  1.00  0.00     0.049 A 
ATOM     66  H   UNL     1      10.951  -7.925  -5.340  1.00  0.00     0.167 HD
ATOM     67  C   UNL     1      12.458  -8.567  -7.623  1.00  0.00     0.074 A 
ATOM     68  C   UNL     1      13.102  -8.432  -8.911  1.00  0.00     0.031 C 
ATOM     69  C   UNL     1      12.658  -9.609  -6.778  1.00  0.00     0.037 A 
BRANCH  56  70
ATOM     70  C   UNL     1       9.731  -8.991  -1.387  1.00  0.00     0.057 A 
ATOM     71  C   UNL     1      10.754  -9.182  -0.450  1.00  0.00     0.134 A 
ATOM     72  C   UNL     1       8.445  -9.428  -1.041  1.00  0.00     0.134 A 
ATOM     73  F   UNL     1      12.009  -8.798  -0.727  1.00  0.00    -0.206 F 
ATOM     74  C   UNL     1      10.511  -9.787   0.783  1.00  0.00     0.040 A 
ATOM     75  C   UNL     1       8.185 -10.018   0.198  1.00  0.00     0.040 A 
ATOM     76  F   UNL     1       7.421  -9.271  -1.895  1.00  0.00    -0.206 F 
ATOM     77  C   UNL     1       9.222 -10.204   1.112  1.00  0.00     0.006 A 
ENDBRANCH  56  70
BRANCH  57  78
ATOM     78  C   UNL     1      11.511  -4.755 -10.210  1.00  0.00     0.057 A 
ATOM     79  C   UNL     1      12.155  -3.518 -10.350  1.00  0.00     0.134 A 
ATOM     80  C   UNL     1      11.153  -5.413 -11.393  1.00  0.00     0.134 A 
ATOM     81  F   UNL     1      12.563  -2.839  -9.268  1.00  0.00    -0.206 F 
ATOM     82  C   UNL     1      12.387  -2.945 -11.602  1.00  0.00     0.040 A 
ATOM     83  C   UNL     1      11.402  -4.867 -12.653  1.00  0.00     0.040 A 
ATOM     84  F   UNL     1      10.618  -6.639 -11.348  1.00  0.00    -0.206 F 
ATOM     85  C   UNL     1      12.011  -3.622 -12.760  1.00  0.00     0.006 A 
ENDBRANCH  57  78
BRANCH  69  86
ATOM     86  C   UNL     1      13.628 -10.673  -7.216  1.00  0.00     0.057 A 
ATOM     87  C   UNL     1      13.196 -11.967  -7.533  1.00  0.00     0.134 A 
ATOM     88  C   UNL     1      15.004 -10.417  -7.309  1.00  0.00     0.134 A 
ATOM     89  F   UNL     1      11.896 -12.290  -7.458  1.00  0.00    -0.206 F 
ATOM     90  C   UNL     1      14.093 -12.963  -7.926  1.00  0.00     0.040 A 
ATOM     91  C   UNL     1      15.907 -11.395  -7.731  1.00  0.00     0.040 A 
ATOM     92  F   UNL     1      15.488  -9.196  -7.033  1.00  0.00    -0.206 F 
ATOM     93  C   UNL     1      15.452 -12.676  -8.035  1.00  0.00     0.006 A 
ENDBRANCH  69  86
ENDBRANCH  43  44
ENDBRANCH  36  38
ENDBRANCH  35  36
ENDBRANCH  34  35
ENDBRANCH  33  34
ENDBRANCH  32  33
ENDBRANCH   1  32
TORSDOF 19
