REMARK SMILES O=C(CCc1c[nH]c2ccccc12)N[C@@H](CO)C(=O)OCCOCCOC(=O)c1ccc(-c2c3nc(c(-c4c(F)cccc4F)c4ccc([nH]4)c(-c4c(F)cccc4F)c4nc(c(-c5c(F)cccc5F)c5ccc2[nH]5)C=C4)C=C3)cc1
REMARK SMILES IDX 22 1 21 2 20 3 18 4 19 5 15 6 14 7 1 8 2 9 3 11 4 12 5 13
REMARK SMILES IDX 6 14 13 15 7 16 8 17 12 18 9 20 11 21 10 22 16 23 17 24
REMARK SMILES IDX 23 26 24 27 25 28 26 29 27 30 28 31 29 32 30 33 82 34 31 35
REMARK SMILES IDX 81 36 32 37 33 38 34 39 75 40 35 41 80 42 74 43 76 44 36 45
REMARK SMILES IDX 79 46 73 47 72 48 37 50 63 51 46 52 62 53 47 54 50 55 61 56
REMARK SMILES IDX 77 57 48 58 49 59 60 61 78 62 51 63 38 64 39 65 44 66 40 67
REMARK SMILES IDX 41 68 43 69 45 70 42 71 64 72 65 73 70 74 66 75 67 76 69 77
REMARK SMILES IDX 71 78 68 79 52 80 53 81 58 82 54 83 55 84 57 85 59 86 56 87
REMARK H PARENT 14 10 7 19 17 25 76 49 50 60
REMARK Flexibility Score: inf
ROOT
ATOM      1  C   UNL     1       3.531  -2.567   4.984  1.00  0.00     0.202 C 
ENDROOT
BRANCH   1   2
ATOM      2  C   UNL     1       3.217  -3.716   4.025  1.00  0.00     0.261 C 
BRANCH   2   3
ATOM      3  O   UNL     1       2.909  -3.180   2.729  1.00  0.00    -0.462 OA
BRANCH   3   4
ATOM      4  C   UNL     1       1.687  -3.508   2.227  1.00  0.00     0.331 C 
ATOM      5  O   UNL     1       0.966  -4.396   2.668  1.00  0.00    -0.250 OA
BRANCH   4   6
ATOM      6  C   UNL     1       1.291  -2.611   1.049  1.00  0.00     0.218 C 
BRANCH   6   7
ATOM      7  N   UNL     1       2.196  -1.482   0.751  1.00  0.00    -0.341 N 
ATOM      8  O   UNL     1       0.595  -0.269  -0.286  1.00  0.00    -0.275 OA
ATOM      9  C   UNL     1       1.786  -0.419  -0.008  1.00  0.00     0.221 C 
ATOM     10  H   UNL     1       3.115  -1.494   1.106  1.00  0.00     0.164 HD
BRANCH   9  11
ATOM     11  C   UNL     1       2.839   0.488  -0.637  1.00  0.00     0.105 C 
BRANCH  11  12
ATOM     12  C   UNL     1       3.887   1.124   0.255  1.00  0.00     0.047 C 
BRANCH  12  13
ATOM     13  C   UNL     1       5.193   0.412   0.476  1.00  0.00    -0.022 A 
ATOM     14  C   UNL     1       6.309   1.045   1.002  1.00  0.00     0.087 A 
ATOM     15  C   UNL     1       5.561  -0.969   0.329  1.00  0.00     0.003 A 
ATOM     16  N   UNL     1       7.251   0.097   1.277  1.00  0.00    -0.361 N 
ATOM     17  C   UNL     1       6.727  -1.152   1.071  1.00  0.00     0.046 A 
ATOM     18  C   UNL     1       4.991  -2.114  -0.256  1.00  0.00     0.010 A 
ATOM     19  H   UNL     1       8.170   0.282   1.579  1.00  0.00     0.166 HD
ATOM     20  C   UNL     1       7.200  -2.409   1.461  1.00  0.00     0.026 A 
ATOM     21  C   UNL     1       5.444  -3.384   0.121  1.00  0.00     0.001 A 
ATOM     22  C   UNL     1       6.497  -3.526   1.014  1.00  0.00     0.002 A 
ENDBRANCH  12  13
ENDBRANCH  11  12
ENDBRANCH   9  11
ENDBRANCH   6   7
BRANCH   6  23
ATOM     23  C   UNL     1       1.117  -3.517  -0.180  1.00  0.00     0.193 C 
BRANCH  23  24
ATOM     24  O   UNL     1       2.367  -4.095  -0.567  1.00  0.00    -0.394 OA
ATOM     25  H   UNL     1       2.992  -3.389  -0.795  1.00  0.00     0.210 HD
ENDBRANCH  23  24
ENDBRANCH   6  23
ENDBRANCH   4   6
ENDBRANCH   3   4
ENDBRANCH   2   3
ENDBRANCH   1   2
BRANCH   1  26
ATOM     26  O   UNL     1       2.441  -1.672   5.225  1.00  0.00    -0.374 OA
BRANCH  26  27
ATOM     27  C   UNL     1       2.238  -0.651   4.247  1.00  0.00     0.202 C 
BRANCH  27  28
ATOM     28  C   UNL     1       3.091   0.611   4.409  1.00  0.00     0.261 C 
BRANCH  28  29
ATOM     29  O   UNL     1       4.499   0.338   4.305  1.00  0.00    -0.460 OA
BRANCH  29  30
ATOM     30  C   UNL     1       5.158   0.291   5.484  1.00  0.00     0.338 C 
ATOM     31  O   UNL     1       4.708   0.529   6.601  1.00  0.00    -0.246 OA
BRANCH  30  32
ATOM     32  C   UNL     1       6.517  -0.234   5.280  1.00  0.00     0.060 A 
ATOM     33  C   UNL     1       6.925  -1.347   6.022  1.00  0.00     0.016 A 
ATOM     34  C   UNL     1       7.412   0.404   4.425  1.00  0.00     0.016 A 
ATOM     35  C   UNL     1       8.242  -1.805   5.934  1.00  0.00     0.010 A 
ATOM     36  C   UNL     1       8.719  -0.082   4.307  1.00  0.00     0.010 A 
ATOM     37  C   UNL     1       9.161  -1.164   5.091  1.00  0.00    -0.014 A 
BRANCH  37  38
ATOM     38  C   UNL     1      10.610  -1.512   5.137  1.00  0.00     0.031 A 
ATOM     39  C   UNL     1      11.600  -0.475   5.612  1.00  0.00     0.074 A 
ATOM     40  C   UNL     1      11.057  -2.727   4.764  1.00  0.00     0.049 A 
ATOM     41  N   UNL     1      12.908  -0.529   5.659  1.00  0.00    -0.248 NA
ATOM     42  C   UNL     1      11.040   0.809   6.061  1.00  0.00     0.031 C 
ATOM     43  C   UNL     1      10.226  -3.825   4.274  1.00  0.00     0.029 A 
ATOM     44  N   UNL     1      12.334  -3.236   4.734  1.00  0.00    -0.354 N 
ATOM     45  C   UNL     1      13.321   0.719   6.111  1.00  0.00     0.074 A 
ATOM     46  C   UNL     1      12.132   1.530   6.255  1.00  0.00     0.031 C 
ATOM     47  C   UNL     1      11.012  -4.881   4.000  1.00  0.00     0.029 A 
ATOM     48  C   UNL     1      12.405  -4.525   4.265  1.00  0.00     0.049 A 
ATOM     49  H   UNL     1      13.124  -2.724   5.023  1.00  0.00     0.167 HD
ATOM     50  C   UNL     1      14.569   1.149   6.414  1.00  0.00     0.037 A 
ATOM     51  C   UNL     1      13.470  -5.327   4.061  1.00  0.00     0.037 A 
ATOM     52  C   UNL     1      15.751   0.335   6.322  1.00  0.00     0.049 A 
ATOM     53  C   UNL     1      14.852  -4.832   4.399  1.00  0.00     0.074 A 
ATOM     54  C   UNL     1      17.052   0.661   6.663  1.00  0.00     0.029 A 
ATOM     55  N   UNL     1      15.774  -0.972   5.859  1.00  0.00    -0.354 N 
ATOM     56  N   UNL     1      15.221  -3.665   4.870  1.00  0.00    -0.248 NA
ATOM     57  C   UNL     1      15.965  -5.769   4.185  1.00  0.00     0.031 C 
ATOM     58  C   UNL     1      17.870  -0.432   6.361  1.00  0.00     0.029 A 
ATOM     59  C   UNL     1      17.070  -1.458   5.884  1.00  0.00     0.049 A 
ATOM     60  H   UNL     1      14.986  -1.479   5.558  1.00  0.00     0.167 HD
ATOM     61  C   UNL     1      16.601  -3.737   5.032  1.00  0.00     0.074 A 
ATOM     62  C   UNL     1      17.001  -5.067   4.624  1.00  0.00     0.031 C 
ATOM     63  C   UNL     1      17.458  -2.787   5.480  1.00  0.00     0.037 A 
BRANCH  50  64
ATOM     64  C   UNL     1      14.711   2.575   6.871  1.00  0.00     0.057 A 
ATOM     65  C   UNL     1      14.196   3.019   8.098  1.00  0.00     0.134 A 
ATOM     66  C   UNL     1      15.367   3.518   6.070  1.00  0.00     0.134 A 
ATOM     67  F   UNL     1      13.544   2.171   8.908  1.00  0.00    -0.206 F 
ATOM     68  C   UNL     1      14.285   4.356   8.487  1.00  0.00     0.040 A 
ATOM     69  C   UNL     1      15.494   4.851   6.465  1.00  0.00     0.040 A 
ATOM     70  F   UNL     1      15.892   3.162   4.888  1.00  0.00    -0.206 F 
ATOM     71  C   UNL     1      14.940   5.276   7.671  1.00  0.00     0.006 A 
ENDBRANCH  50  64
BRANCH  51  72
ATOM     72  C   UNL     1      13.272  -6.693   3.510  1.00  0.00     0.057 A 
ATOM     73  C   UNL     1      13.482  -7.833   4.295  1.00  0.00     0.134 A 
ATOM     74  C   UNL     1      12.876  -6.890   2.181  1.00  0.00     0.134 A 
ATOM     75  F   UNL     1      13.885  -7.711   5.568  1.00  0.00    -0.206 F 
ATOM     76  C   UNL     1      13.320  -9.119   3.775  1.00  0.00     0.040 A 
ATOM     77  C   UNL     1      12.685  -8.169   1.656  1.00  0.00     0.040 A 
ATOM     78  F   UNL     1      12.656  -5.839   1.378  1.00  0.00    -0.206 F 
ATOM     79  C   UNL     1      12.914  -9.289   2.453  1.00  0.00     0.006 A 
ENDBRANCH  51  72
BRANCH  63  80
ATOM     80  C   UNL     1      18.911  -3.154   5.586  1.00  0.00     0.057 A 
ATOM     81  C   UNL     1      19.718  -3.324   4.454  1.00  0.00     0.134 A 
ATOM     82  C   UNL     1      19.522  -3.288   6.840  1.00  0.00     0.134 A 
ATOM     83  F   UNL     1      19.194  -3.220   3.223  1.00  0.00    -0.206 F 
ATOM     84  C   UNL     1      21.075  -3.636   4.565  1.00  0.00     0.040 A 
ATOM     85  C   UNL     1      20.883  -3.571   6.964  1.00  0.00     0.040 A 
ATOM     86  F   UNL     1      18.810  -3.127   7.965  1.00  0.00    -0.206 F 
ATOM     87  C   UNL     1      21.663  -3.752   5.824  1.00  0.00     0.006 A 
ENDBRANCH  63  80
ENDBRANCH  37  38
ENDBRANCH  30  32
ENDBRANCH  29  30
ENDBRANCH  28  29
ENDBRANCH  27  28
ENDBRANCH  26  27
ENDBRANCH   1  26
TORSDOF 20
