REMARK SMILES CC(C)[C@H](C)n1c(SCC(=O)OCCOCCOC(=O)c2ccc(-c3c4nc(c(-c5c(F)cccc5F)c5ccc([nH]5)c(-c5c(F)cccc5F)c5nc(c(-c6c(F)cccc6F)c6ccc3[nH]6)C=C5)C=C4)cc2)nc2cc(Br)cnc21
REMARK SMILES IDX 14 1 13 2 12 3 10 4 11 5 9 6 8 7 7 8 6 9 82 10 75 11 76 12
REMARK SMILES IDX 81 13 77 14 80 15 78 16 79 17 4 18 5 19 2 20 1 21 3 22 15 23
REMARK SMILES IDX 16 24 17 25 18 26 19 27 20 28 21 29 22 30 74 31 23 32 73 33
REMARK SMILES IDX 24 34 25 35 26 36 67 37 27 38 72 39 66 40 68 41 28 42 71 43
REMARK SMILES IDX 65 44 64 45 29 47 55 48 38 49 54 50 39 51 42 52 53 53 69 54
REMARK SMILES IDX 40 55 41 56 52 58 70 59 43 60 30 61 31 62 36 63 32 64 33 65
REMARK SMILES IDX 35 66 37 67 34 68 56 69 57 70 62 71 58 72 59 73 61 74 63 75
REMARK SMILES IDX 60 76 44 77 45 78 50 79 46 80 47 81 49 82 51 83 48 84
REMARK H PARENT 68 46 42 57
REMARK Flexibility Score: inf
ROOT
ATOM      1  C   UNL     1      -4.520  -1.993  -0.801  1.00  0.00     0.202 C 
ENDROOT
BRANCH   1   2
ATOM      2  C   UNL     1      -3.381  -2.940  -1.282  1.00  0.00     0.261 C 
BRANCH   2   3
ATOM      3  O   UNL     1      -2.688  -3.582  -0.136  1.00  0.00    -0.463 OA
BRANCH   3   4
ATOM      4  C   UNL     1      -1.424  -4.015  -0.401  1.00  0.00     0.316 C 
ATOM      5  O   UNL     1      -1.048  -4.180  -1.566  1.00  0.00    -0.251 OA
BRANCH   4   6
ATOM      6  C   UNL     1      -0.428  -4.301   0.732  1.00  0.00     0.200 C 
BRANCH   6   7
ATOM      7  S   UNL     1      -0.459  -3.952   2.481  1.00  0.00    -0.076 SA
BRANCH   7   8
ATOM      8  C   UNL     1      -0.611  -2.405   3.285  1.00  0.00     0.171 A 
ATOM      9  N   UNL     1      -0.266  -1.073   3.023  1.00  0.00    -0.301 N 
ATOM     10  C   UNL     1      -0.909  -0.312   4.009  1.00  0.00     0.161 A 
ATOM     11  N   UNL     1      -1.221  -2.485   4.465  1.00  0.00    -0.221 NA
ATOM     12  C   UNL     1      -1.479  -1.214   4.881  1.00  0.00     0.110 A 
ATOM     13  N   UNL     1      -1.037   1.036   4.038  1.00  0.00    -0.235 NA
ATOM     14  C   UNL     1      -2.245  -0.718   5.944  1.00  0.00     0.049 A 
ATOM     15  C   UNL     1      -1.843   1.472   5.034  1.00  0.00     0.129 A 
ATOM     16  C   UNL     1      -2.446   0.662   5.988  1.00  0.00     0.038 A 
ATOM     17  Br  UNL     1      -3.569   1.423   7.300  1.00  0.00    -0.049 Br
BRANCH   9  18
ATOM     18  C   UNL     1       0.271  -0.327   1.879  1.00  0.00     0.091 C 
ATOM     19  C   UNL     1       1.763  -0.046   1.901  1.00  0.00     0.032 C 
BRANCH  18  20
ATOM     20  C   UNL     1      -0.324  -0.643   0.515  1.00  0.00     0.006 C 
ATOM     21  C   UNL     1       0.575  -1.404  -0.439  1.00  0.00     0.009 C 
ATOM     22  C   UNL     1      -1.691  -1.209   0.736  1.00  0.00     0.009 C 
ENDBRANCH  18  20
ENDBRANCH   9  18
ENDBRANCH   7   8
ENDBRANCH   6   7
ENDBRANCH   4   6
ENDBRANCH   3   4
ENDBRANCH   2   3
ENDBRANCH   1   2
BRANCH   1  23
ATOM     23  O   UNL     1      -4.458  -0.593  -1.127  1.00  0.00    -0.374 OA
BRANCH  23  24
ATOM     24  C   UNL     1      -3.964   0.455  -0.281  1.00  0.00     0.202 C 
BRANCH  24  25
ATOM     25  C   UNL     1      -4.322   0.617   1.209  1.00  0.00     0.261 C 
BRANCH  25  26
ATOM     26  O   UNL     1      -4.696  -0.575   1.864  1.00  0.00    -0.460 OA
BRANCH  26  27
ATOM     27  C   UNL     1      -6.010  -0.848   1.673  1.00  0.00     0.338 C 
ATOM     28  O   UNL     1      -6.771  -0.290   0.923  1.00  0.00    -0.246 OA
BRANCH  27  29
ATOM     29  C   UNL     1      -6.405  -1.842   2.676  1.00  0.00     0.060 A 
ATOM     30  C   UNL     1      -7.773  -1.885   2.917  1.00  0.00     0.016 A 
ATOM     31  C   UNL     1      -5.473  -2.521   3.482  1.00  0.00     0.016 A 
ATOM     32  C   UNL     1      -8.199  -2.441   4.093  1.00  0.00     0.010 A 
ATOM     33  C   UNL     1      -5.908  -3.105   4.654  1.00  0.00     0.010 A 
ATOM     34  C   UNL     1      -7.256  -2.992   4.975  1.00  0.00    -0.014 A 
BRANCH  34  35
ATOM     35  C   UNL     1      -7.811  -3.618   6.154  1.00  0.00     0.031 A 
ATOM     36  C   UNL     1      -8.639  -4.783   5.782  1.00  0.00     0.074 A 
ATOM     37  C   UNL     1      -7.621  -3.161   7.404  1.00  0.00     0.049 A 
ATOM     38  N   UNL     1      -9.928  -4.834   5.770  1.00  0.00    -0.248 NA
ATOM     39  C   UNL     1      -7.984  -5.917   5.107  1.00  0.00     0.031 C 
ATOM     40  C   UNL     1      -6.642  -2.172   7.856  1.00  0.00     0.029 A 
ATOM     41  N   UNL     1      -8.222  -3.557   8.562  1.00  0.00    -0.354 N 
ATOM     42  C   UNL     1     -10.235  -6.113   5.327  1.00  0.00     0.074 A 
ATOM     43  C   UNL     1      -9.037  -6.647   4.738  1.00  0.00     0.031 C 
ATOM     44  C   UNL     1      -6.550  -2.225   9.204  1.00  0.00     0.029 A 
ATOM     45  C   UNL     1      -7.558  -3.141   9.710  1.00  0.00     0.049 A 
ATOM     46  H   UNL     1      -9.050  -4.089   8.583  1.00  0.00     0.167 HD
ATOM     47  C   UNL     1     -11.333  -6.740   5.822  1.00  0.00     0.037 A 
ATOM     48  C   UNL     1      -7.792  -3.598  10.965  1.00  0.00     0.037 A 
ATOM     49  C   UNL     1     -12.246  -5.795   6.412  1.00  0.00     0.049 A 
ATOM     50  C   UNL     1      -9.172  -4.139  10.989  1.00  0.00     0.074 A 
ATOM     51  C   UNL     1     -13.129  -4.839   5.964  1.00  0.00     0.029 A 
ATOM     52  N   UNL     1     -11.959  -5.510   7.719  1.00  0.00    -0.354 N 
ATOM     53  N   UNL     1     -10.239  -3.396  10.879  1.00  0.00    -0.248 NA
ATOM     54  C   UNL     1      -9.384  -5.569  10.787  1.00  0.00     0.031 C 
ATOM     55  C   UNL     1     -13.252  -3.885   7.018  1.00  0.00     0.029 A 
ATOM     56  C   UNL     1     -12.474  -4.303   8.097  1.00  0.00     0.049 A 
ATOM     57  H   UNL     1     -11.445  -6.102   8.314  1.00  0.00     0.167 HD
ATOM     58  C   UNL     1     -11.133  -4.185  10.183  1.00  0.00     0.074 A 
ATOM     59  C   UNL     1     -10.633  -5.548  10.317  1.00  0.00     0.031 C 
ATOM     60  C   UNL     1     -11.996  -3.630   9.285  1.00  0.00     0.037 A 
BRANCH  47  61
ATOM     61  C   UNL     1     -11.295  -8.177   6.291  1.00  0.00     0.057 A 
ATOM     62  C   UNL     1     -12.493  -8.801   6.673  1.00  0.00     0.134 A 
ATOM     63  C   UNL     1     -10.117  -8.848   6.687  1.00  0.00     0.134 A 
ATOM     64  F   UNL     1     -13.679  -8.233   6.406  1.00  0.00    -0.206 F 
ATOM     65  C   UNL     1     -12.513  -9.987   7.420  1.00  0.00     0.040 A 
ATOM     66  C   UNL     1     -10.126 -10.057   7.382  1.00  0.00     0.040 A 
ATOM     67  F   UNL     1      -8.898  -8.319   6.530  1.00  0.00    -0.206 F 
ATOM     68  C   UNL     1     -11.327 -10.620   7.773  1.00  0.00     0.006 A 
ENDBRANCH  47  61
BRANCH  48  69
ATOM     69  C   UNL     1      -6.819  -3.893  12.045  1.00  0.00     0.057 A 
ATOM     70  C   UNL     1      -7.262  -4.214  13.338  1.00  0.00     0.134 A 
ATOM     71  C   UNL     1      -5.468  -4.171  11.773  1.00  0.00     0.134 A 
ATOM     72  F   UNL     1      -8.540  -4.008  13.692  1.00  0.00    -0.206 F 
ATOM     73  C   UNL     1      -6.431  -4.832  14.282  1.00  0.00     0.040 A 
ATOM     74  C   UNL     1      -4.626  -4.780  12.710  1.00  0.00     0.040 A 
ATOM     75  F   UNL     1      -4.942  -3.951  10.561  1.00  0.00    -0.206 F 
ATOM     76  C   UNL     1      -5.113  -5.135  13.961  1.00  0.00     0.006 A 
ENDBRANCH  48  69
BRANCH  60  77
ATOM     77  C   UNL     1     -12.343  -2.185   9.452  1.00  0.00     0.057 A 
ATOM     78  C   UNL     1     -11.452  -1.121   9.263  1.00  0.00     0.134 A 
ATOM     79  C   UNL     1     -13.681  -1.863   9.710  1.00  0.00     0.134 A 
ATOM     80  F   UNL     1     -10.168  -1.338   8.944  1.00  0.00    -0.206 F 
ATOM     81  C   UNL     1     -11.877   0.208   9.350  1.00  0.00     0.040 A 
ATOM     82  C   UNL     1     -14.124  -0.543   9.765  1.00  0.00     0.040 A 
ATOM     83  F   UNL     1     -14.591  -2.837   9.868  1.00  0.00    -0.206 F 
ATOM     84  C   UNL     1     -13.219   0.499   9.591  1.00  0.00     0.006 A 
ENDBRANCH  60  77
ENDBRANCH  34  35
ENDBRANCH  27  29
ENDBRANCH  26  27
ENDBRANCH  25  26
ENDBRANCH  24  25
ENDBRANCH  23  24
ENDBRANCH   1  23
TORSDOF 18
