REMARK SMILES O=C(OCCOCCOC(=O)[C@H]1C[C@@H]2N=CN=C2C[NH2+]1)c1ccc(-c2c3nc(c(-c4c(F)cccc4F)c4ccc([nH]4)c(-c4c(F)cccc4F)c4nc(c(-c5c(F)cccc5F)c5ccc2[nH]5)C=C4)C=C3)cc1
REMARK SMILES IDX 5 1 4 2 3 3 2 4 1 5 21 6 22 7 74 8 23 9 73 10 24 11 25 12
REMARK SMILES IDX 26 13 67 14 27 15 72 16 66 17 68 18 28 19 71 20 65 21 64 22
REMARK SMILES IDX 29 24 55 25 38 26 54 27 39 28 42 29 53 30 69 31 40 32 41 33
REMARK SMILES IDX 52 35 70 36 43 37 30 38 31 39 36 40 32 41 33 42 35 43 37 44
REMARK SMILES IDX 34 45 56 46 57 47 62 48 58 49 59 50 61 51 63 52 60 53 44 54
REMARK SMILES IDX 45 55 50 56 46 57 47 58 49 59 51 60 48 61 6 62 7 63 8 64
REMARK SMILES IDX 9 65 10 66 11 67 12 68 13 69 20 70 14 71 19 72 15 75 18 76
REMARK SMILES IDX 16 77 17 78
REMARK H PARENT 68 23 42 34 20 73 20 74
REMARK Flexibility Score: inf
ROOT
ATOM      1  C   UNL     1       4.731  -0.202  -1.555  1.00  0.00     0.202 C 
ENDROOT
BRANCH   1   2
ATOM      2  C   UNL     1       4.834  -1.181  -0.394  1.00  0.00     0.261 C 
BRANCH   2   3
ATOM      3  O   UNL     1       3.591  -1.806  -0.001  1.00  0.00    -0.460 OA
BRANCH   3   4
ATOM      4  C   UNL     1       2.457  -1.069   0.108  1.00  0.00     0.338 C 
ATOM      5  O   UNL     1       1.553  -1.115  -0.699  1.00  0.00    -0.246 OA
BRANCH   4   6
ATOM      6  C   UNL     1       2.290  -0.450   1.451  1.00  0.00     0.060 A 
ATOM      7  C   UNL     1       3.335  -0.393   2.375  1.00  0.00     0.016 A 
ATOM      8  C   UNL     1       1.008  -0.011   1.820  1.00  0.00     0.016 A 
ATOM      9  C   UNL     1       3.097   0.019   3.671  1.00  0.00     0.010 A 
ATOM     10  C   UNL     1       0.760   0.389   3.130  1.00  0.00     0.010 A 
ATOM     11  C   UNL     1       1.801   0.352   4.059  1.00  0.00    -0.014 A 
BRANCH  11  12
ATOM     12  C   UNL     1       1.612   0.620   5.477  1.00  0.00     0.031 A 
ATOM     13  C   UNL     1       2.253   1.851   6.010  1.00  0.00     0.074 A 
ATOM     14  C   UNL     1       0.875  -0.189   6.260  1.00  0.00     0.049 A 
ATOM     15  N   UNL     1       3.101   1.961   6.983  1.00  0.00    -0.248 NA
ATOM     16  C   UNL     1       1.950   3.117   5.328  1.00  0.00     0.031 C 
ATOM     17  C   UNL     1      -0.009  -1.277   5.837  1.00  0.00     0.029 A 
ATOM     18  N   UNL     1       0.680  -0.129   7.608  1.00  0.00    -0.354 N 
ATOM     19  C   UNL     1       3.299   3.329   7.160  1.00  0.00     0.074 A 
ATOM     20  C   UNL     1       2.663   3.983   6.047  1.00  0.00     0.031 C 
ATOM     21  C   UNL     1      -0.811  -1.615   6.868  1.00  0.00     0.029 A 
ATOM     22  C   UNL     1      -0.418  -0.853   8.042  1.00  0.00     0.049 A 
ATOM     23  H   UNL     1       1.264   0.380   8.215  1.00  0.00     0.167 HD
ATOM     24  C   UNL     1       3.776   3.838   8.329  1.00  0.00     0.037 A 
ATOM     25  C   UNL     1      -1.020  -0.763   9.251  1.00  0.00     0.037 A 
ATOM     26  C   UNL     1       4.538   2.864   9.067  1.00  0.00     0.049 A 
ATOM     27  C   UNL     1      -0.069  -0.140  10.201  1.00  0.00     0.074 A 
ATOM     28  C   UNL     1       5.650   2.086   8.804  1.00  0.00     0.029 A 
ATOM     29  N   UNL     1       4.011   2.356  10.228  1.00  0.00    -0.354 N 
ATOM     30  N   UNL     1       0.995  -0.725  10.675  1.00  0.00    -0.248 NA
ATOM     31  C   UNL     1      -0.100   1.308  10.349  1.00  0.00     0.031 C 
ATOM     32  C   UNL     1       5.443   0.876   9.531  1.00  0.00     0.029 A 
ATOM     33  C   UNL     1       4.228   1.005  10.203  1.00  0.00     0.049 A 
ATOM     34  H   UNL     1       3.563   2.865  10.941  1.00  0.00     0.167 HD
ATOM     35  C   UNL     1       1.933   0.289  10.791  1.00  0.00     0.074 A 
ATOM     36  C   UNL     1       1.169   1.528  10.695  1.00  0.00     0.031 C 
ATOM     37  C   UNL     1       3.269   0.034  10.669  1.00  0.00     0.037 A 
BRANCH  24  38
ATOM     38  C   UNL     1       3.216   5.087   8.978  1.00  0.00     0.057 A 
ATOM     39  C   UNL     1       3.805   5.568  10.163  1.00  0.00     0.134 A 
ATOM     40  C   UNL     1       1.948   5.630   8.682  1.00  0.00     0.134 A 
ATOM     41  F   UNL     1       5.013   5.137  10.557  1.00  0.00    -0.206 F 
ATOM     42  C   UNL     1       3.135   6.429  11.041  1.00  0.00     0.040 A 
ATOM     43  C   UNL     1       1.293   6.530   9.527  1.00  0.00     0.040 A 
ATOM     44  F   UNL     1       1.231   5.253   7.619  1.00  0.00    -0.206 F 
ATOM     45  C   UNL     1       1.867   6.900  10.732  1.00  0.00     0.006 A 
ENDBRANCH  24  38
BRANCH  25  46
ATOM     46  C   UNL     1      -2.454  -0.945   9.564  1.00  0.00     0.057 A 
ATOM     47  C   UNL     1      -2.890  -1.151  10.879  1.00  0.00     0.134 A 
ATOM     48  C   UNL     1      -3.459  -0.682   8.614  1.00  0.00     0.134 A 
ATOM     49  F   UNL     1      -2.007  -1.356  11.866  1.00  0.00    -0.206 F 
ATOM     50  C   UNL     1      -4.245  -1.094  11.230  1.00  0.00     0.040 A 
ATOM     51  C   UNL     1      -4.815  -0.639   8.948  1.00  0.00     0.040 A 
ATOM     52  F   UNL     1      -3.156  -0.372   7.346  1.00  0.00    -0.206 F 
ATOM     53  C   UNL     1      -5.212  -0.834  10.263  1.00  0.00     0.006 A 
ENDBRANCH  25  46
BRANCH  37  54
ATOM     54  C   UNL     1       3.721  -1.394  10.725  1.00  0.00     0.057 A 
ATOM     55  C   UNL     1       3.352  -2.363   9.782  1.00  0.00     0.134 A 
ATOM     56  C   UNL     1       4.671  -1.766  11.683  1.00  0.00     0.134 A 
ATOM     57  F   UNL     1       2.532  -2.064   8.765  1.00  0.00    -0.206 F 
ATOM     58  C   UNL     1       3.864  -3.663   9.827  1.00  0.00     0.040 A 
ATOM     59  C   UNL     1       5.217  -3.051  11.717  1.00  0.00     0.040 A 
ATOM     60  F   UNL     1       5.119  -0.870  12.578  1.00  0.00    -0.206 F 
ATOM     61  C   UNL     1       4.803  -4.009  10.794  1.00  0.00     0.006 A 
ENDBRANCH  37  54
ENDBRANCH  11  12
ENDBRANCH   4   6
ENDBRANCH   3   4
ENDBRANCH   2   3
ENDBRANCH   1   2
BRANCH   1  62
ATOM     62  O   UNL     1       4.331   1.101  -1.125  1.00  0.00    -0.374 OA
BRANCH  62  63
ATOM     63  C   UNL     1       3.131   1.607  -1.721  1.00  0.00     0.202 C 
BRANCH  63  64
ATOM     64  C   UNL     1       3.214   1.978  -3.207  1.00  0.00     0.261 C 
BRANCH  64  65
ATOM     65  O   UNL     1       3.333   0.796  -4.017  1.00  0.00    -0.459 OA
BRANCH  65  66
ATOM     66  C   UNL     1       4.521   0.617  -4.652  1.00  0.00     0.365 C 
ATOM     67  O   UNL     1       5.393   1.467  -4.796  1.00  0.00    -0.245 OA
BRANCH  66  68
ATOM     68  C   UNL     1       4.691  -0.848  -5.082  1.00  0.00     0.296 C 
ATOM     69  C   UNL     1       4.391  -0.991  -6.580  1.00  0.00     0.111 C 
ATOM     70  N   UNL     1       6.061  -1.294  -4.672  1.00  0.00    -0.330 N 
ATOM     71  C   UNL     1       4.651  -2.404  -7.082  1.00  0.00     0.164 C 
ATOM     72  C   UNL     1       6.600  -2.430  -5.435  1.00  0.00     0.316 C 
ATOM     73  H   UNL     1       6.026  -1.562  -3.688  1.00  0.00     0.347 HD
ATOM     74  H   UNL     1       6.684  -0.506  -4.855  1.00  0.00     0.347 HD
ATOM     75  N   UNL     1       3.444  -3.252  -7.139  1.00  0.00    -0.264 NA
ATOM     76  C   UNL     1       5.456  -3.138  -6.071  1.00  0.00     0.098 C 
ATOM     77  C   UNL     1       3.740  -4.285  -6.406  1.00  0.00     0.216 C 
ATOM     78  N   UNL     1       4.936  -4.269  -5.731  1.00  0.00    -0.238 NA
ENDBRANCH  66  68
ENDBRANCH  65  66
ENDBRANCH  64  65
ENDBRANCH  63  64
ENDBRANCH  62  63
ENDBRANCH   1  62
TORSDOF 14
