REMARK SMILES Cc1c(Cl)ccc2c(OCC(=O)OCCOCCOC(=O)c3ccc(-c4c5nc(c(-c6c(F)cccc6F)c6ccc([nH]6)c(-c6c(F)cccc6F)c6nc(c(-c7c(F)cccc7F)c7ccc4[nH]7)C=C6)C=C5)cc3)ccnc12
REMARK SMILES IDX 16 1 15 2 14 3 13 4 11 5 12 6 10 7 9 8 8 9 1 10 2 11 3 12
REMARK SMILES IDX 79 13 4 14 5 15 7 16 78 17 6 18 77 19 76 20 17 21 18 22
REMARK SMILES IDX 19 23 20 24 21 25 22 26 23 27 75 28 24 29 74 30 25 31 26 32
REMARK SMILES IDX 27 33 68 34 28 35 73 36 67 37 69 38 29 39 72 40 66 41 65 42
REMARK SMILES IDX 30 44 56 45 39 46 55 47 40 48 43 49 54 50 70 51 41 52 42 53
REMARK SMILES IDX 53 55 71 56 44 57 31 58 32 59 37 60 33 61 34 62 36 63 38 64
REMARK SMILES IDX 35 65 57 66 58 67 63 68 59 69 60 70 62 71 64 72 61 73 45 74
REMARK SMILES IDX 46 75 51 76 47 77 48 78 50 79 52 80 49 81
REMARK H PARENT 69 43 43 54
REMARK Flexibility Score: inf
ROOT
ATOM      1  O   UNL     1       2.077   5.505   5.297  1.00  0.00    -0.374 OA
ENDROOT
BRANCH   1   2
ATOM      2  C   UNL     1       2.823   4.841   6.315  1.00  0.00     0.202 C 
BRANCH   2   3
ATOM      3  C   UNL     1       2.028   4.223   7.473  1.00  0.00     0.261 C 
BRANCH   3   4
ATOM      4  O   UNL     1       1.138   3.161   7.068  1.00  0.00    -0.461 OA
BRANCH   4   5
ATOM      5  C   UNL     1      -0.190   3.391   7.275  1.00  0.00     0.344 C 
ATOM      6  O   UNL     1      -0.655   4.420   7.755  1.00  0.00    -0.248 OA
BRANCH   5   7
ATOM      7  C   UNL     1      -1.078   2.198   6.909  1.00  0.00     0.352 C 
BRANCH   7   8
ATOM      8  O   UNL     1      -0.661   1.248   5.947  1.00  0.00    -0.481 OA
BRANCH   8   9
ATOM      9  C   UNL     1      -0.853   1.481   4.607  1.00  0.00     0.131 A 
ATOM     10  C   UNL     1       0.410   0.058   0.036  1.00  0.00     0.048 C 
ATOM     11  C   UNL     1       0.136  -0.271   1.484  1.00  0.00    -0.006 A 
ATOM     12  C   UNL     1       0.459  -1.546   1.984  1.00  0.00     0.046 A 
ATOM     13  C   UNL     1      -0.387   0.708   2.347  1.00  0.00     0.078 A 
ATOM     14  Cl  UNL     1       1.041  -2.810   0.956  1.00  0.00    -0.084 Cl
ATOM     15  C   UNL     1       0.322  -1.836   3.336  1.00  0.00     0.022 A 
ATOM     16  C   UNL     1      -0.439   0.443   3.736  1.00  0.00     0.043 A 
ATOM     17  N   UNL     1      -0.826   1.884   1.857  1.00  0.00    -0.256 NA
ATOM     18  C   UNL     1      -0.088  -0.837   4.210  1.00  0.00     0.016 A 
ATOM     19  C   UNL     1      -1.343   2.799   2.701  1.00  0.00     0.115 A 
ATOM     20  C   UNL     1      -1.366   2.654   4.074  1.00  0.00     0.067 A 
ENDBRANCH   8   9
ENDBRANCH   7   8
ENDBRANCH   5   7
ENDBRANCH   4   5
ENDBRANCH   3   4
ENDBRANCH   2   3
ENDBRANCH   1   2
BRANCH   1  21
ATOM     21  C   UNL     1       1.340   4.680   4.397  1.00  0.00     0.202 C 
BRANCH  21  22
ATOM     22  C   UNL     1       2.142   3.929   3.329  1.00  0.00     0.261 C 
BRANCH  22  23
ATOM     23  O   UNL     1       3.027   2.958   3.909  1.00  0.00    -0.460 OA
BRANCH  23  24
ATOM     24  C   UNL     1       4.332   3.154   3.625  1.00  0.00     0.338 C 
ATOM     25  O   UNL     1       4.823   3.989   2.877  1.00  0.00    -0.246 OA
BRANCH  24  26
ATOM     26  C   UNL     1       5.154   2.311   4.499  1.00  0.00     0.060 A 
ATOM     27  C   UNL     1       6.027   2.958   5.381  1.00  0.00     0.016 A 
ATOM     28  C   UNL     1       5.151   0.920   4.374  1.00  0.00     0.016 A 
ATOM     29  C   UNL     1       6.950   2.215   6.105  1.00  0.00     0.010 A 
ATOM     30  C   UNL     1       6.090   0.176   5.090  1.00  0.00     0.010 A 
ATOM     31  C   UNL     1       7.020   0.828   5.919  1.00  0.00    -0.014 A 
BRANCH  31  32
ATOM     32  C   UNL     1       8.205   0.107   6.430  1.00  0.00     0.031 A 
ATOM     33  C   UNL     1       9.383  -0.064   5.513  1.00  0.00     0.074 A 
ATOM     34  C   UNL     1       8.249  -0.322   7.702  1.00  0.00     0.049 A 
ATOM     35  N   UNL     1      10.546  -0.614   5.748  1.00  0.00    -0.248 NA
ATOM     36  C   UNL     1       9.230   0.463   4.146  1.00  0.00     0.031 C 
ATOM     37  C   UNL     1       7.177  -0.167   8.684  1.00  0.00     0.029 A 
ATOM     38  N   UNL     1       9.243  -0.973   8.383  1.00  0.00    -0.354 N 
ATOM     39  C   UNL     1      11.267  -0.484   4.567  1.00  0.00     0.074 A 
ATOM     40  C   UNL     1      10.399   0.156   3.604  1.00  0.00     0.031 C 
ATOM     41  C   UNL     1       7.572  -0.717   9.846  1.00  0.00     0.029 A 
ATOM     42  C   UNL     1       8.911  -1.275   9.680  1.00  0.00     0.049 A 
ATOM     43  H   UNL     1      10.112  -1.202   7.981  1.00  0.00     0.167 HD
ATOM     44  C   UNL     1      12.544  -0.853   4.314  1.00  0.00     0.037 A 
ATOM     45  C   UNL     1       9.614  -1.940  10.616  1.00  0.00     0.037 A 
ATOM     46  C   UNL     1      13.391  -1.514   5.270  1.00  0.00     0.049 A 
ATOM     47  C   UNL     1      10.997  -2.430  10.276  1.00  0.00     0.074 A 
ATOM     48  C   UNL     1      14.698  -1.939   5.122  1.00  0.00     0.029 A 
ATOM     49  N   UNL     1      13.000  -1.858   6.556  1.00  0.00    -0.354 N 
ATOM     50  N   UNL     1      11.683  -2.275   9.168  1.00  0.00    -0.248 NA
ATOM     51  C   UNL     1      11.704  -3.184  11.320  1.00  0.00     0.031 C 
ATOM     52  C   UNL     1      15.083  -2.584   6.304  1.00  0.00     0.029 A 
ATOM     53  C   UNL     1      14.031  -2.516   7.204  1.00  0.00     0.049 A 
ATOM     54  H   UNL     1      12.119  -1.663   6.950  1.00  0.00     0.167 HD
ATOM     55  C   UNL     1      12.910  -2.888   9.390  1.00  0.00     0.074 A 
ATOM     56  C   UNL     1      12.879  -3.400  10.745  1.00  0.00     0.031 C 
ATOM     57  C   UNL     1      13.969  -3.017   8.553  1.00  0.00     0.037 A 
BRANCH  44  58
ATOM     58  C   UNL     1      13.080  -0.571   2.941  1.00  0.00     0.057 A 
ATOM     59  C   UNL     1      13.306  -1.611   2.032  1.00  0.00     0.134 A 
ATOM     60  C   UNL     1      13.373   0.733   2.517  1.00  0.00     0.134 A 
ATOM     61  F   UNL     1      13.046  -2.882   2.373  1.00  0.00    -0.206 F 
ATOM     62  C   UNL     1      13.802  -1.366   0.750  1.00  0.00     0.040 A 
ATOM     63  C   UNL     1      13.846   0.993   1.230  1.00  0.00     0.040 A 
ATOM     64  F   UNL     1      13.161   1.777   3.333  1.00  0.00    -0.206 F 
ATOM     65  C   UNL     1      14.067  -0.059   0.344  1.00  0.00     0.006 A 
ENDBRANCH  44  58
BRANCH  45  66
ATOM     66  C   UNL     1       9.029  -2.194  11.956  1.00  0.00     0.057 A 
ATOM     67  C   UNL     1       7.962  -3.084  12.127  1.00  0.00     0.134 A 
ATOM     68  C   UNL     1       9.550  -1.585  13.104  1.00  0.00     0.134 A 
ATOM     69  F   UNL     1       7.416  -3.700  11.068  1.00  0.00    -0.206 F 
ATOM     70  C   UNL     1       7.434  -3.360  13.389  1.00  0.00     0.040 A 
ATOM     71  C   UNL     1       9.048  -1.871  14.375  1.00  0.00     0.040 A 
ATOM     72  F   UNL     1      10.586  -0.740  13.008  1.00  0.00    -0.206 F 
ATOM     73  C   UNL     1       7.984  -2.759  14.519  1.00  0.00     0.006 A 
ENDBRANCH  45  66
BRANCH  57  74
ATOM     74  C   UNL     1      15.180  -3.717   9.097  1.00  0.00     0.057 A 
ATOM     75  C   UNL     1      16.348  -3.001   9.386  1.00  0.00     0.134 A 
ATOM     76  C   UNL     1      15.196  -5.100   9.319  1.00  0.00     0.134 A 
ATOM     77  F   UNL     1      16.401  -1.675   9.187  1.00  0.00    -0.206 F 
ATOM     78  C   UNL     1      17.489  -3.634   9.879  1.00  0.00     0.040 A 
ATOM     79  C   UNL     1      16.322  -5.741   9.838  1.00  0.00     0.040 A 
ATOM     80  F   UNL     1      14.104  -5.841   9.075  1.00  0.00    -0.206 F 
ATOM     81  C   UNL     1      17.474  -5.008  10.115  1.00  0.00     0.006 A 
ENDBRANCH  57  74
ENDBRANCH  31  32
ENDBRANCH  24  26
ENDBRANCH  23  24
ENDBRANCH  22  23
ENDBRANCH  21  22
ENDBRANCH   1  21
TORSDOF 16
