REMARK SMILES C[C@@]([NH3+])(C(=O)N1CCCC[C@@H]1CCC(=O)OCCOCCOC(=O)c1ccc(-c2c3nc(c(-c4c(F)cccc4F)c4ccc([nH]4)c(-c4c(F)cccc4F)c4nc(c(-c5c(F)cccc5F)c5ccc2[nH]5)C=C4)C=C3)cc1)C(F)(F)F
REMARK SMILES IDX 17 1 16 2 14 3 15 4 13 5 12 6 11 7 6 8 7 9 8 10 10 11 9 12
REMARK SMILES IDX 4 13 5 14 2 15 1 16 3 17 79 21 80 22 81 23 82 24 18 25 19 26
REMARK SMILES IDX 20 27 21 28 22 29 23 30 24 31 25 32 26 33 78 34 27 35 77 36
REMARK SMILES IDX 28 37 29 38 30 39 71 40 31 41 76 42 70 43 72 44 32 45 75 46
REMARK SMILES IDX 69 47 68 48 33 50 59 51 42 52 58 53 43 54 46 55 57 56 73 57
REMARK SMILES IDX 44 58 45 59 56 61 74 62 47 63 34 64 35 65 40 66 36 67 37 68
REMARK SMILES IDX 39 69 41 70 38 71 60 72 61 73 66 74 62 75 63 76 65 77 67 78
REMARK SMILES IDX 64 79 48 80 49 81 54 82 50 83 51 84 53 85 55 86 52 87
REMARK H PARENT 3 18 3 19 3 20 72 49 46 60
REMARK Flexibility Score: inf
ROOT
ATOM      1  C   UNL     1       0.095   4.989   3.131  1.00  0.00     0.261 C 
ENDROOT
BRANCH   1   2
ATOM      2  O   UNL     1      -0.352   4.084   2.102  1.00  0.00    -0.463 OA
BRANCH   2   3
ATOM      3  C   UNL     1      -0.211   4.526   0.828  1.00  0.00     0.305 C 
ATOM      4  O   UNL     1       0.170   5.646   0.513  1.00  0.00    -0.252 OA
BRANCH   3   5
ATOM      5  C   UNL     1      -0.614   3.505  -0.210  1.00  0.00     0.125 C 
BRANCH   5   6
ATOM      6  C   UNL     1      -0.587   2.025   0.176  1.00  0.00     0.037 C 
BRANCH   6   7
ATOM      7  C   UNL     1      -1.701   1.484   1.091  1.00  0.00     0.086 C 
ATOM      8  N   UNL     1      -1.673   0.004   1.249  1.00  0.00    -0.334 N 
ATOM      9  C   UNL     1      -2.744  -0.536   2.083  1.00  0.00     0.120 C 
ATOM     10  C   UNL     1      -4.131  -0.082   1.633  1.00  0.00     0.022 C 
ATOM     11  C   UNL     1      -3.091   1.964   0.637  1.00  0.00     0.025 C 
ATOM     12  C   UNL     1      -4.194   1.436   1.549  1.00  0.00     0.004 C 
BRANCH   8  13
ATOM     13  C   UNL     1      -1.229  -0.844   0.226  1.00  0.00     0.293 C 
ATOM     14  O   UNL     1      -1.965  -1.115  -0.721  1.00  0.00    -0.267 OA
BRANCH  13  15
ATOM     15  C   UNL     1       0.218  -1.408   0.353  1.00  0.00     0.267 C 
ATOM     16  C   UNL     1       1.197  -0.650  -0.555  1.00  0.00     0.100 C 
BRANCH  15  17
ATOM     17  N   UNL     1       0.730  -1.279   1.770  1.00  0.00    -0.337 N 
ATOM     18  H   UNL     1       0.746  -0.295   2.038  1.00  0.00     0.345 HD
ATOM     19  H   UNL     1       1.674  -1.662   1.827  1.00  0.00     0.345 HD
ATOM     20  H   UNL     1       0.116  -1.794   2.402  1.00  0.00     0.345 HD
ENDBRANCH  15  17
BRANCH  15  21
ATOM     21  C   UNL     1       0.160  -2.876  -0.141  1.00  0.00     0.453 C 
ATOM     22  F   UNL     1      -0.137  -3.005  -1.448  1.00  0.00    -0.164 F 
ATOM     23  F   UNL     1       1.382  -3.457   0.039  1.00  0.00    -0.164 F 
ATOM     24  F   UNL     1      -0.714  -3.613   0.584  1.00  0.00    -0.164 F 
ENDBRANCH  15  21
ENDBRANCH  13  15
ENDBRANCH   8  13
ENDBRANCH   6   7
ENDBRANCH   5   6
ENDBRANCH   3   5
ENDBRANCH   2   3
ENDBRANCH   1   2
BRANCH   1  25
ATOM     25  C   UNL     1       1.063   4.301   4.096  1.00  0.00     0.202 C 
BRANCH  25  26
ATOM     26  O   UNL     1       2.344   3.987   3.549  1.00  0.00    -0.374 OA
BRANCH  26  27
ATOM     27  C   UNL     1       2.418   2.853   2.683  1.00  0.00     0.202 C 
BRANCH  27  28
ATOM     28  C   UNL     1       2.369   1.498   3.394  1.00  0.00     0.261 C 
BRANCH  28  29
ATOM     29  O   UNL     1       1.079   1.271   3.989  1.00  0.00    -0.460 OA
BRANCH  29  30
ATOM     30  C   UNL     1       1.118   0.796   5.255  1.00  0.00     0.338 C 
ATOM     31  O   UNL     1       2.091   0.424   5.886  1.00  0.00    -0.246 OA
BRANCH  30  32
ATOM     32  C   UNL     1      -0.216   0.912   5.866  1.00  0.00     0.060 A 
ATOM     33  C   UNL     1      -0.406   1.872   6.865  1.00  0.00     0.016 A 
ATOM     34  C   UNL     1      -1.226   0.002   5.554  1.00  0.00     0.016 A 
ATOM     35  C   UNL     1      -1.601   1.897   7.586  1.00  0.00     0.010 A 
ATOM     36  C   UNL     1      -2.430   0.036   6.269  1.00  0.00     0.010 A 
ATOM     37  C   UNL     1      -2.607   0.957   7.317  1.00  0.00    -0.014 A 
BRANCH  37  38
ATOM     38  C   UNL     1      -3.767   0.843   8.238  1.00  0.00     0.031 A 
ATOM     39  C   UNL     1      -3.776  -0.247   9.277  1.00  0.00     0.074 A 
ATOM     40  C   UNL     1      -4.778   1.728   8.194  1.00  0.00     0.049 A 
ATOM     41  N   UNL     1      -4.668  -0.509  10.199  1.00  0.00    -0.248 NA
ATOM     42  C   UNL     1      -2.624  -1.162   9.278  1.00  0.00     0.031 C 
ATOM     43  C   UNL     1      -4.878   2.853   7.265  1.00  0.00     0.029 A 
ATOM     44  N   UNL     1      -5.913   1.823   8.961  1.00  0.00    -0.354 N 
ATOM     45  C   UNL     1      -4.184  -1.612  10.891  1.00  0.00     0.074 A 
ATOM     46  C   UNL     1      -2.941  -1.996  10.257  1.00  0.00     0.031 C 
ATOM     47  C   UNL     1      -6.007   3.534   7.527  1.00  0.00     0.029 A 
ATOM     48  C   UNL     1      -6.721   2.880   8.623  1.00  0.00     0.049 A 
ATOM     49  H   UNL     1      -6.127   1.192   9.686  1.00  0.00     0.167 HD
ATOM     50  C   UNL     1      -4.713  -2.241  11.969  1.00  0.00     0.037 A 
ATOM     51  C   UNL     1      -7.903   3.273   9.136  1.00  0.00     0.037 A 
ATOM     52  C   UNL     1      -5.947  -1.868  12.607  1.00  0.00     0.049 A 
ATOM     53  C   UNL     1      -8.514   2.506  10.278  1.00  0.00     0.074 A 
ATOM     54  C   UNL     1      -6.555  -2.440  13.711  1.00  0.00     0.029 A 
ATOM     55  N   UNL     1      -6.766  -0.830  12.192  1.00  0.00    -0.354 N 
ATOM     56  N   UNL     1      -8.035   1.479  10.936  1.00  0.00    -0.248 NA
ATOM     57  C   UNL     1      -9.834   2.956  10.746  1.00  0.00     0.031 C 
ATOM     58  C   UNL     1      -7.764  -1.772  13.941  1.00  0.00     0.029 A 
ATOM     59  C   UNL     1      -7.887  -0.759  13.003  1.00  0.00     0.049 A 
ATOM     60  H   UNL     1      -6.580  -0.231  11.433  1.00  0.00     0.167 HD
ATOM     61  C   UNL     1      -8.978   1.179  11.912  1.00  0.00     0.074 A 
ATOM     62  C   UNL     1     -10.054   2.135  11.764  1.00  0.00     0.031 C 
ATOM     63  C   UNL     1      -8.950   0.200  12.850  1.00  0.00     0.037 A 
BRANCH  50  64
ATOM     64  C   UNL     1      -3.954  -3.414  12.514  1.00  0.00     0.057 A 
ATOM     65  C   UNL     1      -2.758  -3.252  13.226  1.00  0.00     0.134 A 
ATOM     66  C   UNL     1      -4.428  -4.719  12.332  1.00  0.00     0.134 A 
ATOM     67  F   UNL     1      -2.244  -2.028  13.419  1.00  0.00    -0.206 F 
ATOM     68  C   UNL     1      -2.046  -4.348  13.714  1.00  0.00     0.040 A 
ATOM     69  C   UNL     1      -3.737  -5.822  12.836  1.00  0.00     0.040 A 
ATOM     70  F   UNL     1      -5.569  -4.943  11.663  1.00  0.00    -0.206 F 
ATOM     71  C   UNL     1      -2.538  -5.638  13.524  1.00  0.00     0.006 A 
ENDBRANCH  50  64
BRANCH  51  72
ATOM     72  C   UNL     1      -8.592   4.464   8.582  1.00  0.00     0.057 A 
ATOM     73  C   UNL     1      -8.682   5.652   9.317  1.00  0.00     0.134 A 
ATOM     74  C   UNL     1      -9.193   4.438   7.319  1.00  0.00     0.134 A 
ATOM     75  F   UNL     1      -8.147   5.728  10.544  1.00  0.00    -0.206 F 
ATOM     76  C   UNL     1      -9.353   6.769   8.819  1.00  0.00     0.040 A 
ATOM     77  C   UNL     1      -9.851   5.554   6.800  1.00  0.00     0.040 A 
ATOM     78  F   UNL     1      -9.143   3.328   6.568  1.00  0.00    -0.206 F 
ATOM     79  C   UNL     1      -9.936   6.723   7.554  1.00  0.00     0.006 A 
ENDBRANCH  51  72
BRANCH  63  80
ATOM     80  C   UNL     1     -10.102   0.133  13.809  1.00  0.00     0.057 A 
ATOM     81  C   UNL     1     -11.358  -0.351  13.422  1.00  0.00     0.134 A 
ATOM     82  C   UNL     1      -9.942   0.524  15.145  1.00  0.00     0.134 A 
ATOM     83  F   UNL     1     -11.579  -0.729  12.155  1.00  0.00    -0.206 F 
ATOM     84  C   UNL     1     -12.419  -0.427  14.326  1.00  0.00     0.040 A 
ATOM     85  C   UNL     1     -10.989   0.432  16.063  1.00  0.00     0.040 A 
ATOM     86  F   UNL     1      -8.762   0.990  15.581  1.00  0.00    -0.206 F 
ATOM     87  C   UNL     1     -12.234  -0.040  15.652  1.00  0.00     0.006 A 
ENDBRANCH  63  80
ENDBRANCH  37  38
ENDBRANCH  30  32
ENDBRANCH  29  30
ENDBRANCH  28  29
ENDBRANCH  27  28
ENDBRANCH  26  27
ENDBRANCH  25  26
ENDBRANCH   1  25
TORSDOF 20
