REMARK SMILES O=C(CCCCN1C(=O)CCc2cc([N+](=O)[O-])ccc21)OCCOCCOC(=O)c1ccc(-c2c3nc(c(-c4c(F)cccc4F)c4ccc([nH]4)c(-c4c(F)cccc4F)c4nc(c(-c5c(F)cccc5F)c5ccc2[nH]5)C=C4)C=C3)cc1
REMARK SMILES IDX 22 1 21 2 2 3 1 4 3 5 4 6 5 7 6 8 7 9 8 10 20 11 9 12 10 13
REMARK SMILES IDX 12 14 19 15 11 16 13 17 18 18 14 19 15 20 16 21 17 22 23 23
REMARK SMILES IDX 24 24 25 25 26 26 27 27 28 28 29 29 30 30 31 31 83 32 32 33
REMARK SMILES IDX 82 34 33 35 34 36 35 37 76 38 36 39 81 40 75 41 77 42 37 43
REMARK SMILES IDX 80 44 74 45 73 46 38 48 64 49 47 50 63 51 48 52 51 53 62 54
REMARK SMILES IDX 78 55 49 56 50 57 61 59 79 60 52 61 39 62 40 63 45 64 41 65
REMARK SMILES IDX 42 66 44 67 46 68 43 69 65 70 66 71 71 72 67 73 68 74 70 75
REMARK SMILES IDX 72 76 69 77 53 78 54 79 59 80 55 81 56 82 58 83 60 84 57 85
REMARK H PARENT 77 47 51 58
REMARK Flexibility Score: inf
ROOT
ATOM      1  C   UNL     1       3.607   1.202  -1.044  1.00  0.00     0.261 C 
ENDROOT
BRANCH   1   2
ATOM      2  O   UNL     1       2.367   0.509  -1.214  1.00  0.00    -0.463 OA
BRANCH   2   3
ATOM      3  C   UNL     1       2.044  -0.707  -0.733  1.00  0.00     0.305 C 
ATOM      4  O   UNL     1       0.877  -1.089  -0.833  1.00  0.00    -0.252 OA
BRANCH   3   5
ATOM      5  C   UNL     1       3.080  -1.610  -0.096  1.00  0.00     0.123 C 
BRANCH   5   6
ATOM      6  C   UNL     1       3.910  -2.457  -1.047  1.00  0.00     0.014 C 
BRANCH   6   7
ATOM      7  C   UNL     1       5.135  -1.780  -1.672  1.00  0.00     0.023 C 
BRANCH   7   8
ATOM      8  C   UNL     1       6.241  -1.247  -0.714  1.00  0.00     0.125 C 
BRANCH   8   9
ATOM      9  N   UNL     1       6.921  -2.154   0.218  1.00  0.00    -0.312 N 
ATOM     10  C   UNL     1       7.379  -1.618   1.430  1.00  0.00     0.227 C 
ATOM     11  C   UNL     1       7.019  -3.542  -0.034  1.00  0.00     0.047 A 
ATOM     12  O   UNL     1       7.375  -0.415   1.687  1.00  0.00    -0.275 OA
ATOM     13  C   UNL     1       7.989  -2.615   2.392  1.00  0.00     0.105 C 
ATOM     14  C   UNL     1       6.941  -4.415   1.060  1.00  0.00    -0.017 A 
ATOM     15  C   UNL     1       7.049  -4.057  -1.329  1.00  0.00     0.034 A 
ATOM     16  C   UNL     1       7.128  -3.869   2.449  1.00  0.00     0.048 C 
ATOM     17  C   UNL     1       6.574  -5.747   0.840  1.00  0.00     0.091 A 
ATOM     18  C   UNL     1       6.686  -5.377  -1.563  1.00  0.00     0.088 A 
ATOM     19  C   UNL     1       6.379  -6.195  -0.474  1.00  0.00     0.269 A 
BRANCH  19  20
ATOM     20  N   UNL     1       5.791  -7.512  -0.718  1.00  0.00     0.062 N 
ATOM     21  O   UNL     1       5.826  -8.337   0.204  1.00  0.00    -0.258 OA
ATOM     22  O   UNL     1       5.271  -7.708  -1.826  1.00  0.00    -0.258 OA
ENDBRANCH  19  20
ENDBRANCH   8   9
ENDBRANCH   7   8
ENDBRANCH   6   7
ENDBRANCH   5   6
ENDBRANCH   3   5
ENDBRANCH   2   3
ENDBRANCH   1   2
BRANCH   1  23
ATOM     23  C   UNL     1       3.789   1.815   0.327  1.00  0.00     0.202 C 
BRANCH  23  24
ATOM     24  O   UNL     1       3.616   0.904   1.403  1.00  0.00    -0.374 OA
BRANCH  24  25
ATOM     25  C   UNL     1       2.512   1.212   2.255  1.00  0.00     0.202 C 
BRANCH  25  26
ATOM     26  C   UNL     1       2.842   2.287   3.300  1.00  0.00     0.261 C 
BRANCH  26  27
ATOM     27  O   UNL     1       3.240   3.513   2.660  1.00  0.00    -0.460 OA
BRANCH  27  28
ATOM     28  C   UNL     1       4.577   3.748   2.612  1.00  0.00     0.338 C 
ATOM     29  O   UNL     1       5.446   3.190   3.261  1.00  0.00    -0.246 OA
BRANCH  28  30
ATOM     30  C   UNL     1       4.862   4.654   1.469  1.00  0.00     0.060 A 
ATOM     31  C   UNL     1       6.042   4.451   0.731  1.00  0.00     0.016 A 
ATOM     32  C   UNL     1       3.949   5.633   1.070  1.00  0.00     0.016 A 
ATOM     33  C   UNL     1       6.328   5.247  -0.380  1.00  0.00     0.010 A 
ATOM     34  C   UNL     1       4.242   6.442  -0.027  1.00  0.00     0.010 A 
ATOM     35  C   UNL     1       5.451   6.279  -0.730  1.00  0.00    -0.014 A 
BRANCH  35  36
ATOM     36  C   UNL     1       5.889   7.386  -1.610  1.00  0.00     0.031 A 
ATOM     37  C   UNL     1       6.433   8.613  -0.935  1.00  0.00     0.074 A 
ATOM     38  C   UNL     1       5.732   7.353  -2.943  1.00  0.00     0.049 A 
ATOM     39  N   UNL     1       6.666   9.802  -1.422  1.00  0.00    -0.248 NA
ATOM     40  C   UNL     1       6.722   8.479   0.503  1.00  0.00     0.031 C 
ATOM     41  C   UNL     1       5.256   6.211  -3.716  1.00  0.00     0.029 A 
ATOM     42  N   UNL     1       5.923   8.342  -3.877  1.00  0.00    -0.354 N 
ATOM     43  C   UNL     1       7.094  10.566  -0.344  1.00  0.00     0.074 A 
ATOM     44  C   UNL     1       7.071   9.713   0.823  1.00  0.00     0.031 C 
ATOM     45  C   UNL     1       5.155   6.574  -5.008  1.00  0.00     0.029 A 
ATOM     46  C   UNL     1       5.515   7.986  -5.139  1.00  0.00     0.049 A 
ATOM     47  H   UNL     1       6.315   9.219  -3.662  1.00  0.00     0.167 HD
ATOM     48  C   UNL     1       7.468  11.865  -0.327  1.00  0.00     0.037 A 
ATOM     49  C   UNL     1       5.405   8.732  -6.256  1.00  0.00     0.037 A 
ATOM     50  C   UNL     1       7.483  12.707  -1.491  1.00  0.00     0.049 A 
ATOM     51  C   UNL     1       5.775  10.193  -6.212  1.00  0.00     0.074 A 
ATOM     52  C   UNL     1       7.866  14.031  -1.593  1.00  0.00     0.029 A 
ATOM     53  N   UNL     1       7.082  12.302  -2.756  1.00  0.00    -0.354 N 
ATOM     54  N   UNL     1       6.195  10.910  -5.197  1.00  0.00    -0.248 NA
ATOM     55  C   UNL     1       5.652  10.950  -7.467  1.00  0.00     0.031 C 
ATOM     56  C   UNL     1       7.650  14.443  -2.912  1.00  0.00     0.029 A 
ATOM     57  C   UNL     1       7.188  13.358  -3.643  1.00  0.00     0.049 A 
ATOM     58  H   UNL     1       6.770  11.398  -2.988  1.00  0.00     0.167 HD
ATOM     59  C   UNL     1       6.418  12.189  -5.695  1.00  0.00     0.074 A 
ATOM     60  C   UNL     1       6.084  12.151  -7.104  1.00  0.00     0.031 C 
ATOM     61  C   UNL     1       6.866  13.293  -5.047  1.00  0.00     0.037 A 
BRANCH  48  62
ATOM     62  C   UNL     1       7.838  12.450   1.005  1.00  0.00     0.057 A 
ATOM     63  C   UNL     1       8.997  12.066   1.692  1.00  0.00     0.134 A 
ATOM     64  C   UNL     1       7.003  13.390   1.622  1.00  0.00     0.134 A 
ATOM     65  F   UNL     1       9.827  11.151   1.168  1.00  0.00    -0.206 F 
ATOM     66  C   UNL     1       9.291  12.565   2.962  1.00  0.00     0.040 A 
ATOM     67  C   UNL     1       7.303  13.920   2.877  1.00  0.00     0.040 A 
ATOM     68  F   UNL     1       5.876  13.801   1.020  1.00  0.00    -0.206 F 
ATOM     69  C   UNL     1       8.445  13.499   3.556  1.00  0.00     0.006 A 
ENDBRANCH  48  62
BRANCH  49  70
ATOM     70  C   UNL     1       4.901   8.112  -7.507  1.00  0.00     0.057 A 
ATOM     71  C   UNL     1       5.752   7.876  -8.592  1.00  0.00     0.134 A 
ATOM     72  C   UNL     1       3.561   7.728  -7.644  1.00  0.00     0.134 A 
ATOM     73  F   UNL     1       7.040   8.245  -8.531  1.00  0.00    -0.206 F 
ATOM     74  C   UNL     1       5.290   7.283  -9.769  1.00  0.00     0.040 A 
ATOM     75  C   UNL     1       3.090   7.114  -8.806  1.00  0.00     0.040 A 
ATOM     76  F   UNL     1       2.693   7.928  -6.641  1.00  0.00    -0.206 F 
ATOM     77  C   UNL     1       3.957   6.893  -9.875  1.00  0.00     0.006 A 
ENDBRANCH  49  70
BRANCH  61  78
ATOM     78  C   UNL     1       7.081  14.540  -5.856  1.00  0.00     0.057 A 
ATOM     79  C   UNL     1       6.016  15.326  -6.309  1.00  0.00     0.134 A 
ATOM     80  C   UNL     1       8.380  15.001  -6.109  1.00  0.00     0.134 A 
ATOM     81  F   UNL     1       4.748  14.937  -6.107  1.00  0.00    -0.206 F 
ATOM     82  C   UNL     1       6.236  16.523  -6.995  1.00  0.00     0.040 A 
ATOM     83  C   UNL     1       8.612  16.207  -6.770  1.00  0.00     0.040 A 
ATOM     84  F   UNL     1       9.445  14.299  -5.690  1.00  0.00    -0.206 F 
ATOM     85  C   UNL     1       7.537  16.971  -7.217  1.00  0.00     0.006 A 
ENDBRANCH  61  78
ENDBRANCH  35  36
ENDBRANCH  28  30
ENDBRANCH  27  28
ENDBRANCH  26  27
ENDBRANCH  25  26
ENDBRANCH  24  25
ENDBRANCH  23  24
ENDBRANCH   1  23
TORSDOF 19
