REMARK SMILES Cc1cc(/C=C2\C(=O)N(Cc3ccco3)C(=O)N=C2OCCOCCOC(=O)c2ccc(-c3c4nc(c(-c5c(F)cccc5F)c5ccc([nH]5)c(-c5c(F)cccc5F)c5nc(c(-c6c(F)cccc6F)c6ccc3[nH]6)C=C5)C=C4)cc2)c(C)n1-c1ccc(Cl)c(C(=O)[O-])c1
REMARK SMILES IDX 23 1 22 2 21 3 20 4 19 5 5 6 6 7 7 8 8 9 9 10 18 11 16 12
REMARK SMILES IDX 17 13 4 14 1 15 2 16 3 17 85 18 83 19 84 20 86 21 87 22
REMARK SMILES IDX 95 23 88 24 91 25 89 26 90 27 92 28 93 29 94 30 10 31 11 32
REMARK SMILES IDX 12 33 15 34 13 35 14 36 24 37 25 38 26 39 27 40 28 41 29 42
REMARK SMILES IDX 30 43 82 44 31 45 81 46 32 47 33 48 34 49 75 50 35 51 80 52
REMARK SMILES IDX 74 53 76 54 36 55 79 56 73 57 72 58 37 60 63 61 46 62 62 63
REMARK SMILES IDX 47 64 50 65 61 66 77 67 48 68 49 69 60 71 78 72 51 73 38 74
REMARK SMILES IDX 39 75 44 76 40 77 41 78 43 79 45 80 42 81 64 82 65 83 70 84
REMARK SMILES IDX 66 85 67 86 69 87 71 88 68 89 52 90 53 91 58 92 54 93 55 94
REMARK SMILES IDX 57 95 59 96 56 97
REMARK H PARENT 76 59 50 70
REMARK Flexibility Score: inf
ROOT
ATOM      1  O   UNL     1      -4.321  -1.450  -7.263  1.00  0.00    -0.374 OA
ENDROOT
BRANCH   1   2
ATOM      2  C   UNL     1      -3.669  -2.655  -7.667  1.00  0.00     0.202 C 
BRANCH   2   3
ATOM      3  C   UNL     1      -2.209  -2.481  -8.128  1.00  0.00     0.260 C 
BRANCH   3   4
ATOM      4  O   UNL     1      -1.377  -1.834  -7.139  1.00  0.00    -0.475 OA
BRANCH   4   5
ATOM      5  C   UNL     1      -1.254  -0.487  -7.239  1.00  0.00     0.231 C 
ATOM      6  C   UNL     1      -0.552  -0.372  -4.881  1.00  0.00     0.029 C 
ATOM      7  C   UNL     1      -0.517   0.133  -6.130  1.00  0.00     0.103 C 
ATOM      8  C   UNL     1       0.057   1.453  -6.506  1.00  0.00     0.267 C 
ATOM      9  O   UNL     1       1.122   1.838  -6.116  1.00  0.00    -0.268 OA
ATOM     10  N   UNL     1      -0.820   2.159  -7.327  1.00  0.00    -0.250 N 
ATOM     11  N   UNL     1      -1.761   0.176  -8.219  1.00  0.00    -0.156 NA
ATOM     12  C   UNL     1      -1.734   1.541  -8.161  1.00  0.00     0.354 C 
ATOM     13  O   UNL     1      -2.533   2.201  -8.830  1.00  0.00    -0.245 OA
BRANCH   6  14
ATOM     14  C   UNL     1      -0.139   0.184  -3.617  1.00  0.00    -0.003 A 
ATOM     15  C   UNL     1       1.059  -0.108  -0.096  1.00  0.00     0.065 C 
ATOM     16  C   UNL     1       0.613   0.244  -1.473  1.00  0.00     0.020 A 
ATOM     17  C   UNL     1       0.293  -0.602  -2.518  1.00  0.00     0.031 A 
ATOM     18  N   UNL     1       0.398   1.543  -1.902  1.00  0.00    -0.318 N 
ATOM     19  C   UNL     1      -0.190   1.500  -3.170  1.00  0.00     0.027 A 
ATOM     20  C   UNL     1      -0.627   2.740  -3.869  1.00  0.00     0.065 C 
BRANCH  18  21
ATOM     21  C   UNL     1       0.823   2.729  -1.237  1.00  0.00     0.046 A 
ATOM     22  C   UNL     1      -0.070   3.779  -1.025  1.00  0.00     0.028 A 
ATOM     23  C   UNL     1       2.184   2.896  -0.951  1.00  0.00     0.038 A 
ATOM     24  C   UNL     1       0.411   5.028  -0.638  1.00  0.00     0.023 A 
ATOM     25  C   UNL     1       2.677   4.154  -0.542  1.00  0.00     0.018 A 
ATOM     26  C   UNL     1       1.781   5.229  -0.419  1.00  0.00     0.050 A 
ATOM     27  Cl  UNL     1       2.247   6.845  -0.024  1.00  0.00    -0.084 Cl
BRANCH  25  28
ATOM     28  C   UNL     1       4.137   4.318  -0.298  1.00  0.00     0.073 C 
ATOM     29  O   UNL     1       4.757   5.345  -0.090  1.00  0.00    -0.545 OA
ATOM     30  O   UNL     1       4.791   3.141  -0.310  1.00  0.00    -0.545 OA
ENDBRANCH  25  28
ENDBRANCH  18  21
ENDBRANCH   6  14
BRANCH  10  31
ATOM     31  C   UNL     1      -0.813   3.607  -7.258  1.00  0.00     0.206 C 
BRANCH  31  32
ATOM     32  C   UNL     1      -0.053   4.210  -8.373  1.00  0.00     0.123 A 
ATOM     33  C   UNL     1      -0.339   4.439  -9.701  1.00  0.00     0.047 A 
ATOM     34  O   UNL     1       1.172   4.716  -8.061  1.00  0.00    -0.467 OA
ATOM     35  C   UNL     1       0.785   5.108 -10.236  1.00  0.00     0.042 A 
ATOM     36  C   UNL     1       1.676   5.255  -9.199  1.00  0.00     0.195 A 
ENDBRANCH  31  32
ENDBRANCH  10  31
ENDBRANCH   4   5
ENDBRANCH   3   4
ENDBRANCH   2   3
ENDBRANCH   1   2
BRANCH   1  37
ATOM     37  C   UNL     1      -4.206  -1.124  -5.870  1.00  0.00     0.202 C 
BRANCH  37  38
ATOM     38  C   UNL     1      -5.344  -1.682  -4.985  1.00  0.00     0.261 C 
BRANCH  38  39
ATOM     39  O   UNL     1      -4.912  -2.551  -3.879  1.00  0.00    -0.460 OA
BRANCH  39  40
ATOM     40  C   UNL     1      -5.503  -3.783  -3.820  1.00  0.00     0.338 C 
ATOM     41  O   UNL     1      -6.140  -4.275  -4.742  1.00  0.00    -0.246 OA
BRANCH  40  42
ATOM     42  C   UNL     1      -5.277  -4.573  -2.542  1.00  0.00     0.060 A 
ATOM     43  C   UNL     1      -4.801  -5.868  -2.682  1.00  0.00     0.016 A 
ATOM     44  C   UNL     1      -5.725  -4.224  -1.251  1.00  0.00     0.016 A 
ATOM     45  C   UNL     1      -4.776  -6.764  -1.578  1.00  0.00     0.010 A 
ATOM     46  C   UNL     1      -5.779  -5.183  -0.143  1.00  0.00     0.010 A 
ATOM     47  C   UNL     1      -5.340  -6.510  -0.278  1.00  0.00    -0.014 A 
BRANCH  47  48
ATOM     48  C   UNL     1      -5.728  -7.801   0.595  1.00  0.00     0.031 A 
ATOM     49  C   UNL     1      -6.161  -8.810  -0.418  1.00  0.00     0.074 A 
ATOM     50  C   UNL     1      -5.886  -8.270   1.897  1.00  0.00     0.049 A 
ATOM     51  N   UNL     1      -7.112  -8.543  -1.270  1.00  0.00    -0.248 NA
ATOM     52  C   UNL     1      -5.324  -9.962  -0.767  1.00  0.00     0.031 C 
ATOM     53  C   UNL     1      -5.706  -7.542   3.162  1.00  0.00     0.029 A 
ATOM     54  N   UNL     1      -6.255  -9.557   2.407  1.00  0.00    -0.354 N 
ATOM     55  C   UNL     1      -7.187  -9.636  -2.095  1.00  0.00     0.074 A 
ATOM     56  C   UNL     1      -5.938 -10.351  -1.888  1.00  0.00     0.031 C 
ATOM     57  C   UNL     1      -5.839  -8.369   4.242  1.00  0.00     0.029 A 
ATOM     58  C   UNL     1      -6.186  -9.728   3.830  1.00  0.00     0.049 A 
ATOM     59  H   UNL     1      -6.540 -10.287   1.812  1.00  0.00     0.167 HD
ATOM     60  C   UNL     1      -8.424 -10.144  -2.346  1.00  0.00     0.037 A 
ATOM     61  C   UNL     1      -6.446 -10.829   4.638  1.00  0.00     0.037 A 
ATOM     62  C   UNL     1      -8.635 -11.406  -1.696  1.00  0.00     0.049 A 
ATOM     63  C   UNL     1      -7.271 -11.783   3.883  1.00  0.00     0.074 A 
ATOM     64  C   UNL     1      -7.871 -12.547  -1.548  1.00  0.00     0.029 A 
ATOM     65  N   UNL     1      -9.558 -11.419  -0.673  1.00  0.00    -0.354 N 
ATOM     66  N   UNL     1      -8.550 -11.617   3.752  1.00  0.00    -0.248 NA
ATOM     67  C   UNL     1      -6.750 -13.044   3.360  1.00  0.00     0.031 C 
ATOM     68  C   UNL     1      -8.003 -12.891  -0.181  1.00  0.00     0.029 A 
ATOM     69  C   UNL     1      -9.054 -12.165   0.368  1.00  0.00     0.049 A 
ATOM     70  H   UNL     1     -10.433 -10.969  -0.685  1.00  0.00     0.167 HD
ATOM     71  C   UNL     1      -8.870 -12.446   2.728  1.00  0.00     0.074 A 
ATOM     72  C   UNL     1      -7.847 -13.471   2.729  1.00  0.00     0.031 C 
ATOM     73  C   UNL     1      -9.542 -11.886   1.696  1.00  0.00     0.037 A 
BRANCH  60  74
ATOM     74  C   UNL     1      -9.496  -9.116  -2.550  1.00  0.00     0.057 A 
ATOM     75  C   UNL     1     -10.036  -8.937  -3.825  1.00  0.00     0.134 A 
ATOM     76  C   UNL     1      -9.915  -8.225  -1.546  1.00  0.00     0.134 A 
ATOM     77  F   UNL     1      -9.731  -9.789  -4.816  1.00  0.00    -0.206 F 
ATOM     78  C   UNL     1     -10.895  -7.872  -4.108  1.00  0.00     0.040 A 
ATOM     79  C   UNL     1     -10.725  -7.126  -1.827  1.00  0.00     0.040 A 
ATOM     80  F   UNL     1      -9.546  -8.406  -0.268  1.00  0.00    -0.206 F 
ATOM     81  C   UNL     1     -11.210  -6.941  -3.118  1.00  0.00     0.006 A 
ENDBRANCH  60  74
BRANCH  61  82
ATOM     82  C   UNL     1      -6.309 -11.340   6.083  1.00  0.00     0.057 A 
ATOM     83  C   UNL     1      -7.301 -12.197   6.663  1.00  0.00     0.134 A 
ATOM     84  C   UNL     1      -5.080 -11.384   6.748  1.00  0.00     0.134 A 
ATOM     85  F   UNL     1      -8.552 -12.244   6.185  1.00  0.00    -0.206 F 
ATOM     86  C   UNL     1      -7.056 -13.100   7.712  1.00  0.00     0.040 A 
ATOM     87  C   UNL     1      -4.834 -12.260   7.837  1.00  0.00     0.040 A 
ATOM     88  F   UNL     1      -4.049 -10.652   6.306  1.00  0.00    -0.206 F 
ATOM     89  C   UNL     1      -5.806 -13.148   8.297  1.00  0.00     0.006 A 
ENDBRANCH  61  82
BRANCH  73  90
ATOM     90  C   UNL     1     -10.589 -10.837   2.048  1.00  0.00     0.057 A 
ATOM     91  C   UNL     1     -10.422  -9.715   2.891  1.00  0.00     0.134 A 
ATOM     92  C   UNL     1     -11.883 -11.021   1.546  1.00  0.00     0.134 A 
ATOM     93  F   UNL     1      -9.221  -9.327   3.343  1.00  0.00    -0.206 F 
ATOM     94  C   UNL     1     -11.495  -8.908   3.291  1.00  0.00     0.040 A 
ATOM     95  C   UNL     1     -12.951 -10.183   1.887  1.00  0.00     0.040 A 
ATOM     96  F   UNL     1     -12.134 -12.022   0.689  1.00  0.00    -0.206 F 
ATOM     97  C   UNL     1     -12.767  -9.140   2.788  1.00  0.00     0.006 A 
ENDBRANCH  73  90
ENDBRANCH  47  48
ENDBRANCH  40  42
ENDBRANCH  39  40
ENDBRANCH  38  39
ENDBRANCH  37  38
ENDBRANCH   1  37
TORSDOF 18
