REMARK SMILES CCCC[C@H](C(=O)OCCOCCOC(=O)c1ccc(-c2c3nc(c(-c4c(F)cccc4F)c4ccc([nH]4)c(-c4c(F)cccc4F)c4nc(c(-c5c(F)cccc5F)c5ccc2[nH]5)C=C4)C=C3)cc1)[C@H](O)c1ccc(C(F)(F)F)cc1
REMARK SMILES IDX 10 1 9 2 8 3 6 4 7 5 5 6 4 7 3 8 2 9 1 10 71 11 73 12 74 13
REMARK SMILES IDX 82 14 75 15 81 16 76 17 77 18 78 19 79 20 80 21 72 22 11 24
REMARK SMILES IDX 12 25 13 26 14 27 15 28 16 29 17 30 18 31 70 32 19 33 69 34
REMARK SMILES IDX 20 35 21 36 22 37 63 38 23 39 68 40 62 41 64 42 24 43 67 44
REMARK SMILES IDX 61 45 60 46 25 48 51 49 34 50 50 51 35 52 38 53 49 54 65 55
REMARK SMILES IDX 36 56 37 57 48 59 66 60 39 61 26 62 27 63 32 64 28 65 29 66
REMARK SMILES IDX 31 67 33 68 30 69 52 70 53 71 58 72 54 73 55 74 57 75 59 76
REMARK SMILES IDX 56 77 40 78 41 79 46 80 42 81 43 82 45 83 47 84 44 85
REMARK H PARENT 72 23 64 47 38 58
REMARK Flexibility Score: inf
ROOT
ATOM      1  C   UNL     1      -1.307   8.185  -0.045  1.00  0.00     0.202 C 
ENDROOT
BRANCH   1   2
ATOM      2  C   UNL     1      -0.557   7.029  -0.712  1.00  0.00     0.261 C 
BRANCH   2   3
ATOM      3  O   UNL     1      -1.159   5.735  -0.501  1.00  0.00    -0.463 OA
BRANCH   3   4
ATOM      4  C   UNL     1      -0.424   4.868   0.254  1.00  0.00     0.312 C 
ATOM      5  O   UNL     1       0.536   5.193   0.942  1.00  0.00    -0.252 OA
BRANCH   4   6
ATOM      6  C   UNL     1      -0.941   3.442   0.142  1.00  0.00     0.132 C 
BRANCH   6   7
ATOM      7  C   UNL     1       0.237   2.550  -0.321  1.00  0.00     0.018 C 
BRANCH   7   8
ATOM      8  C   UNL     1       0.387   2.384  -1.843  1.00  0.00     0.001 C 
BRANCH   8   9
ATOM      9  C   UNL     1       0.379   3.643  -2.710  1.00  0.00    -0.003 C 
ATOM     10  C   UNL     1       1.586   4.545  -2.513  1.00  0.00     0.004 C 
ENDBRANCH   8   9
ENDBRANCH   7   8
ENDBRANCH   6   7
BRANCH   6  11
ATOM     11  C   UNL     1      -1.530   3.095   1.538  1.00  0.00     0.158 C 
BRANCH  11  12
ATOM     12  C   UNL     1      -3.043   2.881   1.533  1.00  0.00    -0.019 A 
ATOM     13  C   UNL     1      -3.890   3.956   1.226  1.00  0.00     0.007 A 
ATOM     14  C   UNL     1      -3.637   1.664   1.901  1.00  0.00     0.007 A 
ATOM     15  C   UNL     1      -5.278   3.845   1.345  1.00  0.00     0.013 A 
ATOM     16  C   UNL     1      -5.028   1.547   2.016  1.00  0.00     0.013 A 
ATOM     17  C   UNL     1      -5.863   2.640   1.752  1.00  0.00     0.056 A 
BRANCH  17  18
ATOM     18  C   UNL     1      -7.357   2.552   1.946  1.00  0.00     0.416 C 
ATOM     19  F   UNL     1      -7.757   3.106   3.124  1.00  0.00    -0.166 F 
ATOM     20  F   UNL     1      -8.054   3.203   0.972  1.00  0.00    -0.166 F 
ATOM     21  F   UNL     1      -7.831   1.275   1.953  1.00  0.00    -0.166 F 
ENDBRANCH  17  18
ENDBRANCH  11  12
BRANCH  11  22
ATOM     22  O   UNL     1      -0.874   1.974   2.132  1.00  0.00    -0.388 OA
ATOM     23  H   UNL     1      -1.037   1.182   1.597  1.00  0.00     0.211 HD
ENDBRANCH  11  22
ENDBRANCH   6  11
ENDBRANCH   4   6
ENDBRANCH   3   4
ENDBRANCH   2   3
ENDBRANCH   1   2
BRANCH   1  24
ATOM     24  O   UNL     1      -1.195   8.265   1.375  1.00  0.00    -0.374 OA
BRANCH  24  25
ATOM     25  C   UNL     1      -1.966   7.347   2.150  1.00  0.00     0.202 C 
BRANCH  25  26
ATOM     26  C   UNL     1      -3.471   7.626   2.153  1.00  0.00     0.261 C 
BRANCH  26  27
ATOM     27  O   UNL     1      -4.005   7.389   0.841  1.00  0.00    -0.460 OA
BRANCH  27  28
ATOM     28  C   UNL     1      -5.257   7.858   0.657  1.00  0.00     0.338 C 
ATOM     29  O   UNL     1      -6.047   8.214   1.509  1.00  0.00    -0.246 OA
BRANCH  28  30
ATOM     30  C   UNL     1      -5.486   7.988  -0.790  1.00  0.00     0.060 A 
ATOM     31  C   UNL     1      -5.079   9.167  -1.423  1.00  0.00     0.016 A 
ATOM     32  C   UNL     1      -6.192   7.008  -1.487  1.00  0.00     0.016 A 
ATOM     33  C   UNL     1      -5.441   9.397  -2.750  1.00  0.00     0.010 A 
ATOM     34  C   UNL     1      -6.537   7.233  -2.824  1.00  0.00     0.010 A 
ATOM     35  C   UNL     1      -6.207   8.449  -3.447  1.00  0.00    -0.014 A 
BRANCH  35  36
ATOM     36  C   UNL     1      -6.778   8.807  -4.769  1.00  0.00     0.031 A 
ATOM     37  C   UNL     1      -8.212   9.257  -4.857  1.00  0.00     0.074 A 
ATOM     38  C   UNL     1      -6.019   8.780  -5.879  1.00  0.00     0.049 A 
ATOM     39  N   UNL     1      -8.881   9.697  -5.893  1.00  0.00    -0.248 NA
ATOM     40  C   UNL     1      -8.997   9.204  -3.613  1.00  0.00     0.031 C 
ATOM     41  C   UNL     1      -4.620   8.363  -5.937  1.00  0.00     0.029 A 
ATOM     42  N   UNL     1      -6.326   9.120  -7.173  1.00  0.00    -0.354 N 
ATOM     43  C   UNL     1     -10.158   9.980  -5.426  1.00  0.00     0.074 A 
ATOM     44  C   UNL     1     -10.184   9.624  -4.024  1.00  0.00     0.031 C 
ATOM     45  C   UNL     1      -4.185   8.476  -7.204  1.00  0.00     0.029 A 
ATOM     46  C   UNL     1      -5.277   8.966  -8.045  1.00  0.00     0.049 A 
ATOM     47  H   UNL     1      -7.213   9.443  -7.450  1.00  0.00     0.167 HD
ATOM     48  C   UNL     1     -11.210  10.507  -6.097  1.00  0.00     0.037 A 
ATOM     49  C   UNL     1      -5.204   9.197  -9.370  1.00  0.00     0.037 A 
ATOM     50  C   UNL     1     -11.195  10.867  -7.489  1.00  0.00     0.049 A 
ATOM     51  C   UNL     1      -6.397   9.749 -10.101  1.00  0.00     0.074 A 
ATOM     52  C   UNL     1     -12.201  11.450  -8.241  1.00  0.00     0.029 A 
ATOM     53  N   UNL     1     -10.123  10.668  -8.343  1.00  0.00    -0.354 N 
ATOM     54  N   UNL     1      -7.576  10.076  -9.633  1.00  0.00    -0.248 NA
ATOM     55  C   UNL     1      -6.241   9.975 -11.547  1.00  0.00     0.031 C 
ATOM     56  C   UNL     1     -11.751  11.567  -9.561  1.00  0.00     0.029 A 
ATOM     57  C   UNL     1     -10.452  11.091  -9.621  1.00  0.00     0.049 A 
ATOM     58  H   UNL     1      -9.256  10.282  -8.081  1.00  0.00     0.167 HD
ATOM     59  C   UNL     1      -8.296  10.562 -10.718  1.00  0.00     0.074 A 
ATOM     60  C   UNL     1      -7.415  10.502 -11.866  1.00  0.00     0.031 C 
ATOM     61  C   UNL     1      -9.571  11.020 -10.758  1.00  0.00     0.037 A 
BRANCH  48  62
ATOM     62  C   UNL     1     -12.476  10.723  -5.324  1.00  0.00     0.057 A 
ATOM     63  C   UNL     1     -12.605  11.769  -4.401  1.00  0.00     0.134 A 
ATOM     64  C   UNL     1     -13.588   9.896  -5.527  1.00  0.00     0.134 A 
ATOM     65  F   UNL     1     -11.570  12.586  -4.153  1.00  0.00    -0.206 F 
ATOM     66  C   UNL     1     -13.790  11.974  -3.692  1.00  0.00     0.040 A 
ATOM     67  C   UNL     1     -14.784  10.104  -4.839  1.00  0.00     0.040 A 
ATOM     68  F   UNL     1     -13.530   8.879  -6.400  1.00  0.00    -0.206 F 
ATOM     69  C   UNL     1     -14.886  11.142  -3.916  1.00  0.00     0.006 A 
ENDBRANCH  48  62
BRANCH  49  70
ATOM     70  C   UNL     1      -3.941   8.922 -10.096  1.00  0.00     0.057 A 
ATOM     71  C   UNL     1      -3.126   9.963 -10.553  1.00  0.00     0.134 A 
ATOM     72  C   UNL     1      -3.527   7.611 -10.359  1.00  0.00     0.134 A 
ATOM     73  F   UNL     1      -3.485  11.239 -10.349  1.00  0.00    -0.206 F 
ATOM     74  C   UNL     1      -1.947   9.712 -11.256  1.00  0.00     0.040 A 
ATOM     75  C   UNL     1      -2.341   7.345 -11.044  1.00  0.00     0.040 A 
ATOM     76  F   UNL     1      -4.267   6.572  -9.946  1.00  0.00    -0.206 F 
ATOM     77  C   UNL     1      -1.550   8.398 -11.499  1.00  0.00     0.006 A 
ENDBRANCH  49  70
BRANCH  61  78
ATOM     78  C   UNL     1     -10.086  11.501 -12.082  1.00  0.00     0.057 A 
ATOM     79  C   UNL     1     -10.426  10.609 -13.106  1.00  0.00     0.134 A 
ATOM     80  C   UNL     1     -10.271  12.868 -12.324  1.00  0.00     0.134 A 
ATOM     81  F   UNL     1     -10.261   9.289 -12.940  1.00  0.00    -0.206 F 
ATOM     82  C   UNL     1     -10.912  11.062 -14.335  1.00  0.00     0.040 A 
ATOM     83  C   UNL     1     -10.775  13.331 -13.541  1.00  0.00     0.040 A 
ATOM     84  F   UNL     1      -9.971  13.774 -11.382  1.00  0.00    -0.206 F 
ATOM     85  C   UNL     1     -11.092  12.426 -14.552  1.00  0.00     0.006 A 
ENDBRANCH  61  78
ENDBRANCH  35  36
ENDBRANCH  28  30
ENDBRANCH  27  28
ENDBRANCH  26  27
ENDBRANCH  25  26
ENDBRANCH  24  25
ENDBRANCH   1  24
TORSDOF 21
