REMARK SMILES COc1cc(NC(=O)[C@@H]2[C@@H](C(=O)OCCOCCOC(=O)c3ccc(-c4c5nc(c(-c6c(F)cccc6F)c6ccc([nH]6)c(-c6c(F)cccc6F)c6nc(c(-c7c(F)cccc7F)c7ccc4[nH]7)C=C6)C=C5)cc3)[C@H]3C=C[C@@H]2C3)ccc1NC(=O)c1ccccc1
REMARK SMILES IDX 15 1 14 2 13 3 11 4 12 5 10 6 9 7 79 8 76 9 78 10 80 11
REMARK SMILES IDX 77 12 7 13 6 14 8 16 5 17 3 18 4 19 83 20 82 21 81 22 2 23
REMARK SMILES IDX 1 24 84 25 85 26 86 28 87 29 88 30 92 31 89 32 91 33 90 34
REMARK SMILES IDX 16 35 17 36 18 37 19 38 20 39 21 40 22 41 23 42 75 43 24 44
REMARK SMILES IDX 74 45 25 46 26 47 27 48 68 49 28 50 73 51 67 52 69 53 29 54
REMARK SMILES IDX 72 55 66 56 65 57 30 59 56 60 39 61 55 62 40 63 43 64 54 65
REMARK SMILES IDX 70 66 41 67 42 68 53 70 71 71 44 72 31 73 32 74 37 75 33 76
REMARK SMILES IDX 34 77 36 78 38 79 35 80 57 81 58 82 63 83 59 84 60 85 62 86
REMARK SMILES IDX 64 87 61 88 45 89 46 90 51 91 47 92 48 93 50 94 52 95 49 96
REMARK H PARENT 6 15 84 27 69 58 43 69
REMARK Flexibility Score: inf
ROOT
ATOM      1  C   UNL     1       1.119  -0.422  -0.043  1.00  0.00     0.202 C 
ENDROOT
BRANCH   1   2
ATOM      2  C   UNL     1       0.935   0.774   1.201  1.00  0.00     0.261 C 
BRANCH   2   3
ATOM      3  O   UNL     1       0.441   0.373   2.619  1.00  0.00    -0.463 OA
BRANCH   3   4
ATOM      4  C   UNL     1      -0.409   1.107   3.419  1.00  0.00     0.310 C 
ATOM      5  O   UNL     1      -0.482   2.327   3.267  1.00  0.00    -0.252 OA
BRANCH   4   6
ATOM      6  C   UNL     1      -1.352   0.318   4.575  1.00  0.00     0.119 C 
ATOM      7  C   UNL     1      -2.288  -1.048   4.515  1.00  0.00     0.100 C 
ATOM      8  C   UNL     1      -3.743  -0.529   4.721  1.00  0.00     0.025 C 
ATOM      9  C   UNL     1      -2.537   1.343   4.847  1.00  0.00     0.027 C 
ATOM     10  C   UNL     1      -4.142   0.299   3.536  1.00  0.00    -0.027 C 
ATOM     11  C   UNL     1      -3.500   0.567   5.747  1.00  0.00     0.017 C 
ATOM     12  C   UNL     1      -3.430   1.429   3.612  1.00  0.00    -0.027 C 
BRANCH   7  13
ATOM     13  C   UNL     1      -2.177  -2.186   5.609  1.00  0.00     0.228 C 
ATOM     14  N   UNL     1      -1.257  -3.194   5.552  1.00  0.00    -0.326 N 
ATOM     15  H   UNL     1      -1.343  -3.939   6.189  1.00  0.00     0.169 HD
ATOM     16  O   UNL     1      -2.944  -2.248   6.576  1.00  0.00    -0.274 OA
BRANCH  14  17
ATOM     17  C   UNL     1      -0.220  -3.223   4.654  1.00  0.00     0.045 A 
ATOM     18  C   UNL     1       0.365  -2.215   2.628  1.00  0.00     0.144 A 
ATOM     19  C   UNL     1      -0.515  -2.975   3.336  1.00  0.00     0.074 A 
ATOM     20  C   UNL     1       1.728  -2.118   3.091  1.00  0.00     0.084 A 
ATOM     21  C   UNL     1       2.012  -2.532   4.396  1.00  0.00     0.032 A 
ATOM     22  C   UNL     1       1.050  -3.116   5.182  1.00  0.00     0.028 A 
BRANCH  18  23
ATOM     23  O   UNL     1      -0.191  -1.604   1.537  1.00  0.00    -0.494 OA
ATOM     24  C   UNL     1      -1.472  -0.878   1.445  1.00  0.00     0.278 C 
ENDBRANCH  18  23
BRANCH  20  25
ATOM     25  N   UNL     1       2.825  -1.542   2.402  1.00  0.00    -0.319 N 
ATOM     26  C   UNL     1       4.197  -1.631   2.615  1.00  0.00     0.255 C 
ATOM     27  H   UNL     1       2.571  -0.977   1.636  1.00  0.00     0.170 HD
ATOM     28  O   UNL     1       4.903  -0.715   2.184  1.00  0.00    -0.269 OA
BRANCH  26  29
ATOM     29  C   UNL     1       4.862  -2.821   3.251  1.00  0.00     0.040 A 
ATOM     30  C   UNL     1       6.167  -2.700   3.747  1.00  0.00     0.014 A 
ATOM     31  C   UNL     1       4.267  -4.086   3.282  1.00  0.00     0.014 A 
ATOM     32  C   UNL     1       6.857  -3.824   4.222  1.00  0.00     0.001 A 
ATOM     33  C   UNL     1       4.936  -5.198   3.799  1.00  0.00     0.001 A 
ATOM     34  C   UNL     1       6.243  -5.072   4.247  1.00  0.00     0.000 A 
ENDBRANCH  26  29
ENDBRANCH  20  25
ENDBRANCH  14  17
ENDBRANCH   7  13
ENDBRANCH   4   6
ENDBRANCH   3   4
ENDBRANCH   2   3
ENDBRANCH   1   2
BRANCH   1  35
ATOM     35  O   UNL     1       0.035  -0.681  -0.974  1.00  0.00    -0.374 OA
BRANCH  35  36
ATOM     36  C   UNL     1      -0.813  -1.864  -1.139  1.00  0.00     0.202 C 
BRANCH  36  37
ATOM     37  C   UNL     1      -0.874  -3.240  -0.381  1.00  0.00     0.261 C 
BRANCH  37  38
ATOM     38  O   UNL     1       0.385  -3.803  -0.080  1.00  0.00    -0.460 OA
BRANCH  38  39
ATOM     39  C   UNL     1       1.017  -4.242  -1.185  1.00  0.00     0.338 C 
ATOM     40  O   UNL     1       0.580  -4.370  -2.301  1.00  0.00    -0.246 OA
BRANCH  39  41
ATOM     41  C   UNL     1       2.424  -4.309  -0.809  1.00  0.00     0.060 A 
ATOM     42  C   UNL     1       3.297  -3.430  -1.450  1.00  0.00     0.016 A 
ATOM     43  C   UNL     1       2.855  -5.201   0.162  1.00  0.00     0.016 A 
ATOM     44  C   UNL     1       4.657  -3.490  -1.171  1.00  0.00     0.010 A 
ATOM     45  C   UNL     1       4.212  -5.239   0.445  1.00  0.00     0.010 A 
ATOM     46  C   UNL     1       5.133  -4.415  -0.240  1.00  0.00    -0.014 A 
BRANCH  46  47
ATOM     47  C   UNL     1       6.585  -4.684  -0.065  1.00  0.00     0.031 A 
ATOM     48  C   UNL     1       7.068  -6.088  -0.315  1.00  0.00     0.074 A 
ATOM     49  C   UNL     1       7.458  -3.748   0.356  1.00  0.00     0.049 A 
ATOM     50  N   UNL     1       8.239  -6.619  -0.081  1.00  0.00    -0.248 NA
ATOM     51  C   UNL     1       6.088  -7.033  -0.887  1.00  0.00     0.031 C 
ATOM     52  C   UNL     1       7.166  -2.337   0.593  1.00  0.00     0.029 A 
ATOM     53  N   UNL     1       8.775  -3.875   0.731  1.00  0.00    -0.354 N 
ATOM     54  C   UNL     1       8.134  -7.933  -0.510  1.00  0.00     0.074 A 
ATOM     55  C   UNL     1       6.748  -8.176  -0.831  1.00  0.00     0.031 C 
ATOM     56  C   UNL     1       8.225  -1.758   1.186  1.00  0.00     0.029 A 
ATOM     57  C   UNL     1       9.275  -2.752   1.351  1.00  0.00     0.049 A 
ATOM     58  H   UNL     1       9.307  -4.688   0.572  1.00  0.00     0.167 HD
ATOM     59  C   UNL     1       9.120  -8.828  -0.743  1.00  0.00     0.037 A 
ATOM     60  C   UNL     1      10.441  -2.561   1.997  1.00  0.00     0.037 A 
ATOM     61  C   UNL     1      10.505  -8.570  -0.480  1.00  0.00     0.049 A 
ATOM     62  C   UNL     1      11.496  -3.626   1.911  1.00  0.00     0.074 A 
ATOM     63  C   UNL     1      11.600  -9.361  -0.771  1.00  0.00     0.029 A 
ATOM     64  N   UNL     1      10.982  -7.428   0.142  1.00  0.00    -0.354 N 
ATOM     65  N   UNL     1      11.421  -4.824   1.385  1.00  0.00    -0.248 NA
ATOM     66  C   UNL     1      12.828  -3.279   2.426  1.00  0.00     0.031 C 
ATOM     67  C   UNL     1      12.738  -8.720  -0.272  1.00  0.00     0.029 A 
ATOM     68  C   UNL     1      12.355  -7.507   0.280  1.00  0.00     0.049 A 
ATOM     69  H   UNL     1      10.425  -6.672   0.442  1.00  0.00     0.167 HD
ATOM     70  C   UNL     1      12.715  -5.328   1.405  1.00  0.00     0.074 A 
ATOM     71  C   UNL     1      13.543  -4.326   2.042  1.00  0.00     0.031 C 
ATOM     72  C   UNL     1      13.178  -6.495   0.893  1.00  0.00     0.037 A 
BRANCH  59  73
ATOM     73  C   UNL     1       8.714 -10.124  -1.376  1.00  0.00     0.057 A 
ATOM     74  C   UNL     1       8.207 -10.170  -2.685  1.00  0.00     0.134 A 
ATOM     75  C   UNL     1       8.794 -11.327  -0.671  1.00  0.00     0.134 A 
ATOM     76  F   UNL     1       8.085  -9.046  -3.409  1.00  0.00    -0.206 F 
ATOM     77  C   UNL     1       7.745 -11.359  -3.249  1.00  0.00     0.040 A 
ATOM     78  C   UNL     1       8.369 -12.529  -1.238  1.00  0.00     0.040 A 
ATOM     79  F   UNL     1       9.270 -11.352   0.583  1.00  0.00    -0.206 F 
ATOM     80  C   UNL     1       7.831 -12.545  -2.524  1.00  0.00     0.006 A 
ENDBRANCH  59  73
BRANCH  60  81
ATOM     81  C   UNL     1      10.713  -1.292   2.719  1.00  0.00     0.057 A 
ATOM     82  C   UNL     1      11.548  -0.311   2.176  1.00  0.00     0.134 A 
ATOM     83  C   UNL     1      10.199  -1.061   4.001  1.00  0.00     0.134 A 
ATOM     84  F   UNL     1      12.096  -0.490   0.966  1.00  0.00    -0.206 F 
ATOM     85  C   UNL     1      11.887   0.840   2.891  1.00  0.00     0.040 A 
ATOM     86  C   UNL     1      10.512   0.095   4.720  1.00  0.00     0.040 A 
ATOM     87  F   UNL     1       9.411  -1.968   4.591  1.00  0.00    -0.206 F 
ATOM     88  C   UNL     1      11.368   1.045   4.168  1.00  0.00     0.006 A 
ENDBRANCH  60  81
BRANCH  72  89
ATOM     89  C   UNL     1      14.660  -6.721   0.910  1.00  0.00     0.057 A 
ATOM     90  C   UNL     1      15.367  -6.975   2.090  1.00  0.00     0.134 A 
ATOM     91  C   UNL     1      15.381  -6.733  -0.293  1.00  0.00     0.134 A 
ATOM     92  F   UNL     1      14.739  -6.962   3.276  1.00  0.00    -0.206 F 
ATOM     93  C   UNL     1      16.742  -7.212   2.076  1.00  0.00     0.040 A 
ATOM     94  C   UNL     1      16.748  -7.003  -0.323  1.00  0.00     0.040 A 
ATOM     95  F   UNL     1      14.762  -6.504  -1.462  1.00  0.00    -0.206 F 
ATOM     96  C   UNL     1      17.434  -7.237   0.866  1.00  0.00     0.006 A 
ENDBRANCH  72  89
ENDBRANCH  46  47
ENDBRANCH  39  41
ENDBRANCH  38  39
ENDBRANCH  37  38
ENDBRANCH  36  37
ENDBRANCH  35  36
ENDBRANCH   1  35
TORSDOF 19
