REMARK SMILES CC(=O)Nc1cccc(-c2ccc(F)c(C(=O)OCCOCCOC(=O)c3ccc(-c4c5nc(c(-c6c(F)cccc6F)c6ccc([nH]6)c(-c6c(F)cccc6F)c6nc(c(-c7c(F)cccc7F)c7ccc4[nH]7)C=C6)C=C5)cc3)c2)c1
REMARK SMILES IDX 21 1 20 2 19 3 18 4 16 5 17 6 15 7 10 8 11 9 81 10 12 11
REMARK SMILES IDX 13 12 14 13 9 14 5 15 6 16 82 17 7 18 8 19 4 20 1 21 2 22
REMARK SMILES IDX 3 23 22 25 23 26 24 27 25 28 26 29 27 30 28 31 80 32 29 33
REMARK SMILES IDX 79 34 30 35 31 36 32 37 73 38 33 39 78 40 72 41 74 42 34 43
REMARK SMILES IDX 77 44 71 45 70 46 35 48 61 49 44 50 60 51 45 52 48 53 59 54
REMARK SMILES IDX 75 55 46 56 47 57 58 59 76 60 49 61 36 62 37 63 42 64 38 65
REMARK SMILES IDX 39 66 41 67 43 68 40 69 62 70 63 71 68 72 64 73 65 74 67 75
REMARK SMILES IDX 69 76 66 77 50 78 51 79 56 80 52 81 53 82 55 83 57 84 54 85
REMARK H PARENT 4 24 74 47 48 58
REMARK Flexibility Score: inf
ROOT
ATOM      1  O   UNL     1      10.557  -1.421   1.448  1.00  0.00    -0.374 OA
ENDROOT
BRANCH   1   2
ATOM      2  C   UNL     1       9.879  -0.577   2.379  1.00  0.00     0.202 C 
BRANCH   2   3
ATOM      3  C   UNL     1       8.826   0.375   1.803  1.00  0.00     0.261 C 
BRANCH   3   4
ATOM      4  O   UNL     1       7.737  -0.360   1.220  1.00  0.00    -0.460 OA
BRANCH   4   5
ATOM      5  C   UNL     1       7.557  -0.173  -0.112  1.00  0.00     0.341 C 
ATOM      6  O   UNL     1       8.079   0.680  -0.807  1.00  0.00    -0.246 OA
BRANCH   5   7
ATOM      7  C   UNL     1       6.701  -1.255  -0.635  1.00  0.00     0.096 A 
ATOM      8  C   UNL     1       4.756  -2.726  -0.459  1.00  0.00    -0.017 A 
ATOM      9  C   UNL     1       5.118  -3.298  -1.691  1.00  0.00     0.012 A 
ATOM     10  C   UNL     1       5.579  -1.711   0.070  1.00  0.00     0.027 A 
ATOM     11  C   UNL     1       6.255  -2.866  -2.378  1.00  0.00     0.041 A 
ATOM     12  C   UNL     1       7.035  -1.844  -1.851  1.00  0.00     0.137 A 
ATOM     13  F   UNL     1       8.137  -1.476  -2.520  1.00  0.00    -0.206 F 
BRANCH   8  14
ATOM     14  C   UNL     1       3.519  -3.129   0.234  1.00  0.00    -0.016 A 
ATOM     15  C   UNL     1       1.442  -2.476   1.359  1.00  0.00     0.041 A 
ATOM     16  C   UNL     1       1.165  -3.819   1.615  1.00  0.00     0.026 A 
ATOM     17  C   UNL     1       2.625  -2.146   0.697  1.00  0.00     0.034 A 
ATOM     18  C   UNL     1       2.022  -4.816   1.145  1.00  0.00     0.003 A 
ATOM     19  C   UNL     1       3.187  -4.473   0.452  1.00  0.00     0.009 A 
BRANCH  15  20
ATOM     20  N   UNL     1       0.541  -1.512   1.838  1.00  0.00    -0.326 N 
ATOM     21  C   UNL     1       0.760   0.223   0.061  1.00  0.00     0.114 C 
ATOM     22  C   UNL     1       0.293  -0.234   1.419  1.00  0.00     0.221 C 
ATOM     23  O   UNL     1      -0.377   0.512   2.136  1.00  0.00    -0.275 OA
ATOM     24  H   UNL     1      -0.004  -1.806   2.604  1.00  0.00     0.169 HD
ENDBRANCH  15  20
ENDBRANCH   8  14
ENDBRANCH   5   7
ENDBRANCH   4   5
ENDBRANCH   3   4
ENDBRANCH   2   3
ENDBRANCH   1   2
BRANCH   1  25
ATOM     25  C   UNL     1       9.855  -2.560   0.954  1.00  0.00     0.202 C 
BRANCH  25  26
ATOM     26  C   UNL     1       9.769  -3.781   1.878  1.00  0.00     0.261 C 
BRANCH  26  27
ATOM     27  O   UNL     1       9.063  -3.504   3.099  1.00  0.00    -0.460 OA
BRANCH  27  28
ATOM     28  C   UNL     1       9.853  -3.432   4.198  1.00  0.00     0.338 C 
ATOM     29  O   UNL     1      11.051  -3.644   4.266  1.00  0.00    -0.246 OA
BRANCH  28  30
ATOM     30  C   UNL     1       9.088  -2.884   5.334  1.00  0.00     0.060 A 
ATOM     31  C   UNL     1       9.625  -1.773   5.996  1.00  0.00     0.016 A 
ATOM     32  C   UNL     1       7.921  -3.493   5.798  1.00  0.00     0.016 A 
ATOM     33  C   UNL     1       9.025  -1.298   7.159  1.00  0.00     0.010 A 
ATOM     34  C   UNL     1       7.322  -3.018   6.970  1.00  0.00     0.010 A 
ATOM     35  C   UNL     1       7.893  -1.943   7.676  1.00  0.00    -0.014 A 
BRANCH  35  36
ATOM     36  C   UNL     1       7.400  -1.577   9.026  1.00  0.00     0.031 A 
ATOM     37  C   UNL     1       7.750  -2.453  10.197  1.00  0.00     0.074 A 
ATOM     38  C   UNL     1       6.688  -0.452   9.215  1.00  0.00     0.049 A 
ATOM     39  N   UNL     1       7.427  -2.323  11.459  1.00  0.00    -0.248 NA
ATOM     40  C   UNL     1       8.574  -3.636   9.905  1.00  0.00     0.031 C 
ATOM     41  C   UNL     1       6.322   0.501   8.169  1.00  0.00     0.029 A 
ATOM     42  N   UNL     1       6.150   0.078  10.359  1.00  0.00    -0.354 N 
ATOM     43  C   UNL     1       8.008  -3.404  12.111  1.00  0.00     0.074 A 
ATOM     44  C   UNL     1       8.665  -4.203  11.099  1.00  0.00     0.031 C 
ATOM     45  C   UNL     1       5.623   1.506   8.722  1.00  0.00     0.029 A 
ATOM     46  C   UNL     1       5.465   1.250  10.152  1.00  0.00     0.049 A 
ATOM     47  H   UNL     1       6.246  -0.341  11.245  1.00  0.00     0.167 HD
ATOM     48  C   UNL     1       8.007  -3.698  13.433  1.00  0.00     0.037 A 
ATOM     49  C   UNL     1       4.780   2.020  11.019  1.00  0.00     0.037 A 
ATOM     50  C   UNL     1       7.344  -2.907  14.438  1.00  0.00     0.049 A 
ATOM     51  C   UNL     1       4.717   1.624  12.470  1.00  0.00     0.074 A 
ATOM     52  C   UNL     1       7.288  -3.118  15.805  1.00  0.00     0.029 A 
ATOM     53  N   UNL     1       6.615  -1.755  14.182  1.00  0.00    -0.354 N 
ATOM     54  N   UNL     1       5.284   0.611  13.079  1.00  0.00    -0.248 NA
ATOM     55  C   UNL     1       3.918   2.485  13.354  1.00  0.00     0.031 C 
ATOM     56  C   UNL     1       6.481  -2.122  16.369  1.00  0.00     0.029 A 
ATOM     57  C   UNL     1       6.082  -1.259  15.361  1.00  0.00     0.049 A 
ATOM     58  H   UNL     1       6.493  -1.350  13.293  1.00  0.00     0.167 HD
ATOM     59  C   UNL     1       4.941   0.732  14.421  1.00  0.00     0.074 A 
ATOM     60  C   UNL     1       4.125   1.923  14.537  1.00  0.00     0.031 C 
ATOM     61  C   UNL     1       5.275  -0.069  15.464  1.00  0.00     0.037 A 
BRANCH  48  62
ATOM     62  C   UNL     1       8.726  -4.947  13.859  1.00  0.00     0.057 A 
ATOM     63  C   UNL     1      10.123  -5.051  13.813  1.00  0.00     0.134 A 
ATOM     64  C   UNL     1       8.013  -6.057  14.329  1.00  0.00     0.134 A 
ATOM     65  F   UNL     1      10.866  -4.029  13.360  1.00  0.00    -0.206 F 
ATOM     66  C   UNL     1      10.781  -6.224  14.185  1.00  0.00     0.040 A 
ATOM     67  C   UNL     1       8.662  -7.226  14.732  1.00  0.00     0.040 A 
ATOM     68  F   UNL     1       6.674  -6.026  14.405  1.00  0.00    -0.206 F 
ATOM     69  C   UNL     1      10.050  -7.314  14.651  1.00  0.00     0.006 A 
ENDBRANCH  48  62
BRANCH  49  70
ATOM     70  C   UNL     1       4.101   3.252  10.543  1.00  0.00     0.057 A 
ATOM     71  C   UNL     1       4.551   4.519  10.929  1.00  0.00     0.134 A 
ATOM     72  C   UNL     1       2.978   3.192   9.709  1.00  0.00     0.134 A 
ATOM     73  F   UNL     1       5.608   4.640  11.746  1.00  0.00    -0.206 F 
ATOM     74  C   UNL     1       3.901   5.683  10.516  1.00  0.00     0.040 A 
ATOM     75  C   UNL     1       2.333   4.348   9.268  1.00  0.00     0.040 A 
ATOM     76  F   UNL     1       2.497   2.007   9.305  1.00  0.00    -0.206 F 
ATOM     77  C   UNL     1       2.791   5.599   9.678  1.00  0.00     0.006 A 
ENDBRANCH  49  70
BRANCH  61  78
ATOM     78  C   UNL     1       4.793   0.342  16.826  1.00  0.00     0.057 A 
ATOM     79  C   UNL     1       3.443   0.263  17.194  1.00  0.00     0.134 A 
ATOM     80  C   UNL     1       5.698   0.805  17.791  1.00  0.00     0.134 A 
ATOM     81  F   UNL     1       2.523  -0.160  16.314  1.00  0.00    -0.206 F 
ATOM     82  C   UNL     1       3.007   0.658  18.460  1.00  0.00     0.040 A 
ATOM     83  C   UNL     1       5.278   1.175  19.070  1.00  0.00     0.040 A 
ATOM     84  F   UNL     1       7.006   0.897  17.510  1.00  0.00    -0.206 F 
ATOM     85  C   UNL     1       3.927   1.110  19.404  1.00  0.00     0.006 A 
ENDBRANCH  61  78
ENDBRANCH  35  36
ENDBRANCH  28  30
ENDBRANCH  27  28
ENDBRANCH  26  27
ENDBRANCH  25  26
ENDBRANCH   1  25
TORSDOF 16
