REMARK SMILES C[C@H]1C[NH+](CC[C@@H]2CCC[C@]2([NH3+])C(=O)OCCOCCOC(=O)c2ccc(-c3c4nc(c(-c5c(F)cccc5F)c5ccc([nH]5)c(-c5c(F)cccc5F)c5nc(c(-c6c(F)cccc6F)c6ccc3[nH]6)C=C5)C=C4)cc2)C[C@H](C)O1
REMARK SMILES IDX 17 1 16 2 15 3 13 4 14 5 11 6 7 7 8 8 9 9 10 10 6 11 5 12
REMARK SMILES IDX 4 13 1 14 2 15 3 16 81 17 79 18 78 19 80 21 12 22 18 26
REMARK SMILES IDX 19 27 20 28 21 29 22 30 23 31 24 32 25 33 77 34 26 35 76 36
REMARK SMILES IDX 27 37 28 38 29 39 70 40 30 41 75 42 69 43 71 44 31 45 74 46
REMARK SMILES IDX 68 47 67 48 32 50 58 51 41 52 57 53 42 54 45 55 56 56 72 57
REMARK SMILES IDX 43 58 44 59 55 61 73 62 46 63 33 64 34 65 39 66 35 67 36 68
REMARK SMILES IDX 38 69 40 70 37 71 59 72 60 73 65 74 61 75 62 76 64 77 66 78
REMARK SMILES IDX 63 79 47 80 48 81 53 82 49 83 50 84 52 85 54 86 51 87
REMARK H PARENT 4 20 12 23 12 24 12 25 71 49 45 60
REMARK Flexibility Score: inf
ROOT
ATOM      1  C   UNL     1       0.703  -1.041   5.034  1.00  0.00     0.202 C 
ENDROOT
BRANCH   1   2
ATOM      2  C   UNL     1      -0.630  -1.222   5.784  1.00  0.00     0.261 C 
BRANCH   2   3
ATOM      3  O   UNL     1      -1.834  -1.083   4.971  1.00  0.00    -0.459 OA
BRANCH   3   4
ATOM      4  C   UNL     1      -2.438   0.135   5.035  1.00  0.00     0.368 C 
ATOM      5  O   UNL     1      -2.068   0.979   5.857  1.00  0.00    -0.245 OA
BRANCH   4   6
ATOM      6  C   UNL     1      -3.762   0.373   4.165  1.00  0.00     0.195 C 
ATOM      7  C   UNL     1      -4.214   0.001   2.653  1.00  0.00     0.068 C 
ATOM      8  C   UNL     1      -4.957   1.232   2.133  1.00  0.00     0.011 C 
ATOM      9  C   UNL     1      -4.244   2.389   2.773  1.00  0.00     0.008 C 
ATOM     10  C   UNL     1      -3.955   1.936   4.186  1.00  0.00     0.081 C 
BRANCH   7  11
ATOM     11  C   UNL     1      -3.481  -0.771   1.509  1.00  0.00     0.072 C 
BRANCH  11  12
ATOM     12  C   UNL     1      -2.970  -0.228   0.074  1.00  0.00     0.262 C 
BRANCH  12  13
ATOM     13  N   UNL     1      -1.778   0.623  -0.119  1.00  0.00    -0.331 N 
ATOM     14  C   UNL     1       1.924   0.619   0.203  1.00  0.00     0.045 C 
ATOM     15  C   UNL     1       0.732   1.074  -0.646  1.00  0.00     0.170 C 
ATOM     16  C   UNL     1      -0.519   0.108  -0.713  1.00  0.00     0.294 C 
ATOM     17  O   UNL     1       0.380   2.398  -0.219  1.00  0.00    -0.364 OA
ATOM     18  C   UNL     1      -0.819   2.852  -0.861  1.00  0.00     0.170 C 
ATOM     19  C   UNL     1      -2.022   2.038  -0.345  1.00  0.00     0.294 C 
ATOM     20  H   UNL     1      -1.490   0.508   0.852  1.00  0.00     0.348 HD
ATOM     21  C   UNL     1      -0.669   2.857  -2.383  1.00  0.00     0.045 C 
ENDBRANCH  12  13
ENDBRANCH  11  12
ENDBRANCH   7  11
BRANCH   6  22
ATOM     22  N   UNL     1      -4.840  -0.185   5.062  1.00  0.00    -0.343 N 
ATOM     23  H   UNL     1      -5.747  -0.087   4.605  1.00  0.00     0.345 HD
ATOM     24  H   UNL     1      -4.847   0.326   5.944  1.00  0.00     0.345 HD
ATOM     25  H   UNL     1      -4.655  -1.172   5.242  1.00  0.00     0.345 HD
ENDBRANCH   6  22
ENDBRANCH   4   6
ENDBRANCH   3   4
ENDBRANCH   2   3
ENDBRANCH   1   2
BRANCH   1  26
ATOM     26  O   UNL     1       0.957   0.238   4.474  1.00  0.00    -0.374 OA
BRANCH  26  27
ATOM     27  C   UNL     1       0.166   0.655   3.377  1.00  0.00     0.202 C 
BRANCH  27  28
ATOM     28  C   UNL     1      -0.497  -0.417   2.527  1.00  0.00     0.261 C 
BRANCH  28  29
ATOM     29  O   UNL     1       0.295  -1.529   2.127  1.00  0.00    -0.460 OA
BRANCH  29  30
ATOM     30  C   UNL     1      -0.354  -2.467   1.408  1.00  0.00     0.338 C 
ATOM     31  O   UNL     1      -1.413  -2.397   0.785  1.00  0.00    -0.246 OA
BRANCH  30  32
ATOM     32  C   UNL     1       0.300  -3.742   1.450  1.00  0.00     0.060 A 
ATOM     33  C   UNL     1       1.667  -3.818   1.696  1.00  0.00     0.016 A 
ATOM     34  C   UNL     1      -0.512  -4.867   1.235  1.00  0.00     0.016 A 
ATOM     35  C   UNL     1       2.240  -5.064   1.760  1.00  0.00     0.010 A 
ATOM     36  C   UNL     1       0.052  -6.108   1.325  1.00  0.00     0.010 A 
ATOM     37  C   UNL     1       1.420  -6.189   1.606  1.00  0.00    -0.014 A 
BRANCH  37  38
ATOM     38  C   UNL     1       1.962  -7.514   1.848  1.00  0.00     0.031 A 
ATOM     39  C   UNL     1       2.201  -8.399   0.684  1.00  0.00     0.074 A 
ATOM     40  C   UNL     1       2.066  -7.872   3.136  1.00  0.00     0.049 A 
ATOM     41  N   UNL     1       2.527  -9.657   0.677  1.00  0.00    -0.248 NA
ATOM     42  C   UNL     1       2.012  -7.803  -0.652  1.00  0.00     0.031 C 
ATOM     43  C   UNL     1       1.756  -7.006   4.283  1.00  0.00     0.029 A 
ATOM     44  N   UNL     1       2.414  -9.060   3.697  1.00  0.00    -0.354 N 
ATOM     45  C   UNL     1       2.586 -10.010  -0.661  1.00  0.00     0.074 A 
ATOM     46  C   UNL     1       2.216  -8.849  -1.439  1.00  0.00     0.031 C 
ATOM     47  C   UNL     1       1.917  -7.705   5.415  1.00  0.00     0.029 A 
ATOM     48  C   UNL     1       2.301  -9.062   5.064  1.00  0.00     0.049 A 
ATOM     49  H   UNL     1       2.717  -9.838   3.176  1.00  0.00     0.167 HD
ATOM     50  C   UNL     1       2.934 -11.212  -1.167  1.00  0.00     0.037 A 
ATOM     51  C   UNL     1       2.468 -10.082   5.918  1.00  0.00     0.037 A 
ATOM     52  C   UNL     1       3.259 -12.331  -0.323  1.00  0.00     0.049 A 
ATOM     53  C   UNL     1       2.857 -11.402   5.324  1.00  0.00     0.074 A 
ATOM     54  C   UNL     1       3.656 -13.603  -0.682  1.00  0.00     0.029 A 
ATOM     55  N   UNL     1       3.209 -12.299   1.069  1.00  0.00    -0.354 N 
ATOM     56  N   UNL     1       2.985 -11.727   4.057  1.00  0.00    -0.248 NA
ATOM     57  C   UNL     1       3.140 -12.487   6.263  1.00  0.00     0.031 C 
ATOM     58  C   UNL     1       3.810 -14.350   0.492  1.00  0.00     0.029 A 
ATOM     59  C   UNL     1       3.558 -13.531   1.585  1.00  0.00     0.049 A 
ATOM     60  H   UNL     1       2.960 -11.512   1.606  1.00  0.00     0.167 HD
ATOM     61  C   UNL     1       3.388 -13.051   4.042  1.00  0.00     0.074 A 
ATOM     62  C   UNL     1       3.500 -13.456   5.433  1.00  0.00     0.031 C 
ATOM     63  C   UNL     1       3.645 -13.865   2.987  1.00  0.00     0.037 A 
BRANCH  50  64
ATOM     64  C   UNL     1       2.962 -11.353  -2.658  1.00  0.00     0.057 A 
ATOM     65  C   UNL     1       3.907 -10.679  -3.445  1.00  0.00     0.134 A 
ATOM     66  C   UNL     1       2.033 -12.162  -3.322  1.00  0.00     0.134 A 
ATOM     67  F   UNL     1       4.809  -9.864  -2.876  1.00  0.00    -0.206 F 
ATOM     68  C   UNL     1       3.916 -10.790  -4.837  1.00  0.00     0.040 A 
ATOM     69  C   UNL     1       2.048 -12.303  -4.711  1.00  0.00     0.040 A 
ATOM     70  F   UNL     1       1.092 -12.826  -2.634  1.00  0.00    -0.206 F 
ATOM     71  C   UNL     1       2.988 -11.611  -5.473  1.00  0.00     0.006 A 
ENDBRANCH  50  64
BRANCH  51  72
ATOM     72  C   UNL     1       2.302  -9.867   7.373  1.00  0.00     0.057 A 
ATOM     73  C   UNL     1       3.407  -9.876   8.230  1.00  0.00     0.134 A 
ATOM     74  C   UNL     1       1.050  -9.596   7.939  1.00  0.00     0.134 A 
ATOM     75  F   UNL     1       4.634 -10.121   7.746  1.00  0.00    -0.206 F 
ATOM     76  C   UNL     1       3.272  -9.652   9.601  1.00  0.00     0.040 A 
ATOM     77  C   UNL     1       0.902  -9.345   9.304  1.00  0.00     0.040 A 
ATOM     78  F   UNL     1      -0.046  -9.541   7.167  1.00  0.00    -0.206 F 
ATOM     79  C   UNL     1       2.016  -9.382  10.141  1.00  0.00     0.006 A 
ENDBRANCH  51  72
BRANCH  63  80
ATOM     80  C   UNL     1       4.093 -15.251   3.327  1.00  0.00     0.057 A 
ATOM     81  C   UNL     1       3.208 -16.206   3.841  1.00  0.00     0.134 A 
ATOM     82  C   UNL     1       5.422 -15.635   3.113  1.00  0.00     0.134 A 
ATOM     83  F   UNL     1       1.927 -15.886   4.082  1.00  0.00    -0.206 F 
ATOM     84  C   UNL     1       3.638 -17.492   4.159  1.00  0.00     0.040 A 
ATOM     85  C   UNL     1       5.856 -16.928   3.397  1.00  0.00     0.040 A 
ATOM     86  F   UNL     1       6.312 -14.764   2.615  1.00  0.00    -0.206 F 
ATOM     87  C   UNL     1       4.964 -17.857   3.929  1.00  0.00     0.006 A 
ENDBRANCH  63  80
ENDBRANCH  37  38
ENDBRANCH  30  32
ENDBRANCH  29  30
ENDBRANCH  28  29
ENDBRANCH  27  28
ENDBRANCH  26  27
ENDBRANCH   1  26
TORSDOF 18
