REMARK SMILES CC[C@@](C)(NC(=O)Nc1ccccc1C#N)C(=O)OCCOCCOC(=O)c1ccc(-c2c3nc(c(-c4c(F)cccc4F)c4ccc([nH]4)c(-c4c(F)cccc4F)c4nc(c(-c5c(F)cccc5F)c5ccc2[nH]5)C=C4)C=C3)cc1
REMARK SMILES IDX 21 1 20 2 19 3 17 4 18 5 3 6 4 7 2 8 1 9 5 10 6 11 7 13 8 14
REMARK SMILES IDX 9 16 10 17 14 18 11 19 13 20 12 21 15 22 16 23 22 24 23 25
REMARK SMILES IDX 24 26 25 27 26 28 27 29 28 30 29 31 81 32 30 33 80 34 31 35
REMARK SMILES IDX 32 36 33 37 74 38 34 39 79 40 73 41 75 42 35 43 78 44 72 45
REMARK SMILES IDX 71 46 36 48 62 49 45 50 61 51 46 52 49 53 60 54 76 55 47 56
REMARK SMILES IDX 48 57 59 59 77 60 50 61 37 62 38 63 43 64 39 65 40 66 42 67
REMARK SMILES IDX 44 68 41 69 63 70 64 71 69 72 65 73 66 74 68 75 70 76 67 77
REMARK SMILES IDX 51 78 52 79 57 80 53 81 54 82 56 83 58 84 55 85
REMARK H PARENT 5 12 8 15 75 47 49 58
REMARK Flexibility Score: inf
ROOT
ATOM      1  C   UNL     1       4.525  -3.775   1.516  1.00  0.00     0.202 C 
ENDROOT
BRANCH   1   2
ATOM      2  C   UNL     1       3.296  -3.946   2.616  1.00  0.00     0.261 C 
BRANCH   2   3
ATOM      3  O   UNL     1       2.200  -2.843   3.094  1.00  0.00    -0.462 OA
BRANCH   3   4
ATOM      4  C   UNL     1       1.158  -1.917   2.938  1.00  0.00     0.331 C 
ATOM      5  O   UNL     1       1.047  -1.002   3.765  1.00  0.00    -0.249 OA
BRANCH   4   6
ATOM      6  C   UNL     1       0.077  -1.978   1.801  1.00  0.00     0.136 C 
ATOM      7  C   UNL     1      -1.279  -1.929   2.524  1.00  0.00     0.047 C 
BRANCH   6   8
ATOM      8  C   UNL     1      -0.131  -1.117   0.486  1.00  0.00     0.037 C 
ATOM      9  C   UNL     1       0.261   0.336   0.400  1.00  0.00     0.007 C 
ENDBRANCH   6   8
BRANCH   6  10
ATOM     10  N   UNL     1       0.442  -3.241   1.322  1.00  0.00    -0.322 N 
ATOM     11  C   UNL     1       1.568  -3.312   0.608  1.00  0.00     0.320 C 
ATOM     12  H   UNL     1      -0.106  -4.039   1.503  1.00  0.00     0.166 HD
ATOM     13  O   UNL     1       1.704  -4.375   0.008  1.00  0.00    -0.248 OA
ATOM     14  N   UNL     1       2.451  -2.262   0.452  1.00  0.00    -0.307 N 
ATOM     15  H   UNL     1       2.733  -2.340  -0.488  1.00  0.00     0.171 HD
BRANCH  14  16
ATOM     16  C   UNL     1       3.208  -1.075   0.939  1.00  0.00     0.060 A 
ATOM     17  C   UNL     1       3.854  -0.490  -0.182  1.00  0.00     0.027 A 
ATOM     18  C   UNL     1       3.608  -0.472   2.188  1.00  0.00     0.076 A 
ATOM     19  C   UNL     1       4.698   0.624  -0.122  1.00  0.00     0.002 A 
ATOM     20  C   UNL     1       4.324   0.756   2.209  1.00  0.00     0.021 A 
ATOM     21  C   UNL     1       4.886   1.288   1.069  1.00  0.00     0.002 A 
BRANCH  18  22
ATOM     22  C   UNL     1       3.741  -1.013   3.538  1.00  0.00     0.101 C 
ATOM     23  N   UNL     1       3.989  -1.340   4.617  1.00  0.00    -0.192 NA
ENDBRANCH  18  22
ENDBRANCH  14  16
ENDBRANCH   6  10
ENDBRANCH   4   6
ENDBRANCH   3   4
ENDBRANCH   2   3
ENDBRANCH   1   2
BRANCH   1  24
ATOM     24  O   UNL     1       4.272  -3.526   0.125  1.00  0.00    -0.374 OA
BRANCH  24  25
ATOM     25  C   UNL     1       4.528  -4.303  -1.040  1.00  0.00     0.202 C 
BRANCH  25  26
ATOM     26  C   UNL     1       3.846  -5.668  -1.212  1.00  0.00     0.261 C 
BRANCH  26  27
ATOM     27  O   UNL     1       4.049  -6.481  -0.068  1.00  0.00    -0.460 OA
BRANCH  27  28
ATOM     28  C   UNL     1       5.347  -6.819   0.070  1.00  0.00     0.338 C 
ATOM     29  O   UNL     1       6.231  -6.702  -0.761  1.00  0.00    -0.246 OA
BRANCH  28  30
ATOM     30  C   UNL     1       5.591  -7.101   1.487  1.00  0.00     0.060 A 
ATOM     31  C   UNL     1       6.809  -6.647   2.002  1.00  0.00     0.016 A 
ATOM     32  C   UNL     1       4.645  -7.735   2.301  1.00  0.00     0.016 A 
ATOM     33  C   UNL     1       7.141  -6.938   3.309  1.00  0.00     0.010 A 
ATOM     34  C   UNL     1       4.985  -8.038   3.615  1.00  0.00     0.010 A 
ATOM     35  C   UNL     1       6.265  -7.705   4.087  1.00  0.00    -0.014 A 
BRANCH  35  36
ATOM     36  C   UNL     1       6.850  -8.384   5.257  1.00  0.00     0.031 A 
ATOM     37  C   UNL     1       7.342  -9.793   5.072  1.00  0.00     0.074 A 
ATOM     38  C   UNL     1       7.099  -7.702   6.384  1.00  0.00     0.049 A 
ATOM     39  N   UNL     1       8.026 -10.545   5.893  1.00  0.00    -0.248 NA
ATOM     40  C   UNL     1       7.036 -10.435   3.781  1.00  0.00     0.031 C 
ATOM     41  C   UNL     1       6.717  -6.314   6.637  1.00  0.00     0.029 A 
ATOM     42  N   UNL     1       7.764  -8.087   7.516  1.00  0.00    -0.354 N 
ATOM     43  C   UNL     1       8.248 -11.734   5.211  1.00  0.00     0.074 A 
ATOM     44  C   UNL     1       7.581 -11.630   3.934  1.00  0.00     0.031 C 
ATOM     45  C   UNL     1       7.160  -5.960   7.855  1.00  0.00     0.029 A 
ATOM     46  C   UNL     1       7.833  -7.103   8.469  1.00  0.00     0.049 A 
ATOM     47  H   UNL     1       8.155  -8.982   7.635  1.00  0.00     0.167 HD
ATOM     48  C   UNL     1       8.967 -12.810   5.605  1.00  0.00     0.037 A 
ATOM     49  C   UNL     1       8.372  -7.137   9.701  1.00  0.00     0.037 A 
ATOM     50  C   UNL     1       9.614 -12.914   6.885  1.00  0.00     0.049 A 
ATOM     51  C   UNL     1       9.081  -8.386  10.155  1.00  0.00     0.074 A 
ATOM     52  C   UNL     1      10.345 -13.970   7.397  1.00  0.00     0.029 A 
ATOM     53  N   UNL     1       9.598 -11.925   7.858  1.00  0.00    -0.354 N 
ATOM     54  N   UNL     1       9.299  -9.504   9.501  1.00  0.00    -0.248 NA
ATOM     55  C   UNL     1       9.634  -8.371  11.515  1.00  0.00     0.031 C 
ATOM     56  C   UNL     1      10.720 -13.645   8.704  1.00  0.00     0.029 A 
ATOM     57  C   UNL     1      10.286 -12.358   8.980  1.00  0.00     0.049 A 
ATOM     58  H   UNL     1       9.163 -11.047   7.766  1.00  0.00     0.167 HD
ATOM     59  C   UNL     1      10.034 -10.312  10.361  1.00  0.00     0.074 A 
ATOM     60  C   UNL     1      10.251  -9.542  11.568  1.00  0.00     0.031 C 
ATOM     61  C   UNL     1      10.488 -11.578  10.175  1.00  0.00     0.037 A 
BRANCH  48  62
ATOM     62  C   UNL     1       9.061 -13.964   4.651  1.00  0.00     0.057 A 
ATOM     63  C   UNL     1       9.796 -13.884   3.460  1.00  0.00     0.134 A 
ATOM     64  C   UNL     1       8.427 -15.178   4.937  1.00  0.00     0.134 A 
ATOM     65  F   UNL     1      10.409 -12.742   3.112  1.00  0.00    -0.206 F 
ATOM     66  C   UNL     1       9.881 -14.966   2.581  1.00  0.00     0.040 A 
ATOM     67  C   UNL     1       8.530 -16.276   4.082  1.00  0.00     0.040 A 
ATOM     68  F   UNL     1       7.703 -15.322   6.058  1.00  0.00    -0.206 F 
ATOM     69  C   UNL     1       9.254 -16.169   2.897  1.00  0.00     0.006 A 
ENDBRANCH  48  62
BRANCH  49  70
ATOM     70  C   UNL     1       8.233  -5.967  10.606  1.00  0.00     0.057 A 
ATOM     71  C   UNL     1       9.342  -5.238  11.047  1.00  0.00     0.134 A 
ATOM     72  C   UNL     1       6.976  -5.582  11.090  1.00  0.00     0.134 A 
ATOM     73  F   UNL     1      10.576  -5.570  10.638  1.00  0.00    -0.206 F 
ATOM     74  C   UNL     1       9.212  -4.192  11.962  1.00  0.00     0.040 A 
ATOM     75  C   UNL     1       6.827  -4.516  11.976  1.00  0.00     0.040 A 
ATOM     76  F   UNL     1       5.871  -6.239  10.706  1.00  0.00    -0.206 F 
ATOM     77  C   UNL     1       7.950  -3.825  12.425  1.00  0.00     0.006 A 
ENDBRANCH  49  70
BRANCH  61  78
ATOM     78  C   UNL     1      11.291 -12.188  11.290  1.00  0.00     0.057 A 
ATOM     79  C   UNL     1      10.721 -12.510  12.529  1.00  0.00     0.134 A 
ATOM     80  C   UNL     1      12.655 -12.461  11.119  1.00  0.00     0.134 A 
ATOM     81  F   UNL     1       9.421 -12.270  12.764  1.00  0.00    -0.206 F 
ATOM     82  C   UNL     1      11.487 -13.034  13.572  1.00  0.00     0.040 A 
ATOM     83  C   UNL     1      13.422 -13.021  12.142  1.00  0.00     0.040 A 
ATOM     84  F   UNL     1      13.264 -12.196   9.954  1.00  0.00    -0.206 F 
ATOM     85  C   UNL     1      12.842 -13.294  13.378  1.00  0.00     0.006 A 
ENDBRANCH  61  78
ENDBRANCH  35  36
ENDBRANCH  28  30
ENDBRANCH  27  28
ENDBRANCH  26  27
ENDBRANCH  25  26
ENDBRANCH  24  25
ENDBRANCH   1  24
TORSDOF 18
