REMARK SMILES O=C(Nc1ccc(C(=O)OCCOCCOC(=O)c2ccc(-c3c4nc(c(-c5c(F)cccc5F)c5ccc([nH]5)c(-c5c(F)cccc5F)c5nc(c(-c6c(F)cccc6F)c6ccc3[nH]6)C=C5)C=C4)cc2)cc1)c1cc(F)cc(Br)c1
REMARK SMILES IDX 13 1 12 2 11 3 10 4 8 5 9 6 7 7 4 8 5 9 74 10 6 11 73 12
REMARK SMILES IDX 3 13 1 14 2 15 75 17 76 18 82 19 77 20 80 21 78 22 79 23
REMARK SMILES IDX 81 24 14 25 15 26 16 27 17 28 18 29 19 30 20 31 72 32 21 33
REMARK SMILES IDX 71 34 22 35 23 36 24 37 65 38 25 39 70 40 64 41 66 42 26 43
REMARK SMILES IDX 69 44 63 45 62 46 27 48 53 49 36 50 52 51 37 52 40 53 51 54
REMARK SMILES IDX 67 55 38 56 39 57 50 59 68 60 41 61 28 62 29 63 34 64 30 65
REMARK SMILES IDX 31 66 33 67 35 68 32 69 54 70 55 71 60 72 56 73 57 74 59 75
REMARK SMILES IDX 61 76 58 77 42 78 43 79 48 80 44 81 45 82 47 83 49 84 46 85
REMARK H PARENT 3 16 66 47 40 58
REMARK Flexibility Score: inf
ROOT
ATOM      1  O   UNL     1      10.972   2.491   1.686  1.00  0.00    -0.374 OA
ENDROOT
BRANCH   1   2
ATOM      2  C   UNL     1      11.403   1.730   0.558  1.00  0.00     0.202 C 
BRANCH   2   3
ATOM      3  C   UNL     1      10.790   0.335   0.412  1.00  0.00     0.261 C 
BRANCH   3   4
ATOM      4  O   UNL     1       9.375   0.421   0.185  1.00  0.00    -0.460 OA
BRANCH   4   5
ATOM      5  C   UNL     1       8.608   0.026   1.229  1.00  0.00     0.338 C 
ATOM      6  O   UNL     1       8.989  -0.527   2.251  1.00  0.00    -0.246 OA
BRANCH   5   7
ATOM      7  C   UNL     1       7.209   0.470   1.040  1.00  0.00     0.060 A 
ATOM      8  C   UNL     1       4.479   0.965   0.829  1.00  0.00     0.041 A 
ATOM      9  C   UNL     1       5.077   0.966   2.087  1.00  0.00     0.027 A 
ATOM     10  C   UNL     1       5.273   0.909  -0.324  1.00  0.00     0.027 A 
ATOM     11  C   UNL     1       6.438   0.687   2.191  1.00  0.00     0.018 A 
ATOM     12  C   UNL     1       6.641   0.652  -0.223  1.00  0.00     0.018 A 
BRANCH   8  13
ATOM     13  N   UNL     1       3.078   0.887   0.776  1.00  0.00    -0.322 N 
ATOM     14  O   UNL     1       1.090   0.234  -0.114  1.00  0.00    -0.269 OA
ATOM     15  C   UNL     1       2.310   0.105  -0.067  1.00  0.00     0.255 C 
ATOM     16  H   UNL     1       2.586   1.454   1.413  1.00  0.00     0.170 HD
BRANCH  15  17
ATOM     17  C   UNL     1       2.949  -0.973  -0.867  1.00  0.00     0.044 A 
ATOM     18  C   UNL     1       3.865  -1.860  -0.286  1.00  0.00     0.053 A 
ATOM     19  C   UNL     1       2.648  -1.064  -2.229  1.00  0.00     0.029 A 
ATOM     20  C   UNL     1       4.553  -2.753  -1.097  1.00  0.00     0.125 A 
ATOM     21  C   UNL     1       3.336  -1.986  -3.018  1.00  0.00     0.021 A 
ATOM     22  F   UNL     1       5.493  -3.539  -0.558  1.00  0.00    -0.207 F 
ATOM     23  C   UNL     1       4.306  -2.819  -2.462  1.00  0.00     0.055 A 
ATOM     24  Br  UNL     1       2.976  -2.083  -4.870  1.00  0.00    -0.051 Br
ENDBRANCH  15  17
ENDBRANCH   8  13
ENDBRANCH   5   7
ENDBRANCH   4   5
ENDBRANCH   3   4
ENDBRANCH   2   3
ENDBRANCH   1   2
BRANCH   1  25
ATOM     25  C   UNL     1       9.726   3.181   1.573  1.00  0.00     0.202 C 
BRANCH  25  26
ATOM     26  C   UNL     1       9.751   4.507   0.806  1.00  0.00     0.261 C 
BRANCH  26  27
ATOM     27  O   UNL     1      10.012   4.307  -0.596  1.00  0.00    -0.460 OA
BRANCH  27  28
ATOM     28  C   UNL     1      11.226   4.733  -1.012  1.00  0.00     0.338 C 
ATOM     29  O   UNL     1      12.067   5.335  -0.358  1.00  0.00    -0.246 OA
BRANCH  28  30
ATOM     30  C   UNL     1      11.504   4.216  -2.364  1.00  0.00     0.060 A 
ATOM     31  C   UNL     1      12.716   3.541  -2.561  1.00  0.00     0.016 A 
ATOM     32  C   UNL     1      10.635   4.443  -3.433  1.00  0.00     0.016 A 
ATOM     33  C   UNL     1      13.088   3.135  -3.840  1.00  0.00     0.010 A 
ATOM     34  C   UNL     1      11.015   4.042  -4.718  1.00  0.00     0.010 A 
ATOM     35  C   UNL     1      12.258   3.418  -4.932  1.00  0.00    -0.014 A 
BRANCH  35  36
ATOM     36  C   UNL     1      12.756   3.190  -6.309  1.00  0.00     0.031 A 
ATOM     37  C   UNL     1      13.308   4.352  -7.087  1.00  0.00     0.074 A 
ATOM     38  C   UNL     1      12.743   1.959  -6.849  1.00  0.00     0.049 A 
ATOM     39  N   UNL     1      13.761   4.389  -8.314  1.00  0.00    -0.248 NA
ATOM     40  C   UNL     1      13.357   5.645  -6.386  1.00  0.00     0.031 C 
ATOM     41  C   UNL     1      12.275   0.747  -6.181  1.00  0.00     0.029 A 
ATOM     42  N   UNL     1      13.134   1.530  -8.093  1.00  0.00    -0.354 N 
ATOM     43  C   UNL     1      14.144   5.706  -8.534  1.00  0.00     0.074 A 
ATOM     44  C   UNL     1      13.843   6.443  -7.325  1.00  0.00     0.031 C 
ATOM     45  C   UNL     1      12.397  -0.290  -7.026  1.00  0.00     0.029 A 
ATOM     46  C   UNL     1      12.923   0.190  -8.303  1.00  0.00     0.049 A 
ATOM     47  H   UNL     1      13.529   2.127  -8.769  1.00  0.00     0.167 HD
ATOM     48  C   UNL     1      14.706   6.250  -9.639  1.00  0.00     0.037 A 
ATOM     49  C   UNL     1      13.114  -0.557  -9.407  1.00  0.00     0.037 A 
ATOM     50  C   UNL     1      15.004   5.518 -10.842  1.00  0.00     0.049 A 
ATOM     51  C   UNL     1      13.665   0.088 -10.650  1.00  0.00     0.074 A 
ATOM     52  C   UNL     1      15.582   5.978 -12.012  1.00  0.00     0.029 A 
ATOM     53  N   UNL     1      14.740   4.169 -11.029  1.00  0.00    -0.354 N 
ATOM     54  N   UNL     1      14.039   1.330 -10.843  1.00  0.00    -0.248 NA
ATOM     55  C   UNL     1      13.822  -0.775 -11.831  1.00  0.00     0.031 C 
ATOM     56  C   UNL     1      15.628   4.917 -12.923  1.00  0.00     0.029 A 
ATOM     57  C   UNL     1      15.122   3.786 -12.303  1.00  0.00     0.049 A 
ATOM     58  H   UNL     1      14.340   3.573 -10.355  1.00  0.00     0.167 HD
ATOM     59  C   UNL     1      14.500   1.391 -12.153  1.00  0.00     0.074 A 
ATOM     60  C   UNL     1      14.368   0.059 -12.705  1.00  0.00     0.031 C 
ATOM     61  C   UNL     1      14.991   2.454 -12.836  1.00  0.00     0.037 A 
BRANCH  48  62
ATOM     62  C   UNL     1      15.015   7.718  -9.605  1.00  0.00     0.057 A 
ATOM     63  C   UNL     1      16.072   8.233  -8.843  1.00  0.00     0.134 A 
ATOM     64  C   UNL     1      14.264   8.623 -10.365  1.00  0.00     0.134 A 
ATOM     65  F   UNL     1      16.820   7.420  -8.082  1.00  0.00    -0.206 F 
ATOM     66  C   UNL     1      16.358   9.599  -8.823  1.00  0.00     0.040 A 
ATOM     67  C   UNL     1      14.556   9.988 -10.371  1.00  0.00     0.040 A 
ATOM     68  F   UNL     1      13.240   8.195 -11.118  1.00  0.00    -0.206 F 
ATOM     69  C   UNL     1      15.602  10.480  -9.594  1.00  0.00     0.006 A 
ENDBRANCH  48  62
BRANCH  49  70
ATOM     70  C   UNL     1      12.770  -2.000  -9.395  1.00  0.00     0.057 A 
ATOM     71  C   UNL     1      13.765  -2.982  -9.453  1.00  0.00     0.134 A 
ATOM     72  C   UNL     1      11.439  -2.432  -9.344  1.00  0.00     0.134 A 
ATOM     73  F   UNL     1      15.057  -2.630  -9.527  1.00  0.00    -0.206 F 
ATOM     74  C   UNL     1      13.450  -4.342  -9.477  1.00  0.00     0.040 A 
ATOM     75  C   UNL     1      11.110  -3.788  -9.344  1.00  0.00     0.040 A 
ATOM     76  F   UNL     1      10.439  -1.540  -9.287  1.00  0.00    -0.206 F 
ATOM     77  C   UNL     1      12.117  -4.747  -9.417  1.00  0.00     0.006 A 
ENDBRANCH  49  70
BRANCH  61  78
ATOM     78  C   UNL     1      15.456   2.214 -14.243  1.00  0.00     0.057 A 
ATOM     79  C   UNL     1      14.554   2.008 -15.294  1.00  0.00     0.134 A 
ATOM     80  C   UNL     1      16.821   2.235 -14.555  1.00  0.00     0.134 A 
ATOM     81  F   UNL     1      13.234   1.965 -15.060  1.00  0.00    -0.206 F 
ATOM     82  C   UNL     1      14.996   1.811 -16.604  1.00  0.00     0.040 A 
ATOM     83  C   UNL     1      17.274   2.064 -15.864  1.00  0.00     0.040 A 
ATOM     84  F   UNL     1      17.736   2.437 -13.595  1.00  0.00    -0.206 F 
ATOM     85  C   UNL     1      16.360   1.846 -16.892  1.00  0.00     0.006 A 
ENDBRANCH  61  78
ENDBRANCH  35  36
ENDBRANCH  28  30
ENDBRANCH  27  28
ENDBRANCH  26  27
ENDBRANCH  25  26
ENDBRANCH   1  25
TORSDOF 16
