REMARK SMILES Cn1c(=O)c2c(nc(Nc3cccc(Cl)c3Cl)n2CC(=O)OCCOCCOC(=O)c2ccc(-c3c4nc(c(-c5c(F)cccc5F)c5ccc([nH]5)c(-c5c(F)cccc5F)c5nc(c(-c6c(F)cccc6F)c6ccc3[nH]6)C=C5)C=C4)cc2)n(C)c1=O
REMARK SMILES IDX 24 1 23 2 22 3 20 4 21 5 19 6 18 7 1 8 2 9 3 10 87 11 4 12
REMARK SMILES IDX 5 13 85 14 88 15 6 16 86 17 7 18 8 19 9 20 10 22 11 23 16 24
REMARK SMILES IDX 12 25 14 26 17 27 13 28 15 29 25 30 26 31 27 32 28 33 29 34
REMARK SMILES IDX 30 35 31 36 32 37 84 38 33 39 83 40 34 41 35 42 36 43 77 44
REMARK SMILES IDX 37 45 82 46 76 47 78 48 38 49 81 50 75 51 74 52 39 54 65 55
REMARK SMILES IDX 48 56 64 57 49 58 52 59 63 60 79 61 50 62 51 63 62 65 80 66
REMARK SMILES IDX 53 67 40 68 41 69 46 70 42 71 43 72 45 73 47 74 44 75 66 76
REMARK SMILES IDX 67 77 72 78 68 79 69 80 71 81 73 82 70 83 54 84 55 85 60 86
REMARK SMILES IDX 56 87 57 88 59 89 61 90 58 91
REMARK H PARENT 9 21 78 53 52 64
REMARK Flexibility Score: inf
ROOT
ATOM      1  C   UNL     1       3.994   4.226   4.496  1.00  0.00     0.202 C 
ENDROOT
BRANCH   1   2
ATOM      2  C   UNL     1       3.682   5.521   3.730  1.00  0.00     0.261 C 
BRANCH   2   3
ATOM      3  O   UNL     1       2.929   5.307   2.511  1.00  0.00    -0.462 OA
BRANCH   3   4
ATOM      4  C   UNL     1       3.345   6.045   1.442  1.00  0.00     0.326 C 
ATOM      5  O   UNL     1       4.187   6.936   1.514  1.00  0.00    -0.250 OA
BRANCH   4   6
ATOM      6  C   UNL     1       2.855   5.535   0.112  1.00  0.00     0.248 C 
BRANCH   6   7
ATOM      7  N   UNL     1       1.439   5.251  -0.051  1.00  0.00    -0.293 N 
ATOM      8  C   UNL     1       1.168   0.326  -0.447  1.00  0.00     0.159 C 
ATOM      9  N   UNL     1       0.637   1.674  -0.515  1.00  0.00    -0.261 N 
ATOM     10  C   UNL     1       1.539   2.737  -0.597  1.00  0.00     0.282 A 
ATOM     11  C   UNL     1      -0.763   1.796  -0.539  1.00  0.00     0.332 A 
ATOM     12  O   UNL     1       2.732   2.603  -0.840  1.00  0.00    -0.267 OA
ATOM     13  C   UNL     1       0.927   4.001  -0.353  1.00  0.00     0.154 A 
ATOM     14  N   UNL     1      -1.283   3.090  -0.523  1.00  0.00    -0.279 N 
ATOM     15  O   UNL     1      -1.488   0.798  -0.572  1.00  0.00    -0.247 OA
ATOM     16  C   UNL     1      -0.423   4.153  -0.367  1.00  0.00     0.170 A 
ATOM     17  C   UNL     1      -2.715   3.304  -0.631  1.00  0.00     0.157 C 
ATOM     18  N   UNL     1      -0.778   5.447  -0.204  1.00  0.00    -0.194 NA
ATOM     19  C   UNL     1       0.353   6.120  -0.082  1.00  0.00     0.210 A 
BRANCH  19  20
ATOM     20  N   UNL     1       0.340   7.462   0.046  1.00  0.00    -0.324 N 
ATOM     21  H   UNL     1      -0.565   7.835   0.147  1.00  0.00     0.170 HD
BRANCH  20  22
ATOM     22  C   UNL     1       1.349   8.436   0.067  1.00  0.00     0.061 A 
ATOM     23  C   UNL     1       1.364   9.289   1.186  1.00  0.00     0.028 A 
ATOM     24  C   UNL     1       2.270   8.678  -0.973  1.00  0.00     0.083 A 
ATOM     25  C   UNL     1       2.338  10.272   1.334  1.00  0.00     0.004 A 
ATOM     26  C   UNL     1       3.289   9.627  -0.792  1.00  0.00     0.061 A 
ATOM     27  Cl  UNL     1       2.086   7.863  -2.500  1.00  0.00    -0.080 Cl
ATOM     28  C   UNL     1       3.324  10.414   0.363  1.00  0.00     0.022 A 
ATOM     29  Cl  UNL     1       4.547   9.870  -1.954  1.00  0.00    -0.083 Cl
ENDBRANCH  20  22
ENDBRANCH  19  20
ENDBRANCH   6   7
ENDBRANCH   4   6
ENDBRANCH   3   4
ENDBRANCH   2   3
ENDBRANCH   1   2
BRANCH   1  30
ATOM     30  O   UNL     1       4.773   3.231   3.834  1.00  0.00    -0.374 OA
BRANCH  30  31
ATOM     31  C   UNL     1       4.352   2.763   2.562  1.00  0.00     0.202 C 
BRANCH  31  32
ATOM     32  C   UNL     1       3.034   2.004   2.488  1.00  0.00     0.261 C 
BRANCH  32  33
ATOM     33  O   UNL     1       1.914   2.707   3.006  1.00  0.00    -0.460 OA
BRANCH  33  34
ATOM     34  C   UNL     1       1.488   2.229   4.200  1.00  0.00     0.338 C 
ATOM     35  O   UNL     1       2.099   1.496   4.955  1.00  0.00    -0.246 OA
BRANCH  34  36
ATOM     36  C   UNL     1       0.075   2.579   4.386  1.00  0.00     0.060 A 
ATOM     37  C   UNL     1      -0.537   2.068   5.531  1.00  0.00     0.016 A 
ATOM     38  C   UNL     1      -0.668   3.122   3.329  1.00  0.00     0.016 A 
ATOM     39  C   UNL     1      -1.901   1.894   5.518  1.00  0.00     0.010 A 
ATOM     40  C   UNL     1      -2.031   2.937   3.312  1.00  0.00     0.010 A 
ATOM     41  C   UNL     1      -2.615   2.246   4.367  1.00  0.00    -0.014 A 
BRANCH  41  42
ATOM     42  C   UNL     1      -4.028   1.945   4.349  1.00  0.00     0.031 A 
ATOM     43  C   UNL     1      -4.804   2.809   5.262  1.00  0.00     0.074 A 
ATOM     44  C   UNL     1      -4.566   1.011   3.546  1.00  0.00     0.049 A 
ATOM     45  N   UNL     1      -5.371   2.475   6.372  1.00  0.00    -0.248 NA
ATOM     46  C   UNL     1      -4.779   4.258   5.005  1.00  0.00     0.031 C 
ATOM     47  C   UNL     1      -3.952   0.302   2.421  1.00  0.00     0.029 A 
ATOM     48  N   UNL     1      -5.845   0.554   3.536  1.00  0.00    -0.354 N 
ATOM     49  C   UNL     1      -5.950   3.641   6.857  1.00  0.00     0.074 A 
ATOM     50  C   UNL     1      -5.398   4.725   6.089  1.00  0.00     0.031 C 
ATOM     51  C   UNL     1      -4.920  -0.321   1.709  1.00  0.00     0.029 A 
ATOM     52  C   UNL     1      -6.188  -0.166   2.401  1.00  0.00     0.049 A 
ATOM     53  H   UNL     1      -6.476   0.720   4.273  1.00  0.00     0.167 HD
ATOM     54  C   UNL     1      -7.027   3.598   7.684  1.00  0.00     0.037 A 
ATOM     55  C   UNL     1      -7.450  -0.512   2.042  1.00  0.00     0.037 A 
ATOM     56  C   UNL     1      -7.171   2.302   8.293  1.00  0.00     0.049 A 
ATOM     57  C   UNL     1      -8.298  -0.429   3.263  1.00  0.00     0.074 A 
ATOM     58  C   UNL     1      -6.387   1.538   9.135  1.00  0.00     0.029 A 
ATOM     59  N   UNL     1      -8.093   1.441   7.749  1.00  0.00    -0.354 N 
ATOM     60  N   UNL     1      -8.183  -1.235   4.283  1.00  0.00    -0.248 NA
ATOM     61  C   UNL     1      -8.945   0.845   3.547  1.00  0.00     0.031 C 
ATOM     62  C   UNL     1      -6.569   0.197   8.691  1.00  0.00     0.029 A 
ATOM     63  C   UNL     1      -7.496   0.211   7.648  1.00  0.00     0.049 A 
ATOM     64  H   UNL     1      -9.013   1.666   7.481  1.00  0.00     0.167 HD
ATOM     65  C   UNL     1      -8.352  -0.426   5.398  1.00  0.00     0.074 A 
ATOM     66  C   UNL     1      -8.889   0.830   4.881  1.00  0.00     0.031 C 
ATOM     67  C   UNL     1      -7.774  -0.739   6.595  1.00  0.00     0.037 A 
BRANCH  54  68
ATOM     68  C   UNL     1      -8.147   4.601   7.638  1.00  0.00     0.057 A 
ATOM     69  C   UNL     1      -9.136   4.572   8.635  1.00  0.00     0.134 A 
ATOM     70  C   UNL     1      -8.450   5.396   6.512  1.00  0.00     0.134 A 
ATOM     71  F   UNL     1      -8.975   3.833   9.743  1.00  0.00    -0.206 F 
ATOM     72  C   UNL     1     -10.360   5.235   8.492  1.00  0.00     0.040 A 
ATOM     73  C   UNL     1      -9.645   6.105   6.385  1.00  0.00     0.040 A 
ATOM     74  F   UNL     1      -7.662   5.447   5.432  1.00  0.00    -0.206 F 
ATOM     75  C   UNL     1     -10.619   6.001   7.362  1.00  0.00     0.006 A 
ENDBRANCH  54  68
BRANCH  55  76
ATOM     76  C   UNL     1      -8.025  -0.532   0.676  1.00  0.00     0.057 A 
ATOM     77  C   UNL     1      -9.243  -1.170   0.407  1.00  0.00     0.134 A 
ATOM     78  C   UNL     1      -7.531   0.306  -0.341  1.00  0.00     0.134 A 
ATOM     79  F   UNL     1      -9.822  -1.948   1.333  1.00  0.00    -0.206 F 
ATOM     80  C   UNL     1      -9.938  -0.976  -0.796  1.00  0.00     0.040 A 
ATOM     81  C   UNL     1      -8.209   0.502  -1.549  1.00  0.00     0.040 A 
ATOM     82  F   UNL     1      -6.422   1.038  -0.162  1.00  0.00    -0.206 F 
ATOM     83  C   UNL     1      -9.424  -0.130  -1.776  1.00  0.00     0.006 A 
ENDBRANCH  55  76
BRANCH  67  84
ATOM     84  C   UNL     1      -7.142  -2.095   6.750  1.00  0.00     0.057 A 
ATOM     85  C   UNL     1      -6.002  -2.509   6.044  1.00  0.00     0.134 A 
ATOM     86  C   UNL     1      -7.572  -2.914   7.799  1.00  0.00     0.134 A 
ATOM     87  F   UNL     1      -5.465  -1.745   5.085  1.00  0.00    -0.206 F 
ATOM     88  C   UNL     1      -5.331  -3.695   6.362  1.00  0.00     0.040 A 
ATOM     89  C   UNL     1      -6.891  -4.083   8.148  1.00  0.00     0.040 A 
ATOM     90  F   UNL     1      -8.623  -2.553   8.551  1.00  0.00    -0.206 F 
ATOM     91  C   UNL     1      -5.767  -4.478   7.427  1.00  0.00     0.006 A 
ENDBRANCH  67  84
ENDBRANCH  41  42
ENDBRANCH  34  36
ENDBRANCH  33  34
ENDBRANCH  32  33
ENDBRANCH  31  32
ENDBRANCH  30  31
ENDBRANCH   1  30
TORSDOF 17
