REMARK SMILES CC(C)[NH2+][C@]1(C(=O)OCCOCCOC(=O)c2ccc(-c3c4nc(c(-c5c(F)cccc5F)c5ccc([nH]5)c(-c5c(F)cccc5F)c5nc(c(-c6c(F)cccc6F)c6ccc3[nH]6)C=C5)C=C4)cc2)CCC[C@@H](Sc2nnnn2C)C1
REMARK SMILES IDX 11 1 10 2 9 3 8 4 6 5 7 6 5 7 71 8 82 9 72 10 74 11 73 12
REMARK SMILES IDX 4 13 2 16 1 17 3 18 75 19 76 20 77 21 80 22 78 23 79 24
REMARK SMILES IDX 81 25 12 26 13 27 14 28 15 29 16 30 17 31 18 32 70 33 19 34
REMARK SMILES IDX 69 35 20 36 21 37 22 38 63 39 23 40 68 41 62 42 64 43 24 44
REMARK SMILES IDX 67 45 61 46 60 47 25 49 51 50 34 51 50 52 35 53 38 54 49 55
REMARK SMILES IDX 65 56 36 57 37 58 48 60 66 61 39 62 26 63 27 64 32 65 28 66
REMARK SMILES IDX 29 67 31 68 33 69 30 70 52 71 53 72 58 73 54 74 55 75 57 76
REMARK SMILES IDX 59 77 56 78 40 79 41 80 46 81 42 82 43 83 45 84 47 85 44 86
REMARK H PARENT 4 14 4 15 64 48 38 59
REMARK Flexibility Score: inf
ROOT
ATOM      1  O   UNL     1      -1.119  -1.409   0.156  1.00  0.00    -0.374 OA
ENDROOT
BRANCH   1   2
ATOM      2  C   UNL     1      -0.091  -0.743   0.882  1.00  0.00     0.202 C 
BRANCH   2   3
ATOM      3  C   UNL     1       0.707   0.331   0.140  1.00  0.00     0.261 C 
BRANCH   3   4
ATOM      4  O   UNL     1      -0.095   1.446  -0.286  1.00  0.00    -0.459 OA
BRANCH   4   5
ATOM      5  C   UNL     1      -0.414   1.441  -1.613  1.00  0.00     0.368 C 
ATOM      6  O   UNL     1      -0.145   0.520  -2.381  1.00  0.00    -0.245 OA
BRANCH   5   7
ATOM      7  C   UNL     1      -1.191   2.732  -2.078  1.00  0.00     0.195 C 
ATOM      8  C   UNL     1      -2.570   2.763  -1.390  1.00  0.00     0.081 C 
ATOM      9  C   UNL     1      -0.360   3.948  -1.607  1.00  0.00     0.096 C 
ATOM     10  C   UNL     1      -3.326   4.085  -1.529  1.00  0.00     0.008 C 
ATOM     11  C   UNL     1      -1.083   5.298  -1.655  1.00  0.00     0.061 C 
ATOM     12  C   UNL     1      -2.493   5.264  -1.051  1.00  0.00     0.015 C 
BRANCH   7  13
ATOM     13  N   UNL     1      -1.153   2.638  -3.557  1.00  0.00    -0.330 N 
ATOM     14  H   UNL     1      -0.277   3.081  -3.832  1.00  0.00     0.347 HD
ATOM     15  H   UNL     1      -1.321   1.638  -3.675  1.00  0.00     0.347 HD
BRANCH  13  16
ATOM     16  C   UNL     1      -2.153   3.170  -4.465  1.00  0.00     0.176 C 
ATOM     17  C   UNL     1      -1.494   3.127  -5.854  1.00  0.00     0.075 C 
ATOM     18  C   UNL     1      -3.447   2.354  -4.551  1.00  0.00     0.075 C 
ENDBRANCH  13  16
ENDBRANCH   7  13
BRANCH  11  19
ATOM     19  S   UNL     1       0.018   6.561  -0.870  1.00  0.00    -0.081 SA
BRANCH  19  20
ATOM     20  C   UNL     1      -0.537   6.628   0.766  1.00  0.00     0.209 A 
ATOM     21  N   UNL     1      -1.428   7.477   1.226  1.00  0.00    -0.102 NA
ATOM     22  N   UNL     1      -0.178   5.787   1.781  1.00  0.00    -0.224 N 
ATOM     23  N   UNL     1      -1.641   7.128   2.538  1.00  0.00    -0.023 NA
ATOM     24  N   UNL     1      -0.899   6.084   2.879  1.00  0.00    -0.045 NA
ATOM     25  C   UNL     1       0.738   4.685   1.829  1.00  0.00     0.179 C 
ENDBRANCH  19  20
ENDBRANCH  11  19
ENDBRANCH   5   7
ENDBRANCH   4   5
ENDBRANCH   3   4
ENDBRANCH   2   3
ENDBRANCH   1   2
BRANCH   1  26
ATOM     26  C   UNL     1      -2.357  -0.721  -0.011  1.00  0.00     0.202 C 
BRANCH  26  27
ATOM     27  C   UNL     1      -3.292  -0.678   1.204  1.00  0.00     0.261 C 
BRANCH  27  28
ATOM     28  O   UNL     1      -2.741   0.104   2.281  1.00  0.00    -0.460 OA
BRANCH  28  29
ATOM     29  C   UNL     1      -2.423  -0.602   3.392  1.00  0.00     0.338 C 
ATOM     30  O   UNL     1      -2.618  -1.792   3.597  1.00  0.00    -0.246 OA
BRANCH  29  31
ATOM     31  C   UNL     1      -1.605   0.228   4.295  1.00  0.00     0.060 A 
ATOM     32  C   UNL     1      -0.347  -0.264   4.668  1.00  0.00     0.016 A 
ATOM     33  C   UNL     1      -2.077   1.436   4.810  1.00  0.00     0.016 A 
ATOM     34  C   UNL     1       0.435   0.439   5.582  1.00  0.00     0.010 A 
ATOM     35  C   UNL     1      -1.296   2.134   5.737  1.00  0.00     0.010 A 
ATOM     36  C   UNL     1      -0.047   1.629   6.143  1.00  0.00    -0.014 A 
BRANCH  36  37
ATOM     37  C   UNL     1       0.722   2.309   7.212  1.00  0.00     0.031 A 
ATOM     38  C   UNL     1       0.343   2.095   8.649  1.00  0.00     0.074 A 
ATOM     39  C   UNL     1       1.750   3.115   6.896  1.00  0.00     0.049 A 
ATOM     40  N   UNL     1       0.836   2.650   9.726  1.00  0.00    -0.248 NA
ATOM     41  C   UNL     1      -0.731   1.123   8.907  1.00  0.00     0.031 C 
ATOM     42  C   UNL     1       2.239   3.366   5.542  1.00  0.00     0.029 A 
ATOM     43  N   UNL     1       2.556   3.886   7.695  1.00  0.00    -0.354 N 
ATOM     44  C   UNL     1       0.132   2.101  10.790  1.00  0.00     0.074 A 
ATOM     45  C   UNL     1      -0.836   1.183  10.228  1.00  0.00     0.031 C 
ATOM     46  C   UNL     1       3.243   4.258   5.600  1.00  0.00     0.029 A 
ATOM     47  C   UNL     1       3.443   4.661   6.990  1.00  0.00     0.049 A 
ATOM     48  H   UNL     1       2.503   3.884   8.678  1.00  0.00     0.167 HD
ATOM     49  C   UNL     1       0.284   2.340  12.114  1.00  0.00     0.037 A 
ATOM     50  C   UNL     1       4.295   5.614   7.416  1.00  0.00     0.037 A 
ATOM     51  C   UNL     1       1.243   3.258  12.669  1.00  0.00     0.049 A 
ATOM     52  C   UNL     1       4.377   5.930   8.885  1.00  0.00     0.074 A 
ATOM     53  C   UNL     1       1.499   3.539  14.001  1.00  0.00     0.029 A 
ATOM     54  N   UNL     1       2.093   4.059  11.922  1.00  0.00    -0.354 N 
ATOM     55  N   UNL     1       3.736   5.377   9.886  1.00  0.00    -0.248 NA
ATOM     56  C   UNL     1       5.297   7.006   9.282  1.00  0.00     0.031 C 
ATOM     57  C   UNL     1       2.467   4.548  14.057  1.00  0.00     0.029 A 
ATOM     58  C   UNL     1       2.848   4.861  12.762  1.00  0.00     0.049 A 
ATOM     59  H   UNL     1       2.152   4.057  10.939  1.00  0.00     0.167 HD
ATOM     60  C   UNL     1       4.185   6.025  11.030  1.00  0.00     0.074 A 
ATOM     61  C   UNL     1       5.167   6.999  10.601  1.00  0.00     0.031 C 
ATOM     62  C   UNL     1       3.816   5.832  12.320  1.00  0.00     0.037 A 
BRANCH  49  63
ATOM     63  C   UNL     1      -0.628   1.614  13.058  1.00  0.00     0.057 A 
ATOM     64  C   UNL     1      -0.475   0.249  13.331  1.00  0.00     0.134 A 
ATOM     65  C   UNL     1      -1.642   2.300  13.738  1.00  0.00     0.134 A 
ATOM     66  F   UNL     1       0.470  -0.468  12.705  1.00  0.00    -0.206 F 
ATOM     67  C   UNL     1      -1.310  -0.412  14.235  1.00  0.00     0.040 A 
ATOM     68  C   UNL     1      -2.469   1.656  14.659  1.00  0.00     0.040 A 
ATOM     69  F   UNL     1      -1.838   3.610  13.525  1.00  0.00    -0.206 F 
ATOM     70  C   UNL     1      -2.306   0.294  14.907  1.00  0.00     0.006 A 
ENDBRANCH  49  63
BRANCH  50  71
ATOM     71  C   UNL     1       5.116   6.366   6.434  1.00  0.00     0.057 A 
ATOM     72  C   UNL     1       6.503   6.204   6.371  1.00  0.00     0.134 A 
ATOM     73  C   UNL     1       4.531   7.280   5.548  1.00  0.00     0.134 A 
ATOM     74  F   UNL     1       7.123   5.359   7.209  1.00  0.00    -0.206 F 
ATOM     75  C   UNL     1       7.284   6.933   5.472  1.00  0.00     0.040 A 
ATOM     76  C   UNL     1       5.296   7.999   4.629  1.00  0.00     0.040 A 
ATOM     77  F   UNL     1       3.205   7.477   5.556  1.00  0.00    -0.206 F 
ATOM     78  C   UNL     1       6.678   7.831   4.594  1.00  0.00     0.006 A 
ENDBRANCH  50  71
BRANCH  62  79
ATOM     79  C   UNL     1       4.485   6.681  13.361  1.00  0.00     0.057 A 
ATOM     80  C   UNL     1       4.173   8.038  13.513  1.00  0.00     0.134 A 
ATOM     81  C   UNL     1       5.421   6.128  14.244  1.00  0.00     0.134 A 
ATOM     82  F   UNL     1       3.296   8.631  12.689  1.00  0.00    -0.206 F 
ATOM     83  C   UNL     1       4.782   8.820  14.497  1.00  0.00     0.040 A 
ATOM     84  C   UNL     1       6.018   6.894  15.248  1.00  0.00     0.040 A 
ATOM     85  F   UNL     1       5.758   4.833  14.157  1.00  0.00    -0.206 F 
ATOM     86  C   UNL     1       5.702   8.245  15.372  1.00  0.00     0.006 A 
ENDBRANCH  62  79
ENDBRANCH  36  37
ENDBRANCH  29  31
ENDBRANCH  28  29
ENDBRANCH  27  28
ENDBRANCH  26  27
ENDBRANCH   1  26
TORSDOF 18
