REMARK SMILES C[C@@H]1[C@@H](C(=O)OCCOCCOC(=O)c2ccc(-c3c4nc(c(-c5c(F)cccc5F)c5ccc([nH]5)c(-c5c(F)cccc5F)c5nc(c(-c6c(F)cccc6F)c6ccc3[nH]6)C=C5)C=C4)cc2)CC[N@H+]1[C@@H](C)c1ccc(F)cc1
REMARK SMILES IDX 9 1 8 2 7 3 6 4 4 5 5 6 3 7 1 8 2 9 71 10 69 11 70 12 72 14
REMARK SMILES IDX 73 15 74 16 75 17 80 18 76 19 79 20 77 21 78 22 10 23 11 24
REMARK SMILES IDX 12 25 13 26 14 27 15 28 16 29 68 30 17 31 67 32 18 33 19 34
REMARK SMILES IDX 20 35 61 36 21 37 66 38 60 39 62 40 22 41 65 42 59 43 58 44
REMARK SMILES IDX 23 46 49 47 32 48 48 49 33 50 36 51 47 52 63 53 34 54 35 55
REMARK SMILES IDX 46 57 64 58 37 59 24 60 25 61 30 62 26 63 27 64 29 65 31 66
REMARK SMILES IDX 28 67 50 68 51 69 56 70 52 71 53 72 55 73 57 74 54 75 38 76
REMARK SMILES IDX 39 77 44 78 40 79 41 80 43 81 45 82 42 83
REMARK H PARENT 71 13 62 45 36 56
REMARK Flexibility Score: inf
ROOT
ATOM      1  O   UNL     1      -0.090   2.477  -4.725  1.00  0.00    -0.374 OA
ENDROOT
BRANCH   1   2
ATOM      2  C   UNL     1      -1.513   2.447  -4.624  1.00  0.00     0.202 C 
BRANCH   2   3
ATOM      3  C   UNL     1      -2.128   1.296  -3.823  1.00  0.00     0.261 C 
BRANCH   3   4
ATOM      4  O   UNL     1      -1.755   1.373  -2.439  1.00  0.00    -0.463 OA
BRANCH   4   5
ATOM      5  C   UNL     1      -0.986   0.343  -1.978  1.00  0.00     0.315 C 
ATOM      6  O   UNL     1      -0.725  -0.670  -2.612  1.00  0.00    -0.252 OA
BRANCH   5   7
ATOM      7  C   UNL     1      -0.428   0.695  -0.611  1.00  0.00     0.162 C 
ATOM      8  C   UNL     1       1.842   0.346   0.441  1.00  0.00     0.076 C 
ATOM      9  C   UNL     1       0.607  -0.343  -0.149  1.00  0.00     0.196 C 
ATOM     10  N   UNL     1      -0.094  -1.070   0.899  1.00  0.00    -0.326 N 
ATOM     11  C   UNL     1      -1.512   0.672   0.458  1.00  0.00     0.083 C 
ATOM     12  C   UNL     1      -1.506  -0.768   0.933  1.00  0.00     0.264 C 
ATOM     13  H   UNL     1       0.244  -0.681   1.780  1.00  0.00     0.348 HD
BRANCH  10  14
ATOM     14  C   UNL     1       0.443  -2.309   1.432  1.00  0.00     0.212 C 
ATOM     15  C   UNL     1       0.930  -1.964   2.848  1.00  0.00     0.081 C 
BRANCH  14  16
ATOM     16  C   UNL     1      -0.517  -3.496   1.367  1.00  0.00     0.009 A 
ATOM     17  C   UNL     1      -1.219  -3.962   2.494  1.00  0.00     0.013 A 
ATOM     18  C   UNL     1      -0.725  -4.154   0.138  1.00  0.00     0.013 A 
ATOM     19  C   UNL     1      -2.086  -5.053   2.403  1.00  0.00     0.040 A 
ATOM     20  C   UNL     1      -1.595  -5.245   0.047  1.00  0.00     0.040 A 
ATOM     21  C   UNL     1      -2.265  -5.685   1.181  1.00  0.00     0.123 A 
ATOM     22  F   UNL     1      -3.101  -6.729   1.096  1.00  0.00    -0.207 F 
ENDBRANCH  14  16
ENDBRANCH  10  14
ENDBRANCH   5   7
ENDBRANCH   4   5
ENDBRANCH   3   4
ENDBRANCH   2   3
ENDBRANCH   1   2
BRANCH   1  23
ATOM     23  C   UNL     1       0.655   2.902  -3.585  1.00  0.00     0.202 C 
BRANCH  23  24
ATOM     24  C   UNL     1       0.646   4.401  -3.256  1.00  0.00     0.261 C 
BRANCH  24  25
ATOM     25  O   UNL     1      -0.661   4.881  -2.900  1.00  0.00    -0.460 OA
BRANCH  25  26
ATOM     26  C   UNL     1      -1.201   5.757  -3.781  1.00  0.00     0.338 C 
ATOM     27  O   UNL     1      -0.669   6.228  -4.780  1.00  0.00    -0.246 OA
BRANCH  26  28
ATOM     28  C   UNL     1      -2.628   5.961  -3.490  1.00  0.00     0.060 A 
ATOM     29  C   UNL     1      -3.543   5.674  -4.510  1.00  0.00     0.016 A 
ATOM     30  C   UNL     1      -3.058   6.513  -2.283  1.00  0.00     0.016 A 
ATOM     31  C   UNL     1      -4.891   5.982  -4.347  1.00  0.00     0.010 A 
ATOM     32  C   UNL     1      -4.410   6.837  -2.123  1.00  0.00     0.010 A 
ATOM     33  C   UNL     1      -5.323   6.606  -3.169  1.00  0.00    -0.014 A 
BRANCH  33  34
ATOM     34  C   UNL     1      -6.696   7.160  -3.109  1.00  0.00     0.031 A 
ATOM     35  C   UNL     1      -6.904   8.618  -3.415  1.00  0.00     0.074 A 
ATOM     36  C   UNL     1      -7.746   6.370  -2.828  1.00  0.00     0.049 A 
ATOM     37  N   UNL     1      -8.010   9.317  -3.413  1.00  0.00    -0.248 NA
ATOM     38  C   UNL     1      -5.704   9.390  -3.774  1.00  0.00     0.031 C 
ATOM     39  C   UNL     1      -7.676   4.936  -2.556  1.00  0.00     0.029 A 
ATOM     40  N   UNL     1      -9.081   6.670  -2.724  1.00  0.00    -0.354 N 
ATOM     41  C   UNL     1      -7.640  10.608  -3.767  1.00  0.00     0.074 A 
ATOM     42  C   UNL     1      -6.205  10.604  -3.948  1.00  0.00     0.031 C 
ATOM     43  C   UNL     1      -8.916   4.480  -2.306  1.00  0.00     0.029 A 
ATOM     44  C   UNL     1      -9.859   5.595  -2.376  1.00  0.00     0.049 A 
ATOM     45  H   UNL     1      -9.445   7.570  -2.885  1.00  0.00     0.167 HD
ATOM     46  C   UNL     1      -8.427  11.697  -3.934  1.00  0.00     0.037 A 
ATOM     47  C   UNL     1     -11.181   5.525  -2.125  1.00  0.00     0.037 A 
ATOM     48  C   UNL     1      -9.854  11.701  -3.754  1.00  0.00     0.049 A 
ATOM     49  C   UNL     1     -12.024   6.765  -2.250  1.00  0.00     0.074 A 
ATOM     50  C   UNL     1     -10.741  12.752  -3.913  1.00  0.00     0.029 A 
ATOM     51  N   UNL     1     -10.602  10.600  -3.366  1.00  0.00    -0.354 N 
ATOM     52  N   UNL     1     -11.668   7.976  -2.606  1.00  0.00    -0.248 NA
ATOM     53  C   UNL     1     -13.455   6.628  -1.941  1.00  0.00     0.031 C 
ATOM     54  C   UNL     1     -12.021  12.296  -3.582  1.00  0.00     0.029 A 
ATOM     55  C   UNL     1     -11.937  10.951  -3.259  1.00  0.00     0.049 A 
ATOM     56  H   UNL     1     -10.237   9.702  -3.193  1.00  0.00     0.167 HD
ATOM     57  C   UNL     1     -12.831   8.736  -2.590  1.00  0.00     0.074 A 
ATOM     58  C   UNL     1     -13.905   7.848  -2.199  1.00  0.00     0.031 C 
ATOM     59  C   UNL     1     -12.995  10.052  -2.874  1.00  0.00     0.037 A 
BRANCH  46  60
ATOM     60  C   UNL     1      -7.752  12.982  -4.313  1.00  0.00     0.057 A 
ATOM     61  C   UNL     1      -7.242  13.197  -5.599  1.00  0.00     0.134 A 
ATOM     62  C   UNL     1      -7.636  14.026  -3.386  1.00  0.00     0.134 A 
ATOM     63  F   UNL     1      -7.309  12.231  -6.528  1.00  0.00    -0.206 F 
ATOM     64  C   UNL     1      -6.622  14.399  -5.946  1.00  0.00     0.040 A 
ATOM     65  C   UNL     1      -7.038  15.240  -3.727  1.00  0.00     0.040 A 
ATOM     66  F   UNL     1      -8.105  13.884  -2.138  1.00  0.00    -0.206 F 
ATOM     67  C   UNL     1      -6.525  15.427  -5.009  1.00  0.00     0.006 A 
ENDBRANCH  46  60
BRANCH  47  68
ATOM     68  C   UNL     1     -11.792   4.236  -1.717  1.00  0.00     0.057 A 
ATOM     69  C   UNL     1     -12.660   3.542  -2.567  1.00  0.00     0.134 A 
ATOM     70  C   UNL     1     -11.538   3.678  -0.458  1.00  0.00     0.134 A 
ATOM     71  F   UNL     1     -12.960   4.039  -3.776  1.00  0.00    -0.206 F 
ATOM     72  C   UNL     1     -13.266   2.348  -2.175  1.00  0.00     0.040 A 
ATOM     73  C   UNL     1     -12.119   2.473  -0.062  1.00  0.00     0.040 A 
ATOM     74  F   UNL     1     -10.715   4.295   0.403  1.00  0.00    -0.206 F 
ATOM     75  C   UNL     1     -12.992   1.808  -0.920  1.00  0.00     0.006 A 
ENDBRANCH  47  68
BRANCH  59  76
ATOM     76  C   UNL     1     -14.389  10.601  -2.806  1.00  0.00     0.057 A 
ATOM     77  C   UNL     1     -15.031  10.835  -1.584  1.00  0.00     0.134 A 
ATOM     78  C   UNL     1     -15.080  10.939  -3.977  1.00  0.00     0.134 A 
ATOM     79  F   UNL     1     -14.428  10.521  -0.428  1.00  0.00    -0.206 F 
ATOM     80  C   UNL     1     -16.320  11.367  -1.530  1.00  0.00     0.040 A 
ATOM     81  C   UNL     1     -16.359  11.494  -3.934  1.00  0.00     0.040 A 
ATOM     82  F   UNL     1     -14.516  10.748  -5.179  1.00  0.00    -0.206 F 
ATOM     83  C   UNL     1     -16.985  11.704  -2.708  1.00  0.00     0.006 A 
ENDBRANCH  59  76
ENDBRANCH  33  34
ENDBRANCH  26  28
ENDBRANCH  25  26
ENDBRANCH  24  25
ENDBRANCH  23  24
ENDBRANCH   1  23
TORSDOF 16
