REMARK SMILES C=CC[N@H+](CC(=O)OCCOCCOC(=O)c1ccc(-c2c3nc(c(-c4c(F)cccc4F)c4ccc([nH]4)c(-c4c(F)cccc4F)c4nc(c(-c5c(F)cccc5F)c5ccc2[nH]5)C=C4)C=C3)cc1)[C@H]1CC(=O)N(c2ccccc2)C1=O
REMARK SMILES IDX 10 1 9 2 8 3 6 4 7 5 5 6 4 7 3 9 2 10 1 11 71 12 72 13 82 14
REMARK SMILES IDX 73 15 75 16 83 17 74 18 76 19 77 20 81 21 78 22 80 23 79 24
REMARK SMILES IDX 11 25 12 26 13 27 14 28 15 29 16 30 17 31 18 32 70 33 19 34
REMARK SMILES IDX 69 35 20 36 21 37 22 38 63 39 23 40 68 41 62 42 64 43 24 44
REMARK SMILES IDX 67 45 61 46 60 47 25 49 51 50 34 51 50 52 35 53 38 54 49 55
REMARK SMILES IDX 65 56 36 57 37 58 48 60 66 61 39 62 26 63 27 64 32 65 28 66
REMARK SMILES IDX 29 67 31 68 33 69 30 70 52 71 53 72 58 73 54 74 55 75 57 76
REMARK SMILES IDX 59 77 56 78 40 79 41 80 46 81 42 82 43 83 45 84 47 85 44 86
REMARK H PARENT 4 8 64 48 38 59
REMARK Flexibility Score: inf
ROOT
ATOM      1  C   UNL     1      -4.623  -0.192   4.616  1.00  0.00     0.202 C 
ENDROOT
BRANCH   1   2
ATOM      2  C   UNL     1      -5.323  -0.121   3.259  1.00  0.00     0.261 C 
BRANCH   2   3
ATOM      3  O   UNL     1      -4.401   0.275   2.226  1.00  0.00    -0.459 OA
BRANCH   3   4
ATOM      4  C   UNL     1      -4.587   1.511   1.700  1.00  0.00     0.361 C 
ATOM      5  O   UNL     1      -5.526   2.249   1.982  1.00  0.00    -0.245 OA
BRANCH   4   6
ATOM      6  C   UNL     1      -3.574   1.884   0.625  1.00  0.00     0.387 C 
BRANCH   6   7
ATOM      7  N   UNL     1      -2.094   1.715   0.945  1.00  0.00    -0.312 N 
ATOM      8  H   UNL     1      -1.815   1.901   1.908  1.00  0.00     0.349 HD
BRANCH   7   9
ATOM      9  C   UNL     1      -1.756   0.295   0.715  1.00  0.00     0.291 C 
BRANCH   9  10
ATOM     10  C   UNL     1      -0.333  -0.143   0.880  1.00  0.00     0.025 C 
ATOM     11  C   UNL     1       0.333  -0.309   2.028  1.00  0.00     0.010 C 
ENDBRANCH   9  10
ENDBRANCH   7   9
BRANCH   7  12
ATOM     12  C   UNL     1      -1.384   2.723   0.076  1.00  0.00     0.285 C 
ATOM     13  C   UNL     1      -1.573   4.112   0.681  1.00  0.00     0.176 C 
ATOM     14  C   UNL     1       0.129   2.653  -0.112  1.00  0.00     0.292 C 
ATOM     15  C   UNL     1      -0.202   4.649   0.916  1.00  0.00     0.240 C 
ATOM     16  N   UNL     1       0.733   3.735   0.497  1.00  0.00    -0.245 N 
ATOM     17  O   UNL     1       0.656   1.817  -0.840  1.00  0.00    -0.267 OA
ATOM     18  O   UNL     1      -0.035   5.785   1.342  1.00  0.00    -0.274 OA
BRANCH  16  19
ATOM     19  C   UNL     1       2.141   3.990   0.536  1.00  0.00     0.052 A 
ATOM     20  C   UNL     1       3.037   3.384  -0.357  1.00  0.00     0.027 A 
ATOM     21  C   UNL     1       2.686   4.879   1.482  1.00  0.00     0.027 A 
ATOM     22  C   UNL     1       4.410   3.667  -0.322  1.00  0.00     0.002 A 
ATOM     23  C   UNL     1       4.059   5.152   1.530  1.00  0.00     0.002 A 
ATOM     24  C   UNL     1       4.921   4.548   0.623  1.00  0.00     0.000 A 
ENDBRANCH  16  19
ENDBRANCH   7  12
ENDBRANCH   6   7
ENDBRANCH   4   6
ENDBRANCH   3   4
ENDBRANCH   2   3
ENDBRANCH   1   2
BRANCH   1  25
ATOM     25  O   UNL     1      -4.304   1.074   5.192  1.00  0.00    -0.374 OA
BRANCH  25  26
ATOM     26  C   UNL     1      -3.103   1.698   4.737  1.00  0.00     0.202 C 
BRANCH  26  27
ATOM     27  C   UNL     1      -1.824   1.222   5.432  1.00  0.00     0.261 C 
BRANCH  27  28
ATOM     28  O   UNL     1      -1.507  -0.137   5.075  1.00  0.00    -0.460 OA
BRANCH  28  29
ATOM     29  C   UNL     1      -1.668  -1.054   6.053  1.00  0.00     0.338 C 
ATOM     30  O   UNL     1      -1.965  -0.849   7.224  1.00  0.00    -0.246 OA
BRANCH  29  31
ATOM     31  C   UNL     1      -1.602  -2.410   5.475  1.00  0.00     0.060 A 
ATOM     32  C   UNL     1      -2.630  -3.305   5.796  1.00  0.00     0.016 A 
ATOM     33  C   UNL     1      -0.535  -2.820   4.672  1.00  0.00     0.016 A 
ATOM     34  C   UNL     1      -2.570  -4.626   5.352  1.00  0.00     0.010 A 
ATOM     35  C   UNL     1      -0.481  -4.143   4.220  1.00  0.00     0.010 A 
ATOM     36  C   UNL     1      -1.479  -5.063   4.589  1.00  0.00    -0.014 A 
BRANCH  36  37
ATOM     37  C   UNL     1      -1.310  -6.510   4.304  1.00  0.00     0.031 A 
ATOM     38  C   UNL     1      -0.303  -7.299   5.097  1.00  0.00     0.074 A 
ATOM     39  C   UNL     1      -2.062  -7.124   3.373  1.00  0.00     0.049 A 
ATOM     40  N   UNL     1       0.023  -8.563   5.002  1.00  0.00    -0.248 NA
ATOM     41  C   UNL     1       0.441  -6.562   6.131  1.00  0.00     0.031 C 
ATOM     42  C   UNL     1      -3.085  -6.481   2.551  1.00  0.00     0.029 A 
ATOM     43  N   UNL     1      -2.073  -8.434   2.961  1.00  0.00    -0.354 N 
ATOM     44  C   UNL     1       1.014  -8.770   5.953  1.00  0.00     0.074 A 
ATOM     45  C   UNL     1       1.262  -7.494   6.590  1.00  0.00     0.031 C 
ATOM     46  C   UNL     1      -3.626  -7.398   1.732  1.00  0.00     0.029 A 
ATOM     47  C   UNL     1      -2.969  -8.686   1.951  1.00  0.00     0.049 A 
ATOM     48  H   UNL     1      -1.494  -9.127   3.352  1.00  0.00     0.167 HD
ATOM     49  C   UNL     1       1.651  -9.919   6.279  1.00  0.00     0.037 A 
ATOM     50  C   UNL     1      -3.220  -9.822   1.273  1.00  0.00     0.037 A 
ATOM     51  C   UNL     1       1.396 -11.193   5.660  1.00  0.00     0.049 A 
ATOM     52  C   UNL     1      -2.466 -11.078   1.621  1.00  0.00     0.074 A 
ATOM     53  C   UNL     1       1.967 -12.421   5.947  1.00  0.00     0.029 A 
ATOM     54  N   UNL     1       0.496 -11.401   4.626  1.00  0.00    -0.354 N 
ATOM     55  N   UNL     1      -1.555 -11.267   2.544  1.00  0.00    -0.248 NA
ATOM     56  C   UNL     1      -2.777 -12.279   0.832  1.00  0.00     0.031 C 
ATOM     57  C   UNL     1       1.443 -13.365   5.057  1.00  0.00     0.029 A 
ATOM     58  C   UNL     1       0.513 -12.733   4.247  1.00  0.00     0.049 A 
ATOM     59  H   UNL     1      -0.070 -10.705   4.221  1.00  0.00     0.167 HD
ATOM     60  C   UNL     1      -1.204 -12.610   2.465  1.00  0.00     0.074 A 
ATOM     61  C   UNL     1      -2.009 -13.191   1.411  1.00  0.00     0.031 C 
ATOM     62  C   UNL     1      -0.298 -13.300   3.200  1.00  0.00     0.037 A 
BRANCH  49  63
ATOM     63  C   UNL     1       2.701  -9.846   7.348  1.00  0.00     0.057 A 
ATOM     64  C   UNL     1       2.371  -9.666   8.698  1.00  0.00     0.134 A 
ATOM     65  C   UNL     1       4.057  -9.982   7.027  1.00  0.00     0.134 A 
ATOM     66  F   UNL     1       1.091  -9.514   9.070  1.00  0.00    -0.206 F 
ATOM     67  C   UNL     1       3.354  -9.600   9.687  1.00  0.00     0.040 A 
ATOM     68  C   UNL     1       5.047  -9.944   8.010  1.00  0.00     0.040 A 
ATOM     69  F   UNL     1       4.441 -10.162   5.754  1.00  0.00    -0.206 F 
ATOM     70  C   UNL     1       4.697  -9.745   9.344  1.00  0.00     0.006 A 
ENDBRANCH  49  63
BRANCH  50  71
ATOM     71  C   UNL     1      -4.233  -9.831   0.188  1.00  0.00     0.057 A 
ATOM     72  C   UNL     1      -5.447 -10.511   0.335  1.00  0.00     0.134 A 
ATOM     73  C   UNL     1      -4.001  -9.179  -1.030  1.00  0.00     0.134 A 
ATOM     74  F   UNL     1      -5.716 -11.174   1.468  1.00  0.00    -0.206 F 
ATOM     75  C   UNL     1      -6.389 -10.556  -0.695  1.00  0.00     0.040 A 
ATOM     76  C   UNL     1      -4.943  -9.196  -2.059  1.00  0.00     0.040 A 
ATOM     77  F   UNL     1      -2.857  -8.510  -1.232  1.00  0.00    -0.206 F 
ATOM     78  C   UNL     1      -6.139  -9.892  -1.895  1.00  0.00     0.006 A 
ENDBRANCH  50  71
BRANCH  62  79
ATOM     79  C   UNL     1      -0.149 -14.765   2.915  1.00  0.00     0.057 A 
ATOM     80  C   UNL     1       0.492 -15.232   1.761  1.00  0.00     0.134 A 
ATOM     81  C   UNL     1      -0.616 -15.720   3.827  1.00  0.00     0.134 A 
ATOM     82  F   UNL     1       0.951 -14.369   0.842  1.00  0.00    -0.206 F 
ATOM     83  C   UNL     1       0.647 -16.598   1.515  1.00  0.00     0.040 A 
ATOM     84  C   UNL     1      -0.445 -17.087   3.604  1.00  0.00     0.040 A 
ATOM     85  F   UNL     1      -1.232 -15.340   4.957  1.00  0.00    -0.206 F 
ATOM     86  C   UNL     1       0.184 -17.529   2.442  1.00  0.00     0.006 A 
ENDBRANCH  62  79
ENDBRANCH  36  37
ENDBRANCH  29  31
ENDBRANCH  28  29
ENDBRANCH  27  28
ENDBRANCH  26  27
ENDBRANCH  25  26
ENDBRANCH   1  25
TORSDOF 19
