REMARK SMILES CC[C@@H]([NH3+])C(=O)N1CC[C@H](C(=O)OCCOCCOC(=O)c2ccc(-c3c4nc(c(-c5c(F)cccc5F)c5ccc([nH]5)c(-c5c(F)cccc5F)c5nc(c(-c6c(F)cccc6F)c6ccc3[nH]6)C=C5)C=C4)cc2)[C@@H]1C
REMARK SMILES IDX 15 1 14 2 13 3 11 4 12 5 10 6 7 7 8 8 76 9 9 10 77 11 5 12
REMARK SMILES IDX 6 13 3 14 2 15 1 16 4 17 16 21 17 22 18 23 19 24 20 25 21 26
REMARK SMILES IDX 22 27 23 28 75 29 24 30 74 31 25 32 26 33 27 34 68 35 28 36
REMARK SMILES IDX 73 37 67 38 69 39 29 40 72 41 66 42 65 43 30 45 56 46 39 47
REMARK SMILES IDX 55 48 40 49 43 50 54 51 70 52 41 53 42 54 53 56 71 57 44 58
REMARK SMILES IDX 31 59 32 60 37 61 33 62 34 63 36 64 38 65 35 66 57 67 58 68
REMARK SMILES IDX 63 69 59 70 60 71 62 72 64 73 61 74 45 75 46 76 51 77 47 78
REMARK SMILES IDX 48 79 50 80 52 81 49 82
REMARK H PARENT 4 18 4 19 4 20 69 44 43 55
REMARK Flexibility Score: inf
ROOT
ATOM      1  C   UNL     1      -5.692   4.701   3.932  1.00  0.00     0.202 C 
ENDROOT
BRANCH   1   2
ATOM      2  C   UNL     1      -5.720   4.831   2.409  1.00  0.00     0.261 C 
BRANCH   2   3
ATOM      3  O   UNL     1      -4.760   4.031   1.691  1.00  0.00    -0.463 OA
BRANCH   3   4
ATOM      4  C   UNL     1      -3.774   4.733   1.060  1.00  0.00     0.311 C 
ATOM      5  O   UNL     1      -3.488   5.895   1.314  1.00  0.00    -0.252 OA
BRANCH   4   6
ATOM      6  C   UNL     1      -3.155   3.925  -0.076  1.00  0.00     0.123 C 
ATOM      7  N   UNL     1      -0.804   4.042  -0.529  1.00  0.00    -0.334 N 
ATOM      8  C   UNL     1      -1.397   5.293  -0.955  1.00  0.00     0.121 C 
ATOM      9  C   UNL     1      -1.795   3.222   0.153  1.00  0.00     0.096 C 
ATOM     10  C   UNL     1      -2.841   4.893  -1.231  1.00  0.00     0.039 C 
ATOM     11  C   UNL     1      -1.363   3.045   1.598  1.00  0.00     0.032 C 
BRANCH   7  12
ATOM     12  C   UNL     1       0.522   3.753  -0.775  1.00  0.00     0.280 C 
ATOM     13  O   UNL     1       1.321   4.666  -1.019  1.00  0.00    -0.268 OA
BRANCH  12  14
ATOM     14  C   UNL     1       0.990   2.269  -0.994  1.00  0.00     0.270 C 
BRANCH  14  15
ATOM     15  C   UNL     1       0.760   1.213   0.096  1.00  0.00     0.072 C 
ATOM     16  C   UNL     1       1.379  -0.149  -0.209  1.00  0.00     0.011 C 
ENDBRANCH  14  15
BRANCH  14  17
ATOM     17  N   UNL     1       0.429   1.827  -2.292  1.00  0.00    -0.347 N 
ATOM     18  H   UNL     1      -0.589   1.805  -2.233  1.00  0.00     0.345 HD
ATOM     19  H   UNL     1       0.777   0.894  -2.512  1.00  0.00     0.345 HD
ATOM     20  H   UNL     1       0.713   2.478  -3.024  1.00  0.00     0.345 HD
ENDBRANCH  14  17
ENDBRANCH  12  14
ENDBRANCH   7  12
ENDBRANCH   4   6
ENDBRANCH   3   4
ENDBRANCH   2   3
ENDBRANCH   1   2
BRANCH   1  21
ATOM     21  O   UNL     1      -4.563   5.179   4.638  1.00  0.00    -0.374 OA
BRANCH  21  22
ATOM     22  C   UNL     1      -3.296   4.552   4.511  1.00  0.00     0.202 C 
BRANCH  22  23
ATOM     23  C   UNL     1      -3.192   3.052   4.234  1.00  0.00     0.261 C 
BRANCH  23  24
ATOM     24  O   UNL     1      -4.268   2.229   4.628  1.00  0.00    -0.460 OA
BRANCH  24  25
ATOM     25  C   UNL     1      -4.428   1.963   5.930  1.00  0.00     0.338 C 
ATOM     26  O   UNL     1      -3.750   2.301   6.875  1.00  0.00    -0.246 OA
BRANCH  25  27
ATOM     27  C   UNL     1      -5.704   1.240   5.929  1.00  0.00     0.060 A 
ATOM     28  C   UNL     1      -6.841   1.894   6.404  1.00  0.00     0.016 A 
ATOM     29  C   UNL     1      -5.785   0.001   5.281  1.00  0.00     0.016 A 
ATOM     30  C   UNL     1      -8.078   1.274   6.274  1.00  0.00     0.010 A 
ATOM     31  C   UNL     1      -7.022  -0.612   5.141  1.00  0.00     0.010 A 
ATOM     32  C   UNL     1      -8.165   0.009   5.671  1.00  0.00    -0.014 A 
BRANCH  32  33
ATOM     33  C   UNL     1      -9.424  -0.753   5.758  1.00  0.00     0.031 A 
ATOM     34  C   UNL     1      -9.534  -1.797   6.829  1.00  0.00     0.074 A 
ATOM     35  C   UNL     1     -10.438  -0.503   4.915  1.00  0.00     0.049 A 
ATOM     36  N   UNL     1     -10.533  -2.587   7.118  1.00  0.00    -0.248 NA
ATOM     37  C   UNL     1      -8.352  -1.977   7.689  1.00  0.00     0.031 C 
ATOM     38  C   UNL     1     -10.430   0.505   3.856  1.00  0.00     0.029 A 
ATOM     39  N   UNL     1     -11.677  -1.080   4.825  1.00  0.00    -0.354 N 
ATOM     40  C   UNL     1     -10.100  -3.356   8.190  1.00  0.00     0.074 A 
ATOM     41  C   UNL     1      -8.734  -2.974   8.470  1.00  0.00     0.031 C 
ATOM     42  C   UNL     1     -11.619   0.485   3.229  1.00  0.00     0.029 A 
ATOM     43  C   UNL     1     -12.455  -0.555   3.824  1.00  0.00     0.049 A 
ATOM     44  H   UNL     1     -11.980  -1.802   5.421  1.00  0.00     0.167 HD
ATOM     45  C   UNL     1     -10.789  -4.286   8.889  1.00  0.00     0.037 A 
ATOM     46  C   UNL     1     -13.700  -0.890   3.437  1.00  0.00     0.037 A 
ATOM     47  C   UNL     1     -12.144  -4.659   8.590  1.00  0.00     0.049 A 
ATOM     48  C   UNL     1     -14.417  -1.986   4.178  1.00  0.00     0.074 A 
ATOM     49  C   UNL     1     -12.953  -5.571   9.241  1.00  0.00     0.029 A 
ATOM     50  N   UNL     1     -12.884  -4.144   7.534  1.00  0.00    -0.354 N 
ATOM     51  N   UNL     1     -14.022  -2.677   5.222  1.00  0.00    -0.248 NA
ATOM     52  C   UNL     1     -15.752  -2.352   3.687  1.00  0.00     0.031 C 
ATOM     53  C   UNL     1     -14.164  -5.649   8.545  1.00  0.00     0.029 A 
ATOM     54  C   UNL     1     -14.130  -4.745   7.493  1.00  0.00     0.049 A 
ATOM     55  H   UNL     1     -12.569  -3.453   6.907  1.00  0.00     0.167 HD
ATOM     56  C   UNL     1     -15.068  -3.537   5.531  1.00  0.00     0.074 A 
ATOM     57  C   UNL     1     -16.119  -3.274   4.568  1.00  0.00     0.031 C 
ATOM     58  C   UNL     1     -15.156  -4.460   6.521  1.00  0.00     0.037 A 
BRANCH  45  59
ATOM     59  C   UNL     1     -10.066  -4.974  10.009  1.00  0.00     0.057 A 
ATOM     60  C   UNL     1      -9.704  -4.302  11.185  1.00  0.00     0.134 A 
ATOM     61  C   UNL     1      -9.706  -6.323   9.901  1.00  0.00     0.134 A 
ATOM     62  F   UNL     1      -9.998  -3.002  11.344  1.00  0.00    -0.206 F 
ATOM     63  C   UNL     1      -8.981  -4.937  12.197  1.00  0.00     0.040 A 
ATOM     64  C   UNL     1      -9.010  -6.977  10.919  1.00  0.00     0.040 A 
ATOM     65  F   UNL     1     -10.018  -7.026   8.802  1.00  0.00    -0.206 F 
ATOM     66  C   UNL     1      -8.636  -6.280  12.066  1.00  0.00     0.006 A 
ENDBRANCH  45  59
BRANCH  46  67
ATOM     67  C   UNL     1     -14.350  -0.173   2.312  1.00  0.00     0.057 A 
ATOM     68  C   UNL     1     -15.441   0.675   2.531  1.00  0.00     0.134 A 
ATOM     69  C   UNL     1     -13.899  -0.315   0.993  1.00  0.00     0.134 A 
ATOM     70  F   UNL     1     -15.931   0.838   3.768  1.00  0.00    -0.206 F 
ATOM     71  C   UNL     1     -16.069   1.347   1.480  1.00  0.00     0.040 A 
ATOM     72  C   UNL     1     -14.503   0.369  -0.064  1.00  0.00     0.040 A 
ATOM     73  F   UNL     1     -12.856  -1.110   0.716  1.00  0.00    -0.206 F 
ATOM     74  C   UNL     1     -15.595   1.199   0.178  1.00  0.00     0.006 A 
ENDBRANCH  46  67
BRANCH  58  75
ATOM     75  C   UNL     1     -16.440  -5.228   6.629  1.00  0.00     0.057 A 
ATOM     76  C   UNL     1     -16.785  -6.225   5.708  1.00  0.00     0.134 A 
ATOM     77  C   UNL     1     -17.316  -5.002   7.699  1.00  0.00     0.134 A 
ATOM     78  F   UNL     1     -15.994  -6.480   4.655  1.00  0.00    -0.206 F 
ATOM     79  C   UNL     1     -17.965  -6.957   5.837  1.00  0.00     0.040 A 
ATOM     80  C   UNL     1     -18.485  -5.747   7.854  1.00  0.00     0.040 A 
ATOM     81  F   UNL     1     -17.039  -4.068   8.621  1.00  0.00    -0.206 F 
ATOM     82  C   UNL     1     -18.814  -6.725   6.918  1.00  0.00     0.006 A 
ENDBRANCH  58  75
ENDBRANCH  32  33
ENDBRANCH  25  27
ENDBRANCH  24  25
ENDBRANCH  23  24
ENDBRANCH  22  23
ENDBRANCH  21  22
ENDBRANCH   1  21
TORSDOF 18
