REMARK SMILES Nc1c(CC(=O)OCCOCCOC(=O)c2ccc(-c3c4nc(c(-c5c(F)cccc5F)c5ccc([nH]5)c(-c5c(F)cccc5F)c5nc(c(-c6c(F)cccc6F)c6ccc3[nH]6)C=C5)C=C4)cc2)cccc1C(=O)c1ccc(Br)cc1
REMARK SMILES IDX 9 1 8 2 7 3 5 4 6 5 4 6 3 7 2 8 73 9 70 10 72 11 71 12 1 13
REMARK SMILES IDX 74 16 75 17 76 18 77 19 82 20 78 21 81 22 79 23 80 24 10 25
REMARK SMILES IDX 11 26 12 27 13 28 14 29 15 30 16 31 17 32 69 33 18 34 68 35
REMARK SMILES IDX 19 36 20 37 21 38 62 39 22 40 67 41 61 42 63 43 23 44 66 45
REMARK SMILES IDX 60 46 59 47 24 49 50 50 33 51 49 52 34 53 37 54 48 55 64 56
REMARK SMILES IDX 35 57 36 58 47 60 65 61 38 62 25 63 26 64 31 65 27 66 28 67
REMARK SMILES IDX 30 68 32 69 29 70 51 71 52 72 57 73 53 74 54 75 56 76 58 77
REMARK SMILES IDX 55 78 39 79 40 80 45 81 41 82 42 83 44 84 46 85 43 86
REMARK H PARENT 1 14 1 15 63 48 37 59
REMARK Flexibility Score: inf
ROOT
ATOM      1  C   UNL     1      -0.340  -4.238   3.510  1.00  0.00     0.202 C 
ENDROOT
BRANCH   1   2
ATOM      2  C   UNL     1       1.056  -4.016   2.923  1.00  0.00     0.261 C 
BRANCH   2   3
ATOM      3  O   UNL     1       1.005  -3.066   1.845  1.00  0.00    -0.463 OA
BRANCH   3   4
ATOM      4  C   UNL     1       1.734  -3.385   0.747  1.00  0.00     0.310 C 
ATOM      5  O   UNL     1       2.572  -4.280   0.709  1.00  0.00    -0.252 OA
BRANCH   4   6
ATOM      6  C   UNL     1       1.351  -2.604  -0.488  1.00  0.00     0.160 C 
BRANCH   6   7
ATOM      7  C   UNL     1       0.617  -1.288  -0.309  1.00  0.00    -0.013 A 
ATOM      8  C   UNL     1       1.270  -0.125   0.157  1.00  0.00     0.047 A 
ATOM      9  C   UNL     1       0.572   1.108   0.070  1.00  0.00     0.046 A 
ATOM     10  C   UNL     1      -0.740  -1.228  -0.686  1.00  0.00     0.006 A 
ATOM     11  C   UNL     1      -0.788   1.137  -0.285  1.00  0.00     0.014 A 
ATOM     12  C   UNL     1      -1.448  -0.032  -0.641  1.00  0.00     0.001 A 
BRANCH   8  13
ATOM     13  N   UNL     1       2.598  -0.207   0.575  1.00  0.00    -0.398 N 
ATOM     14  H   UNL     1       3.046  -1.082   0.622  1.00  0.00     0.156 HD
ATOM     15  H   UNL     1       3.087   0.611   0.822  1.00  0.00     0.156 HD
ENDBRANCH   8  13
BRANCH   9  16
ATOM     16  C   UNL     1       1.189   2.442   0.329  1.00  0.00     0.195 C 
ATOM     17  O   UNL     1       0.518   3.341   0.832  1.00  0.00    -0.289 OA
BRANCH  16  18
ATOM     18  C   UNL     1       2.606   2.722  -0.004  1.00  0.00     0.023 A 
ATOM     19  C   UNL     1       3.375   3.418   0.935  1.00  0.00     0.013 A 
ATOM     20  C   UNL     1       3.195   2.246  -1.183  1.00  0.00     0.013 A 
ATOM     21  C   UNL     1       4.748   3.570   0.735  1.00  0.00     0.016 A 
ATOM     22  C   UNL     1       4.569   2.399  -1.381  1.00  0.00     0.016 A 
ATOM     23  C   UNL     1       5.340   3.045  -0.414  1.00  0.00     0.018 A 
ATOM     24  Br  UNL     1       7.211   3.185  -0.648  1.00  0.00    -0.051 Br
ENDBRANCH  16  18
ENDBRANCH   9  16
ENDBRANCH   6   7
ENDBRANCH   4   6
ENDBRANCH   3   4
ENDBRANCH   2   3
ENDBRANCH   1   2
BRANCH   1  25
ATOM     25  O   UNL     1      -1.304  -4.805   2.619  1.00  0.00    -0.374 OA
BRANCH  25  26
ATOM     26  C   UNL     1      -1.833  -3.955   1.601  1.00  0.00     0.202 C 
BRANCH  26  27
ATOM     27  C   UNL     1      -2.886  -2.934   2.045  1.00  0.00     0.261 C 
BRANCH  27  28
ATOM     28  O   UNL     1      -2.374  -2.004   3.015  1.00  0.00    -0.460 OA
BRANCH  28  29
ATOM     29  C   UNL     1      -2.981  -2.072   4.221  1.00  0.00     0.338 C 
ATOM     30  O   UNL     1      -3.970  -2.735   4.514  1.00  0.00    -0.246 OA
BRANCH  29  31
ATOM     31  C   UNL     1      -2.209  -1.353   5.251  1.00  0.00     0.060 A 
ATOM     32  C   UNL     1      -1.955  -2.045   6.441  1.00  0.00     0.016 A 
ATOM     33  C   UNL     1      -1.848  -0.009   5.120  1.00  0.00     0.016 A 
ATOM     34  C   UNL     1      -1.424  -1.374   7.537  1.00  0.00     0.010 A 
ATOM     35  C   UNL     1      -1.315   0.666   6.228  1.00  0.00     0.010 A 
ATOM     36  C   UNL     1      -1.155  -0.001   7.456  1.00  0.00    -0.014 A 
BRANCH  36  37
ATOM     37  C   UNL     1      -0.892   0.735   8.718  1.00  0.00     0.031 A 
ATOM     38  C   UNL     1      -2.028   1.463   9.387  1.00  0.00     0.074 A 
ATOM     39  C   UNL     1       0.309   0.664   9.320  1.00  0.00     0.049 A 
ATOM     40  N   UNL     1      -2.058   2.068  10.548  1.00  0.00    -0.248 NA
ATOM     41  C   UNL     1      -3.303   1.509   8.653  1.00  0.00     0.031 C 
ATOM     42  C   UNL     1       1.478  -0.036   8.791  1.00  0.00     0.029 A 
ATOM     43  N   UNL     1       0.733   1.173  10.522  1.00  0.00    -0.354 N 
ATOM     44  C   UNL     1      -3.351   2.558  10.686  1.00  0.00     0.074 A 
ATOM     45  C   UNL     1      -4.065   2.216   9.475  1.00  0.00     0.031 C 
ATOM     46  C   UNL     1       2.488   0.080   9.671  1.00  0.00     0.029 A 
ATOM     47  C   UNL     1       2.039   0.870  10.816  1.00  0.00     0.049 A 
ATOM     48  H   UNL     1       0.156   1.704  11.116  1.00  0.00     0.167 HD
ATOM     49  C   UNL     1      -3.902   3.218  11.732  1.00  0.00     0.037 A 
ATOM     50  C   UNL     1       2.786   1.193  11.890  1.00  0.00     0.037 A 
ATOM     51  C   UNL     1      -3.198   3.558  12.940  1.00  0.00     0.049 A 
ATOM     52  C   UNL     1       2.164   1.970  13.019  1.00  0.00     0.074 A 
ATOM     53  C   UNL     1      -3.675   4.212  14.063  1.00  0.00     0.029 A 
ATOM     54  N   UNL     1      -1.862   3.275  13.178  1.00  0.00    -0.354 N 
ATOM     55  N   UNL     1       0.931   2.394  13.152  1.00  0.00    -0.248 NA
ATOM     56  C   UNL     1       3.039   2.303  14.153  1.00  0.00     0.031 C 
ATOM     57  C   UNL     1      -2.615   4.361  14.964  1.00  0.00     0.029 A 
ATOM     58  C   UNL     1      -1.490   3.762  14.420  1.00  0.00     0.049 A 
ATOM     59  H   UNL     1      -1.266   2.799  12.556  1.00  0.00     0.167 HD
ATOM     60  C   UNL     1       0.876   3.024  14.390  1.00  0.00     0.074 A 
ATOM     61  C   UNL     1       2.195   2.910  14.976  1.00  0.00     0.031 C 
ATOM     62  C   UNL     1      -0.172   3.642  14.988  1.00  0.00     0.037 A 
BRANCH  49  63
ATOM     63  C   UNL     1      -5.339   3.630  11.605  1.00  0.00     0.057 A 
ATOM     64  C   UNL     1      -6.384   2.699  11.682  1.00  0.00     0.134 A 
ATOM     65  C   UNL     1      -5.683   4.975  11.426  1.00  0.00     0.134 A 
ATOM     66  F   UNL     1      -6.121   1.393  11.838  1.00  0.00    -0.206 F 
ATOM     67  C   UNL     1      -7.719   3.090  11.564  1.00  0.00     0.040 A 
ATOM     68  C   UNL     1      -7.015   5.381  11.329  1.00  0.00     0.040 A 
ATOM     69  F   UNL     1      -4.731   5.917  11.348  1.00  0.00    -0.206 F 
ATOM     70  C   UNL     1      -8.038   4.436  11.392  1.00  0.00     0.006 A 
ENDBRANCH  49  63
BRANCH  50  71
ATOM     71  C   UNL     1       4.208   0.775  11.956  1.00  0.00     0.057 A 
ATOM     72  C   UNL     1       4.640  -0.202  12.860  1.00  0.00     0.134 A 
ATOM     73  C   UNL     1       5.174   1.360  11.127  1.00  0.00     0.134 A 
ATOM     74  F   UNL     1       3.766  -0.781  13.696  1.00  0.00    -0.206 F 
ATOM     75  C   UNL     1       5.984  -0.571  12.950  1.00  0.00     0.040 A 
ATOM     76  C   UNL     1       6.516   0.984  11.190  1.00  0.00     0.040 A 
ATOM     77  F   UNL     1       4.823   2.303  10.240  1.00  0.00    -0.206 F 
ATOM     78  C   UNL     1       6.925   0.020  12.109  1.00  0.00     0.006 A 
ENDBRANCH  50  71
BRANCH  62  79
ATOM     79  C   UNL     1       0.063   4.223  16.351  1.00  0.00     0.057 A 
ATOM     80  C   UNL     1       0.821   5.386  16.536  1.00  0.00     0.134 A 
ATOM     81  C   UNL     1      -0.497   3.627  17.489  1.00  0.00     0.134 A 
ATOM     82  F   UNL     1       1.393   5.998  15.488  1.00  0.00    -0.206 F 
ATOM     83  C   UNL     1       1.036   5.921  17.807  1.00  0.00     0.040 A 
ATOM     84  C   UNL     1      -0.309   4.167  18.762  1.00  0.00     0.040 A 
ATOM     85  F   UNL     1      -1.241   2.516  17.381  1.00  0.00    -0.206 F 
ATOM     86  C   UNL     1       0.466   5.314  18.924  1.00  0.00     0.006 A 
ENDBRANCH  62  79
ENDBRANCH  36  37
ENDBRANCH  29  31
ENDBRANCH  28  29
ENDBRANCH  27  28
ENDBRANCH  26  27
ENDBRANCH  25  26
ENDBRANCH   1  25
TORSDOF 18
