REMARK SMILES COc1cccc([C@H]2CC(c3ccc(S(C)(=O)=O)cc3)=NN2c2ccc(C(=O)OCCOCCOC(=O)c3ccc(-c4c5nc(c(-c6c(F)cccc6F)c6ccc([nH]6)c(-c6c(F)cccc6F)c6nc(c(-c7c(F)cccc7F)c7ccc4[nH]7)C=C6)C=C5)cc3)cc2)c1
REMARK SMILES IDX 31 1 30 2 29 3 27 4 28 5 26 6 23 7 24 8 93 9 25 10 92 11
REMARK SMILES IDX 22 12 8 13 9 14 10 15 21 16 7 17 3 18 4 19 94 20 5 21 6 22
REMARK SMILES IDX 2 23 1 24 11 25 12 26 20 27 13 28 19 29 14 30 15 31 16 32
REMARK SMILES IDX 17 33 18 34 32 35 33 36 34 37 35 38 36 39 37 40 38 41 39 42
REMARK SMILES IDX 91 43 40 44 90 45 41 46 42 47 43 48 84 49 44 50 89 51 83 52
REMARK SMILES IDX 85 53 45 54 88 55 82 56 81 57 46 59 72 60 55 61 71 62 56 63
REMARK SMILES IDX 59 64 70 65 86 66 57 67 58 68 69 70 87 71 60 72 47 73 48 74
REMARK SMILES IDX 53 75 49 76 50 77 52 78 54 79 51 80 73 81 74 82 79 83 75 84
REMARK SMILES IDX 76 85 78 86 80 87 77 88 61 89 62 90 67 91 63 92 64 93 66 94
REMARK SMILES IDX 68 95 65 96
REMARK H PARENT 85 58 59 69
REMARK Flexibility Score: inf
ROOT
ATOM      1  C   UNL     1       3.622   1.561 -10.584  1.00  0.00     0.202 C 
ENDROOT
BRANCH   1   2
ATOM      2  C   UNL     1       2.452   2.108  -9.761  1.00  0.00     0.261 C 
BRANCH   2   3
ATOM      3  O   UNL     1       2.896   2.577  -8.477  1.00  0.00    -0.460 OA
BRANCH   3   4
ATOM      4  C   UNL     1       2.520   1.806  -7.428  1.00  0.00     0.338 C 
ATOM      5  O   UNL     1       1.751   0.856  -7.458  1.00  0.00    -0.246 OA
BRANCH   4   6
ATOM      6  C   UNL     1       3.285   2.177  -6.218  1.00  0.00     0.060 A 
ATOM      7  C   UNL     1       4.548   2.775  -3.780  1.00  0.00     0.060 A 
ATOM      8  C   UNL     1       4.279   1.447  -4.135  1.00  0.00     0.029 A 
ATOM      9  C   UNL     1       4.264   3.787  -4.710  1.00  0.00     0.029 A 
ATOM     10  C   UNL     1       3.624   1.151  -5.330  1.00  0.00     0.018 A 
ATOM     11  C   UNL     1       3.649   3.495  -5.933  1.00  0.00     0.018 A 
BRANCH   7  12
ATOM     12  N   UNL     1       4.967   3.090  -2.488  1.00  0.00    -0.257 N 
ATOM     13  C   UNL     1       4.119   3.886  -1.587  1.00  0.00     0.144 C 
ATOM     14  C   UNL     1       4.751   3.637  -0.215  1.00  0.00     0.091 C 
ATOM     15  C   UNL     1       5.841   2.674  -0.594  1.00  0.00     0.071 C 
ATOM     16  N   UNL     1       5.917   2.355  -1.849  1.00  0.00    -0.176 NA
BRANCH  13  17
ATOM     17  C   UNL     1       2.646   3.494  -1.658  1.00  0.00    -0.019 A 
ATOM     18  C   UNL     1       0.852   1.854  -1.450  1.00  0.00     0.119 A 
ATOM     19  C   UNL     1      -0.043   2.767  -2.007  1.00  0.00     0.046 A 
ATOM     20  C   UNL     1       2.194   2.211  -1.290  1.00  0.00     0.052 A 
ATOM     21  C   UNL     1       0.384   4.041  -2.371  1.00  0.00     0.004 A 
ATOM     22  C   UNL     1       1.719   4.405  -2.193  1.00  0.00     0.006 A 
BRANCH  18  23
ATOM     23  O   UNL     1       0.322   0.627  -1.156  1.00  0.00    -0.497 OA
ATOM     24  C   UNL     1       0.929  -0.056  -0.066  1.00  0.00     0.278 C 
ENDBRANCH  18  23
ENDBRANCH  13  17
BRANCH  15  25
ATOM     25  C   UNL     1       6.798   2.198   0.414  1.00  0.00    -0.002 A 
ATOM     26  C   UNL     1       8.163   2.380   0.168  1.00  0.00     0.011 A 
ATOM     27  C   UNL     1       6.357   1.625   1.610  1.00  0.00     0.011 A 
ATOM     28  C   UNL     1       9.098   2.007   1.133  1.00  0.00     0.021 A 
ATOM     29  C   UNL     1       7.293   1.225   2.567  1.00  0.00     0.021 A 
ATOM     30  C   UNL     1       8.658   1.420   2.324  1.00  0.00     0.067 A 
BRANCH  30  31
ATOM     31  S   UNL     1       9.856   0.957   3.555  1.00  0.00     0.175 S 
ATOM     32  C   UNL     1      10.872  -0.250   2.744  1.00  0.00     0.163 C 
ATOM     33  O   UNL     1      10.660   2.135   3.817  1.00  0.00    -0.224 OA
ATOM     34  O   UNL     1       9.145   0.282   4.625  1.00  0.00    -0.224 OA
ENDBRANCH  30  31
ENDBRANCH  15  25
ENDBRANCH   7  12
ENDBRANCH   4   6
ENDBRANCH   3   4
ENDBRANCH   2   3
ENDBRANCH   1   2
BRANCH   1  35
ATOM     35  O   UNL     1       4.249   0.387 -10.068  1.00  0.00    -0.374 OA
BRANCH  35  36
ATOM     36  C   UNL     1       5.237   0.579  -9.053  1.00  0.00     0.202 C 
BRANCH  36  37
ATOM     37  C   UNL     1       6.634   0.960  -9.554  1.00  0.00     0.261 C 
BRANCH  37  38
ATOM     38  O   UNL     1       6.650   2.289 -10.111  1.00  0.00    -0.460 OA
BRANCH  38  39
ATOM     39  C   UNL     1       6.811   2.346 -11.452  1.00  0.00     0.338 C 
ATOM     40  O   UNL     1       7.042   1.416 -12.214  1.00  0.00    -0.246 OA
BRANCH  39  41
ATOM     41  C   UNL     1       6.499   3.703 -11.938  1.00  0.00     0.060 A 
ATOM     42  C   UNL     1       5.608   3.815 -13.013  1.00  0.00     0.016 A 
ATOM     43  C   UNL     1       7.109   4.839 -11.401  1.00  0.00     0.016 A 
ATOM     44  C   UNL     1       5.364   5.059 -13.591  1.00  0.00     0.010 A 
ATOM     45  C   UNL     1       6.870   6.086 -11.988  1.00  0.00     0.010 A 
ATOM     46  C   UNL     1       6.024   6.196 -13.107  1.00  0.00    -0.014 A 
BRANCH  46  47
ATOM     47  C   UNL     1       5.944   7.468 -13.863  1.00  0.00     0.031 A 
ATOM     48  C   UNL     1       7.067   7.835 -14.794  1.00  0.00     0.074 A 
ATOM     49  C   UNL     1       4.874   8.274 -13.745  1.00  0.00     0.049 A 
ATOM     50  N   UNL     1       7.224   8.911 -15.522  1.00  0.00    -0.248 NA
ATOM     51  C   UNL     1       8.159   6.857 -14.919  1.00  0.00     0.031 C 
ATOM     52  C   UNL     1       3.705   8.011 -12.908  1.00  0.00     0.029 A 
ATOM     53  N   UNL     1       4.606   9.486 -14.330  1.00  0.00    -0.354 N 
ATOM     54  C   UNL     1       8.432   8.742 -16.187  1.00  0.00     0.074 A 
ATOM     55  C   UNL     1       8.981   7.475 -15.755  1.00  0.00     0.031 C 
ATOM     56  C   UNL     1       2.847   9.039 -13.025  1.00  0.00     0.029 A 
ATOM     57  C   UNL     1       3.420  10.043 -13.920  1.00  0.00     0.049 A 
ATOM     58  H   UNL     1       5.206   9.916 -14.981  1.00  0.00     0.167 HD
ATOM     59  C   UNL     1       9.027   9.565 -17.083  1.00  0.00     0.037 A 
ATOM     60  C   UNL     1       2.870  11.236 -14.218  1.00  0.00     0.037 A 
ATOM     61  C   UNL     1       8.481  10.825 -17.514  1.00  0.00     0.049 A 
ATOM     62  C   UNL     1       3.584  12.165 -15.165  1.00  0.00     0.074 A 
ATOM     63  C   UNL     1       9.002  11.723 -18.429  1.00  0.00     0.029 A 
ATOM     64  N   UNL     1       7.291  11.367 -17.054  1.00  0.00    -0.354 N 
ATOM     65  N   UNL     1       4.716  11.988 -15.802  1.00  0.00    -0.248 NA
ATOM     66  C   UNL     1       2.942  13.460 -15.433  1.00  0.00     0.031 C 
ATOM     67  C   UNL     1       8.148  12.829 -18.491  1.00  0.00     0.029 A 
ATOM     68  C   UNL     1       7.071  12.598 -17.650  1.00  0.00     0.049 A 
ATOM     69  H   UNL     1       6.690  10.940 -16.401  1.00  0.00     0.167 HD
ATOM     70  C   UNL     1       4.906  13.131 -16.568  1.00  0.00     0.074 A 
ATOM     71  C   UNL     1       3.769  13.993 -16.322  1.00  0.00     0.031 C 
ATOM     72  C   UNL     1       5.929  13.439 -17.403  1.00  0.00     0.037 A 
BRANCH  59  73
ATOM     73  C   UNL     1      10.350   9.135 -17.642  1.00  0.00     0.057 A 
ATOM     74  C   UNL     1      10.455   8.095 -18.575  1.00  0.00     0.134 A 
ATOM     75  C   UNL     1      11.530   9.789 -17.266  1.00  0.00     0.134 A 
ATOM     76  F   UNL     1       9.364   7.418 -18.964  1.00  0.00    -0.206 F 
ATOM     77  C   UNL     1      11.690   7.708 -19.099  1.00  0.00     0.040 A 
ATOM     78  C   UNL     1      12.767   9.428 -17.802  1.00  0.00     0.040 A 
ATOM     79  F   UNL     1      11.498  10.796 -16.380  1.00  0.00    -0.206 F 
ATOM     80  C   UNL     1      12.850   8.380 -18.717  1.00  0.00     0.006 A 
ENDBRANCH  59  73
BRANCH  60  81
ATOM     81  C   UNL     1       1.578  11.633 -13.607  1.00  0.00     0.057 A 
ATOM     82  C   UNL     1       0.412  11.733 -14.375  1.00  0.00     0.134 A 
ATOM     83  C   UNL     1       1.482  11.945 -12.245  1.00  0.00     0.134 A 
ATOM     84  F   UNL     1       0.446  11.471 -15.690  1.00  0.00    -0.206 F 
ATOM     85  C   UNL     1      -0.799  12.144 -13.816  1.00  0.00     0.040 A 
ATOM     86  C   UNL     1       0.273  12.335 -11.668  1.00  0.00     0.040 A 
ATOM     87  F   UNL     1       2.564  11.869 -11.456  1.00  0.00    -0.206 F 
ATOM     88  C   UNL     1      -0.871  12.442 -12.456  1.00  0.00     0.006 A 
ENDBRANCH  60  81
BRANCH  72  89
ATOM     89  C   UNL     1       5.847  14.742 -18.142  1.00  0.00     0.057 A 
ATOM     90  C   UNL     1       6.061  15.970 -17.504  1.00  0.00     0.134 A 
ATOM     91  C   UNL     1       5.595  14.763 -19.520  1.00  0.00     0.134 A 
ATOM     92  F   UNL     1       6.296  16.018 -16.184  1.00  0.00    -0.206 F 
ATOM     93  C   UNL     1       6.008  17.175 -18.207  1.00  0.00     0.040 A 
ATOM     94  C   UNL     1       5.563  15.959 -20.238  1.00  0.00     0.040 A 
ATOM     95  F   UNL     1       5.390  13.620 -20.193  1.00  0.00    -0.206 F 
ATOM     96  C   UNL     1       5.765  17.170 -19.580  1.00  0.00     0.006 A 
ENDBRANCH  72  89
ENDBRANCH  46  47
ENDBRANCH  39  41
ENDBRANCH  38  39
ENDBRANCH  37  38
ENDBRANCH  36  37
ENDBRANCH  35  36
ENDBRANCH   1  35
TORSDOF 19
