REMARK SMILES C[C@@H]1CC[N@@H+]1[C@@H](CO)C(=O)OCCOCCOC(=O)c1ccc(-c2c3nc(c(-c4c(F)cccc4F)c4ccc([nH]4)c(-c4c(F)cccc4F)c4nc(c(-c5c(F)cccc5F)c5ccc2[nH]5)C=C4)C=C3)cc1
REMARK SMILES IDX 14 1 13 2 12 3 11 4 9 5 10 6 6 7 5 8 1 9 2 10 3 11 4 12 7 14
REMARK SMILES IDX 8 15 15 17 16 18 17 19 18 20 19 21 20 22 21 23 73 24 22 25
REMARK SMILES IDX 72 26 23 27 24 28 25 29 66 30 26 31 71 32 65 33 67 34 27 35
REMARK SMILES IDX 70 36 64 37 63 38 28 40 54 41 37 42 53 43 38 44 41 45 52 46
REMARK SMILES IDX 68 47 39 48 40 49 51 51 69 52 42 53 29 54 30 55 35 56 31 57
REMARK SMILES IDX 32 58 34 59 36 60 33 61 55 62 56 63 61 64 57 65 58 66 60 67
REMARK SMILES IDX 62 68 59 69 43 70 44 71 49 72 45 73 46 74 48 75 50 76 47 77
REMARK H PARENT 5 13 8 16 67 39 41 50
REMARK Flexibility Score: inf
ROOT
ATOM      1  O   UNL     1      -4.303   2.935   2.705  1.00  0.00    -0.374 OA
ENDROOT
BRANCH   1   2
ATOM      2  C   UNL     1      -3.532   4.035   3.182  1.00  0.00     0.202 C 
BRANCH   2   3
ATOM      3  C   UNL     1      -2.217   3.684   3.884  1.00  0.00     0.261 C 
BRANCH   3   4
ATOM      4  O   UNL     1      -1.242   3.161   2.962  1.00  0.00    -0.459 OA
BRANCH   4   5
ATOM      5  C   UNL     1      -0.903   1.851   3.130  1.00  0.00     0.367 C 
ATOM      6  O   UNL     1      -1.274   1.156   4.071  1.00  0.00    -0.245 OA
BRANCH   5   7
ATOM      7  C   UNL     1       0.072   1.336   2.061  1.00  0.00     0.321 C 
BRANCH   7   8
ATOM      8  N   UNL     1      -0.370   1.707   0.691  1.00  0.00    -0.319 N 
ATOM      9  C   UNL     1       1.079  -0.231  -0.262  1.00  0.00     0.075 C 
ATOM     10  C   UNL     1       0.366   1.096  -0.452  1.00  0.00     0.187 C 
ATOM     11  C   UNL     1       1.218   2.380  -0.549  1.00  0.00     0.126 C 
ATOM     12  C   UNL     1       0.066   3.044   0.225  1.00  0.00     0.269 C 
ATOM     13  H   UNL     1      -1.355   1.487   0.837  1.00  0.00     0.349 HD
ENDBRANCH   7   8
BRANCH   7  14
ATOM     14  C   UNL     1       1.499   1.575   2.592  1.00  0.00     0.233 C 
BRANCH  14  15
ATOM     15  O   UNL     1       1.935   2.931   2.554  1.00  0.00    -0.390 OA
ATOM     16  H   UNL     1       1.964   3.235   1.633  1.00  0.00     0.210 HD
ENDBRANCH  14  15
ENDBRANCH   7  14
ENDBRANCH   5   7
ENDBRANCH   4   5
ENDBRANCH   3   4
ENDBRANCH   2   3
ENDBRANCH   1   2
BRANCH   1  17
ATOM     17  C   UNL     1      -3.882   2.323   1.485  1.00  0.00     0.202 C 
BRANCH  17  18
ATOM     18  C   UNL     1      -4.247   3.066   0.194  1.00  0.00     0.261 C 
BRANCH  18  19
ATOM     19  O   UNL     1      -3.549   4.320   0.069  1.00  0.00    -0.460 OA
BRANCH  19  20
ATOM     20  C   UNL     1      -4.329   5.420   0.159  1.00  0.00     0.338 C 
ATOM     21  O   UNL     1      -5.550   5.462   0.257  1.00  0.00    -0.246 OA
BRANCH  20  22
ATOM     22  C   UNL     1      -3.492   6.625   0.296  1.00  0.00     0.060 A 
ATOM     23  C   UNL     1      -3.757   7.478   1.375  1.00  0.00     0.016 A 
ATOM     24  C   UNL     1      -2.525   6.962  -0.653  1.00  0.00     0.016 A 
ATOM     25  C   UNL     1      -3.092   8.697   1.482  1.00  0.00     0.010 A 
ATOM     26  C   UNL     1      -1.865   8.191  -0.550  1.00  0.00     0.010 A 
ATOM     27  C   UNL     1      -2.172   9.079   0.497  1.00  0.00    -0.014 A 
BRANCH  27  28
ATOM     28  C   UNL     1      -1.651  10.468   0.486  1.00  0.00     0.031 A 
ATOM     29  C   UNL     1      -2.292  11.480  -0.424  1.00  0.00     0.074 A 
ATOM     30  C   UNL     1      -0.647  10.835   1.301  1.00  0.00     0.049 A 
ATOM     31  N   UNL     1      -1.987  12.739  -0.612  1.00  0.00    -0.248 NA
ATOM     32  C   UNL     1      -3.431  11.010  -1.228  1.00  0.00     0.031 C 
ATOM     33  C   UNL     1       0.029   9.960   2.256  1.00  0.00     0.029 A 
ATOM     34  N   UNL     1      -0.019  12.046   1.449  1.00  0.00    -0.354 N 
ATOM     35  C   UNL     1      -2.891  13.209  -1.556  1.00  0.00     0.074 A 
ATOM     36  C   UNL     1      -3.738  12.095  -1.924  1.00  0.00     0.031 C 
ATOM     37  C   UNL     1       0.987  10.662   2.886  1.00  0.00     0.029 A 
ATOM     38  C   UNL     1       1.009  12.025   2.359  1.00  0.00     0.049 A 
ATOM     39  H   UNL     1      -0.280  12.854   0.950  1.00  0.00     0.167 HD
ATOM     40  C   UNL     1      -3.013  14.459  -2.062  1.00  0.00     0.037 A 
ATOM     41  C   UNL     1       1.879  12.991   2.711  1.00  0.00     0.037 A 
ATOM     42  C   UNL     1      -2.173  15.569  -1.696  1.00  0.00     0.049 A 
ATOM     43  C   UNL     1       1.769  14.354   2.079  1.00  0.00     0.074 A 
ATOM     44  C   UNL     1      -2.229  16.877  -2.144  1.00  0.00     0.029 A 
ATOM     45  N   UNL     1      -1.121  15.498  -0.797  1.00  0.00    -0.354 N 
ATOM     46  N   UNL     1       0.897  14.793   1.204  1.00  0.00    -0.248 NA
ATOM     47  C   UNL     1       2.766  15.355   2.485  1.00  0.00     0.031 C 
ATOM     48  C   UNL     1      -1.183  17.589  -1.547  1.00  0.00     0.029 A 
ATOM     49  C   UNL     1      -0.504  16.734  -0.694  1.00  0.00     0.049 A 
ATOM     50  H   UNL     1      -0.852  14.689  -0.304  1.00  0.00     0.167 HD
ATOM     51  C   UNL     1       1.222  16.125   0.977  1.00  0.00     0.074 A 
ATOM     52  C   UNL     1       2.365  16.425   1.814  1.00  0.00     0.031 C 
ATOM     53  C   UNL     1       0.628  17.019   0.150  1.00  0.00     0.037 A 
BRANCH  40  54
ATOM     54  C   UNL     1      -4.085  14.687  -3.086  1.00  0.00     0.057 A 
ATOM     55  C   UNL     1      -5.440  14.736  -2.738  1.00  0.00     0.134 A 
ATOM     56  C   UNL     1      -3.754  14.895  -4.431  1.00  0.00     0.134 A 
ATOM     57  F   UNL     1      -5.824  14.531  -1.469  1.00  0.00    -0.206 F 
ATOM     58  C   UNL     1      -6.431  14.964  -3.695  1.00  0.00     0.040 A 
ATOM     59  C   UNL     1      -4.733  15.146  -5.393  1.00  0.00     0.040 A 
ATOM     60  F   UNL     1      -2.473  14.864  -4.830  1.00  0.00    -0.206 F 
ATOM     61  C   UNL     1      -6.077  15.177  -5.026  1.00  0.00     0.006 A 
ENDBRANCH  40  54
BRANCH  41  62
ATOM     62  C   UNL     1       2.946  12.707   3.702  1.00  0.00     0.057 A 
ATOM     63  C   UNL     1       2.930  13.291   4.974  1.00  0.00     0.134 A 
ATOM     64  C   UNL     1       4.022  11.867   3.391  1.00  0.00     0.134 A 
ATOM     65  F   UNL     1       1.939  14.124   5.321  1.00  0.00    -0.206 F 
ATOM     66  C   UNL     1       3.955  13.065   5.894  1.00  0.00     0.040 A 
ATOM     67  C   UNL     1       5.041  11.613   4.310  1.00  0.00     0.040 A 
ATOM     68  F   UNL     1       4.096  11.278   2.188  1.00  0.00    -0.206 F 
ATOM     69  C   UNL     1       5.013  12.220   5.564  1.00  0.00     0.006 A 
ENDBRANCH  41  62
BRANCH  53  70
ATOM     70  C   UNL     1       1.179  18.415   0.134  1.00  0.00     0.057 A 
ATOM     71  C   UNL     1       2.399  18.721  -0.481  1.00  0.00     0.134 A 
ATOM     72  C   UNL     1       0.459  19.472   0.706  1.00  0.00     0.134 A 
ATOM     73  F   UNL     1       3.142  17.751  -1.037  1.00  0.00    -0.206 F 
ATOM     74  C   UNL     1       2.894  20.026  -0.509  1.00  0.00     0.040 A 
ATOM     75  C   UNL     1       0.932  20.784   0.663  1.00  0.00     0.040 A 
ATOM     76  F   UNL     1      -0.721  19.248   1.304  1.00  0.00    -0.206 F 
ATOM     77  C   UNL     1       2.156  21.063   0.059  1.00  0.00     0.006 A 
ENDBRANCH  53  70
ENDBRANCH  27  28
ENDBRANCH  20  22
ENDBRANCH  19  20
ENDBRANCH  18  19
ENDBRANCH  17  18
ENDBRANCH   1  17
TORSDOF 17
