REMARK SMILES O=C(OCCOCCOC(=O)[C@@H]1C[C@H]1C(=O)N[C@@H]1CONC1=O)c1ccc(-c2c3nc(c(-c4c(F)cccc4F)c4ccc([nH]4)c(-c4c(F)cccc4F)c4nc(c(-c5c(F)cccc5F)c5ccc2[nH]5)C=C4)C=C3)cc1
REMARK SMILES IDX 6 1 5 2 4 3 3 4 2 5 1 6 24 7 25 8 77 9 26 10 76 11 27 12
REMARK SMILES IDX 28 13 29 14 70 15 30 16 75 17 69 18 71 19 31 20 74 21 68 22
REMARK SMILES IDX 67 23 32 25 58 26 41 27 57 28 42 29 45 30 56 31 72 32 43 33
REMARK SMILES IDX 44 34 55 36 73 37 46 38 33 39 34 40 39 41 35 42 36 43 38 44
REMARK SMILES IDX 40 45 37 46 59 47 60 48 65 49 61 50 62 51 64 52 66 53 63 54
REMARK SMILES IDX 47 55 48 56 53 57 49 58 50 59 52 60 54 61 51 62 7 63 8 64
REMARK SMILES IDX 9 65 10 66 11 67 12 68 13 69 14 70 15 71 16 72 17 73 18 75
REMARK SMILES IDX 19 76 22 77 20 78 21 79 23 80
REMARK H PARENT 71 24 45 35 17 74 21 81
REMARK Flexibility Score: inf
ROOT
ATOM      1  O   UNL     1       4.153  -1.446  -0.945  1.00  0.00    -0.374 OA
ENDROOT
BRANCH   1   2
ATOM      2  C   UNL     1       4.560  -1.505   0.425  1.00  0.00     0.202 C 
BRANCH   2   3
ATOM      3  C   UNL     1       4.368  -0.229   1.251  1.00  0.00     0.261 C 
BRANCH   3   4
ATOM      4  O   UNL     1       2.979   0.133   1.309  1.00  0.00    -0.460 OA
BRANCH   4   5
ATOM      5  C   UNL     1       2.306   0.993   0.514  1.00  0.00     0.338 C 
ATOM      6  O   UNL     1       1.092   1.114   0.665  1.00  0.00    -0.246 OA
BRANCH   5   7
ATOM      7  C   UNL     1       2.964   1.830  -0.533  1.00  0.00     0.060 A 
ATOM      8  C   UNL     1       4.127   1.486  -1.226  1.00  0.00     0.016 A 
ATOM      9  C   UNL     1       2.300   3.010  -0.900  1.00  0.00     0.016 A 
ATOM     10  C   UNL     1       4.644   2.281  -2.229  1.00  0.00     0.010 A 
ATOM     11  C   UNL     1       2.802   3.817  -1.920  1.00  0.00     0.010 A 
ATOM     12  C   UNL     1       3.983   3.449  -2.572  1.00  0.00    -0.014 A 
BRANCH  12  13
ATOM     13  C   UNL     1       4.650   4.347  -3.515  1.00  0.00     0.031 A 
ATOM     14  C   UNL     1       5.376   5.517  -2.948  1.00  0.00     0.074 A 
ATOM     15  C   UNL     1       4.671   4.038  -4.820  1.00  0.00     0.049 A 
ATOM     16  N   UNL     1       5.920   6.528  -3.560  1.00  0.00    -0.248 NA
ATOM     17  C   UNL     1       5.509   5.547  -1.480  1.00  0.00     0.031 C 
ATOM     18  C   UNL     1       4.111   2.820  -5.409  1.00  0.00     0.029 A 
ATOM     19  N   UNL     1       5.185   4.724  -5.882  1.00  0.00    -0.354 N 
ATOM     20  C   UNL     1       6.415   7.342  -2.552  1.00  0.00     0.074 A 
ATOM     21  C   UNL     1       6.116   6.706  -1.291  1.00  0.00     0.031 C 
ATOM     22  C   UNL     1       4.291   2.858  -6.738  1.00  0.00     0.029 A 
ATOM     23  C   UNL     1       4.907   4.133  -7.088  1.00  0.00     0.049 A 
ATOM     24  H   UNL     1       5.702   5.557  -5.792  1.00  0.00     0.167 HD
ATOM     25  C   UNL     1       7.043   8.530  -2.691  1.00  0.00     0.037 A 
ATOM     26  C   UNL     1       5.079   4.615  -8.331  1.00  0.00     0.037 A 
ATOM     27  C   UNL     1       7.297   9.120  -3.976  1.00  0.00     0.049 A 
ATOM     28  C   UNL     1       5.686   5.984  -8.467  1.00  0.00     0.074 A 
ATOM     29  C   UNL     1       7.874  10.338  -4.275  1.00  0.00     0.029 A 
ATOM     30  N   UNL     1       6.968   8.518  -5.187  1.00  0.00    -0.354 N 
ATOM     31  N   UNL     1       6.095   6.799  -7.521  1.00  0.00    -0.248 NA
ATOM     32  C   UNL     1       5.846   6.510  -9.825  1.00  0.00     0.031 C 
ATOM     33  C   UNL     1       7.840  10.496  -5.665  1.00  0.00     0.029 A 
ATOM     34  C   UNL     1       7.308   9.348  -6.237  1.00  0.00     0.049 A 
ATOM     35  H   UNL     1       6.554   7.629  -5.281  1.00  0.00     0.167 HD
ATOM     36  C   UNL     1       6.589   7.922  -8.166  1.00  0.00     0.074 A 
ATOM     37  C   UNL     1       6.423   7.681  -9.589  1.00  0.00     0.031 C 
ATOM     38  C   UNL     1       7.135   9.047  -7.640  1.00  0.00     0.037 A 
BRANCH  25  39
ATOM     39  C   UNL     1       7.369   9.273  -1.429  1.00  0.00     0.057 A 
ATOM     40  C   UNL     1       8.321   8.816  -0.507  1.00  0.00     0.134 A 
ATOM     41  C   UNL     1       6.645  10.423  -1.087  1.00  0.00     0.134 A 
ATOM     42  F   UNL     1       9.027   7.702  -0.753  1.00  0.00    -0.206 F 
ATOM     43  C   UNL     1       8.503   9.444   0.728  1.00  0.00     0.040 A 
ATOM     44  C   UNL     1       6.841  11.078   0.129  1.00  0.00     0.040 A 
ATOM     45  F   UNL     1       5.712  10.913  -1.917  1.00  0.00    -0.206 F 
ATOM     46  C   UNL     1       7.761  10.579   1.048  1.00  0.00     0.006 A 
ENDBRANCH  25  39
BRANCH  26  47
ATOM     47  C   UNL     1       4.616   3.824  -9.498  1.00  0.00     0.057 A 
ATOM     48  C   UNL     1       5.519   3.258 -10.402  1.00  0.00     0.134 A 
ATOM     49  C   UNL     1       3.252   3.567  -9.706  1.00  0.00     0.134 A 
ATOM     50  F   UNL     1       6.835   3.475 -10.266  1.00  0.00    -0.206 F 
ATOM     51  C   UNL     1       5.086   2.467 -11.470  1.00  0.00     0.040 A 
ATOM     52  C   UNL     1       2.808   2.759 -10.753  1.00  0.00     0.040 A 
ATOM     53  F   UNL     1       2.333   4.073  -8.870  1.00  0.00    -0.206 F 
ATOM     54  C   UNL     1       3.727   2.208 -11.642  1.00  0.00     0.006 A 
ENDBRANCH  26  47
BRANCH  38  55
ATOM     55  C   UNL     1       7.648  10.072  -8.604  1.00  0.00     0.057 A 
ATOM     56  C   UNL     1       6.789  10.918  -9.313  1.00  0.00     0.134 A 
ATOM     57  C   UNL     1       9.027  10.279  -8.733  1.00  0.00     0.134 A 
ATOM     58  F   UNL     1       5.459  10.759  -9.238  1.00  0.00    -0.206 F 
ATOM     59  C   UNL     1       7.288  11.940 -10.122  1.00  0.00     0.040 A 
ATOM     60  C   UNL     1       9.536  11.314  -9.515  1.00  0.00     0.040 A 
ATOM     61  F   UNL     1       9.898   9.504  -8.068  1.00  0.00    -0.206 F 
ATOM     62  C   UNL     1       8.664  12.148 -10.212  1.00  0.00     0.006 A 
ENDBRANCH  38  55
ENDBRANCH  12  13
ENDBRANCH   5   7
ENDBRANCH   4   5
ENDBRANCH   3   4
ENDBRANCH   2   3
ENDBRANCH   1   2
BRANCH   1  63
ATOM     63  C   UNL     1       2.766  -1.723  -1.190  1.00  0.00     0.202 C 
BRANCH  63  64
ATOM     64  C   UNL     1       2.631  -2.881  -2.181  1.00  0.00     0.261 C 
BRANCH  64  65
ATOM     65  O   UNL     1       3.114  -4.069  -1.542  1.00  0.00    -0.463 OA
BRANCH  65  66
ATOM     66  C   UNL     1       4.447  -4.276  -1.662  1.00  0.00     0.309 C 
ATOM     67  O   UNL     1       5.167  -3.945  -2.596  1.00  0.00    -0.252 OA
BRANCH  66  68
ATOM     68  C   UNL     1       4.978  -4.815  -0.400  1.00  0.00     0.112 C 
ATOM     69  C   UNL     1       6.371  -5.349  -0.249  1.00  0.00     0.030 C 
ATOM     70  C   UNL     1       5.202  -6.293  -0.212  1.00  0.00     0.093 C 
BRANCH  70  71
ATOM     71  C   UNL     1       4.468  -6.928   0.914  1.00  0.00     0.224 C 
ATOM     72  O   UNL     1       3.656  -7.808   0.632  1.00  0.00    -0.275 OA
ATOM     73  N   UNL     1       4.585  -6.601   2.236  1.00  0.00    -0.342 N 
ATOM     74  H   UNL     1       4.004  -7.138   2.823  1.00  0.00     0.164 HD
BRANCH  73  75
ATOM     75  C   UNL     1       5.386  -5.627   2.957  1.00  0.00     0.202 C 
ATOM     76  C   UNL     1       5.684  -6.011   4.401  1.00  0.00     0.228 C 
ATOM     77  C   UNL     1       4.718  -4.302   3.263  1.00  0.00     0.268 C 
ATOM     78  O   UNL     1       6.101  -4.786   5.030  1.00  0.00    -0.271 OA
ATOM     79  N   UNL     1       5.333  -3.789   4.381  1.00  0.00    -0.233 N 
ATOM     80  O   UNL     1       3.839  -3.743   2.631  1.00  0.00    -0.270 OA
ATOM     81  H   UNL     1       5.251  -2.857   4.688  1.00  0.00     0.199 HD
ENDBRANCH  73  75
ENDBRANCH  70  71
ENDBRANCH  66  68
ENDBRANCH  65  66
ENDBRANCH  64  65
ENDBRANCH  63  64
ENDBRANCH   1  63
TORSDOF 16
