REMARK SMILES Cc1cccc(C)c1Nc1ccccc1CC(=O)OCCOCCOC(=O)c1ccc(-c2c3nc(c(-c4c(F)cccc4F)c4ccc([nH]4)c(-c4c(F)cccc4F)c4nc(c(-c5c(F)cccc5F)c5ccc2[nH]5)C=C4)C=C3)cc1
REMARK SMILES IDX 21 1 20 2 19 3 17 4 18 5 16 6 15 7 10 8 11 9 12 10 14 11
REMARK SMILES IDX 13 12 9 13 8 15 1 16 2 17 3 18 4 19 6 20 5 21 7 22 22 23
REMARK SMILES IDX 23 24 24 25 25 26 26 27 27 28 28 29 29 30 81 31 30 32 80 33
REMARK SMILES IDX 31 34 32 35 33 36 74 37 34 38 79 39 73 40 75 41 35 42 78 43
REMARK SMILES IDX 72 44 71 45 36 47 62 48 45 49 61 50 46 51 49 52 60 53 76 54
REMARK SMILES IDX 47 55 48 56 59 58 77 59 50 60 37 61 38 62 43 63 39 64 40 65
REMARK SMILES IDX 42 66 44 67 41 68 63 69 64 70 69 71 65 72 66 73 68 74 70 75
REMARK SMILES IDX 67 76 51 77 52 78 57 79 53 80 54 81 56 82 58 83 55 84
REMARK H PARENT 9 14 75 46 49 57
REMARK Flexibility Score: inf
ROOT
ATOM      1  C   UNL     1      -1.531   4.498   5.738  1.00  0.00     0.202 C 
ENDROOT
BRANCH   1   2
ATOM      2  C   UNL     1      -0.553   3.542   5.046  1.00  0.00     0.261 C 
BRANCH   2   3
ATOM      3  O   UNL     1      -0.904   3.255   3.679  1.00  0.00    -0.463 OA
BRANCH   3   4
ATOM      4  C   UNL     1      -1.280   1.971   3.446  1.00  0.00     0.310 C 
ATOM      5  O   UNL     1      -1.269   1.086   4.301  1.00  0.00    -0.252 OA
BRANCH   4   6
ATOM      6  C   UNL     1      -1.742   1.667   2.044  1.00  0.00     0.160 C 
BRANCH   6   7
ATOM      7  C   UNL     1      -1.932   2.781   1.029  1.00  0.00    -0.013 A 
ATOM      8  C   UNL     1      -1.036   3.029  -0.032  1.00  0.00     0.042 A 
ATOM      9  C   UNL     1      -1.274   4.126  -0.886  1.00  0.00     0.026 A 
ATOM     10  C   UNL     1      -2.414   4.917  -0.760  1.00  0.00     0.002 A 
ATOM     11  C   UNL     1      -3.107   3.558   1.099  1.00  0.00     0.006 A 
ATOM     12  C   UNL     1      -3.346   4.615   0.220  1.00  0.00     0.000 A 
BRANCH   8  13
ATOM     13  N   UNL     1       0.004   2.157  -0.412  1.00  0.00    -0.355 N 
ATOM     14  H   UNL     1       0.835   2.616  -0.673  1.00  0.00     0.167 HD
BRANCH  13  15
ATOM     15  C   UNL     1       0.078   0.745  -0.488  1.00  0.00     0.044 A 
ATOM     16  C   UNL     1       2.576   0.950   0.002  1.00  0.00     0.046 C 
ATOM     17  C   UNL     1       1.326   0.134  -0.202  1.00  0.00    -0.027 A 
ATOM     18  C   UNL     1       1.410  -1.260  -0.053  1.00  0.00     0.005 A 
ATOM     19  C   UNL     1       0.280  -2.057  -0.192  1.00  0.00     0.001 A 
ATOM     20  C   UNL     1      -1.049  -0.086  -0.715  1.00  0.00    -0.027 A 
ATOM     21  C   UNL     1      -0.936  -1.475  -0.529  1.00  0.00     0.005 A 
ATOM     22  C   UNL     1      -2.403   0.425  -1.137  1.00  0.00     0.046 C 
ENDBRANCH  13  15
ENDBRANCH   8  13
ENDBRANCH   6   7
ENDBRANCH   4   6
ENDBRANCH   3   4
ENDBRANCH   2   3
ENDBRANCH   1   2
BRANCH   1  23
ATOM     23  O   UNL     1      -2.903   4.113   5.794  1.00  0.00    -0.374 OA
BRANCH  23  24
ATOM     24  C   UNL     1      -3.653   4.200   4.584  1.00  0.00     0.202 C 
BRANCH  24  25
ATOM     25  C   UNL     1      -3.995   5.608   4.080  1.00  0.00     0.261 C 
BRANCH  25  26
ATOM     26  O   UNL     1      -2.820   6.331   3.667  1.00  0.00    -0.460 OA
BRANCH  26  27
ATOM     27  C   UNL     1      -2.626   7.503   4.310  1.00  0.00     0.338 C 
ATOM     28  O   UNL     1      -3.397   8.065   5.080  1.00  0.00    -0.246 OA
BRANCH  27  29
ATOM     29  C   UNL     1      -1.242   7.971   4.124  1.00  0.00     0.060 A 
ATOM     30  C   UNL     1      -0.480   8.184   5.280  1.00  0.00     0.016 A 
ATOM     31  C   UNL     1      -0.731   8.296   2.866  1.00  0.00     0.016 A 
ATOM     32  C   UNL     1       0.771   8.786   5.190  1.00  0.00     0.010 A 
ATOM     33  C   UNL     1       0.523   8.913   2.778  1.00  0.00     0.010 A 
ATOM     34  C   UNL     1       1.257   9.201   3.944  1.00  0.00    -0.014 A 
BRANCH  34  35
ATOM     35  C   UNL     1       2.444  10.089   3.902  1.00  0.00     0.031 A 
ATOM     36  C   UNL     1       2.235  11.576   3.809  1.00  0.00     0.074 A 
ATOM     37  C   UNL     1       3.686   9.587   4.017  1.00  0.00     0.049 A 
ATOM     38  N   UNL     1       3.120  12.540   3.791  1.00  0.00    -0.248 NA
ATOM     39  C   UNL     1       0.840  12.038   3.731  1.00  0.00     0.031 C 
ATOM     40  C   UNL     1       4.014   8.169   4.157  1.00  0.00     0.029 A 
ATOM     41  N   UNL     1       4.903  10.220   4.040  1.00  0.00    -0.354 N 
ATOM     42  C   UNL     1       2.391  13.719   3.700  1.00  0.00     0.074 A 
ATOM     43  C   UNL     1       0.994  13.351   3.634  1.00  0.00     0.031 C 
ATOM     44  C   UNL     1       5.349   8.039   4.247  1.00  0.00     0.029 A 
ATOM     45  C   UNL     1       5.967   9.360   4.149  1.00  0.00     0.049 A 
ATOM     46  H   UNL     1       5.003  11.198   3.983  1.00  0.00     0.167 HD
ATOM     47  C   UNL     1       2.844  14.995   3.684  1.00  0.00     0.037 A 
ATOM     48  C   UNL     1       7.290   9.613   4.155  1.00  0.00     0.037 A 
ATOM     49  C   UNL     1       4.233  15.363   3.752  1.00  0.00     0.049 A 
ATOM     50  C   UNL     1       7.772  11.036   4.070  1.00  0.00     0.074 A 
ATOM     51  C   UNL     1       4.792  16.629   3.759  1.00  0.00     0.029 A 
ATOM     52  N   UNL     1       5.284  14.460   3.818  1.00  0.00    -0.354 N 
ATOM     53  N   UNL     1       7.074  12.144   4.009  1.00  0.00    -0.248 NA
ATOM     54  C   UNL     1       9.228  11.244   4.058  1.00  0.00     0.031 C 
ATOM     55  C   UNL     1       6.184  16.491   3.784  1.00  0.00     0.029 A 
ATOM     56  C   UNL     1       6.490  15.141   3.840  1.00  0.00     0.049 A 
ATOM     57  H   UNL     1       5.187  13.481   3.846  1.00  0.00     0.167 HD
ATOM     58  C   UNL     1       8.001  13.179   3.976  1.00  0.00     0.074 A 
ATOM     59  C   UNL     1       9.312  12.567   4.036  1.00  0.00     0.031 C 
ATOM     60  C   UNL     1       7.786  14.516   3.903  1.00  0.00     0.037 A 
BRANCH  47  61
ATOM     61  C   UNL     1       1.823  16.088   3.565  1.00  0.00     0.057 A 
ATOM     62  C   UNL     1       0.982  16.434   4.630  1.00  0.00     0.134 A 
ATOM     63  C   UNL     1       1.698  16.820   2.378  1.00  0.00     0.134 A 
ATOM     64  F   UNL     1       1.041  15.761   5.789  1.00  0.00    -0.206 F 
ATOM     65  C   UNL     1       0.038  17.457   4.512  1.00  0.00     0.040 A 
ATOM     66  C   UNL     1       0.775  17.860   2.255  1.00  0.00     0.040 A 
ATOM     67  F   UNL     1       2.475  16.541   1.320  1.00  0.00    -0.206 F 
ATOM     68  C   UNL     1      -0.062  18.177   3.323  1.00  0.00     0.006 A 
ENDBRANCH  47  61
BRANCH  48  69
ATOM     69  C   UNL     1       8.259   8.490   4.236  1.00  0.00     0.057 A 
ATOM     70  C   UNL     1       9.040   8.284   5.378  1.00  0.00     0.134 A 
ATOM     71  C   UNL     1       8.436   7.607   3.164  1.00  0.00     0.134 A 
ATOM     72  F   UNL     1       8.933   9.111   6.428  1.00  0.00    -0.206 F 
ATOM     73  C   UNL     1       9.974   7.248   5.447  1.00  0.00     0.040 A 
ATOM     74  C   UNL     1       9.349   6.554   3.228  1.00  0.00     0.040 A 
ATOM     75  F   UNL     1       7.718   7.753   2.041  1.00  0.00    -0.206 F 
ATOM     76  C   UNL     1      10.126   6.376   4.370  1.00  0.00     0.006 A 
ENDBRANCH  48  69
BRANCH  60  77
ATOM     77  C   UNL     1       8.992  15.407   3.913  1.00  0.00     0.057 A 
ATOM     78  C   UNL     1       9.832  15.524   2.798  1.00  0.00     0.134 A 
ATOM     79  C   UNL     1       9.293  16.190   5.035  1.00  0.00     0.134 A 
ATOM     80  F   UNL     1       9.605  14.793   1.696  1.00  0.00    -0.206 F 
ATOM     81  C   UNL     1      10.940  16.374   2.806  1.00  0.00     0.040 A 
ATOM     82  C   UNL     1      10.383  17.060   5.047  1.00  0.00     0.040 A 
ATOM     83  F   UNL     1       8.523  16.131   6.132  1.00  0.00    -0.206 F 
ATOM     84  C   UNL     1      11.214  17.150   3.931  1.00  0.00     0.006 A 
ENDBRANCH  60  77
ENDBRANCH  34  35
ENDBRANCH  27  29
ENDBRANCH  26  27
ENDBRANCH  25  26
ENDBRANCH  24  25
ENDBRANCH  23  24
ENDBRANCH   1  23
TORSDOF 17
