REMARK SMILES Cc1cc(C)c2c(CCCC(=O)OCCOCCOC(=O)c3ccc(-c4c5nc(c(-c6c(F)cccc6F)c6ccc([nH]6)c(-c6c(F)cccc6F)c6nc(c(-c7c(F)cccc7F)c7ccc4[nH]7)C=C6)C=C5)cc3)c(-c3ccccn3)[nH]c2c1
REMARK SMILES IDX 15 1 14 2 13 3 11 4 12 5 10 6 9 7 8 8 7 9 1 10 2 11 3 12
REMARK SMILES IDX 85 13 4 14 84 15 5 16 6 17 83 18 76 19 77 21 78 22 82 23
REMARK SMILES IDX 79 24 81 25 80 26 16 27 17 28 18 29 19 30 20 31 21 32 22 33
REMARK SMILES IDX 23 34 75 35 24 36 74 37 25 38 26 39 27 40 68 41 28 42 73 43
REMARK SMILES IDX 67 44 69 45 29 46 72 47 66 48 65 49 30 51 56 52 39 53 55 54
REMARK SMILES IDX 40 55 43 56 54 57 70 58 41 59 42 60 53 62 71 63 44 64 31 65
REMARK SMILES IDX 32 66 37 67 33 68 34 69 36 70 38 71 35 72 57 73 58 74 63 75
REMARK SMILES IDX 59 76 60 77 62 78 64 79 61 80 45 81 46 82 51 83 47 84 48 85
REMARK SMILES IDX 50 86 52 87 49 88
REMARK H PARENT 83 20 69 50 43 61
REMARK Flexibility Score: inf
ROOT
ATOM      1  C   UNL     1      -1.488  10.505  -2.932  1.00  0.00     0.202 C 
ENDROOT
BRANCH   1   2
ATOM      2  C   UNL     1      -0.371   9.864  -2.121  1.00  0.00     0.261 C 
BRANCH   2   3
ATOM      3  O   UNL     1      -0.887   8.920  -1.171  1.00  0.00    -0.463 OA
BRANCH   3   4
ATOM      4  C   UNL     1      -0.818   9.258   0.140  1.00  0.00     0.305 C 
ATOM      5  O   UNL     1      -0.396  10.332   0.557  1.00  0.00    -0.252 OA
BRANCH   4   6
ATOM      6  C   UNL     1      -1.429   8.217   1.057  1.00  0.00     0.123 C 
BRANCH   6   7
ATOM      7  C   UNL     1      -2.167   7.027   0.452  1.00  0.00     0.017 C 
BRANCH   7   8
ATOM      8  C   UNL     1      -1.493   6.195  -0.640  1.00  0.00     0.039 C 
BRANCH   8   9
ATOM      9  C   UNL     1      -0.299   5.366  -0.273  1.00  0.00    -0.013 A 
ATOM     10  C   UNL     1       0.997  -0.229  -0.032  1.00  0.00     0.044 C 
ATOM     11  C   UNL     1       0.576   1.208  -0.119  1.00  0.00    -0.049 A 
ATOM     12  C   UNL     1      -0.754   1.528  -0.394  1.00  0.00     0.007 A 
ATOM     13  C   UNL     1       1.497   2.228   0.117  1.00  0.00     0.030 A 
ATOM     14  C   UNL     1      -1.214   2.864  -0.465  1.00  0.00    -0.041 A 
ATOM     15  C   UNL     1       1.049   3.550   0.042  1.00  0.00     0.047 A 
ATOM     16  C   UNL     1      -2.675   3.066  -0.781  1.00  0.00     0.045 C 
ATOM     17  C   UNL     1      -0.268   3.911  -0.246  1.00  0.00     0.006 A 
ATOM     18  N   UNL     1       1.765   4.702   0.225  1.00  0.00    -0.353 N 
ATOM     19  C   UNL     1       1.003   5.809  -0.028  1.00  0.00     0.068 A 
ATOM     20  H   UNL     1       2.709   4.730   0.504  1.00  0.00     0.167 HD
BRANCH  19  21
ATOM     21  C   UNL     1       1.639   7.118   0.014  1.00  0.00     0.087 A 
ATOM     22  C   UNL     1       2.210   7.706  -1.106  1.00  0.00     0.030 A 
ATOM     23  N   UNL     1       1.658   7.689   1.238  1.00  0.00    -0.255 NA
ATOM     24  C   UNL     1       2.754   8.984  -0.978  1.00  0.00     0.004 A 
ATOM     25  C   UNL     1       2.164   8.941   1.326  1.00  0.00     0.112 A 
ATOM     26  C   UNL     1       2.705   9.628   0.254  1.00  0.00     0.020 A 
ENDBRANCH  19  21
ENDBRANCH   8   9
ENDBRANCH   7   8
ENDBRANCH   6   7
ENDBRANCH   4   6
ENDBRANCH   3   4
ENDBRANCH   2   3
ENDBRANCH   1   2
BRANCH   1  27
ATOM     27  O   UNL     1      -2.382  11.388  -2.255  1.00  0.00    -0.374 OA
BRANCH  27  28
ATOM     28  C   UNL     1      -3.235  10.903  -1.224  1.00  0.00     0.202 C 
BRANCH  28  29
ATOM     29  C   UNL     1      -4.441  10.068  -1.622  1.00  0.00     0.261 C 
BRANCH  29  30
ATOM     30  O   UNL     1      -4.056   8.890  -2.310  1.00  0.00    -0.460 OA
BRANCH  30  31
ATOM     31  C   UNL     1      -4.133   9.009  -3.658  1.00  0.00     0.338 C 
ATOM     32  O   UNL     1      -4.300  10.021  -4.302  1.00  0.00    -0.246 OA
BRANCH  31  33
ATOM     33  C   UNL     1      -4.183   7.658  -4.228  1.00  0.00     0.060 A 
ATOM     34  C   UNL     1      -4.681   7.616  -5.524  1.00  0.00     0.016 A 
ATOM     35  C   UNL     1      -4.183   6.538  -3.382  1.00  0.00     0.016 A 
ATOM     36  C   UNL     1      -5.493   6.561  -5.839  1.00  0.00     0.010 A 
ATOM     37  C   UNL     1      -4.973   5.466  -3.712  1.00  0.00     0.010 A 
ATOM     38  C   UNL     1      -5.709   5.553  -4.883  1.00  0.00    -0.014 A 
BRANCH  38  39
ATOM     39  C   UNL     1      -6.632   4.506  -5.249  1.00  0.00     0.031 A 
ATOM     40  C   UNL     1      -6.086   3.730  -6.375  1.00  0.00     0.074 A 
ATOM     41  C   UNL     1      -7.824   4.301  -4.660  1.00  0.00     0.049 A 
ATOM     42  N   UNL     1      -6.418   3.859  -7.613  1.00  0.00    -0.248 NA
ATOM     43  C   UNL     1      -4.862   2.945  -6.154  1.00  0.00     0.031 C 
ATOM     44  C   UNL     1      -8.334   4.866  -3.408  1.00  0.00     0.029 A 
ATOM     45  N   UNL     1      -8.829   3.467  -5.053  1.00  0.00    -0.354 N 
ATOM     46  C   UNL     1      -5.611   2.965  -8.300  1.00  0.00     0.074 A 
ATOM     47  C   UNL     1      -4.543   2.612  -7.406  1.00  0.00     0.031 C 
ATOM     48  C   UNL     1      -9.443   4.185  -3.029  1.00  0.00     0.029 A 
ATOM     49  C   UNL     1      -9.810   3.261  -4.089  1.00  0.00     0.049 A 
ATOM     50  H   UNL     1      -8.857   3.048  -5.944  1.00  0.00     0.167 HD
ATOM     51  C   UNL     1      -6.102   2.349  -9.406  1.00  0.00     0.037 A 
ATOM     52  C   UNL     1     -10.824   2.364  -4.179  1.00  0.00     0.037 A 
ATOM     53  C   UNL     1      -7.271   3.039  -9.896  1.00  0.00     0.049 A 
ATOM     54  C   UNL     1     -11.031   2.080  -5.617  1.00  0.00     0.074 A 
ATOM     55  C   UNL     1      -7.535   4.174 -10.630  1.00  0.00     0.029 A 
ATOM     56  N   UNL     1      -8.418   2.711  -9.222  1.00  0.00    -0.354 N 
ATOM     57  N   UNL     1     -11.514   2.955  -6.452  1.00  0.00    -0.248 NA
ATOM     58  C   UNL     1     -10.372   0.927  -6.223  1.00  0.00     0.031 C 
ATOM     59  C   UNL     1      -8.856   4.583 -10.276  1.00  0.00     0.029 A 
ATOM     60  C   UNL     1      -9.383   3.669  -9.369  1.00  0.00     0.049 A 
ATOM     61  H   UNL     1      -8.534   1.887  -8.697  1.00  0.00     0.167 HD
ATOM     62  C   UNL     1     -10.858   2.689  -7.636  1.00  0.00     0.074 A 
ATOM     63  C   UNL     1     -10.317   1.344  -7.491  1.00  0.00     0.031 C 
ATOM     64  C   UNL     1     -10.524   3.702  -8.484  1.00  0.00     0.037 A 
BRANCH  51  65
ATOM     65  C   UNL     1      -5.887   0.883  -9.701  1.00  0.00     0.057 A 
ATOM     66  C   UNL     1      -6.393   0.357 -10.902  1.00  0.00     0.134 A 
ATOM     67  C   UNL     1      -5.498  -0.081  -8.746  1.00  0.00     0.134 A 
ATOM     68  F   UNL     1      -6.820   1.167 -11.883  1.00  0.00    -0.206 F 
ATOM     69  C   UNL     1      -6.555  -1.018 -11.110  1.00  0.00     0.040 A 
ATOM     70  C   UNL     1      -5.609  -1.456  -8.963  1.00  0.00     0.040 A 
ATOM     71  F   UNL     1      -5.089   0.241  -7.514  1.00  0.00    -0.206 F 
ATOM     72  C   UNL     1      -6.167  -1.930 -10.136  1.00  0.00     0.006 A 
ENDBRANCH  51  65
BRANCH  52  73
ATOM     73  C   UNL     1     -11.466   1.521  -3.147  1.00  0.00     0.057 A 
ATOM     74  C   UNL     1     -12.686   0.875  -3.409  1.00  0.00     0.134 A 
ATOM     75  C   UNL     1     -10.738   1.048  -2.044  1.00  0.00     0.134 A 
ATOM     76  F   UNL     1     -13.441   1.244  -4.454  1.00  0.00    -0.206 F 
ATOM     77  C   UNL     1     -13.122  -0.226  -2.663  1.00  0.00     0.040 A 
ATOM     78  C   UNL     1     -11.165  -0.050  -1.288  1.00  0.00     0.040 A 
ATOM     79  F   UNL     1      -9.542   1.568  -1.735  1.00  0.00    -0.206 F 
ATOM     80  C   UNL     1     -12.348  -0.707  -1.612  1.00  0.00     0.006 A 
ENDBRANCH  52  73
BRANCH  64  81
ATOM     81  C   UNL     1     -11.302   4.973  -8.378  1.00  0.00     0.057 A 
ATOM     82  C   UNL     1     -11.221   5.873  -7.307  1.00  0.00     0.134 A 
ATOM     83  C   UNL     1     -12.108   5.337  -9.462  1.00  0.00     0.134 A 
ATOM     84  F   UNL     1     -10.427   5.630  -6.255  1.00  0.00    -0.206 F 
ATOM     85  C   UNL     1     -11.932   7.078  -7.313  1.00  0.00     0.040 A 
ATOM     86  C   UNL     1     -12.796   6.548  -9.494  1.00  0.00     0.040 A 
ATOM     87  F   UNL     1     -12.204   4.530 -10.531  1.00  0.00    -0.206 F 
ATOM     88  C   UNL     1     -12.715   7.422  -8.414  1.00  0.00     0.006 A 
ENDBRANCH  64  81
ENDBRANCH  38  39
ENDBRANCH  31  33
ENDBRANCH  30  31
ENDBRANCH  29  30
ENDBRANCH  28  29
ENDBRANCH  27  28
ENDBRANCH   1  27
TORSDOF 18
