REMARK SMILES CCc1cc(Oc2cncc(C(=O)OCCOCCOC(=O)c3ccc(-c4c5nc(c(-c6c(F)cccc6F)c6ccc([nH]6)c(-c6c(F)cccc6F)c6nc(c(-c7c(F)cccc7F)c7ccc4[nH]7)C=C6)C=C5)cc3)n2)ccc1Cl
REMARK SMILES IDX 16 1 15 2 14 3 12 4 13 5 11 6 7 7 8 8 77 9 9 10 10 11 6 12
REMARK SMILES IDX 5 13 3 14 4 15 80 16 79 17 81 18 78 19 2 20 1 21 17 22 18 23
REMARK SMILES IDX 19 24 20 25 21 26 22 27 23 28 24 29 76 30 25 31 75 32 26 33
REMARK SMILES IDX 27 34 28 35 69 36 29 37 74 38 68 39 70 40 30 41 73 42 67 43
REMARK SMILES IDX 66 44 31 46 57 47 40 48 56 49 41 50 44 51 55 52 71 53 42 54
REMARK SMILES IDX 43 55 54 57 72 58 45 59 32 60 33 61 38 62 34 63 35 64 37 65
REMARK SMILES IDX 39 66 36 67 58 68 59 69 64 70 60 71 61 72 63 73 65 74 62 75
REMARK SMILES IDX 46 76 47 77 52 78 48 79 49 80 51 81 53 82 50 83
REMARK H PARENT 70 45 44 56
REMARK Flexibility Score: inf
ROOT
ATOM      1  C   UNL     1      -0.779  -3.499 -10.915  1.00  0.00     0.202 C 
ENDROOT
BRANCH   1   2
ATOM      2  C   UNL     1      -0.038  -4.506 -10.031  1.00  0.00     0.261 C 
BRANCH   2   3
ATOM      3  O   UNL     1       0.566  -3.850  -8.903  1.00  0.00    -0.458 OA
BRANCH   3   4
ATOM      4  C   UNL     1       1.920  -3.776  -8.928  1.00  0.00     0.358 C 
ATOM      5  O   UNL     1       2.661  -4.331  -9.726  1.00  0.00    -0.244 OA
BRANCH   4   6
ATOM      6  C   UNL     1       2.420  -2.803  -7.925  1.00  0.00     0.170 A 
ATOM      7  C   UNL     1       2.194  -1.567  -5.998  1.00  0.00     0.238 A 
ATOM      8  C   UNL     1       3.467  -1.040  -6.208  1.00  0.00     0.179 A 
ATOM      9  N   UNL     1       1.650  -2.470  -6.853  1.00  0.00    -0.203 NA
ATOM     10  N   UNL     1       4.215  -1.331  -7.303  1.00  0.00    -0.257 NA
ATOM     11  C   UNL     1       3.663  -2.231  -8.152  1.00  0.00     0.147 A 
BRANCH   7  12
ATOM     12  O   UNL     1       1.447  -1.326  -4.870  1.00  0.00    -0.437 OA
BRANCH  12  13
ATOM     13  C   UNL     1       1.408  -0.071  -4.303  1.00  0.00     0.129 A 
ATOM     14  C   UNL     1       0.957   1.169  -2.228  1.00  0.00    -0.026 A 
ATOM     15  C   UNL     1       1.096  -0.043  -2.934  1.00  0.00     0.052 A 
ATOM     16  C   UNL     1       1.128   2.364  -2.951  1.00  0.00     0.044 A 
ATOM     17  C   UNL     1       1.431   2.340  -4.318  1.00  0.00     0.024 A 
ATOM     18  Cl  UNL     1       0.941   3.921  -2.221  1.00  0.00    -0.084 Cl
ATOM     19  C   UNL     1       1.550   1.127  -4.999  1.00  0.00     0.049 A 
BRANCH  14  20
ATOM     20  C   UNL     1       0.526   1.181  -0.773  1.00  0.00     0.034 C 
ATOM     21  C   UNL     1       0.974  -0.003   0.077  1.00  0.00     0.009 C 
ENDBRANCH  14  20
ENDBRANCH  12  13
ENDBRANCH   7  12
ENDBRANCH   4   6
ENDBRANCH   3   4
ENDBRANCH   2   3
ENDBRANCH   1   2
BRANCH   1  22
ATOM     22  O   UNL     1       0.046  -2.511 -11.536  1.00  0.00    -0.374 OA
BRANCH  22  23
ATOM     23  C   UNL     1       0.349  -1.350 -10.758  1.00  0.00     0.202 C 
BRANCH  23  24
ATOM     24  C   UNL     1      -0.737  -0.269 -10.728  1.00  0.00     0.261 C 
BRANCH  24  25
ATOM     25  O   UNL     1      -1.884  -0.698  -9.973  1.00  0.00    -0.460 OA
BRANCH  25  26
ATOM     26  C   UNL     1      -2.996  -0.934 -10.706  1.00  0.00     0.338 C 
ATOM     27  O   UNL     1      -3.153  -0.722 -11.901  1.00  0.00    -0.246 OA
BRANCH  26  28
ATOM     28  C   UNL     1      -3.990  -1.665  -9.898  1.00  0.00     0.060 A 
ATOM     29  C   UNL     1      -4.576  -2.800 -10.472  1.00  0.00     0.016 A 
ATOM     30  C   UNL     1      -4.392  -1.221  -8.636  1.00  0.00     0.016 A 
ATOM     31  C   UNL     1      -5.609  -3.462  -9.812  1.00  0.00     0.010 A 
ATOM     32  C   UNL     1      -5.434  -1.883  -7.977  1.00  0.00     0.010 A 
ATOM     33  C   UNL     1      -6.072  -2.983  -8.579  1.00  0.00    -0.014 A 
BRANCH  33  34
ATOM     34  C   UNL     1      -7.321  -3.538  -8.004  1.00  0.00     0.031 A 
ATOM     35  C   UNL     1      -8.611  -2.790  -8.209  1.00  0.00     0.074 A 
ATOM     36  C   UNL     1      -7.319  -4.713  -7.350  1.00  0.00     0.049 A 
ATOM     37  N   UNL     1      -9.814  -3.075  -7.781  1.00  0.00    -0.248 NA
ATOM     38  C   UNL     1      -8.532  -1.556  -9.008  1.00  0.00     0.031 C 
ATOM     39  C   UNL     1      -6.146  -5.556  -7.128  1.00  0.00     0.029 A 
ATOM     40  N   UNL     1      -8.346  -5.399  -6.752  1.00  0.00    -0.354 N 
ATOM     41  C   UNL     1     -10.635  -2.062  -8.261  1.00  0.00     0.074 A 
ATOM     42  C   UNL     1      -9.788  -1.135  -8.980  1.00  0.00     0.031 C 
ATOM     43  C   UNL     1      -6.519  -6.647  -6.436  1.00  0.00     0.029 A 
ATOM     44  C   UNL     1      -7.949  -6.563  -6.143  1.00  0.00     0.049 A 
ATOM     45  H   UNL     1      -9.280  -5.086  -6.758  1.00  0.00     0.167 HD
ATOM     46  C   UNL     1     -11.975  -1.922  -8.127  1.00  0.00     0.037 A 
ATOM     47  C   UNL     1      -8.657  -7.450  -5.417  1.00  0.00     0.037 A 
ATOM     48  C   UNL     1     -12.818  -2.838  -7.406  1.00  0.00     0.049 A 
ATOM     49  C   UNL     1     -10.132  -7.223  -5.206  1.00  0.00     0.074 A 
ATOM     50  C   UNL     1     -14.186  -2.776  -7.202  1.00  0.00     0.029 A 
ATOM     51  N   UNL     1     -12.371  -3.986  -6.770  1.00  0.00    -0.354 N 
ATOM     52  N   UNL     1     -10.898  -6.266  -5.669  1.00  0.00    -0.248 NA
ATOM     53  C   UNL     1     -10.840  -8.206  -4.371  1.00  0.00     0.031 C 
ATOM     54  C   UNL     1     -14.560  -3.866  -6.410  1.00  0.00     0.029 A 
ATOM     55  C   UNL     1     -13.433  -4.631  -6.159  1.00  0.00     0.049 A 
ATOM     56  H   UNL     1     -11.436  -4.295  -6.754  1.00  0.00     0.167 HD
ATOM     57  C   UNL     1     -12.180  -6.549  -5.213  1.00  0.00     0.074 A 
ATOM     58  C   UNL     1     -12.090  -7.772  -4.444  1.00  0.00     0.031 C 
ATOM     59  C   UNL     1     -13.329  -5.859  -5.414  1.00  0.00     0.037 A 
BRANCH  46  60
ATOM     60  C   UNL     1     -12.610  -0.724  -8.768  1.00  0.00     0.057 A 
ATOM     61  C   UNL     1     -12.766  -0.629 -10.157  1.00  0.00     0.134 A 
ATOM     62  C   UNL     1     -13.102   0.330  -7.988  1.00  0.00     0.134 A 
ATOM     63  F   UNL     1     -12.302  -1.598 -10.961  1.00  0.00    -0.206 F 
ATOM     64  C   UNL     1     -13.371   0.481 -10.748  1.00  0.00     0.040 A 
ATOM     65  C   UNL     1     -13.730   1.434  -8.566  1.00  0.00     0.040 A 
ATOM     66  F   UNL     1     -12.988   0.299  -6.651  1.00  0.00    -0.206 F 
ATOM     67  C   UNL     1     -13.862   1.514  -9.951  1.00  0.00     0.006 A 
ENDBRANCH  46  60
BRANCH  47  68
ATOM     68  C   UNL     1      -7.990  -8.635  -4.821  1.00  0.00     0.057 A 
ATOM     69  C   UNL     1      -8.277  -9.930  -5.269  1.00  0.00     0.134 A 
ATOM     70  C   UNL     1      -7.087  -8.505  -3.759  1.00  0.00     0.134 A 
ATOM     71  F   UNL     1      -9.154 -10.120  -6.265  1.00  0.00    -0.206 F 
ATOM     72  C   UNL     1      -7.708 -11.054  -4.668  1.00  0.00     0.040 A 
ATOM     73  C   UNL     1      -6.491  -9.619  -3.166  1.00  0.00     0.040 A 
ATOM     74  F   UNL     1      -6.772  -7.292  -3.282  1.00  0.00    -0.206 F 
ATOM     75  C   UNL     1      -6.809 -10.899  -3.614  1.00  0.00     0.006 A 
ENDBRANCH  47  68
BRANCH  59  76
ATOM     76  C   UNL     1     -14.589  -6.438  -4.839  1.00  0.00     0.057 A 
ATOM     77  C   UNL     1     -14.858  -6.410  -3.465  1.00  0.00     0.134 A 
ATOM     78  C   UNL     1     -15.562  -6.997  -5.678  1.00  0.00     0.134 A 
ATOM     79  F   UNL     1     -13.962  -5.900  -2.607  1.00  0.00    -0.206 F 
ATOM     80  C   UNL     1     -16.040  -6.939  -2.943  1.00  0.00     0.040 A 
ATOM     81  C   UNL     1     -16.758  -7.506  -5.171  1.00  0.00     0.040 A 
ATOM     82  F   UNL     1     -15.370  -7.046  -7.005  1.00  0.00    -0.206 F 
ATOM     83  C   UNL     1     -16.997  -7.484  -3.799  1.00  0.00     0.006 A 
ENDBRANCH  59  76
ENDBRANCH  33  34
ENDBRANCH  26  28
ENDBRANCH  25  26
ENDBRANCH  24  25
ENDBRANCH  23  24
ENDBRANCH  22  23
ENDBRANCH   1  22
TORSDOF 17
