REMARK SMILES Cc1nc2cc(C(=O)OCCOCCOC(=O)c3ccc(-c4c5nc(c(-c6c(F)cccc6F)c6ccc([nH]6)c(-c6c(F)cccc6F)c6nc(c(-c7c(F)cccc7F)c7ccc4[nH]7)C=C6)C=C5)cc3)ccc2n1C
REMARK SMILES IDX 13 1 12 2 11 3 10 4 9 5 7 6 8 7 6 8 1 9 2 10 3 11 75 12 4 13
REMARK SMILES IDX 74 14 76 15 5 16 73 17 72 18 14 19 15 20 16 21 17 22 18 23
REMARK SMILES IDX 19 24 71 25 20 26 70 27 21 28 22 29 23 30 64 31 24 32 69 33
REMARK SMILES IDX 63 34 65 35 25 36 68 37 62 38 61 39 26 41 52 42 35 43 51 44
REMARK SMILES IDX 36 45 39 46 50 47 66 48 37 49 38 50 49 52 67 53 40 54 27 55
REMARK SMILES IDX 28 56 33 57 29 58 30 59 32 60 34 61 31 62 53 63 54 64 59 65
REMARK SMILES IDX 55 66 56 67 58 68 60 69 57 70 41 71 42 72 47 73 43 74 44 75
REMARK SMILES IDX 46 76 48 77 45 78
REMARK H PARENT 65 40 39 51
REMARK Flexibility Score: inf
ROOT
ATOM      1  C   UNL     1       0.141  -1.796  -8.042  1.00  0.00     0.202 C 
ENDROOT
BRANCH   1   2
ATOM      2  O   UNL     1      -0.997  -2.302  -8.749  1.00  0.00    -0.374 OA
BRANCH   2   3
ATOM      3  C   UNL     1      -1.815  -1.369  -9.448  1.00  0.00     0.202 C 
BRANCH   3   4
ATOM      4  C   UNL     1      -2.805  -0.555  -8.605  1.00  0.00     0.261 C 
BRANCH   4   5
ATOM      5  O   UNL     1      -2.168   0.150  -7.528  1.00  0.00    -0.460 OA
BRANCH   5   6
ATOM      6  C   UNL     1      -2.508  -0.297  -6.293  1.00  0.00     0.338 C 
ATOM      7  O   UNL     1      -3.344  -1.146  -6.026  1.00  0.00    -0.246 OA
BRANCH   6   8
ATOM      8  C   UNL     1      -1.634   0.294  -5.259  1.00  0.00     0.062 A 
ATOM      9  C   UNL     1       1.109   0.078   0.045  1.00  0.00     0.087 C 
ATOM     10  C   UNL     1       0.515   0.286  -1.300  1.00  0.00     0.106 A 
ATOM     11  N   UNL     1      -0.055  -0.651  -2.026  1.00  0.00    -0.233 NA
ATOM     12  N   UNL     1       0.462   1.504  -1.945  1.00  0.00    -0.331 N 
ATOM     13  C   UNL     1      -0.511  -0.023  -3.153  1.00  0.00     0.090 A 
ATOM     14  C   UNL     1      -0.169   1.326  -3.156  1.00  0.00     0.068 A 
ATOM     15  C   UNL     1       0.913   2.756  -1.385  1.00  0.00     0.151 C 
ATOM     16  C   UNL     1      -1.254  -0.555  -4.210  1.00  0.00     0.046 A 
ATOM     17  C   UNL     1      -0.499   2.183  -4.219  1.00  0.00     0.029 A 
ATOM     18  C   UNL     1      -1.240   1.637  -5.280  1.00  0.00     0.018 A 
ENDBRANCH   6   8
ENDBRANCH   5   6
ENDBRANCH   4   5
ENDBRANCH   3   4
ENDBRANCH   2   3
ENDBRANCH   1   2
BRANCH   1  19
ATOM     19  C   UNL     1       1.196  -1.061  -8.879  1.00  0.00     0.261 C 
BRANCH  19  20
ATOM     20  O   UNL     1       0.803   0.310  -9.066  1.00  0.00    -0.460 OA
BRANCH  20  21
ATOM     21  C   UNL     1       0.775   0.763 -10.344  1.00  0.00     0.338 C 
ATOM     22  O   UNL     1       1.139   0.202 -11.353  1.00  0.00    -0.246 OA
BRANCH  21  23
ATOM     23  C   UNL     1      -0.000   2.011 -10.316  1.00  0.00     0.060 A 
ATOM     24  C   UNL     1       0.530   3.154  -9.723  1.00  0.00     0.016 A 
ATOM     25  C   UNL     1      -1.298   2.000 -10.837  1.00  0.00     0.016 A 
ATOM     26  C   UNL     1      -0.257   4.299  -9.647  1.00  0.00     0.010 A 
ATOM     27  C   UNL     1      -2.094   3.133 -10.722  1.00  0.00     0.010 A 
ATOM     28  C   UNL     1      -1.576   4.294 -10.138  1.00  0.00    -0.014 A 
BRANCH  28  29
ATOM     29  C   UNL     1      -2.344   5.553 -10.109  1.00  0.00     0.031 A 
ATOM     30  C   UNL     1      -3.212   5.841 -11.291  1.00  0.00     0.074 A 
ATOM     31  C   UNL     1      -2.648   6.155  -8.941  1.00  0.00     0.049 A 
ATOM     32  N   UNL     1      -4.427   5.388 -11.409  1.00  0.00    -0.248 NA
ATOM     33  C   UNL     1      -2.686   6.449 -12.512  1.00  0.00     0.031 C 
ATOM     34  C   UNL     1      -2.902   5.425  -7.693  1.00  0.00     0.029 A 
ATOM     35  N   UNL     1      -3.022   7.447  -8.667  1.00  0.00    -0.354 N 
ATOM     36  C   UNL     1      -4.819   5.604 -12.718  1.00  0.00     0.074 A 
ATOM     37  C   UNL     1      -3.713   6.283 -13.360  1.00  0.00     0.031 C 
ATOM     38  C   UNL     1      -3.544   6.248  -6.840  1.00  0.00     0.029 A 
ATOM     39  C   UNL     1      -3.604   7.593  -7.411  1.00  0.00     0.049 A 
ATOM     40  H   UNL     1      -2.892   8.195  -9.294  1.00  0.00     0.167 HD
ATOM     41  C   UNL     1      -6.018   5.201 -13.215  1.00  0.00     0.037 A 
ATOM     42  C   UNL     1      -4.568   8.501  -7.102  1.00  0.00     0.037 A 
ATOM     43  C   UNL     1      -6.886   4.524 -12.301  1.00  0.00     0.049 A 
ATOM     44  C   UNL     1      -5.719   8.024  -7.940  1.00  0.00     0.074 A 
ATOM     45  C   UNL     1      -7.182   3.222 -11.957  1.00  0.00     0.029 A 
ATOM     46  N   UNL     1      -7.654   5.287 -11.455  1.00  0.00    -0.354 N 
ATOM     47  N   UNL     1      -6.516   7.039  -7.634  1.00  0.00    -0.248 NA
ATOM     48  C   UNL     1      -5.784   8.451  -9.339  1.00  0.00     0.031 C 
ATOM     49  C   UNL     1      -7.731   3.293 -10.637  1.00  0.00     0.029 A 
ATOM     50  C   UNL     1      -7.675   4.630 -10.251  1.00  0.00     0.049 A 
ATOM     51  H   UNL     1      -8.100   6.137 -11.670  1.00  0.00     0.167 HD
ATOM     52  C   UNL     1      -6.990   6.549  -8.852  1.00  0.00     0.074 A 
ATOM     53  C   UNL     1      -6.535   7.488  -9.858  1.00  0.00     0.031 C 
ATOM     54  C   UNL     1      -7.553   5.314  -8.986  1.00  0.00     0.037 A 
BRANCH  41  55
ATOM     55  C   UNL     1      -6.525   5.540 -14.557  1.00  0.00     0.057 A 
ATOM     56  C   UNL     1      -6.312   4.726 -15.669  1.00  0.00     0.134 A 
ATOM     57  C   UNL     1      -7.445   6.589 -14.675  1.00  0.00     0.134 A 
ATOM     58  F   UNL     1      -5.455   3.697 -15.607  1.00  0.00    -0.206 F 
ATOM     59  C   UNL     1      -7.024   4.929 -16.854  1.00  0.00     0.040 A 
ATOM     60  C   UNL     1      -8.167   6.799 -15.847  1.00  0.00     0.040 A 
ATOM     61  F   UNL     1      -7.696   7.386 -13.623  1.00  0.00    -0.206 F 
ATOM     62  C   UNL     1      -7.966   5.957 -16.938  1.00  0.00     0.006 A 
ENDBRANCH  41  55
BRANCH  42  63
ATOM     63  C   UNL     1      -4.140   9.929  -7.027  1.00  0.00     0.057 A 
ATOM     64  C   UNL     1      -4.812  11.011  -7.609  1.00  0.00     0.134 A 
ATOM     65  C   UNL     1      -2.995  10.258  -6.274  1.00  0.00     0.134 A 
ATOM     66  F   UNL     1      -5.977  10.846  -8.249  1.00  0.00    -0.206 F 
ATOM     67  C   UNL     1      -4.312  12.318  -7.556  1.00  0.00     0.040 A 
ATOM     68  C   UNL     1      -2.495  11.561  -6.193  1.00  0.00     0.040 A 
ATOM     69  F   UNL     1      -2.338   9.311  -5.584  1.00  0.00    -0.206 F 
ATOM     70  C   UNL     1      -3.142  12.594  -6.858  1.00  0.00     0.006 A 
ENDBRANCH  42  63
BRANCH  54  71
ATOM     71  C   UNL     1      -7.739   4.573  -7.704  1.00  0.00     0.057 A 
ATOM     72  C   UNL     1      -6.946   3.465  -7.372  1.00  0.00     0.134 A 
ATOM     73  C   UNL     1      -8.692   4.989  -6.768  1.00  0.00     0.134 A 
ATOM     74  F   UNL     1      -5.990   3.024  -8.206  1.00  0.00    -0.206 F 
ATOM     75  C   UNL     1      -7.115   2.780  -6.169  1.00  0.00     0.040 A 
ATOM     76  C   UNL     1      -8.850   4.329  -5.548  1.00  0.00     0.040 A 
ATOM     77  F   UNL     1      -9.486   6.041  -7.024  1.00  0.00    -0.206 F 
ATOM     78  C   UNL     1      -8.065   3.216  -5.249  1.00  0.00     0.006 A 
ENDBRANCH  54  71
ENDBRANCH  28  29
ENDBRANCH  21  23
ENDBRANCH  20  21
ENDBRANCH  19  20
ENDBRANCH   1  19
TORSDOF 14
