REMARK SMILES O=C(OCCOCCOC(=O)[C@H](c1ccc(O)cc1)[NH+]1CC[NH+](Cc2cccc(Cl)c2)CC1)c1ccc(-c2c3nc(c(-c4c(F)cccc4F)c4ccc([nH]4)c(-c4c(F)cccc4F)c4nc(c(-c5c(F)cccc5F)c5ccc2[nH]5)C=C4)C=C3)cc1
REMARK SMILES IDX 7 1 6 2 5 3 4 4 3 5 2 6 1 7 34 8 35 9 87 10 36 11 86 12
REMARK SMILES IDX 37 13 38 14 39 15 80 16 40 17 85 18 79 19 81 20 41 21 84 22
REMARK SMILES IDX 78 23 77 24 42 26 68 27 51 28 67 29 52 30 55 31 66 32 82 33
REMARK SMILES IDX 53 34 54 35 65 37 83 38 56 39 43 40 44 41 49 42 45 43 46 44
REMARK SMILES IDX 48 45 50 46 47 47 69 48 70 49 75 50 71 51 72 52 74 53 76 54
REMARK SMILES IDX 73 55 57 56 58 57 63 58 59 59 60 60 62 61 64 62 61 63 8 64
REMARK SMILES IDX 9 65 10 66 11 67 12 68 20 69 21 70 33 71 22 73 32 74 23 75
REMARK SMILES IDX 24 77 25 78 26 79 31 80 27 81 29 82 28 83 30 84 13 85 14 86
REMARK SMILES IDX 19 87 15 88 18 89 16 90 17 91
REMARK H PARENT 81 25 55 36 20 72 23 76 17 92
REMARK Flexibility Score: inf
ROOT
ATOM      1  C   UNL     1       5.123  -5.092  -0.007  1.00  0.00     0.202 C 
ENDROOT
BRANCH   1   2
ATOM      2  O   UNL     1       5.512  -3.720   0.089  1.00  0.00    -0.374 OA
BRANCH   2   3
ATOM      3  C   UNL     1       6.768  -3.327  -0.445  1.00  0.00     0.202 C 
BRANCH   3   4
ATOM      4  C   UNL     1       7.928  -3.425   0.542  1.00  0.00     0.261 C 
BRANCH   4   5
ATOM      5  O   UNL     1       8.211  -4.806   0.817  1.00  0.00    -0.460 OA
BRANCH   5   6
ATOM      6  C   UNL     1       7.818  -5.554   1.870  1.00  0.00     0.338 C 
ATOM      7  O   UNL     1       8.103  -6.750   1.881  1.00  0.00    -0.246 OA
BRANCH   6   8
ATOM      8  C   UNL     1       7.034  -5.021   3.024  1.00  0.00     0.060 A 
ATOM      9  C   UNL     1       6.119  -3.969   2.950  1.00  0.00     0.016 A 
ATOM     10  C   UNL     1       7.137  -5.719   4.237  1.00  0.00     0.016 A 
ATOM     11  C   UNL     1       5.320  -3.618   4.016  1.00  0.00     0.010 A 
ATOM     12  C   UNL     1       6.348  -5.364   5.333  1.00  0.00     0.010 A 
ATOM     13  C   UNL     1       5.439  -4.310   5.211  1.00  0.00    -0.014 A 
BRANCH  13  14
ATOM     14  C   UNL     1       4.719  -3.741   6.351  1.00  0.00     0.031 A 
ATOM     15  C   UNL     1       5.486  -2.830   7.251  1.00  0.00     0.074 A 
ATOM     16  C   UNL     1       3.384  -3.873   6.417  1.00  0.00     0.049 A 
ATOM     17  N   UNL     1       5.105  -2.230   8.341  1.00  0.00    -0.248 NA
ATOM     18  C   UNL     1       6.874  -2.534   6.848  1.00  0.00     0.031 C 
ATOM     19  C   UNL     1       2.557  -4.579   5.433  1.00  0.00     0.029 A 
ATOM     20  N   UNL     1       2.486  -3.385   7.321  1.00  0.00    -0.354 N 
ATOM     21  C   UNL     1       6.214  -1.519   8.776  1.00  0.00     0.074 A 
ATOM     22  C   UNL     1       7.280  -1.746   7.829  1.00  0.00     0.031 C 
ATOM     23  C   UNL     1       1.266  -4.466   5.787  1.00  0.00     0.029 A 
ATOM     24  C   UNL     1       1.191  -3.756   7.057  1.00  0.00     0.049 A 
ATOM     25  H   UNL     1       2.742  -2.821   8.087  1.00  0.00     0.167 HD
ATOM     26  C   UNL     1       6.320  -0.761   9.889  1.00  0.00     0.037 A 
ATOM     27  C   UNL     1       0.088  -3.575   7.804  1.00  0.00     0.037 A 
ATOM     28  C   UNL     1       5.225  -0.579  10.800  1.00  0.00     0.049 A 
ATOM     29  C   UNL     1       0.262  -2.850   9.111  1.00  0.00     0.074 A 
ATOM     30  C   UNL     1       5.203   0.066  12.019  1.00  0.00     0.029 A 
ATOM     31  N   UNL     1       3.940  -1.062  10.571  1.00  0.00    -0.354 N 
ATOM     32  N   UNL     1       1.338  -2.276   9.600  1.00  0.00    -0.248 NA
ATOM     33  C   UNL     1      -0.913  -2.768   9.984  1.00  0.00     0.031 C 
ATOM     34  C   UNL     1       3.916  -0.073  12.552  1.00  0.00     0.029 A 
ATOM     35  C   UNL     1       3.120  -0.751  11.637  1.00  0.00     0.049 A 
ATOM     36  H   UNL     1       3.657  -1.554   9.766  1.00  0.00     0.167 HD
ATOM     37  C   UNL     1       0.970  -1.751  10.829  1.00  0.00     0.074 A 
ATOM     38  C   UNL     1      -0.439  -2.059  10.999  1.00  0.00     0.031 C 
ATOM     39  C   UNL     1       1.718  -1.081  11.742  1.00  0.00     0.037 A 
BRANCH  26  40
ATOM     40  C   UNL     1       7.678  -0.210  10.201  1.00  0.00     0.057 A 
ATOM     41  C   UNL     1       8.268   0.816   9.450  1.00  0.00     0.134 A 
ATOM     42  C   UNL     1       8.449  -0.786  11.219  1.00  0.00     0.134 A 
ATOM     43  F   UNL     1       7.602   1.383   8.432  1.00  0.00    -0.206 F 
ATOM     44  C   UNL     1       9.585   1.223   9.677  1.00  0.00     0.040 A 
ATOM     45  C   UNL     1       9.757  -0.370  11.473  1.00  0.00     0.040 A 
ATOM     46  F   UNL     1       7.954  -1.785  11.966  1.00  0.00    -0.206 F 
ATOM     47  C   UNL     1      10.333   0.629  10.692  1.00  0.00     0.006 A 
ENDBRANCH  26  40
BRANCH  27  48
ATOM     48  C   UNL     1      -1.217  -4.151   7.387  1.00  0.00     0.057 A 
ATOM     49  C   UNL     1      -2.325  -3.341   7.115  1.00  0.00     0.134 A 
ATOM     50  C   UNL     1      -1.397  -5.537   7.269  1.00  0.00     0.134 A 
ATOM     51  F   UNL     1      -2.229  -2.008   7.226  1.00  0.00    -0.206 F 
ATOM     52  C   UNL     1      -3.563  -3.884   6.760  1.00  0.00     0.040 A 
ATOM     53  C   UNL     1      -2.620  -6.093   6.886  1.00  0.00     0.040 A 
ATOM     54  F   UNL     1      -0.381  -6.377   7.515  1.00  0.00    -0.206 F 
ATOM     55  C   UNL     1      -3.711  -5.265   6.640  1.00  0.00     0.006 A 
ENDBRANCH  27  48
BRANCH  39  56
ATOM     56  C   UNL     1       1.008  -0.615  12.974  1.00  0.00     0.057 A 
ATOM     57  C   UNL     1       0.622  -1.503  13.985  1.00  0.00     0.134 A 
ATOM     58  C   UNL     1       0.763   0.749  13.172  1.00  0.00     0.134 A 
ATOM     59  F   UNL     1       0.818  -2.823  13.843  1.00  0.00    -0.206 F 
ATOM     60  C   UNL     1      -0.001  -1.050  15.146  1.00  0.00     0.040 A 
ATOM     61  C   UNL     1       0.170   1.217  14.342  1.00  0.00     0.040 A 
ATOM     62  F   UNL     1       1.121   1.648  12.242  1.00  0.00    -0.206 F 
ATOM     63  C   UNL     1      -0.219   0.315  15.331  1.00  0.00     0.006 A 
ENDBRANCH  39  56
ENDBRANCH  13  14
ENDBRANCH   6   8
ENDBRANCH   5   6
ENDBRANCH   4   5
ENDBRANCH   3   4
ENDBRANCH   2   3
ENDBRANCH   1   2
BRANCH   1  64
ATOM     64  C   UNL     1       3.593  -5.111  -0.037  1.00  0.00     0.261 C 
BRANCH  64  65
ATOM     65  O   UNL     1       3.201  -4.430  -1.232  1.00  0.00    -0.459 OA
BRANCH  65  66
ATOM     66  C   UNL     1       3.243  -3.074  -1.227  1.00  0.00     0.369 C 
ATOM     67  O   UNL     1       2.947  -2.395  -0.245  1.00  0.00    -0.245 OA
BRANCH  66  68
ATOM     68  C   UNL     1       3.873  -2.535  -2.534  1.00  0.00     0.326 C 
BRANCH  68  69
ATOM     69  N   UNL     1       3.794  -3.419  -3.729  1.00  0.00    -0.310 N 
ATOM     70  C   UNL     1       4.621  -4.625  -3.763  1.00  0.00     0.325 C 
ATOM     71  C   UNL     1       2.466  -3.672  -4.274  1.00  0.00     0.325 C 
ATOM     72  H   UNL     1       4.259  -2.778  -4.372  1.00  0.00     0.349 HD
ATOM     73  C   UNL     1       3.943  -6.001  -3.476  1.00  0.00     0.324 C 
ATOM     74  C   UNL     1       1.740  -4.901  -3.695  1.00  0.00     0.324 C 
ATOM     75  N   UNL     1       2.498  -6.160  -3.709  1.00  0.00    -0.322 N 
ATOM     76  H   UNL     1       2.174  -6.659  -2.881  1.00  0.00     0.348 HD
BRANCH  75  77
ATOM     77  C   UNL     1       2.151  -7.055  -4.819  1.00  0.00     0.299 C 
BRANCH  77  78
ATOM     78  C   UNL     1       2.488  -6.490  -6.178  1.00  0.00     0.008 A 
ATOM     79  C   UNL     1       3.789  -6.603  -6.686  1.00  0.00     0.009 A 
ATOM     80  C   UNL     1       1.558  -5.682  -6.852  1.00  0.00     0.030 A 
ATOM     81  C   UNL     1       4.195  -5.819  -7.763  1.00  0.00     0.002 A 
ATOM     82  C   UNL     1       1.973  -4.893  -7.921  1.00  0.00     0.041 A 
ATOM     83  C   UNL     1       3.293  -4.941  -8.362  1.00  0.00     0.020 A 
ATOM     84  Cl  UNL     1       0.871  -3.776  -8.625  1.00  0.00    -0.084 Cl
ENDBRANCH  77  78
ENDBRANCH  75  77
ENDBRANCH  68  69
BRANCH  68  85
ATOM     85  C   UNL     1       3.413  -1.125  -2.920  1.00  0.00     0.021 A 
ATOM     86  C   UNL     1       2.087  -0.707  -2.720  1.00  0.00     0.014 A 
ATOM     87  C   UNL     1       4.278  -0.297  -3.661  1.00  0.00     0.014 A 
ATOM     88  C   UNL     1       1.606   0.447  -3.335  1.00  0.00     0.046 A 
ATOM     89  C   UNL     1       3.801   0.871  -4.256  1.00  0.00     0.046 A 
ATOM     90  C   UNL     1       2.460   1.205  -4.126  1.00  0.00     0.115 A 
BRANCH  90  91
ATOM     91  O   UNL     1       1.995   2.274  -4.833  1.00  0.00    -0.508 OA
ATOM     92  H   UNL     1       1.095   2.524  -4.766  1.00  0.00     0.293 HD
ENDBRANCH  90  91
ENDBRANCH  68  85
ENDBRANCH  66  68
ENDBRANCH  65  66
ENDBRANCH  64  65
ENDBRANCH   1  64
TORSDOF 19
