REMARK SMILES O=C(OCCOCCOC(=O)c1cnc(OCC2CC2)c(Cl)c1)c1ccc(-c2c3nc(c(-c4c(F)cccc4F)c4ccc([nH]4)c(-c4c(F)cccc4F)c4nc(c(-c5c(F)cccc5F)c5ccc2[nH]5)C=C4)C=C3)cc1
REMARK SMILES IDX 7 1 6 2 5 3 4 4 3 5 2 6 1 7 24 8 25 9 77 10 26 11 76 12
REMARK SMILES IDX 27 13 28 14 29 15 70 16 30 17 75 18 69 19 71 20 31 21 74 22
REMARK SMILES IDX 68 23 67 24 32 26 58 27 41 28 57 29 42 30 45 31 56 32 72 33
REMARK SMILES IDX 43 34 44 35 55 37 73 38 46 39 33 40 34 41 39 42 35 43 36 44
REMARK SMILES IDX 38 45 40 46 37 47 59 48 60 49 65 50 61 51 62 52 64 53 66 54
REMARK SMILES IDX 63 55 47 56 48 57 53 58 49 59 50 60 52 61 54 62 51 63 8 64
REMARK SMILES IDX 9 65 10 66 11 67 12 68 13 69 23 70 14 71 21 72 15 73 22 74
REMARK SMILES IDX 16 75 17 76 18 77 19 78 20 79
REMARK H PARENT 71 25 45 36
REMARK Flexibility Score: inf
ROOT
ATOM      1  C   UNL     1       2.670   1.561   1.358  1.00  0.00     0.202 C 
ENDROOT
BRANCH   1   2
ATOM      2  O   UNL     1       4.020   1.322   0.947  1.00  0.00    -0.374 OA
BRANCH   2   3
ATOM      3  C   UNL     1       4.300   1.476  -0.445  1.00  0.00     0.202 C 
BRANCH   3   4
ATOM      4  C   UNL     1       3.956   0.265  -1.320  1.00  0.00     0.261 C 
BRANCH   4   5
ATOM      5  O   UNL     1       2.583  -0.127  -1.141  1.00  0.00    -0.460 OA
BRANCH   5   6
ATOM      6  C   UNL     1       2.101  -1.170  -0.419  1.00  0.00     0.338 C 
ATOM      7  O   UNL     1       0.893  -1.394  -0.427  1.00  0.00    -0.246 OA
BRANCH   6   8
ATOM      8  C   UNL     1       2.973  -2.062   0.401  1.00  0.00     0.060 A 
ATOM      9  C   UNL     1       4.178  -1.658   0.966  1.00  0.00     0.016 A 
ATOM     10  C   UNL     1       2.512  -3.355   0.696  1.00  0.00     0.016 A 
ATOM     11  C   UNL     1       4.951  -2.505   1.726  1.00  0.00     0.010 A 
ATOM     12  C   UNL     1       3.254  -4.205   1.528  1.00  0.00     0.010 A 
ATOM     13  C   UNL     1       4.482  -3.772   2.039  1.00  0.00    -0.014 A 
BRANCH  13  14
ATOM     14  C   UNL     1       5.392  -4.603   2.838  1.00  0.00     0.031 A 
ATOM     15  C   UNL     1       6.152  -5.686   2.146  1.00  0.00     0.074 A 
ATOM     16  C   UNL     1       5.686  -4.207   4.092  1.00  0.00     0.049 A 
ATOM     17  N   UNL     1       7.036  -6.510   2.633  1.00  0.00    -0.248 NA
ATOM     18  C   UNL     1       5.901  -5.848   0.703  1.00  0.00     0.031 C 
ATOM     19  C   UNL     1       5.095  -3.046   4.771  1.00  0.00     0.029 A 
ATOM     20  N   UNL     1       6.595  -4.687   4.993  1.00  0.00    -0.354 N 
ATOM     21  C   UNL     1       7.434  -7.300   1.564  1.00  0.00     0.074 A 
ATOM     22  C   UNL     1       6.687  -6.870   0.404  1.00  0.00     0.031 C 
ATOM     23  C   UNL     1       5.682  -2.888   5.967  1.00  0.00     0.029 A 
ATOM     24  C   UNL     1       6.620  -3.982   6.173  1.00  0.00     0.049 A 
ATOM     25  H   UNL     1       7.175  -5.462   4.815  1.00  0.00     0.167 HD
ATOM     26  C   UNL     1       8.346  -8.297   1.566  1.00  0.00     0.037 A 
ATOM     27  C   UNL     1       7.299  -4.231   7.306  1.00  0.00     0.037 A 
ATOM     28  C   UNL     1       9.066  -8.694   2.745  1.00  0.00     0.049 A 
ATOM     29  C   UNL     1       8.207  -5.430   7.314  1.00  0.00     0.074 A 
ATOM     30  C   UNL     1       9.941  -9.749   2.913  1.00  0.00     0.029 A 
ATOM     31  N   UNL     1       8.988  -8.034   3.966  1.00  0.00    -0.354 N 
ATOM     32  N   UNL     1       8.507  -6.245   6.329  1.00  0.00    -0.248 NA
ATOM     33  C   UNL     1       8.857  -5.757   8.587  1.00  0.00     0.031 C 
ATOM     34  C   UNL     1      10.357  -9.754   4.249  1.00  0.00     0.029 A 
ATOM     35  C   UNL     1       9.788  -8.668   4.899  1.00  0.00     0.049 A 
ATOM     36  H   UNL     1       8.443  -7.233   4.141  1.00  0.00     0.167 HD
ATOM     37  C   UNL     1       9.392  -7.172   6.857  1.00  0.00     0.074 A 
ATOM     38  C   UNL     1       9.605  -6.794   8.242  1.00  0.00     0.031 C 
ATOM     39  C   UNL     1       9.970  -8.248   6.266  1.00  0.00     0.037 A 
BRANCH  26  40
ATOM     40  C   UNL     1       8.539  -9.048   0.285  1.00  0.00     0.057 A 
ATOM     41  C   UNL     1       9.188  -8.485  -0.822  1.00  0.00     0.134 A 
ATOM     42  C   UNL     1       8.037 -10.348   0.146  1.00  0.00     0.134 A 
ATOM     43  F   UNL     1       9.660  -7.230  -0.768  1.00  0.00    -0.206 F 
ATOM     44  C   UNL     1       9.311  -9.180  -2.027  1.00  0.00     0.040 A 
ATOM     45  C   UNL     1       8.175 -11.062  -1.045  1.00  0.00     0.040 A 
ATOM     46  F   UNL     1       7.392 -10.940   1.162  1.00  0.00    -0.206 F 
ATOM     47  C   UNL     1       8.809 -10.476  -2.138  1.00  0.00     0.006 A 
ENDBRANCH  26  40
BRANCH  27  48
ATOM     48  C   UNL     1       7.079  -3.411   8.528  1.00  0.00     0.057 A 
ATOM     49  C   UNL     1       8.117  -2.700   9.140  1.00  0.00     0.134 A 
ATOM     50  C   UNL     1       5.823  -3.367   9.152  1.00  0.00     0.134 A 
ATOM     51  F   UNL     1       9.348  -2.711   8.608  1.00  0.00    -0.206 F 
ATOM     52  C   UNL     1       7.926  -2.010  10.340  1.00  0.00     0.040 A 
ATOM     53  C   UNL     1       5.609  -2.652  10.331  1.00  0.00     0.040 A 
ATOM     54  F   UNL     1       4.778  -4.023   8.624  1.00  0.00    -0.206 F 
ATOM     55  C   UNL     1       6.667  -1.983  10.938  1.00  0.00     0.006 A 
ENDBRANCH  27  48
BRANCH  39  56
ATOM     56  C   UNL     1      10.905  -9.052   7.117  1.00  0.00     0.057 A 
ATOM     57  C   UNL     1      10.443  -9.851   8.170  1.00  0.00     0.134 A 
ATOM     58  C   UNL     1      12.281  -9.039   6.862  1.00  0.00     0.134 A 
ATOM     59  F   UNL     1       9.137  -9.893   8.472  1.00  0.00    -0.206 F 
ATOM     60  C   UNL     1      11.325 -10.583   8.965  1.00  0.00     0.040 A 
ATOM     61  C   UNL     1      13.168  -9.794   7.628  1.00  0.00     0.040 A 
ATOM     62  F   UNL     1      12.783  -8.303   5.860  1.00  0.00    -0.206 F 
ATOM     63  C   UNL     1      12.691 -10.560   8.689  1.00  0.00     0.006 A 
ENDBRANCH  39  56
ENDBRANCH  13  14
ENDBRANCH   6   8
ENDBRANCH   5   6
ENDBRANCH   4   5
ENDBRANCH   3   4
ENDBRANCH   2   3
ENDBRANCH   1   2
BRANCH   1  64
ATOM     64  C   UNL     1       2.667   2.528   2.544  1.00  0.00     0.261 C 
BRANCH  64  65
ATOM     65  O   UNL     1       3.286   3.756   2.131  1.00  0.00    -0.460 OA
BRANCH  65  66
ATOM     66  C   UNL     1       4.640   3.756   2.203  1.00  0.00     0.339 C 
ATOM     67  O   UNL     1       5.365   3.006   2.836  1.00  0.00    -0.246 OA
BRANCH  66  68
ATOM     68  C   UNL     1       5.127   4.725   1.223  1.00  0.00     0.080 A 
ATOM     69  C   UNL     1       6.156   4.381   0.372  1.00  0.00     0.131 A 
ATOM     70  C   UNL     1       4.576   5.992   1.117  1.00  0.00     0.043 A 
ATOM     71  N   UNL     1       6.607   5.203  -0.602  1.00  0.00    -0.220 NA
ATOM     72  C   UNL     1       5.094   6.898   0.188  1.00  0.00     0.104 A 
ATOM     73  C   UNL     1       6.083   6.459  -0.700  1.00  0.00     0.232 A 
ATOM     74  Cl  UNL     1       4.481   8.500   0.361  1.00  0.00    -0.078 Cl
BRANCH  73  75
ATOM     75  O   UNL     1       6.680   7.105  -1.728  1.00  0.00    -0.476 OA
BRANCH  75  76
ATOM     76  C   UNL     1       6.310   8.403  -2.168  1.00  0.00     0.235 C 
BRANCH  76  77
ATOM     77  C   UNL     1       4.994   8.405  -2.893  1.00  0.00     0.027 C 
ATOM     78  C   UNL     1       4.888   8.960  -4.290  1.00  0.00     0.007 C 
ATOM     79  C   UNL     1       4.739   7.482  -4.056  1.00  0.00     0.007 C 
ENDBRANCH  76  77
ENDBRANCH  75  76
ENDBRANCH  73  75
ENDBRANCH  66  68
ENDBRANCH  65  66
ENDBRANCH  64  65
ENDBRANCH   1  64
TORSDOF 17
