REMARK SMILES N#Cc1cc2c(nc1N(CC(=O)OCCOCCOC(=O)c1ccc(-c3c4nc(c(-c5c(F)cccc5F)c5ccc([nH]5)c(-c5c(F)cccc5F)c5nc(c(-c6c(F)cccc6F)c6ccc3[nH]6)C=C5)C=C4)cc1)CC(F)(F)F)CCC2
REMARK SMILES IDX 15 1 14 2 13 3 11 4 12 5 10 6 9 7 8 8 3 9 4 10 5 11 7 12
REMARK SMILES IDX 6 13 83 14 81 15 82 16 2 17 1 18 76 19 77 20 78 21 79 22
REMARK SMILES IDX 80 23 16 24 17 25 18 26 19 27 20 28 21 29 22 30 23 31 75 32
REMARK SMILES IDX 24 33 74 34 25 35 26 36 27 37 68 38 28 39 73 40 67 41 69 42
REMARK SMILES IDX 29 43 72 44 66 45 65 46 30 48 56 49 39 50 55 51 40 52 43 53
REMARK SMILES IDX 54 54 70 55 41 56 42 57 53 59 71 60 44 61 31 62 32 63 37 64
REMARK SMILES IDX 33 65 34 66 36 67 38 68 35 69 57 70 58 71 63 72 59 73 60 74
REMARK SMILES IDX 62 75 64 76 61 77 45 78 46 79 51 80 47 81 48 82 50 83 52 84
REMARK SMILES IDX 49 85
REMARK H PARENT 69 47 43 58
REMARK Flexibility Score: inf
ROOT
ATOM      1  C   UNL     1       3.261  -5.760   3.528  1.00  0.00     0.202 C 
ENDROOT
BRANCH   1   2
ATOM      2  C   UNL     1       4.538  -5.080   3.014  1.00  0.00     0.261 C 
BRANCH   2   3
ATOM      3  O   UNL     1       4.327  -4.074   1.994  1.00  0.00    -0.462 OA
BRANCH   3   4
ATOM      4  C   UNL     1       4.833  -4.386   0.770  1.00  0.00     0.325 C 
ATOM      5  O   UNL     1       5.360  -5.470   0.514  1.00  0.00    -0.250 OA
BRANCH   4   6
ATOM      6  C   UNL     1       4.672  -3.338  -0.335  1.00  0.00     0.241 C 
BRANCH   6   7
ATOM      7  N   UNL     1       3.919  -2.083  -0.083  1.00  0.00    -0.335 N 
BRANCH   7   8
ATOM      8  C   UNL     1       4.603  -0.879  -0.174  1.00  0.00     0.147 A 
ATOM      9  C   UNL     1       4.023   0.380  -0.488  1.00  0.00     0.095 A 
ATOM     10  C   UNL     1       4.755   1.565  -0.324  1.00  0.00     0.029 A 
ATOM     11  C   UNL     1       6.084   1.456  -0.013  1.00  0.00    -0.025 A 
ATOM     12  N   UNL     1       5.935  -0.953   0.086  1.00  0.00    -0.234 NA
ATOM     13  C   UNL     1       6.633   0.195   0.120  1.00  0.00     0.046 A 
ATOM     14  C   UNL     1       7.108   2.519   0.167  1.00  0.00     0.038 C 
ATOM     15  C   UNL     1       8.126   0.282   0.268  1.00  0.00     0.057 C 
ATOM     16  C   UNL     1       8.374   1.730  -0.191  1.00  0.00     0.011 C 
BRANCH   9  17
ATOM     17  C   UNL     1       2.723   0.540  -1.074  1.00  0.00     0.103 C 
ATOM     18  N   UNL     1       1.671   0.677  -1.542  1.00  0.00    -0.192 NA
ENDBRANCH   9  17
ENDBRANCH   7   8
BRANCH   7  19
ATOM     19  C   UNL     1       2.463  -2.161   0.150  1.00  0.00     0.234 C 
BRANCH  19  20
ATOM     20  C   UNL     1       1.943  -1.459   1.420  1.00  0.00     0.405 C 
ATOM     21  F   UNL     1       2.049  -0.115   1.382  1.00  0.00    -0.169 F 
ATOM     22  F   UNL     1       0.629  -1.731   1.600  1.00  0.00    -0.169 F 
ATOM     23  F   UNL     1       2.616  -1.864   2.516  1.00  0.00    -0.169 F 
ENDBRANCH  19  20
ENDBRANCH   7  19
ENDBRANCH   6   7
ENDBRANCH   4   6
ENDBRANCH   3   4
ENDBRANCH   2   3
ENDBRANCH   1   2
BRANCH   1  24
ATOM     24  O   UNL     1       2.419  -6.415   2.586  1.00  0.00    -0.374 OA
BRANCH  24  25
ATOM     25  C   UNL     1       1.658  -5.587   1.712  1.00  0.00     0.202 C 
BRANCH  25  26
ATOM     26  C   UNL     1       0.547  -4.731   2.343  1.00  0.00     0.261 C 
BRANCH  26  27
ATOM     27  O   UNL     1       1.084  -3.728   3.228  1.00  0.00    -0.460 OA
BRANCH  27  28
ATOM     28  C   UNL     1       0.643  -3.741   4.509  1.00  0.00     0.338 C 
ATOM     29  O   UNL     1      -0.236  -4.448   4.971  1.00  0.00    -0.246 OA
BRANCH  28  30
ATOM     30  C   UNL     1       1.548  -2.934   5.363  1.00  0.00     0.060 A 
ATOM     31  C   UNL     1       2.258  -3.613   6.361  1.00  0.00     0.016 A 
ATOM     32  C   UNL     1       1.664  -1.547   5.250  1.00  0.00     0.016 A 
ATOM     33  C   UNL     1       3.041  -2.908   7.275  1.00  0.00     0.010 A 
ATOM     34  C   UNL     1       2.457  -0.837   6.169  1.00  0.00     0.010 A 
ATOM     35  C   UNL     1       3.111  -1.509   7.219  1.00  0.00    -0.014 A 
BRANCH  35  36
ATOM     36  C   UNL     1       3.706  -0.785   8.380  1.00  0.00     0.031 A 
ATOM     37  C   UNL     1       2.786  -0.144   9.389  1.00  0.00     0.074 A 
ATOM     38  C   UNL     1       5.032  -0.808   8.619  1.00  0.00     0.049 A 
ATOM     39  N   UNL     1       3.073   0.407  10.543  1.00  0.00    -0.248 NA
ATOM     40  C   UNL     1       1.351  -0.128   9.061  1.00  0.00     0.031 C 
ATOM     41  C   UNL     1       6.034  -1.421   7.751  1.00  0.00     0.029 A 
ATOM     42  N   UNL     1       5.760  -0.325   9.682  1.00  0.00    -0.354 N 
ATOM     43  C   UNL     1       1.859   0.816  11.080  1.00  0.00     0.074 A 
ATOM     44  C   UNL     1       0.838   0.507  10.104  1.00  0.00     0.031 C 
ATOM     45  C   UNL     1       7.243  -1.303   8.328  1.00  0.00     0.029 A 
ATOM     46  C   UNL     1       7.108  -0.585   9.596  1.00  0.00     0.049 A 
ATOM     47  H   UNL     1       5.354   0.162  10.435  1.00  0.00     0.167 HD
ATOM     48  C   UNL     1       1.606   1.368  12.290  1.00  0.00     0.037 A 
ATOM     49  C   UNL     1       8.118  -0.285  10.440  1.00  0.00     0.037 A 
ATOM     50  C   UNL     1       2.612   1.671  13.272  1.00  0.00     0.049 A 
ATOM     51  C   UNL     1       7.824   0.419  11.741  1.00  0.00     0.074 A 
ATOM     52  C   UNL     1       2.441   2.216  14.533  1.00  0.00     0.029 A 
ATOM     53  N   UNL     1       3.972   1.465  13.105  1.00  0.00    -0.354 N 
ATOM     54  N   UNL     1       6.665   0.748  12.258  1.00  0.00    -0.248 NA
ATOM     55  C   UNL     1       8.976   0.791  12.579  1.00  0.00     0.031 C 
ATOM     56  C   UNL     1       3.702   2.402  15.102  1.00  0.00     0.029 A 
ATOM     57  C   UNL     1       4.655   1.913  14.224  1.00  0.00     0.049 A 
ATOM     58  H   UNL     1       4.390   1.060  12.311  1.00  0.00     0.167 HD
ATOM     59  C   UNL     1       6.946   1.344  13.483  1.00  0.00     0.074 A 
ATOM     60  C   UNL     1       8.383   1.314  13.645  1.00  0.00     0.031 C 
ATOM     61  C   UNL     1       6.086   1.873  14.387  1.00  0.00     0.037 A 
BRANCH  48  62
ATOM     62  C   UNL     1       0.178   1.685  12.632  1.00  0.00     0.057 A 
ATOM     63  C   UNL     1      -0.756   0.677  12.899  1.00  0.00     0.134 A 
ATOM     64  C   UNL     1      -0.245   3.013  12.776  1.00  0.00     0.134 A 
ATOM     65  F   UNL     1      -0.418  -0.615  12.772  1.00  0.00    -0.206 F 
ATOM     66  C   UNL     1      -2.065   0.977  13.281  1.00  0.00     0.040 A 
ATOM     67  C   UNL     1      -1.542   3.325  13.187  1.00  0.00     0.040 A 
ATOM     68  F   UNL     1       0.602   4.028  12.547  1.00  0.00    -0.206 F 
ATOM     69  C   UNL     1      -2.457   2.305  13.437  1.00  0.00     0.006 A 
ENDBRANCH  48  62
BRANCH  49  70
ATOM     70  C   UNL     1       9.515  -0.658  10.087  1.00  0.00     0.057 A 
ATOM     71  C   UNL     1      10.226  -1.610  10.827  1.00  0.00     0.134 A 
ATOM     72  C   UNL     1      10.178  -0.063   9.005  1.00  0.00     0.134 A 
ATOM     73  F   UNL     1       9.661  -2.196  11.893  1.00  0.00    -0.206 F 
ATOM     74  C   UNL     1      11.543  -1.953  10.511  1.00  0.00     0.040 A 
ATOM     75  C   UNL     1      11.484  -0.418   8.659  1.00  0.00     0.040 A 
ATOM     76  F   UNL     1       9.560   0.863   8.257  1.00  0.00    -0.206 F 
ATOM     77  C   UNL     1      12.172  -1.363   9.417  1.00  0.00     0.006 A 
ENDBRANCH  49  70
BRANCH  61  78
ATOM     78  C   UNL     1       6.648   2.472  15.646  1.00  0.00     0.057 A 
ATOM     79  C   UNL     1       7.325   3.697  15.635  1.00  0.00     0.134 A 
ATOM     80  C   UNL     1       6.394   1.886  16.894  1.00  0.00     0.134 A 
ATOM     81  F   UNL     1       7.606   4.308  14.474  1.00  0.00    -0.206 F 
ATOM     82  C   UNL     1       7.726   4.321  16.818  1.00  0.00     0.040 A 
ATOM     83  C   UNL     1       6.765   2.514  18.085  1.00  0.00     0.040 A 
ATOM     84  F   UNL     1       5.738   0.719  16.979  1.00  0.00    -0.206 F 
ATOM     85  C   UNL     1       7.431   3.736  18.049  1.00  0.00     0.006 A 
ENDBRANCH  61  78
ENDBRANCH  35  36
ENDBRANCH  28  30
ENDBRANCH  27  28
ENDBRANCH  26  27
ENDBRANCH  25  26
ENDBRANCH  24  25
ENDBRANCH   1  24
TORSDOF 19
