REMARK SMILES CCOc1ccc(-c2csc3ncn([C@H](C)C(=O)OCCOCCOC(=O)c4ccc(-c5c6nc(c(-c7c(F)cccc7F)c7ccc([nH]7)c(-c7c(F)cccc7F)c7nc(c(-c8c(F)cccc8F)c8ccc5[nH]8)C=C7)C=C6)cc4)c(=O)c23)cc1
REMARK SMILES IDX 21 1 20 2 19 3 17 4 18 5 15 6 16 7 14 8 8 9 9 10 84 11 10 12
REMARK SMILES IDX 11 13 82 14 12 15 83 16 13 17 7 18 4 19 5 20 86 21 6 22
REMARK SMILES IDX 85 23 3 24 2 25 1 26 22 27 23 28 24 29 25 30 26 31 27 32
REMARK SMILES IDX 28 33 29 34 81 35 30 36 80 37 31 38 32 39 33 40 74 41 34 42
REMARK SMILES IDX 79 43 73 44 75 45 35 46 78 47 72 48 71 49 36 51 62 52 45 53
REMARK SMILES IDX 61 54 46 55 49 56 60 57 76 58 47 59 48 60 59 62 77 63 50 64
REMARK SMILES IDX 37 65 38 66 43 67 39 68 40 69 42 70 44 71 41 72 63 73 64 74
REMARK SMILES IDX 69 75 65 76 66 77 68 78 70 79 67 80 51 81 52 82 57 83 53 84
REMARK SMILES IDX 54 85 56 86 58 87 55 88
REMARK H PARENT 75 50 49 61
REMARK Flexibility Score: inf
ROOT
ATOM      1  C   UNL     1       6.756   2.882   5.158  1.00  0.00     0.202 C 
ENDROOT
BRANCH   1   2
ATOM      2  C   UNL     1       6.085   4.158   4.663  1.00  0.00     0.261 C 
BRANCH   2   3
ATOM      3  O   UNL     1       6.588   4.554   3.377  1.00  0.00    -0.462 OA
BRANCH   3   4
ATOM      4  C   UNL     1       7.176   5.783   3.329  1.00  0.00     0.329 C 
ATOM      5  O   UNL     1       7.292   6.542   4.283  1.00  0.00    -0.250 OA
BRANCH   4   6
ATOM      6  C   UNL     1       7.508   6.182   1.895  1.00  0.00     0.198 C 
ATOM      7  C   UNL     1       7.847   5.075   0.908  1.00  0.00     0.044 C 
BRANCH   6   8
ATOM      8  N   UNL     1       6.403   7.026   1.455  1.00  0.00    -0.284 N 
ATOM      9  C   UNL     1       5.359  10.484   0.400  1.00  0.00     0.007 A 
ATOM     10  C   UNL     1       4.029  10.848   0.288  1.00  0.00     0.076 A 
ATOM     11  C   UNL     1       5.483   9.125   0.824  1.00  0.00     0.085 A 
ATOM     12  S   UNL     1       2.962   9.560   0.631  1.00  0.00    -0.123 S 
ATOM     13  C   UNL     1       4.260   8.492   0.906  1.00  0.00     0.131 A 
ATOM     14  C   UNL     1       6.668   8.353   1.139  1.00  0.00     0.263 A 
ATOM     15  N   UNL     1       4.041   7.181   1.164  1.00  0.00    -0.227 NA
ATOM     16  O   UNL     1       7.804   8.819   1.111  1.00  0.00    -0.268 OA
ATOM     17  C   UNL     1       5.117   6.510   1.407  1.00  0.00     0.204 A 
BRANCH   9  18
ATOM     18  C   UNL     1       6.412  11.435   0.076  1.00  0.00    -0.016 A 
ATOM     19  C   UNL     1       8.333  13.335  -0.649  1.00  0.00     0.119 A 
ATOM     20  C   UNL     1       8.346  12.077  -1.245  1.00  0.00     0.047 A 
ATOM     21  C   UNL     1       7.354  13.650   0.291  1.00  0.00     0.047 A 
ATOM     22  C   UNL     1       7.387  11.126  -0.883  1.00  0.00     0.012 A 
ATOM     23  C   UNL     1       6.412  12.697   0.672  1.00  0.00     0.012 A 
BRANCH  19  24
ATOM     24  O   UNL     1       9.205  14.278  -1.116  1.00  0.00    -0.494 OA
BRANCH  24  25
ATOM     25  C   UNL     1      10.143  14.742  -0.137  1.00  0.00     0.226 C 
ATOM     26  C   UNL     1       9.594  15.879   0.712  1.00  0.00     0.049 C 
ENDBRANCH  24  25
ENDBRANCH  19  24
ENDBRANCH   9  18
ENDBRANCH   6   8
ENDBRANCH   4   6
ENDBRANCH   3   4
ENDBRANCH   2   3
ENDBRANCH   1   2
BRANCH   1  27
ATOM     27  O   UNL     1       8.158   2.934   5.412  1.00  0.00    -0.374 OA
BRANCH  27  28
ATOM     28  C   UNL     1       9.072   3.183   4.349  1.00  0.00     0.202 C 
BRANCH  28  29
ATOM     29  C   UNL     1       9.238   2.104   3.288  1.00  0.00     0.261 C 
BRANCH  29  30
ATOM     30  O   UNL     1       8.043   1.885   2.546  1.00  0.00    -0.460 OA
BRANCH  30  31
ATOM     31  C   UNL     1       7.410   0.739   2.862  1.00  0.00     0.338 C 
ATOM     32  O   UNL     1       7.581   0.054   3.873  1.00  0.00    -0.246 OA
BRANCH  31  33
ATOM     33  C   UNL     1       6.609   0.290   1.726  1.00  0.00     0.060 A 
ATOM     34  C   UNL     1       6.052  -0.983   1.851  1.00  0.00     0.016 A 
ATOM     35  C   UNL     1       6.737   0.933   0.485  1.00  0.00     0.016 A 
ATOM     36  C   UNL     1       5.884  -1.725   0.709  1.00  0.00     0.010 A 
ATOM     37  C   UNL     1       6.567   0.189  -0.657  1.00  0.00     0.010 A 
ATOM     38  C   UNL     1       6.245  -1.157  -0.518  1.00  0.00    -0.014 A 
BRANCH  38  39
ATOM     39  C   UNL     1       6.175  -2.003  -1.684  1.00  0.00     0.031 A 
ATOM     40  C   UNL     1       4.785  -2.327  -2.050  1.00  0.00     0.074 A 
ATOM     41  C   UNL     1       7.260  -2.402  -2.370  1.00  0.00     0.049 A 
ATOM     42  N   UNL     1       4.202  -3.470  -1.921  1.00  0.00    -0.248 NA
ATOM     43  C   UNL     1       3.882  -1.217  -2.388  1.00  0.00     0.031 C 
ATOM     44  C   UNL     1       8.653  -1.981  -2.220  1.00  0.00     0.029 A 
ATOM     45  N   UNL     1       7.308  -3.243  -3.436  1.00  0.00    -0.354 N 
ATOM     46  C   UNL     1       2.905  -3.273  -2.371  1.00  0.00     0.074 A 
ATOM     47  C   UNL     1       2.710  -1.849  -2.448  1.00  0.00     0.031 C 
ATOM     48  C   UNL     1       9.358  -2.387  -3.303  1.00  0.00     0.029 A 
ATOM     49  C   UNL     1       8.497  -3.196  -4.151  1.00  0.00     0.049 A 
ATOM     50  H   UNL     1       6.562  -3.837  -3.681  1.00  0.00     0.167 HD
ATOM     51  C   UNL     1       2.198  -4.303  -2.904  1.00  0.00     0.037 A 
ATOM     52  C   UNL     1       8.693  -3.723  -5.386  1.00  0.00     0.037 A 
ATOM     53  C   UNL     1       2.765  -5.575  -2.527  1.00  0.00     0.049 A 
ATOM     54  C   UNL     1       7.653  -4.770  -5.589  1.00  0.00     0.074 A 
ATOM     55  C   UNL     1       3.014  -6.202  -1.319  1.00  0.00     0.029 A 
ATOM     56  N   UNL     1       3.536  -6.234  -3.454  1.00  0.00    -0.354 N 
ATOM     57  N   UNL     1       7.640  -5.898  -4.933  1.00  0.00    -0.248 NA
ATOM     58  C   UNL     1       6.367  -4.356  -6.136  1.00  0.00     0.031 C 
ATOM     59  C   UNL     1       4.267  -6.861  -1.496  1.00  0.00     0.029 A 
ATOM     60  C   UNL     1       4.672  -6.663  -2.815  1.00  0.00     0.049 A 
ATOM     61  H   UNL     1       3.314  -6.374  -4.403  1.00  0.00     0.167 HD
ATOM     62  C   UNL     1       6.308  -6.095  -4.597  1.00  0.00     0.074 A 
ATOM     63  C   UNL     1       5.560  -5.156  -5.431  1.00  0.00     0.031 C 
ATOM     64  C   UNL     1       5.957  -6.774  -3.464  1.00  0.00     0.037 A 
BRANCH  51  65
ATOM     65  C   UNL     1       1.273  -4.144  -4.082  1.00  0.00     0.057 A 
ATOM     66  C   UNL     1       0.496  -5.241  -4.486  1.00  0.00     0.134 A 
ATOM     67  C   UNL     1       1.338  -3.079  -5.006  1.00  0.00     0.134 A 
ATOM     68  F   UNL     1       0.366  -6.319  -3.698  1.00  0.00    -0.206 F 
ATOM     69  C   UNL     1      -0.098  -5.310  -5.750  1.00  0.00     0.040 A 
ATOM     70  C   UNL     1       0.704  -3.116  -6.248  1.00  0.00     0.040 A 
ATOM     71  F   UNL     1       2.097  -1.995  -4.813  1.00  0.00    -0.206 F 
ATOM     72  C   UNL     1       0.013  -4.249  -6.640  1.00  0.00     0.006 A 
ENDBRANCH  51  65
BRANCH  52  73
ATOM     73  C   UNL     1       9.488  -3.160  -6.505  1.00  0.00     0.057 A 
ATOM     74  C   UNL     1       9.755  -3.911  -7.659  1.00  0.00     0.134 A 
ATOM     75  C   UNL     1       9.776  -1.785  -6.591  1.00  0.00     0.134 A 
ATOM     76  F   UNL     1       9.478  -5.223  -7.697  1.00  0.00    -0.206 F 
ATOM     77  C   UNL     1      10.251  -3.328  -8.834  1.00  0.00     0.040 A 
ATOM     78  C   UNL     1      10.278  -1.192  -7.754  1.00  0.00     0.040 A 
ATOM     79  F   UNL     1       9.497  -0.950  -5.581  1.00  0.00    -0.206 F 
ATOM     80  C   UNL     1      10.504  -1.960  -8.887  1.00  0.00     0.006 A 
ENDBRANCH  52  73
BRANCH  64  81
ATOM     81  C   UNL     1       7.045  -7.494  -2.713  1.00  0.00     0.057 A 
ATOM     82  C   UNL     1       8.155  -6.860  -2.134  1.00  0.00     0.134 A 
ATOM     83  C   UNL     1       6.895  -8.860  -2.451  1.00  0.00     0.134 A 
ATOM     84  F   UNL     1       8.325  -5.536  -2.228  1.00  0.00    -0.206 F 
ATOM     85  C   UNL     1       9.103  -7.564  -1.385  1.00  0.00     0.040 A 
ATOM     86  C   UNL     1       7.814  -9.568  -1.674  1.00  0.00     0.040 A 
ATOM     87  F   UNL     1       5.824  -9.523  -2.915  1.00  0.00    -0.206 F 
ATOM     88  C   UNL     1       8.932  -8.924  -1.151  1.00  0.00     0.006 A 
ENDBRANCH  64  81
ENDBRANCH  38  39
ENDBRANCH  31  33
ENDBRANCH  30  31
ENDBRANCH  29  30
ENDBRANCH  28  29
ENDBRANCH  27  28
ENDBRANCH   1  27
TORSDOF 18
