REMARK SMILES CC[C@@H](C)[NH2+][C@H](CN=[N+]=[N-])C(=O)OCCOCCOC(=O)c1ccc(-c2c3nc(c(-c4c(F)cccc4F)c4ccc([nH]4)c(-c4c(F)cccc4F)c4nc(c(-c5c(F)cccc5F)c5ccc2[nH]5)C=C4)C=C3)cc1
REMARK SMILES IDX 15 1 14 2 13 3 11 4 12 5 6 6 5 7 3 10 4 11 2 12 1 13 7 14
REMARK SMILES IDX 8 15 9 16 10 17 16 18 17 19 18 20 19 21 20 22 21 23 22 24
REMARK SMILES IDX 23 25 75 26 24 27 74 28 25 29 26 30 27 31 68 32 28 33 73 34
REMARK SMILES IDX 67 35 69 36 29 37 72 38 66 39 65 40 30 42 56 43 39 44 55 45
REMARK SMILES IDX 40 46 43 47 54 48 70 49 41 50 42 51 53 53 71 54 44 55 31 56
REMARK SMILES IDX 32 57 37 58 33 59 34 60 36 61 38 62 35 63 57 64 58 65 63 66
REMARK SMILES IDX 59 67 60 68 62 69 64 70 61 71 45 72 46 73 51 74 47 75 48 76
REMARK SMILES IDX 50 77 52 78 49 79
REMARK H PARENT 5 8 5 9 69 41 43 52
REMARK Flexibility Score: inf
ROOT
ATOM      1  C   UNL     1      -0.669  -2.816  -7.892  1.00  0.00     0.202 C 
ENDROOT
BRANCH   1   2
ATOM      2  C   UNL     1      -0.812  -3.920  -6.839  1.00  0.00     0.261 C 
BRANCH   2   3
ATOM      3  O   UNL     1      -0.548  -3.442  -5.512  1.00  0.00    -0.459 OA
BRANCH   3   4
ATOM      4  C   UNL     1       0.602  -3.892  -4.938  1.00  0.00     0.365 C 
ATOM      5  O   UNL     1       1.339  -4.745  -5.425  1.00  0.00    -0.245 OA
BRANCH   4   6
ATOM      6  C   UNL     1       0.870  -3.275  -3.548  1.00  0.00     0.299 C 
BRANCH   6   7
ATOM      7  N   UNL     1       0.319  -4.225  -2.555  1.00  0.00    -0.332 N 
ATOM      8  H   UNL     1      -0.671  -4.352  -2.767  1.00  0.00     0.347 HD
ATOM      9  H   UNL     1       0.887  -5.067  -2.647  1.00  0.00     0.347 HD
BRANCH   7  10
ATOM     10  C   UNL     1       0.426  -3.841  -1.145  1.00  0.00     0.179 C 
ATOM     11  C   UNL     1       1.856  -3.507  -0.709  1.00  0.00     0.075 C 
BRANCH  10  12
ATOM     12  C   UNL     1      -0.145  -5.009  -0.320  1.00  0.00     0.061 C 
ATOM     13  C   UNL     1      -0.366  -4.642   1.140  1.00  0.00     0.010 C 
ENDBRANCH  10  12
ENDBRANCH   7  10
ENDBRANCH   6   7
BRANCH   6  14
ATOM     14  C   UNL     1       0.394  -1.804  -3.424  1.00  0.00     0.168 C 
BRANCH  14  15
ATOM     15  N   UNL     1       1.478  -0.875  -3.828  1.00  0.00    -0.087 NA
ATOM     16  N   UNL     1       2.227  -0.469  -2.923  1.00  0.00     0.001 N 
ATOM     17  N   UNL     1       2.921  -0.102  -2.094  1.00  0.00    -0.003 NA
ENDBRANCH  14  15
ENDBRANCH   6  14
ENDBRANCH   4   6
ENDBRANCH   3   4
ENDBRANCH   2   3
ENDBRANCH   1   2
BRANCH   1  18
ATOM     18  O   UNL     1       0.601  -2.189  -8.044  1.00  0.00    -0.374 OA
BRANCH  18  19
ATOM     19  C   UNL     1       1.035  -1.295  -7.022  1.00  0.00     0.202 C 
BRANCH  19  20
ATOM     20  C   UNL     1       0.333   0.066  -6.900  1.00  0.00     0.261 C 
BRANCH  20  21
ATOM     21  O   UNL     1      -1.068  -0.043  -6.587  1.00  0.00    -0.460 OA
BRANCH  21  22
ATOM     22  C   UNL     1      -1.892   0.331  -7.596  1.00  0.00     0.338 C 
ATOM     23  O   UNL     1      -1.575   0.789  -8.682  1.00  0.00    -0.246 OA
BRANCH  22  24
ATOM     24  C   UNL     1      -3.280  -0.062  -7.300  1.00  0.00     0.060 A 
ATOM     25  C   UNL     1      -3.917  -0.905  -8.219  1.00  0.00     0.016 A 
ATOM     26  C   UNL     1      -3.983   0.475  -6.221  1.00  0.00     0.016 A 
ATOM     27  C   UNL     1      -5.277  -1.168  -8.099  1.00  0.00     0.010 A 
ATOM     28  C   UNL     1      -5.353   0.214  -6.105  1.00  0.00     0.010 A 
ATOM     29  C   UNL     1      -6.013  -0.573  -7.067  1.00  0.00    -0.014 A 
BRANCH  29  30
ATOM     30  C   UNL     1      -7.494  -0.660  -7.090  1.00  0.00     0.031 A 
ATOM     31  C   UNL     1      -8.293   0.535  -7.536  1.00  0.00     0.074 A 
ATOM     32  C   UNL     1      -8.118  -1.805  -6.762  1.00  0.00     0.049 A 
ATOM     33  N   UNL     1      -9.591   0.690  -7.599  1.00  0.00    -0.248 NA
ATOM     34  C   UNL     1      -7.524   1.713  -7.969  1.00  0.00     0.031 C 
ATOM     35  C   UNL     1      -7.452  -3.042  -6.360  1.00  0.00     0.029 A 
ATOM     36  N   UNL     1      -9.455  -2.108  -6.712  1.00  0.00    -0.354 N 
ATOM     37  C   UNL     1      -9.795   1.982  -8.067  1.00  0.00     0.074 A 
ATOM     38  C   UNL     1      -8.488   2.581  -8.238  1.00  0.00     0.031 C 
ATOM     39  C   UNL     1      -8.385  -3.971  -6.093  1.00  0.00     0.029 A 
ATOM     40  C   UNL     1      -9.711  -3.381  -6.267  1.00  0.00     0.049 A 
ATOM     41  H   UNL     1     -10.162  -1.474  -6.969  1.00  0.00     0.167 HD
ATOM     42  C   UNL     1     -10.964   2.609  -8.341  1.00  0.00     0.037 A 
ATOM     43  C   UNL     1     -10.883  -3.991  -6.003  1.00  0.00     0.037 A 
ATOM     44  C   UNL     1     -12.262   2.008  -8.168  1.00  0.00     0.049 A 
ATOM     45  C   UNL     1     -12.170  -3.246  -6.237  1.00  0.00     0.074 A 
ATOM     46  C   UNL     1     -13.506   2.554  -8.429  1.00  0.00     0.029 A 
ATOM     47  N   UNL     1     -12.482   0.727  -7.682  1.00  0.00    -0.354 N 
ATOM     48  N   UNL     1     -12.354  -2.032  -6.697  1.00  0.00    -0.248 NA
ATOM     49  C   UNL     1     -13.415  -3.959  -5.918  1.00  0.00     0.031 C 
ATOM     50  C   UNL     1     -14.480   1.628  -8.042  1.00  0.00     0.029 A 
ATOM     51  C   UNL     1     -13.842   0.478  -7.606  1.00  0.00     0.049 A 
ATOM     52  H   UNL     1     -11.775   0.090  -7.428  1.00  0.00     0.167 HD
ATOM     53  C   UNL     1     -13.730  -1.848  -6.754  1.00  0.00     0.074 A 
ATOM     54  C   UNL     1     -14.334  -3.081  -6.294  1.00  0.00     0.031 C 
ATOM     55  C   UNL     1     -14.431  -0.758  -7.152  1.00  0.00     0.037 A 
BRANCH  42  56
ATOM     56  C   UNL     1     -10.896   4.029  -8.827  1.00  0.00     0.057 A 
ATOM     57  C   UNL     1     -10.402   4.358 -10.097  1.00  0.00     0.134 A 
ATOM     58  C   UNL     1     -11.363   5.080  -8.026  1.00  0.00     0.134 A 
ATOM     59  F   UNL     1      -9.927   3.403 -10.911  1.00  0.00    -0.206 F 
ATOM     60  C   UNL     1     -10.351   5.682 -10.540  1.00  0.00     0.040 A 
ATOM     61  C   UNL     1     -11.346   6.403  -8.471  1.00  0.00     0.040 A 
ATOM     62  F   UNL     1     -11.855   4.837  -6.802  1.00  0.00    -0.206 F 
ATOM     63  C   UNL     1     -10.831   6.707  -9.729  1.00  0.00     0.006 A 
ENDBRANCH  42  56
BRANCH  43  64
ATOM     64  C   UNL     1     -10.894  -5.376  -5.466  1.00  0.00     0.057 A 
ATOM     65  C   UNL     1     -11.403  -6.444  -6.214  1.00  0.00     0.134 A 
ATOM     66  C   UNL     1     -10.415  -5.661  -4.181  1.00  0.00     0.134 A 
ATOM     67  F   UNL     1     -11.897  -6.233  -7.443  1.00  0.00    -0.206 F 
ATOM     68  C   UNL     1     -11.455  -7.740  -5.697  1.00  0.00     0.040 A 
ATOM     69  C   UNL     1     -10.433  -6.957  -3.663  1.00  0.00     0.040 A 
ATOM     70  F   UNL     1      -9.912  -4.684  -3.413  1.00  0.00    -0.206 F 
ATOM     71  C   UNL     1     -10.963  -8.000  -4.420  1.00  0.00     0.006 A 
ENDBRANCH  43  64
BRANCH  55  72
ATOM     72  C   UNL     1     -15.931  -0.862  -7.153  1.00  0.00     0.057 A 
ATOM     73  C   UNL     1     -16.675  -0.917  -5.968  1.00  0.00     0.134 A 
ATOM     74  C   UNL     1     -16.642  -0.868  -8.361  1.00  0.00     0.134 A 
ATOM     75  F   UNL     1     -16.058  -0.926  -4.776  1.00  0.00    -0.206 F 
ATOM     76  C   UNL     1     -18.069  -1.003  -5.984  1.00  0.00     0.040 A 
ATOM     77  C   UNL     1     -18.036  -0.920  -8.389  1.00  0.00     0.040 A 
ATOM     78  F   UNL     1     -15.994  -0.806  -9.534  1.00  0.00    -0.206 F 
ATOM     79  C   UNL     1     -18.753  -0.997  -7.198  1.00  0.00     0.006 A 
ENDBRANCH  55  72
ENDBRANCH  29  30
ENDBRANCH  22  24
ENDBRANCH  21  22
ENDBRANCH  20  21
ENDBRANCH  19  20
ENDBRANCH  18  19
ENDBRANCH   1  18
TORSDOF 19
