REMARK SMILES CC(C)N1C(=O)C[C@@H]([N@@H+]2CC[C@H](C(=O)OCCOCCOC(=O)c3ccc(-c4c5nc(c(-c6c(F)cccc6F)c6ccc([nH]6)c(-c6c(F)cccc6F)c6nc(c(-c7c(F)cccc7F)c7ccc4[nH]7)C=C6)C=C5)cc3)[C@@H]2C)C1=O
REMARK SMILES IDX 18 1 17 2 16 3 15 4 13 5 14 6 12 7 9 8 10 9 78 10 11 12
REMARK SMILES IDX 79 13 8 14 4 15 5 16 80 17 6 18 7 19 81 20 2 21 1 22 3 23
REMARK SMILES IDX 19 24 20 25 21 26 22 27 23 28 24 29 25 30 77 31 26 32 76 33
REMARK SMILES IDX 27 34 28 35 29 36 70 37 30 38 75 39 69 40 71 41 31 42 74 43
REMARK SMILES IDX 68 44 67 45 32 47 58 48 41 49 57 50 42 51 45 52 56 53 72 54
REMARK SMILES IDX 43 55 44 56 55 58 73 59 46 60 33 61 34 62 39 63 35 64 36 65
REMARK SMILES IDX 38 66 40 67 37 68 59 69 60 70 65 71 61 72 62 73 64 74 66 75
REMARK SMILES IDX 63 76 47 77 48 78 53 79 49 80 50 81 52 82 54 83 51 84
REMARK H PARENT 9 11 71 46 45 57
REMARK Flexibility Score: inf
ROOT
ATOM      1  O   UNL     1      -6.036   2.744  -1.609  1.00  0.00    -0.374 OA
ENDROOT
BRANCH   1   2
ATOM      2  C   UNL     1      -6.756   2.495  -2.801  1.00  0.00     0.202 C 
BRANCH   2   3
ATOM      3  C   UNL     1      -6.247   1.437  -3.772  1.00  0.00     0.261 C 
BRANCH   3   4
ATOM      4  O   UNL     1      -6.300   0.087  -3.271  1.00  0.00    -0.463 OA
BRANCH   4   5
ATOM      5  C   UNL     1      -5.080  -0.499  -3.119  1.00  0.00     0.315 C 
ATOM      6  O   UNL     1      -4.028   0.126  -3.123  1.00  0.00    -0.252 OA
BRANCH   5   7
ATOM      7  C   UNL     1      -5.172  -2.019  -3.102  1.00  0.00     0.162 C 
ATOM      8  N   UNL     1      -3.477  -2.897  -1.640  1.00  0.00    -0.321 N 
ATOM      9  C   UNL     1      -2.847  -2.582  -2.927  1.00  0.00     0.264 C 
ATOM     10  C   UNL     1      -4.931  -2.778  -1.791  1.00  0.00     0.196 C 
ATOM     11  H   UNL     1      -3.314  -3.874  -1.396  1.00  0.00     0.349 HD
ATOM     12  C   UNL     1      -3.998  -2.550  -3.934  1.00  0.00     0.083 C 
ATOM     13  C   UNL     1      -5.758  -2.437  -0.567  1.00  0.00     0.076 C 
BRANCH   8  14
ATOM     14  C   UNL     1      -2.809  -2.381  -0.436  1.00  0.00     0.284 C 
ATOM     15  N   UNL     1      -0.633  -1.515  -0.122  1.00  0.00    -0.275 N 
ATOM     16  C   UNL     1      -1.481  -0.502   0.215  1.00  0.00     0.236 C 
ATOM     17  C   UNL     1      -1.310  -2.663  -0.453  1.00  0.00     0.288 C 
ATOM     18  O   UNL     1      -1.200   0.573   0.723  1.00  0.00    -0.274 OA
ATOM     19  C   UNL     1      -2.878  -0.887  -0.149  1.00  0.00     0.176 C 
ATOM     20  O   UNL     1      -0.800  -3.753  -0.677  1.00  0.00    -0.267 OA
BRANCH  15  21
ATOM     21  C   UNL     1       0.823  -1.503   0.014  1.00  0.00     0.087 C 
ATOM     22  C   UNL     1       1.462  -0.125  -0.163  1.00  0.00     0.031 C 
ATOM     23  C   UNL     1       1.247  -2.124   1.345  1.00  0.00     0.031 C 
ENDBRANCH  15  21
ENDBRANCH   8  14
ENDBRANCH   5   7
ENDBRANCH   4   5
ENDBRANCH   3   4
ENDBRANCH   2   3
ENDBRANCH   1   2
BRANCH   1  24
ATOM     24  C   UNL     1      -5.854   1.733  -0.632  1.00  0.00     0.202 C 
BRANCH  24  25
ATOM     25  C   UNL     1      -6.994   0.778  -0.261  1.00  0.00     0.261 C 
BRANCH  25  26
ATOM     26  O   UNL     1      -8.297   1.094  -0.707  1.00  0.00    -0.460 OA
BRANCH  26  27
ATOM     27  C   UNL     1      -8.904   2.154  -0.150  1.00  0.00     0.338 C 
ATOM     28  O   UNL     1      -8.512   2.879   0.739  1.00  0.00    -0.246 OA
BRANCH  27  29
ATOM     29  C   UNL     1     -10.111   2.315  -0.973  1.00  0.00     0.060 A 
ATOM     30  C   UNL     1     -10.258   3.476  -1.734  1.00  0.00     0.016 A 
ATOM     31  C   UNL     1     -11.014   1.250  -1.080  1.00  0.00     0.016 A 
ATOM     32  C   UNL     1     -11.351   3.593  -2.586  1.00  0.00     0.010 A 
ATOM     33  C   UNL     1     -12.101   1.366  -1.934  1.00  0.00     0.010 A 
ATOM     34  C   UNL     1     -12.291   2.554  -2.658  1.00  0.00    -0.014 A 
BRANCH  34  35
ATOM     35  C   UNL     1     -13.588   2.783  -3.320  1.00  0.00     0.031 A 
ATOM     36  C   UNL     1     -14.761   3.122  -2.447  1.00  0.00     0.074 A 
ATOM     37  C   UNL     1     -13.710   2.684  -4.653  1.00  0.00     0.049 A 
ATOM     38  N   UNL     1     -16.011   3.313  -2.773  1.00  0.00    -0.248 NA
ATOM     39  C   UNL     1     -14.487   3.250  -1.004  1.00  0.00     0.031 C 
ATOM     40  C   UNL     1     -12.624   2.372  -5.582  1.00  0.00     0.029 A 
ATOM     41  N   UNL     1     -14.811   2.826  -5.455  1.00  0.00    -0.354 N 
ATOM     42  C   UNL     1     -16.669   3.577  -1.579  1.00  0.00     0.074 A 
ATOM     43  C   UNL     1     -15.695   3.479  -0.517  1.00  0.00     0.031 C 
ATOM     44  C   UNL     1     -13.118   2.341  -6.833  1.00  0.00     0.029 A 
ATOM     45  C   UNL     1     -14.556   2.600  -6.784  1.00  0.00     0.049 A 
ATOM     46  H   UNL     1     -15.701   3.068  -5.110  1.00  0.00     0.167 HD
ATOM     47  C   UNL     1     -17.971   3.889  -1.391  1.00  0.00     0.037 A 
ATOM     48  C   UNL     1     -15.400   2.588  -7.832  1.00  0.00     0.037 A 
ATOM     49  C   UNL     1     -18.925   3.984  -2.461  1.00  0.00     0.049 A 
ATOM     50  C   UNL     1     -16.857   2.887  -7.591  1.00  0.00     0.074 A 
ATOM     51  C   UNL     1     -20.265   4.313  -2.395  1.00  0.00     0.029 A 
ATOM     52  N   UNL     1     -18.632   3.742  -3.796  1.00  0.00    -0.354 N 
ATOM     53  N   UNL     1     -17.468   3.174  -6.465  1.00  0.00    -0.248 NA
ATOM     54  C   UNL     1     -17.743   2.865  -8.763  1.00  0.00     0.031 C 
ATOM     55  C   UNL     1     -20.796   4.222  -3.685  1.00  0.00     0.029 A 
ATOM     56  C   UNL     1     -19.773   3.892  -4.562  1.00  0.00     0.049 A 
ATOM     57  H   UNL     1     -17.744   3.500  -4.145  1.00  0.00     0.167 HD
ATOM     58  C   UNL     1     -18.798   3.398  -6.796  1.00  0.00     0.074 A 
ATOM     59  C   UNL     1     -18.903   3.222  -8.231  1.00  0.00     0.031 C 
ATOM     60  C   UNL     1     -19.840   3.724  -5.992  1.00  0.00     0.037 A 
BRANCH  47  61
ATOM     61  C   UNL     1     -18.430   4.125   0.017  1.00  0.00     0.057 A 
ATOM     62  C   UNL     1     -18.039   5.256   0.745  1.00  0.00     0.134 A 
ATOM     63  C   UNL     1     -19.285   3.214   0.649  1.00  0.00     0.134 A 
ATOM     64  F   UNL     1     -17.203   6.157   0.206  1.00  0.00    -0.206 F 
ATOM     65  C   UNL     1     -18.464   5.462   2.059  1.00  0.00     0.040 A 
ATOM     66  C   UNL     1     -19.740   3.423   1.952  1.00  0.00     0.040 A 
ATOM     67  F   UNL     1     -19.695   2.108   0.010  1.00  0.00    -0.206 F 
ATOM     68  C   UNL     1     -19.324   4.547   2.663  1.00  0.00     0.006 A 
ENDBRANCH  47  61
BRANCH  48  69
ATOM     69  C   UNL     1     -14.897   2.282  -9.196  1.00  0.00     0.057 A 
ATOM     70  C   UNL     1     -14.874   3.258 -10.198  1.00  0.00     0.134 A 
ATOM     71  C   UNL     1     -14.441   1.002  -9.534  1.00  0.00     0.134 A 
ATOM     72  F   UNL     1     -15.314   4.498  -9.943  1.00  0.00    -0.206 F 
ATOM     73  C   UNL     1     -14.435   2.968 -11.492  1.00  0.00     0.040 A 
ATOM     74  C   UNL     1     -13.975   0.705 -10.816  1.00  0.00     0.040 A 
ATOM     75  F   UNL     1     -14.431   0.021  -8.619  1.00  0.00    -0.206 F 
ATOM     76  C   UNL     1     -13.979   1.689 -11.802  1.00  0.00     0.006 A 
ENDBRANCH  48  69
BRANCH  60  77
ATOM     77  C   UNL     1     -21.169   3.955  -6.647  1.00  0.00     0.057 A 
ATOM     78  C   UNL     1     -21.940   2.900  -7.149  1.00  0.00     0.134 A 
ATOM     79  C   UNL     1     -21.711   5.245  -6.711  1.00  0.00     0.134 A 
ATOM     80  F   UNL     1     -21.472   1.643  -7.125  1.00  0.00    -0.206 F 
ATOM     81  C   UNL     1     -23.198   3.124  -7.711  1.00  0.00     0.040 A 
ATOM     82  C   UNL     1     -22.979   5.477  -7.244  1.00  0.00     0.040 A 
ATOM     83  F   UNL     1     -21.027   6.296  -6.235  1.00  0.00    -0.206 F 
ATOM     84  C   UNL     1     -23.724   4.414  -7.750  1.00  0.00     0.006 A 
ENDBRANCH  60  77
ENDBRANCH  34  35
ENDBRANCH  27  29
ENDBRANCH  26  27
ENDBRANCH  25  26
ENDBRANCH  24  25
ENDBRANCH   1  24
TORSDOF 16
