REMARK SMILES CC[C@@H]1CC[C@](C[C@@H]2CCCc3ccccc32)(C(=O)OCCOCCOC(=O)c2ccc(-c3c4nc(c(-c5c(F)cccc5F)c5ccc([nH]5)c(-c5c(F)cccc5F)c5nc(c(-c6c(F)cccc6F)c6ccc3[nH]6)C=C5)C=C4)cc2)C1
REMARK SMILES IDX 23 1 22 2 21 3 20 4 18 5 19 6 6 7 3 8 4 9 83 10 5 11 2 12
REMARK SMILES IDX 1 13 7 14 8 15 9 16 17 17 10 18 12 19 16 20 11 21 13 22
REMARK SMILES IDX 15 23 14 24 24 25 25 26 26 27 27 28 28 29 29 30 30 31 82 32
REMARK SMILES IDX 31 33 81 34 32 35 33 36 34 37 75 38 35 39 80 40 74 41 76 42
REMARK SMILES IDX 36 43 79 44 73 45 72 46 37 48 63 49 46 50 62 51 47 52 50 53
REMARK SMILES IDX 61 54 77 55 48 56 49 57 60 59 78 60 51 61 38 62 39 63 44 64
REMARK SMILES IDX 40 65 41 66 43 67 45 68 42 69 64 70 65 71 70 72 66 73 67 74
REMARK SMILES IDX 69 75 71 76 68 77 52 78 53 79 58 80 54 81 55 82 57 83 59 84
REMARK SMILES IDX 56 85
REMARK H PARENT 76 47 50 58
REMARK Flexibility Score: inf
ROOT
ATOM      1  O   UNL     1       6.133   3.422  -0.536  1.00  0.00    -0.374 OA
ENDROOT
BRANCH   1   2
ATOM      2  C   UNL     1       6.136   4.814  -0.238  1.00  0.00     0.202 C 
BRANCH   2   3
ATOM      3  C   UNL     1       4.782   5.504  -0.050  1.00  0.00     0.261 C 
BRANCH   3   4
ATOM      4  O   UNL     1       3.971   4.872   0.951  1.00  0.00    -0.463 OA
BRANCH   4   5
ATOM      5  C   UNL     1       2.936   4.130   0.468  1.00  0.00     0.312 C 
ATOM      6  O   UNL     1       2.656   4.051  -0.725  1.00  0.00    -0.252 OA
BRANCH   5   7
ATOM      7  C   UNL     1       2.138   3.386   1.572  1.00  0.00     0.069 C 
ATOM      8  C   UNL     1       0.560   1.603   1.022  1.00  0.00    -0.010 C 
ATOM      9  C   UNL     1      -0.005   2.908   0.486  1.00  0.00     0.005 C 
ATOM     10  C   UNL     1       2.056   1.897   1.156  1.00  0.00     0.022 C 
ATOM     11  C   UNL     1       0.699   3.935   1.384  1.00  0.00     0.019 C 
BRANCH   8  12
ATOM     12  C   UNL     1       0.184   0.320   0.286  1.00  0.00     0.000 C 
ATOM     13  C   UNL     1       0.875   0.077  -1.042  1.00  0.00     0.004 C 
ENDBRANCH   8  12
BRANCH   7  14
ATOM     14  C   UNL     1       2.798   3.558   2.981  1.00  0.00     0.027 C 
BRANCH  14  15
ATOM     15  C   UNL     1       2.220   3.015   4.333  1.00  0.00     0.020 C 
ATOM     16  C   UNL     1       2.360   1.513   4.640  1.00  0.00     0.009 C 
ATOM     17  C   UNL     1       0.864   3.573   4.675  1.00  0.00    -0.042 A 
ATOM     18  C   UNL     1       1.150   0.637   4.348  1.00  0.00     0.005 C 
ATOM     19  C   UNL     1      -0.278   2.762   4.709  1.00  0.00    -0.045 A 
ATOM     20  C   UNL     1       0.738   4.959   4.885  1.00  0.00     0.004 A 
ATOM     21  C   UNL     1      -0.205   1.258   4.685  1.00  0.00     0.036 C 
ATOM     22  C   UNL     1      -1.537   3.374   4.824  1.00  0.00     0.004 A 
ATOM     23  C   UNL     1      -0.514   5.549   5.026  1.00  0.00     0.000 A 
ATOM     24  C   UNL     1      -1.655   4.759   4.962  1.00  0.00     0.000 A 
ENDBRANCH  14  15
ENDBRANCH   7  14
ENDBRANCH   5   7
ENDBRANCH   4   5
ENDBRANCH   3   4
ENDBRANCH   2   3
ENDBRANCH   1   2
BRANCH   1  25
ATOM     25  C   UNL     1       5.840   2.506   0.519  1.00  0.00     0.202 C 
BRANCH  25  26
ATOM     26  C   UNL     1       6.879   2.361   1.636  1.00  0.00     0.261 C 
BRANCH  26  27
ATOM     27  O   UNL     1       7.004   3.563   2.420  1.00  0.00    -0.460 OA
BRANCH  27  28
ATOM     28  C   UNL     1       8.252   4.092   2.434  1.00  0.00     0.338 C 
ATOM     29  O   UNL     1       9.265   3.615   1.955  1.00  0.00    -0.246 OA
BRANCH  28  30
ATOM     30  C   UNL     1       8.220   5.465   2.970  1.00  0.00     0.060 A 
ATOM     31  C   UNL     1       8.696   6.487   2.139  1.00  0.00     0.016 A 
ATOM     32  C   UNL     1       7.859   5.731   4.292  1.00  0.00     0.016 A 
ATOM     33  C   UNL     1       8.877   7.769   2.647  1.00  0.00     0.010 A 
ATOM     34  C   UNL     1       8.052   7.020   4.804  1.00  0.00     0.010 A 
ATOM     35  C   UNL     1       8.605   8.030   3.996  1.00  0.00    -0.014 A 
BRANCH  35  36
ATOM     36  C   UNL     1       9.080   9.307   4.583  1.00  0.00     0.031 A 
ATOM     37  C   UNL     1      10.402   9.328   5.301  1.00  0.00     0.074 A 
ATOM     38  C   UNL     1       8.385  10.444   4.415  1.00  0.00     0.049 A 
ATOM     39  N   UNL     1      11.034  10.335   5.850  1.00  0.00    -0.248 NA
ATOM     40  C   UNL     1      11.110   8.042   5.412  1.00  0.00     0.031 C 
ATOM     41  C   UNL     1       7.113  10.560   3.704  1.00  0.00     0.029 A 
ATOM     42  N   UNL     1       8.661  11.723   4.827  1.00  0.00    -0.354 N 
ATOM     43  C   UNL     1      12.210   9.806   6.366  1.00  0.00     0.074 A 
ATOM     44  C   UNL     1      12.190   8.385   6.097  1.00  0.00     0.031 C 
ATOM     45  C   UNL     1       6.716  11.845   3.731  1.00  0.00     0.029 A 
ATOM     46  C   UNL     1       7.696  12.634   4.476  1.00  0.00     0.049 A 
ATOM     47  H   UNL     1       9.474  11.965   5.326  1.00  0.00     0.167 HD
ATOM     48  C   UNL     1      13.222  10.447   6.996  1.00  0.00     0.037 A 
ATOM     49  C   UNL     1       7.611  13.953   4.735  1.00  0.00     0.037 A 
ATOM     50  C   UNL     1      13.245  11.861   7.265  1.00  0.00     0.049 A 
ATOM     51  C   UNL     1       8.720  14.632   5.493  1.00  0.00     0.074 A 
ATOM     52  C   UNL     1      14.233  12.606   7.886  1.00  0.00     0.029 A 
ATOM     53  N   UNL     1      12.228  12.742   6.932  1.00  0.00    -0.354 N 
ATOM     54  N   UNL     1       9.839  14.127   5.954  1.00  0.00    -0.248 NA
ATOM     55  C   UNL     1       8.556  16.068   5.761  1.00  0.00     0.031 C 
ATOM     56  C   UNL     1      13.794  13.932   7.966  1.00  0.00     0.029 A 
ATOM     57  C   UNL     1      12.553  14.020   7.356  1.00  0.00     0.049 A 
ATOM     58  H   UNL     1      11.398  12.496   6.464  1.00  0.00     0.167 HD
ATOM     59  C   UNL     1      10.520  15.184   6.544  1.00  0.00     0.074 A 
ATOM     60  C   UNL     1       9.696  16.362   6.370  1.00  0.00     0.031 C 
ATOM     61  C   UNL     1      11.721  15.181   7.174  1.00  0.00     0.037 A 
BRANCH  48  62
ATOM     62  C   UNL     1      14.382   9.615   7.457  1.00  0.00     0.057 A 
ATOM     63  C   UNL     1      15.319   9.092   6.558  1.00  0.00     0.134 A 
ATOM     64  C   UNL     1      14.574   9.351   8.819  1.00  0.00     0.134 A 
ATOM     65  F   UNL     1      15.182   9.295   5.239  1.00  0.00    -0.206 F 
ATOM     66  C   UNL     1      16.396   8.319   6.995  1.00  0.00     0.040 A 
ATOM     67  C   UNL     1      15.659   8.599   9.270  1.00  0.00     0.040 A 
ATOM     68  F   UNL     1      13.713   9.825   9.733  1.00  0.00    -0.206 F 
ATOM     69  C   UNL     1      16.571   8.075   8.356  1.00  0.00     0.006 A 
ENDBRANCH  48  62
BRANCH  49  70
ATOM     70  C   UNL     1       6.428  14.724   4.279  1.00  0.00     0.057 A 
ATOM     71  C   UNL     1       6.530  15.676   3.259  1.00  0.00     0.134 A 
ATOM     72  C   UNL     1       5.173  14.544   4.872  1.00  0.00     0.134 A 
ATOM     73  F   UNL     1       7.712  15.911   2.670  1.00  0.00    -0.206 F 
ATOM     74  C   UNL     1       5.429  16.433   2.854  1.00  0.00     0.040 A 
ATOM     75  C   UNL     1       4.059  15.277   4.462  1.00  0.00     0.040 A 
ATOM     76  F   UNL     1       5.011  13.647   5.857  1.00  0.00    -0.206 F 
ATOM     77  C   UNL     1       4.187  16.230   3.454  1.00  0.00     0.006 A 
ENDBRANCH  49  70
BRANCH  61  78
ATOM     78  C   UNL     1      12.223  16.495   7.698  1.00  0.00     0.057 A 
ATOM     79  C   UNL     1      11.665  17.099   8.832  1.00  0.00     0.134 A 
ATOM     80  C   UNL     1      13.296  17.148   7.078  1.00  0.00     0.134 A 
ATOM     81  F   UNL     1      10.627  16.530   9.463  1.00  0.00    -0.206 F 
ATOM     82  C   UNL     1      12.139  18.319   9.315  1.00  0.00     0.040 A 
ATOM     83  C   UNL     1      13.795  18.356   7.567  1.00  0.00     0.040 A 
ATOM     84  F   UNL     1      13.881  16.618   5.994  1.00  0.00    -0.206 F 
ATOM     85  C   UNL     1      13.212  18.948   8.685  1.00  0.00     0.006 A 
ENDBRANCH  61  78
ENDBRANCH  35  36
ENDBRANCH  28  30
ENDBRANCH  27  28
ENDBRANCH  26  27
ENDBRANCH  25  26
ENDBRANCH   1  25
TORSDOF 17
