REMARK SMILES CCCCCCNC(=O)Oc1cccc(-c2ccc([C@@H](C)C(=O)OCCOCCOC(=O)c3ccc(-c4c5nc(c(-c6c(F)cccc6F)c6ccc([nH]6)c(-c6c(F)cccc6F)c6nc(c(-c7c(F)cccc7F)c7ccc4[nH]7)C=C6)C=C5)cc3)cc2C(F)(F)F)c1
REMARK SMILES IDX 22 1 23 2 20 3 21 4 19 5 16 6 17 7 88 8 18 9 87 10 15 11
REMARK SMILES IDX 11 12 12 13 93 14 13 15 14 16 10 17 8 18 7 19 9 21 6 22 5 23
REMARK SMILES IDX 4 24 3 25 2 26 1 27 89 28 90 29 91 30 92 31 24 32 25 33
REMARK SMILES IDX 26 34 27 35 28 36 29 37 30 38 31 39 32 40 33 41 34 42 86 43
REMARK SMILES IDX 35 44 85 45 36 46 37 47 38 48 79 49 39 50 84 51 78 52 80 53
REMARK SMILES IDX 40 54 83 55 77 56 76 57 41 59 67 60 50 61 66 62 51 63 54 64
REMARK SMILES IDX 65 65 81 66 52 67 53 68 64 70 82 71 55 72 42 73 43 74 48 75
REMARK SMILES IDX 44 76 45 77 47 78 49 79 46 80 68 81 69 82 74 83 70 84 71 85
REMARK SMILES IDX 73 86 75 87 72 88 56 89 57 90 62 91 58 92 59 93 61 94 63 95
REMARK SMILES IDX 60 96
REMARK H PARENT 7 20 80 58 54 69
REMARK Flexibility Score: inf
ROOT
ATOM      1  C   UNL     1      -4.312  14.394   4.213  1.00  0.00     0.313 C 
ATOM      2  O   UNL     1      -4.056  15.429   3.605  1.00  0.00    -0.252 OA
ENDROOT
BRANCH   1   3
ATOM      3  C   UNL     1      -5.366  13.418   3.715  1.00  0.00     0.126 C 
ATOM      4  C   UNL     1      -6.750  13.940   4.089  1.00  0.00     0.025 C 
BRANCH   3   5
ATOM      5  C   UNL     1      -5.206  11.939   4.057  1.00  0.00    -0.033 A 
ATOM      6  C   UNL     1      -5.124   9.121   4.560  1.00  0.00    -0.006 A 
ATOM      7  C   UNL     1      -5.237  10.062   5.604  1.00  0.00     0.009 A 
ATOM      8  C   UNL     1      -5.036   9.610   3.239  1.00  0.00     0.064 A 
ATOM      9  C   UNL     1      -5.287  11.443   5.359  1.00  0.00     0.005 A 
ATOM     10  C   UNL     1      -5.056  11.008   3.014  1.00  0.00     0.018 A 
BRANCH   6  11
ATOM     11  C   UNL     1      -5.179   7.680   4.883  1.00  0.00    -0.014 A 
ATOM     12  C   UNL     1      -4.278   5.428   4.775  1.00  0.00     0.133 A 
ATOM     13  C   UNL     1      -5.435   4.906   5.348  1.00  0.00     0.047 A 
ATOM     14  C   UNL     1      -4.135   6.801   4.550  1.00  0.00     0.056 A 
ATOM     15  C   UNL     1      -6.461   5.768   5.718  1.00  0.00     0.004 A 
ATOM     16  C   UNL     1      -6.335   7.141   5.482  1.00  0.00     0.009 A 
BRANCH  12  17
ATOM     17  O   UNL     1      -3.349   4.487   4.290  1.00  0.00    -0.410 OA
BRANCH  17  18
ATOM     18  C   UNL     1      -1.993   4.672   4.498  1.00  0.00     0.412 C 
ATOM     19  N   UNL     1      -1.217   3.736   3.874  1.00  0.00    -0.321 N 
ATOM     20  H   UNL     1      -0.244   3.817   4.000  1.00  0.00     0.167 HD
ATOM     21  O   UNL     1      -1.486   5.564   5.177  1.00  0.00    -0.224 OA
BRANCH  19  22
ATOM     22  C   UNL     1      -1.674   2.635   3.045  1.00  0.00     0.119 C 
BRANCH  22  23
ATOM     23  C   UNL     1      -1.089   2.692   1.633  1.00  0.00     0.021 C 
BRANCH  23  24
ATOM     24  C   UNL     1       0.438   2.564   1.558  1.00  0.00     0.002 C 
BRANCH  24  25
ATOM     25  C   UNL     1       1.024   1.268   2.129  1.00  0.00    -0.000 C 
BRANCH  25  26
ATOM     26  C   UNL     1       0.547  -0.022   1.457  1.00  0.00    -0.003 C 
ATOM     27  C   UNL     1       0.941  -0.121  -0.009  1.00  0.00     0.004 C 
ENDBRANCH  25  26
ENDBRANCH  24  25
ENDBRANCH  23  24
ENDBRANCH  22  23
ENDBRANCH  19  22
ENDBRANCH  17  18
ENDBRANCH  12  17
ENDBRANCH   6  11
BRANCH   8  28
ATOM     28  C   UNL     1      -4.920   8.712   2.023  1.00  0.00     0.417 C 
ATOM     29  F   UNL     1      -5.451   9.286   0.902  1.00  0.00    -0.166 F 
ATOM     30  F   UNL     1      -3.620   8.447   1.710  1.00  0.00    -0.166 F 
ATOM     31  F   UNL     1      -5.543   7.508   2.123  1.00  0.00    -0.166 F 
ENDBRANCH   8  28
ENDBRANCH   3   5
ENDBRANCH   1   3
BRANCH   1  32
ATOM     32  O   UNL     1      -3.730  14.030   5.384  1.00  0.00    -0.463 OA
BRANCH  32  33
ATOM     33  C   UNL     1      -2.635  14.854   5.824  1.00  0.00     0.261 C 
BRANCH  33  34
ATOM     34  C   UNL     1      -1.332  14.055   5.888  1.00  0.00     0.202 C 
BRANCH  34  35
ATOM     35  O   UNL     1      -0.805  13.606   4.641  1.00  0.00    -0.374 OA
BRANCH  35  36
ATOM     36  C   UNL     1      -1.437  12.486   4.021  1.00  0.00     0.202 C 
BRANCH  36  37
ATOM     37  C   UNL     1      -1.129  11.104   4.611  1.00  0.00     0.261 C 
BRANCH  37  38
ATOM     38  O   UNL     1      -1.626  10.956   5.953  1.00  0.00    -0.460 OA
BRANCH  38  39
ATOM     39  C   UNL     1      -0.664  10.869   6.904  1.00  0.00     0.338 C 
ATOM     40  O   UNL     1       0.543  10.845   6.736  1.00  0.00    -0.246 OA
BRANCH  39  41
ATOM     41  C   UNL     1      -1.263  10.999   8.246  1.00  0.00     0.060 A 
ATOM     42  C   UNL     1      -0.698  11.950   9.106  1.00  0.00     0.016 A 
ATOM     43  C   UNL     1      -2.285  10.159   8.692  1.00  0.00     0.016 A 
ATOM     44  C   UNL     1      -1.108  12.023  10.434  1.00  0.00     0.010 A 
ATOM     45  C   UNL     1      -2.694  10.231  10.030  1.00  0.00     0.010 A 
ATOM     46  C   UNL     1      -2.078  11.135  10.917  1.00  0.00    -0.014 A 
BRANCH  46  47
ATOM     47  C   UNL     1      -2.315  11.055  12.380  1.00  0.00     0.031 A 
ATOM     48  C   UNL     1      -1.656   9.956  13.169  1.00  0.00     0.074 A 
ATOM     49  C   UNL     1      -3.055  11.984  13.010  1.00  0.00     0.049 A 
ATOM     50  N   UNL     1      -1.710   9.709  14.453  1.00  0.00    -0.248 NA
ATOM     51  C   UNL     1      -0.823   9.011  12.408  1.00  0.00     0.031 C 
ATOM     52  C   UNL     1      -3.712  13.120  12.368  1.00  0.00     0.029 A 
ATOM     53  N   UNL     1      -3.374  12.117  14.339  1.00  0.00    -0.354 N 
ATOM     54  C   UNL     1      -0.923   8.581  14.653  1.00  0.00     0.074 A 
ATOM     55  C   UNL     1      -0.429   8.174  13.356  1.00  0.00     0.031 C 
ATOM     56  C   UNL     1      -4.362  13.834  13.304  1.00  0.00     0.029 A 
ATOM     57  C   UNL     1      -4.186  13.191  14.605  1.00  0.00     0.049 A 
ATOM     58  H   UNL     1      -3.050  11.500  15.035  1.00  0.00     0.167 HD
ATOM     59  C   UNL     1      -0.628   7.949  15.814  1.00  0.00     0.037 A 
ATOM     60  C   UNL     1      -4.736  13.600  15.765  1.00  0.00     0.037 A 
ATOM     61  C   UNL     1      -1.113   8.355  17.107  1.00  0.00     0.049 A 
ATOM     62  C   UNL     1      -4.444  12.843  17.033  1.00  0.00     0.074 A 
ATOM     63  C   UNL     1      -0.852   7.788  18.343  1.00  0.00     0.029 A 
ATOM     64  N   UNL     1      -1.963   9.426  17.329  1.00  0.00    -0.354 N 
ATOM     65  N   UNL     1      -3.678  11.794  17.214  1.00  0.00    -0.248 NA
ATOM     66  C   UNL     1      -5.089  13.332  18.261  1.00  0.00     0.031 C 
ATOM     67  C   UNL     1      -1.583   8.489  19.308  1.00  0.00     0.029 A 
ATOM     68  C   UNL     1      -2.258   9.523  18.680  1.00  0.00     0.049 A 
ATOM     69  H   UNL     1      -2.307  10.030  16.631  1.00  0.00     0.167 HD
ATOM     70  C   UNL     1      -3.727  11.515  18.574  1.00  0.00     0.074 A 
ATOM     71  C   UNL     1      -4.589  12.512  19.175  1.00  0.00     0.031 C 
ATOM     72  C   UNL     1      -3.113  10.523  19.265  1.00  0.00     0.037 A 
BRANCH  59  73
ATOM     73  C   UNL     1       0.246   6.731  15.733  1.00  0.00     0.057 A 
ATOM     74  C   UNL     1       1.617   6.821  15.463  1.00  0.00     0.134 A 
ATOM     75  C   UNL     1      -0.287   5.456  15.959  1.00  0.00     0.134 A 
ATOM     76  F   UNL     1       2.187   8.012  15.225  1.00  0.00    -0.206 F 
ATOM     77  C   UNL     1       2.424   5.683  15.400  1.00  0.00     0.040 A 
ATOM     78  C   UNL     1       0.513   4.314  15.922  1.00  0.00     0.040 A 
ATOM     79  F   UNL     1      -1.592   5.301  16.227  1.00  0.00    -0.206 F 
ATOM     80  C   UNL     1       1.873   4.425  15.636  1.00  0.00     0.006 A 
ENDBRANCH  59  73
BRANCH  60  81
ATOM     81  C   UNL     1      -5.632  14.784  15.784  1.00  0.00     0.057 A 
ATOM     82  C   UNL     1      -5.247  15.977  16.405  1.00  0.00     0.134 A 
ATOM     83  C   UNL     1      -6.904  14.741  15.202  1.00  0.00     0.134 A 
ATOM     84  F   UNL     1      -4.050  16.072  17.003  1.00  0.00    -0.206 F 
ATOM     85  C   UNL     1      -6.101  17.080  16.461  1.00  0.00     0.040 A 
ATOM     86  C   UNL     1      -7.759  15.843  15.229  1.00  0.00     0.040 A 
ATOM     87  F   UNL     1      -7.332  13.626  14.591  1.00  0.00    -0.206 F 
ATOM     88  C   UNL     1      -7.360  17.016  15.867  1.00  0.00     0.006 A 
ENDBRANCH  60  81
BRANCH  72  89
ATOM     89  C   UNL     1      -3.322  10.486  20.751  1.00  0.00     0.057 A 
ATOM     90  C   UNL     1      -4.540  10.089  21.318  1.00  0.00     0.134 A 
ATOM     91  C   UNL     1      -2.280  10.818  21.626  1.00  0.00     0.134 A 
ATOM     92  F   UNL     1      -5.582   9.771  20.535  1.00  0.00    -0.206 F 
ATOM     93  C   UNL     1      -4.721  10.046  22.701  1.00  0.00     0.040 A 
ATOM     94  C   UNL     1      -2.440  10.753  23.011  1.00  0.00     0.040 A 
ATOM     95  F   UNL     1      -1.084  11.197  21.149  1.00  0.00    -0.206 F 
ATOM     96  C   UNL     1      -3.666  10.373  23.552  1.00  0.00     0.006 A 
ENDBRANCH  72  89
ENDBRANCH  46  47
ENDBRANCH  39  41
ENDBRANCH  38  39
ENDBRANCH  37  38
ENDBRANCH  36  37
ENDBRANCH  35  36
ENDBRANCH  34  35
ENDBRANCH  33  34
ENDBRANCH  32  33
ENDBRANCH   1  32
TORSDOF 24
