REMARK SMILES Cc1cccc(-c2ccc(Cl)c(C(=O)OCCOCCOC(=O)c3ccc(-c4c5nc(c(-c6c(F)cccc6F)c6ccc([nH]6)c(-c6c(F)cccc6F)c6nc(c(-c7c(F)cccc7F)c7ccc4[nH]7)C=C6)C=C5)cc3)c2)c1
REMARK SMILES IDX 19 1 18 2 17 3 16 4 15 5 13 6 14 7 12 8 7 9 8 10 78 11 9 12
REMARK SMILES IDX 10 13 11 14 6 15 1 16 2 17 3 18 79 19 4 20 5 21 20 22 21 23
REMARK SMILES IDX 22 24 23 25 24 26 25 27 77 28 26 29 76 30 27 31 28 32 29 33
REMARK SMILES IDX 70 34 30 35 75 36 69 37 71 38 31 39 74 40 68 41 67 42 32 44
REMARK SMILES IDX 58 45 41 46 57 47 42 48 45 49 56 50 72 51 43 52 44 53 55 55
REMARK SMILES IDX 73 56 46 57 33 58 34 59 39 60 35 61 36 62 38 63 40 64 37 65
REMARK SMILES IDX 59 66 60 67 65 68 61 69 62 70 64 71 66 72 63 73 47 74 48 75
REMARK SMILES IDX 53 76 49 77 50 78 52 79 54 80 51 81
REMARK H PARENT 71 43 45 54
REMARK Flexibility Score: inf
ROOT
ATOM      1  C   UNL     1      -6.758   2.532   1.331  1.00  0.00     0.202 C 
ENDROOT
BRANCH   1   2
ATOM      2  O   UNL     1      -6.232   3.798   1.665  1.00  0.00    -0.374 OA
BRANCH   2   3
ATOM      3  C   UNL     1      -6.585   4.875   0.818  1.00  0.00     0.202 C 
BRANCH   3   4
ATOM      4  C   UNL     1      -5.738   6.045   1.240  1.00  0.00     0.261 C 
BRANCH   4   5
ATOM      5  O   UNL     1      -4.367   5.845   0.854  1.00  0.00    -0.460 OA
BRANCH   5   6
ATOM      6  C   UNL     1      -3.620   4.829   1.351  1.00  0.00     0.339 C 
ATOM      7  O   UNL     1      -3.726   4.290   2.429  1.00  0.00    -0.246 OA
BRANCH   6   8
ATOM      8  C   UNL     1      -2.728   4.322   0.283  1.00  0.00     0.079 A 
ATOM      9  C   UNL     1      -1.468   2.376  -0.481  1.00  0.00    -0.017 A 
ATOM     10  C   UNL     1      -1.286   3.014  -1.714  1.00  0.00     0.010 A 
ATOM     11  C   UNL     1      -2.200   3.034   0.510  1.00  0.00     0.026 A 
ATOM     12  C   UNL     1      -1.775   4.298  -1.936  1.00  0.00     0.022 A 
ATOM     13  C   UNL     1      -2.476   4.970  -0.936  1.00  0.00     0.055 A 
ATOM     14  Cl  UNL     1      -2.944   6.590  -1.340  1.00  0.00    -0.083 Cl
BRANCH   9  15
ATOM     15  C   UNL     1      -0.849   1.074  -0.241  1.00  0.00    -0.018 A 
ATOM     16  C   UNL     1       2.697  -0.289   0.032  1.00  0.00     0.044 C 
ATOM     17  C   UNL     1       1.200  -0.233  -0.009  1.00  0.00    -0.051 A 
ATOM     18  C   UNL     1       0.435  -1.401   0.062  1.00  0.00     0.003 A 
ATOM     19  C   UNL     1       0.550   0.994  -0.158  1.00  0.00     0.012 A 
ATOM     20  C   UNL     1      -0.959  -1.335   0.007  1.00  0.00     0.001 A 
ATOM     21  C   UNL     1      -1.600  -0.103  -0.139  1.00  0.00     0.009 A 
ENDBRANCH   9  15
ENDBRANCH   6   8
ENDBRANCH   5   6
ENDBRANCH   4   5
ENDBRANCH   3   4
ENDBRANCH   2   3
ENDBRANCH   1   2
BRANCH   1  22
ATOM     22  C   UNL     1      -8.290   2.512   1.375  1.00  0.00     0.261 C 
BRANCH  22  23
ATOM     23  O   UNL     1      -8.768   2.749   2.721  1.00  0.00    -0.460 OA
BRANCH  23  24
ATOM     24  C   UNL     1      -9.062   4.043   3.041  1.00  0.00     0.338 C 
ATOM     25  O   UNL     1      -9.851   4.753   2.439  1.00  0.00    -0.246 OA
BRANCH  24  26
ATOM     26  C   UNL     1      -8.088   4.554   4.052  1.00  0.00     0.060 A 
ATOM     27  C   UNL     1      -7.982   5.936   4.312  1.00  0.00     0.016 A 
ATOM     28  C   UNL     1      -7.061   3.700   4.429  1.00  0.00     0.016 A 
ATOM     29  C   UNL     1      -6.773   6.478   4.786  1.00  0.00     0.010 A 
ATOM     30  C   UNL     1      -5.837   4.255   4.714  1.00  0.00     0.010 A 
ATOM     31  C   UNL     1      -5.670   5.638   4.900  1.00  0.00    -0.014 A 
BRANCH  31  32
ATOM     32  C   UNL     1      -4.284   6.019   5.188  1.00  0.00     0.031 A 
ATOM     33  C   UNL     1      -3.659   5.431   6.402  1.00  0.00     0.074 A 
ATOM     34  C   UNL     1      -3.487   6.611   4.261  1.00  0.00     0.049 A 
ATOM     35  N   UNL     1      -2.546   5.837   6.907  1.00  0.00    -0.248 NA
ATOM     36  C   UNL     1      -4.268   4.369   7.205  1.00  0.00     0.031 C 
ATOM     37  C   UNL     1      -2.040   6.431   4.118  1.00  0.00     0.029 A 
ATOM     38  N   UNL     1      -3.801   7.460   3.196  1.00  0.00    -0.354 N 
ATOM     39  C   UNL     1      -2.129   4.886   7.812  1.00  0.00     0.074 A 
ATOM     40  C   UNL     1      -3.298   4.096   8.078  1.00  0.00     0.031 C 
ATOM     41  C   UNL     1      -1.558   7.292   3.207  1.00  0.00     0.029 A 
ATOM     42  C   UNL     1      -2.646   8.165   2.817  1.00  0.00     0.049 A 
ATOM     43  H   UNL     1      -4.689   7.549   2.779  1.00  0.00     0.167 HD
ATOM     44  C   UNL     1      -0.797   4.793   8.086  1.00  0.00     0.037 A 
ATOM     45  C   UNL     1      -2.624   9.525   2.753  1.00  0.00     0.037 A 
ATOM     46  C   UNL     1      -0.058   5.806   7.321  1.00  0.00     0.049 A 
ATOM     47  C   UNL     1      -1.671  10.046   3.784  1.00  0.00     0.074 A 
ATOM     48  C   UNL     1       0.729   5.728   6.184  1.00  0.00     0.029 A 
ATOM     49  N   UNL     1      -0.332   7.156   7.517  1.00  0.00    -0.354 N 
ATOM     50  N   UNL     1      -1.326   9.329   4.817  1.00  0.00    -0.248 NA
ATOM     51  C   UNL     1      -0.979  11.329   3.738  1.00  0.00     0.031 C 
ATOM     52  C   UNL     1       0.929   7.048   5.701  1.00  0.00     0.029 A 
ATOM     53  C   UNL     1       0.277   7.928   6.551  1.00  0.00     0.049 A 
ATOM     54  H   UNL     1      -0.887   7.513   8.248  1.00  0.00     0.167 HD
ATOM     55  C   UNL     1      -0.362   9.975   5.522  1.00  0.00     0.074 A 
ATOM     56  C   UNL     1      -0.203  11.243   4.837  1.00  0.00     0.031 C 
ATOM     57  C   UNL     1       0.220   9.384   6.602  1.00  0.00     0.037 A 
BRANCH  44  58
ATOM     58  C   UNL     1      -0.089   3.664   8.819  1.00  0.00     0.057 A 
ATOM     59  C   UNL     1       1.322   3.597   8.806  1.00  0.00     0.134 A 
ATOM     60  C   UNL     1      -0.691   2.605   9.523  1.00  0.00     0.134 A 
ATOM     61  F   UNL     1       2.071   4.560   8.253  1.00  0.00    -0.206 F 
ATOM     62  C   UNL     1       2.053   2.542   9.373  1.00  0.00     0.040 A 
ATOM     63  C   UNL     1       0.027   1.538  10.087  1.00  0.00     0.040 A 
ATOM     64  F   UNL     1      -2.002   2.541   9.754  1.00  0.00    -0.206 F 
ATOM     65  C   UNL     1       1.405   1.497  10.005  1.00  0.00     0.006 A 
ENDBRANCH  44  58
BRANCH  45  66
ATOM     66  C   UNL     1      -3.936  10.087   2.330  1.00  0.00     0.057 A 
ATOM     67  C   UNL     1      -4.255   9.998   0.962  1.00  0.00     0.134 A 
ATOM     68  C   UNL     1      -5.010  10.146   3.229  1.00  0.00     0.134 A 
ATOM     69  F   UNL     1      -3.275   9.949   0.045  1.00  0.00    -0.206 F 
ATOM     70  C   UNL     1      -5.569   9.814   0.519  1.00  0.00     0.040 A 
ATOM     71  C   UNL     1      -6.327   9.935   2.797  1.00  0.00     0.040 A 
ATOM     72  F   UNL     1      -4.788  10.229   4.548  1.00  0.00    -0.206 F 
ATOM     73  C   UNL     1      -6.604   9.730   1.446  1.00  0.00     0.006 A 
ENDBRANCH  45  66
BRANCH  57  74
ATOM     74  C   UNL     1       0.871  10.116   7.741  1.00  0.00     0.057 A 
ATOM     75  C   UNL     1       0.655  11.474   8.016  1.00  0.00     0.134 A 
ATOM     76  C   UNL     1       1.609   9.417   8.723  1.00  0.00     0.134 A 
ATOM     77  F   UNL     1      -0.136  12.236   7.250  1.00  0.00    -0.206 F 
ATOM     78  C   UNL     1       1.198  12.107   9.138  1.00  0.00     0.040 A 
ATOM     79  C   UNL     1       2.095  10.024   9.881  1.00  0.00     0.040 A 
ATOM     80  F   UNL     1       1.863   8.104   8.630  1.00  0.00    -0.206 F 
ATOM     81  C   UNL     1       1.912  11.380  10.080  1.00  0.00     0.006 A 
ENDBRANCH  57  74
ENDBRANCH  31  32
ENDBRANCH  24  26
ENDBRANCH  23  24
ENDBRANCH  22  23
ENDBRANCH   1  22
TORSDOF 15
