REMARK SMILES CC1(CNS(=O)(=O)Cc2ccc(C(=O)OCCOCCOC(=O)c3ccc(-c4c5nc(c(-c6c(F)cccc6F)c6ccc([nH]6)c(-c6c(F)cccc6F)c6nc(c(-c7c(F)cccc7F)c7ccc4[nH]7)C=C6)C=C5)cc3)cc2)COC1
REMARK SMILES IDX 16 1 15 2 13 3 14 4 12 5 9 6 10 7 79 8 11 9 78 10 8 11 5 12
REMARK SMILES IDX 6 13 7 14 4 15 3 17 2 18 1 19 80 20 82 21 81 22 17 23 18 24
REMARK SMILES IDX 19 25 20 26 21 27 22 28 23 29 24 30 25 31 77 32 26 33 76 34
REMARK SMILES IDX 27 35 28 36 29 37 70 38 30 39 75 40 69 41 71 42 31 43 74 44
REMARK SMILES IDX 68 45 67 46 32 48 58 49 41 50 57 51 42 52 45 53 56 54 72 55
REMARK SMILES IDX 43 56 44 57 55 59 73 60 46 61 33 62 34 63 39 64 35 65 36 66
REMARK SMILES IDX 38 67 40 68 37 69 59 70 60 71 65 72 61 73 62 74 64 75 66 76
REMARK SMILES IDX 63 77 47 78 48 79 53 80 49 81 50 82 52 83 54 84 51 85
REMARK H PARENT 4 16 71 47 45 58
REMARK Flexibility Score: inf
ROOT
ATOM      1  C   UNL     1       0.926  -6.984  -3.328  1.00  0.00     0.261 C 
ENDROOT
BRANCH   1   2
ATOM      2  O   UNL     1       0.401  -5.867  -2.595  1.00  0.00    -0.460 OA
BRANCH   2   3
ATOM      3  C   UNL     1      -0.883  -6.004  -2.182  1.00  0.00     0.338 C 
ATOM      4  O   UNL     1      -1.652  -6.903  -2.481  1.00  0.00    -0.246 OA
BRANCH   3   5
ATOM      5  C   UNL     1      -1.219  -4.953  -1.191  1.00  0.00     0.060 A 
ATOM      6  C   UNL     1      -2.004  -3.000   0.679  1.00  0.00    -0.032 A 
ATOM      7  C   UNL     1      -2.668  -4.232   0.615  1.00  0.00     0.006 A 
ATOM      8  C   UNL     1      -0.896  -2.797  -0.154  1.00  0.00     0.006 A 
ATOM      9  C   UNL     1      -2.280  -5.200  -0.313  1.00  0.00     0.016 A 
ATOM     10  C   UNL     1      -0.510  -3.755  -1.095  1.00  0.00     0.016 A 
BRANCH   6  11
ATOM     11  C   UNL     1      -2.473  -1.951   1.655  1.00  0.00     0.189 C 
BRANCH  11  12
ATOM     12  S   UNL     1      -3.011  -0.435   0.832  1.00  0.00     0.215 S 
ATOM     13  O   UNL     1      -3.542   0.465   1.830  1.00  0.00    -0.212 OA
ATOM     14  O   UNL     1      -3.783  -0.757  -0.352  1.00  0.00    -0.212 OA
BRANCH  12  15
ATOM     15  N   UNL     1      -1.580   0.270   0.264  1.00  0.00    -0.214 NA
ATOM     16  H   UNL     1      -1.039  -0.463  -0.195  1.00  0.00     0.141 HD
BRANCH  15  17
ATOM     17  C   UNL     1      -0.702   0.913   1.262  1.00  0.00     0.110 C 
BRANCH  17  18
ATOM     18  C   UNL     1       0.639   1.354   0.666  1.00  0.00     0.028 C 
ATOM     19  C   UNL     1       1.420   0.255  -0.040  1.00  0.00     0.018 C 
ATOM     20  C   UNL     1       1.480   2.139   1.692  1.00  0.00     0.170 C 
ATOM     21  C   UNL     1       0.592   2.701  -0.078  1.00  0.00     0.170 C 
ATOM     22  O   UNL     1       1.087   3.397   1.093  1.00  0.00    -0.380 OA
ENDBRANCH  17  18
ENDBRANCH  15  17
ENDBRANCH  12  15
ENDBRANCH  11  12
ENDBRANCH   6  11
ENDBRANCH   3   5
ENDBRANCH   2   3
ENDBRANCH   1   2
BRANCH   1  23
ATOM     23  C   UNL     1       1.925  -7.774  -2.478  1.00  0.00     0.202 C 
BRANCH  23  24
ATOM     24  O   UNL     1       1.391  -8.376  -1.300  1.00  0.00    -0.374 OA
BRANCH  24  25
ATOM     25  C   UNL     1       1.327  -7.553  -0.132  1.00  0.00     0.202 C 
BRANCH  25  26
ATOM     26  C   UNL     1       2.634  -7.435   0.661  1.00  0.00     0.261 C 
BRANCH  26  27
ATOM     27  O   UNL     1       3.600  -6.630  -0.041  1.00  0.00    -0.460 OA
BRANCH  27  28
ATOM     28  C   UNL     1       4.654  -7.312  -0.547  1.00  0.00     0.338 C 
ATOM     29  O   UNL     1       4.919  -8.492  -0.392  1.00  0.00    -0.246 OA
BRANCH  28  30
ATOM     30  C   UNL     1       5.390  -6.452  -1.494  1.00  0.00     0.060 A 
ATOM     31  C   UNL     1       5.668  -6.975  -2.764  1.00  0.00     0.016 A 
ATOM     32  C   UNL     1       5.856  -5.188  -1.128  1.00  0.00     0.016 A 
ATOM     33  C   UNL     1       6.460  -6.257  -3.656  1.00  0.00     0.010 A 
ATOM     34  C   UNL     1       6.659  -4.472  -2.022  1.00  0.00     0.010 A 
ATOM     35  C   UNL     1       6.994  -5.020  -3.274  1.00  0.00    -0.014 A 
BRANCH  35  36
ATOM     36  C   UNL     1       8.034  -4.374  -4.108  1.00  0.00     0.031 A 
ATOM     37  C   UNL     1       9.477  -4.540  -3.721  1.00  0.00     0.074 A 
ATOM     38  C   UNL     1       7.704  -3.661  -5.198  1.00  0.00     0.049 A 
ATOM     39  N   UNL     1      10.547  -4.006  -4.251  1.00  0.00    -0.248 NA
ATOM     40  C   UNL     1       9.747  -5.425  -2.576  1.00  0.00     0.031 C 
ATOM     41  C   UNL     1       6.347  -3.470  -5.705  1.00  0.00     0.029 A 
ATOM     42  N   UNL     1       8.494  -2.954  -6.069  1.00  0.00    -0.354 N 
ATOM     43  C   UNL     1      11.615  -4.483  -3.501  1.00  0.00     0.074 A 
ATOM     44  C   UNL     1      11.063  -5.324  -2.462  1.00  0.00     0.031 C 
ATOM     45  C   UNL     1       6.397  -2.686  -6.796  1.00  0.00     0.029 A 
ATOM     46  C   UNL     1       7.784  -2.292  -7.040  1.00  0.00     0.049 A 
ATOM     47  H   UNL     1       9.476  -2.925  -6.005  1.00  0.00     0.167 HD
ATOM     48  C   UNL     1      12.938  -4.247  -3.669  1.00  0.00     0.037 A 
ATOM     49  C   UNL     1       8.206  -1.446  -7.999  1.00  0.00     0.037 A 
ATOM     50  C   UNL     1      13.485  -3.409  -4.702  1.00  0.00     0.049 A 
ATOM     51  C   UNL     1       9.674  -1.131  -8.115  1.00  0.00     0.074 A 
ATOM     52  C   UNL     1      14.811  -3.112  -4.961  1.00  0.00     0.029 A 
ATOM     53  N   UNL     1      12.730  -2.728  -5.646  1.00  0.00    -0.354 N 
ATOM     54  N   UNL     1      10.677  -1.591  -7.407  1.00  0.00    -0.248 NA
ATOM     55  C   UNL     1      10.067  -0.176  -9.161  1.00  0.00     0.031 C 
ATOM     56  C   UNL     1      14.856  -2.215  -6.034  1.00  0.00     0.029 A 
ATOM     57  C   UNL     1      13.561  -1.993  -6.474  1.00  0.00     0.049 A 
ATOM     58  H   UNL     1      11.749  -2.762  -5.716  1.00  0.00     0.167 HD
ATOM     59  C   UNL     1      11.820  -1.010  -7.943  1.00  0.00     0.074 A 
ATOM     60  C   UNL     1      11.387  -0.165  -9.036  1.00  0.00     0.031 C 
ATOM     61  C   UNL     1      13.114  -1.167  -7.567  1.00  0.00     0.037 A 
BRANCH  48  62
ATOM     62  C   UNL     1      13.878  -4.884  -2.689  1.00  0.00     0.057 A 
ATOM     63  C   UNL     1      14.131  -6.262  -2.693  1.00  0.00     0.134 A 
ATOM     64  C   UNL     1      14.547  -4.108  -1.734  1.00  0.00     0.134 A 
ATOM     65  F   UNL     1      13.509  -7.064  -3.571  1.00  0.00    -0.206 F 
ATOM     66  C   UNL     1      14.994  -6.849  -1.766  1.00  0.00     0.040 A 
ATOM     67  C   UNL     1      15.433  -4.679  -0.819  1.00  0.00     0.040 A 
ATOM     68  F   UNL     1      14.353  -2.781  -1.677  1.00  0.00    -0.206 F 
ATOM     69  C   UNL     1      15.652  -6.055  -0.829  1.00  0.00     0.006 A 
ENDBRANCH  48  62
BRANCH  49  70
ATOM     70  C   UNL     1       7.225  -0.828  -8.925  1.00  0.00     0.057 A 
ATOM     71  C   UNL     1       7.181  -1.188 -10.277  1.00  0.00     0.134 A 
ATOM     72  C   UNL     1       6.317   0.143  -8.486  1.00  0.00     0.134 A 
ATOM     73  F   UNL     1       8.041  -2.096 -10.761  1.00  0.00    -0.206 F 
ATOM     74  C   UNL     1       6.276  -0.598 -11.161  1.00  0.00     0.040 A 
ATOM     75  C   UNL     1       5.392   0.726  -9.354  1.00  0.00     0.040 A 
ATOM     76  F   UNL     1       6.309   0.531  -7.202  1.00  0.00    -0.206 F 
ATOM     77  C   UNL     1       5.375   0.359 -10.698  1.00  0.00     0.006 A 
ENDBRANCH  49  70
BRANCH  61  78
ATOM     78  C   UNL     1      14.159  -0.449  -8.369  1.00  0.00     0.057 A 
ATOM     79  C   UNL     1      14.355   0.933  -8.263  1.00  0.00     0.134 A 
ATOM     80  C   UNL     1      15.017  -1.162  -9.216  1.00  0.00     0.134 A 
ATOM     81  F   UNL     1      13.559   1.675  -7.477  1.00  0.00    -0.206 F 
ATOM     82  C   UNL     1      15.358   1.584  -8.984  1.00  0.00     0.040 A 
ATOM     83  C   UNL     1      16.038  -0.527  -9.924  1.00  0.00     0.040 A 
ATOM     84  F   UNL     1      14.888  -2.490  -9.356  1.00  0.00    -0.206 F 
ATOM     85  C   UNL     1      16.208   0.852  -9.811  1.00  0.00     0.006 A 
ENDBRANCH  61  78
ENDBRANCH  35  36
ENDBRANCH  28  30
ENDBRANCH  27  28
ENDBRANCH  26  27
ENDBRANCH  25  26
ENDBRANCH  24  25
ENDBRANCH  23  24
ENDBRANCH   1  23
TORSDOF 19
