REMARK SMILES Cc1ccc(Nc2c(Cl)cc(Cl)cc2Cl)c(CC(=O)OCCOCCOC(=O)c2ccc(-c3c4nc(c(-c5c(F)cccc5F)c5ccc([nH]5)c(-c5c(F)cccc5F)c5nc(c(-c6c(F)cccc6F)c6ccc3[nH]6)C=C5)C=C4)cc2)c1
REMARK SMILES IDX 22 1 21 2 20 3 18 4 19 5 17 6 16 7 1 8 2 9 3 10 83 11 4 12
REMARK SMILES IDX 5 13 6 14 7 16 8 17 14 18 9 19 10 20 13 21 15 22 11 23 12 24
REMARK SMILES IDX 23 25 24 26 25 27 26 28 27 29 28 30 29 31 30 32 82 33 31 34
REMARK SMILES IDX 81 35 32 36 33 37 34 38 75 39 35 40 80 41 74 42 76 43 36 44
REMARK SMILES IDX 79 45 73 46 72 47 37 49 63 50 46 51 62 52 47 53 50 54 61 55
REMARK SMILES IDX 77 56 48 57 49 58 60 60 78 61 51 62 38 63 39 64 44 65 40 66
REMARK SMILES IDX 41 67 43 68 45 69 42 70 64 71 65 72 70 73 66 74 67 75 69 76
REMARK SMILES IDX 71 77 68 78 52 79 53 80 58 81 54 82 55 83 57 84 59 85 56 86
REMARK H PARENT 6 15 76 48 50 59
REMARK Flexibility Score: inf
ROOT
ATOM      1  C   UNL     1      -1.581   1.259  -3.144  1.00  0.00     0.202 C 
ENDROOT
BRANCH   1   2
ATOM      2  C   UNL     1      -1.148   2.389  -2.227  1.00  0.00     0.261 C 
BRANCH   2   3
ATOM      3  O   UNL     1      -1.137   2.013  -0.860  1.00  0.00    -0.463 OA
BRANCH   3   4
ATOM      4  C   UNL     1      -2.057   2.574  -0.015  1.00  0.00     0.310 C 
ATOM      5  O   UNL     1      -2.916   3.391  -0.302  1.00  0.00    -0.252 OA
BRANCH   4   6
ATOM      6  C   UNL     1      -1.848   2.046   1.396  1.00  0.00     0.160 C 
BRANCH   6   7
ATOM      7  C   UNL     1      -1.164   0.691   1.337  1.00  0.00    -0.013 A 
ATOM      8  C   UNL     1       2.357  -0.200   0.136  1.00  0.00     0.044 C 
ATOM      9  C   UNL     1       0.928  -0.340   0.570  1.00  0.00    -0.051 A 
ATOM     10  C   UNL     1       0.233  -1.528   0.378  1.00  0.00     0.005 A 
ATOM     11  C   UNL     1       0.241   0.740   1.119  1.00  0.00     0.009 A 
ATOM     12  C   UNL     1      -1.137  -1.609   0.669  1.00  0.00     0.026 A 
ATOM     13  C   UNL     1      -1.882  -0.503   1.125  1.00  0.00     0.042 A 
BRANCH  13  14
ATOM     14  N   UNL     1      -3.291  -0.585   1.317  1.00  0.00    -0.353 N 
ATOM     15  H   UNL     1      -3.749   0.271   1.476  1.00  0.00     0.167 HD
BRANCH  14  16
ATOM     16  C   UNL     1      -4.127  -1.739   1.308  1.00  0.00     0.076 A 
ATOM     17  C   UNL     1      -3.776  -2.931   1.969  1.00  0.00     0.067 A 
ATOM     18  C   UNL     1      -5.274  -1.793   0.485  1.00  0.00     0.067 A 
ATOM     19  Cl  UNL     1      -2.649  -2.940   3.287  1.00  0.00    -0.082 Cl
ATOM     20  C   UNL     1      -4.389  -4.147   1.654  1.00  0.00     0.043 A 
ATOM     21  C   UNL     1      -5.856  -3.012   0.120  1.00  0.00     0.043 A 
ATOM     22  Cl  UNL     1      -6.085  -0.355  -0.033  1.00  0.00    -0.082 Cl
ATOM     23  C   UNL     1      -5.381  -4.189   0.683  1.00  0.00     0.044 A 
ATOM     24  Cl  UNL     1      -6.066  -5.697   0.227  1.00  0.00    -0.084 Cl
ENDBRANCH  14  16
ENDBRANCH  13  14
ENDBRANCH   6   7
ENDBRANCH   4   6
ENDBRANCH   3   4
ENDBRANCH   2   3
ENDBRANCH   1   2
BRANCH   1  25
ATOM     25  O   UNL     1      -2.960   1.015  -2.960  1.00  0.00    -0.374 OA
BRANCH  25  26
ATOM     26  C   UNL     1      -3.264  -0.061  -2.094  1.00  0.00     0.202 C 
BRANCH  26  27
ATOM     27  C   UNL     1      -3.617  -1.308  -2.905  1.00  0.00     0.261 C 
BRANCH  27  28
ATOM     28  O   UNL     1      -4.811  -1.084  -3.685  1.00  0.00    -0.460 OA
BRANCH  28  29
ATOM     29  C   UNL     1      -4.578  -0.564  -4.920  1.00  0.00     0.338 C 
ATOM     30  O   UNL     1      -3.878  -1.091  -5.781  1.00  0.00    -0.246 OA
BRANCH  29  31
ATOM     31  C   UNL     1      -5.040   0.851  -4.981  1.00  0.00     0.060 A 
ATOM     32  C   UNL     1      -4.459   1.693  -5.947  1.00  0.00     0.016 A 
ATOM     33  C   UNL     1      -5.667   1.393  -3.860  1.00  0.00     0.016 A 
ATOM     34  C   UNL     1      -4.295   3.052  -5.674  1.00  0.00     0.010 A 
ATOM     35  C   UNL     1      -5.381   2.704  -3.537  1.00  0.00     0.010 A 
ATOM     36  C   UNL     1      -4.649   3.524  -4.414  1.00  0.00    -0.014 A 
BRANCH  36  37
ATOM     37  C   UNL     1      -4.208   4.794  -3.837  1.00  0.00     0.031 A 
ATOM     38  C   UNL     1      -5.216   5.737  -3.321  1.00  0.00     0.074 A 
ATOM     39  C   UNL     1      -2.905   4.990  -3.525  1.00  0.00     0.049 A 
ATOM     40  N   UNL     1      -4.920   6.889  -2.837  1.00  0.00    -0.248 NA
ATOM     41  C   UNL     1      -6.657   5.500  -3.363  1.00  0.00     0.031 C 
ATOM     42  C   UNL     1      -2.337   5.851  -2.483  1.00  0.00     0.029 A 
ATOM     43  N   UNL     1      -1.779   4.454  -4.129  1.00  0.00    -0.354 N 
ATOM     44  C   UNL     1      -6.026   7.361  -2.187  1.00  0.00     0.074 A 
ATOM     45  C   UNL     1      -7.112   6.546  -2.665  1.00  0.00     0.031 C 
ATOM     46  C   UNL     1      -1.010   5.957  -2.663  1.00  0.00     0.029 A 
ATOM     47  C   UNL     1      -0.695   5.312  -3.923  1.00  0.00     0.049 A 
ATOM     48  H   UNL     1      -1.747   3.603  -4.623  1.00  0.00     0.167 HD
ATOM     49  C   UNL     1      -5.840   8.314  -1.234  1.00  0.00     0.037 A 
ATOM     50  C   UNL     1      -0.012   5.859  -4.968  1.00  0.00     0.037 A 
ATOM     51  C   UNL     1      -4.474   8.861  -1.302  1.00  0.00     0.049 A 
ATOM     52  C   UNL     1      -0.348   7.339  -5.069  1.00  0.00     0.074 A 
ATOM     53  C   UNL     1      -3.337   8.803  -0.517  1.00  0.00     0.029 A 
ATOM     54  N   UNL     1      -4.055   9.383  -2.518  1.00  0.00    -0.354 N 
ATOM     55  N   UNL     1      -1.081   7.963  -4.185  1.00  0.00    -0.248 NA
ATOM     56  C   UNL     1       0.039   8.225  -6.162  1.00  0.00     0.031 C 
ATOM     57  C   UNL     1      -2.224   9.230  -1.323  1.00  0.00     0.029 A 
ATOM     58  C   UNL     1      -2.692   9.595  -2.576  1.00  0.00     0.049 A 
ATOM     59  H   UNL     1      -4.667   9.582  -3.263  1.00  0.00     0.167 HD
ATOM     60  C   UNL     1      -1.326   9.242  -4.567  1.00  0.00     0.074 A 
ATOM     61  C   UNL     1      -0.609   9.359  -5.830  1.00  0.00     0.031 C 
ATOM     62  C   UNL     1      -2.110  10.086  -3.828  1.00  0.00     0.037 A 
BRANCH  49  63
ATOM     63  C   UNL     1      -6.857   8.690  -0.183  1.00  0.00     0.057 A 
ATOM     64  C   UNL     1      -6.638   9.814   0.635  1.00  0.00     0.134 A 
ATOM     65  C   UNL     1      -8.016   7.953   0.144  1.00  0.00     0.134 A 
ATOM     66  F   UNL     1      -5.567  10.602   0.462  1.00  0.00    -0.206 F 
ATOM     67  C   UNL     1      -7.500  10.176   1.680  1.00  0.00     0.040 A 
ATOM     68  C   UNL     1      -8.913   8.335   1.151  1.00  0.00     0.040 A 
ATOM     69  F   UNL     1      -8.321   6.792  -0.446  1.00  0.00    -0.206 F 
ATOM     70  C   UNL     1      -8.652   9.445   1.934  1.00  0.00     0.006 A 
ENDBRANCH  49  63
BRANCH  50  71
ATOM     71  C   UNL     1       0.174   4.843  -6.052  1.00  0.00     0.057 A 
ATOM     72  C   UNL     1       0.969   3.725  -5.704  1.00  0.00     0.134 A 
ATOM     73  C   UNL     1      -0.815   4.634  -7.021  1.00  0.00     0.134 A 
ATOM     74  F   UNL     1       1.941   3.853  -4.785  1.00  0.00    -0.206 F 
ATOM     75  C   UNL     1       0.644   2.430  -6.119  1.00  0.00     0.040 A 
ATOM     76  C   UNL     1      -1.136   3.336  -7.454  1.00  0.00     0.040 A 
ATOM     77  F   UNL     1      -1.642   5.629  -7.371  1.00  0.00    -0.206 F 
ATOM     78  C   UNL     1      -0.448   2.229  -6.955  1.00  0.00     0.006 A 
ENDBRANCH  50  71
BRANCH  62  79
ATOM     79  C   UNL     1      -2.409  11.482  -4.291  1.00  0.00     0.057 A 
ATOM     80  C   UNL     1      -1.413  12.322  -4.804  1.00  0.00     0.134 A 
ATOM     81  C   UNL     1      -3.694  12.050  -4.188  1.00  0.00     0.134 A 
ATOM     82  F   UNL     1      -0.130  11.931  -4.839  1.00  0.00    -0.206 F 
ATOM     83  C   UNL     1      -1.699  13.598  -5.295  1.00  0.00     0.040 A 
ATOM     84  C   UNL     1      -3.978  13.349  -4.609  1.00  0.00     0.040 A 
ATOM     85  F   UNL     1      -4.742  11.366  -3.712  1.00  0.00    -0.206 F 
ATOM     86  C   UNL     1      -2.986  14.116  -5.200  1.00  0.00     0.006 A 
ENDBRANCH  62  79
ENDBRANCH  36  37
ENDBRANCH  29  31
ENDBRANCH  28  29
ENDBRANCH  27  28
ENDBRANCH  26  27
ENDBRANCH  25  26
ENDBRANCH   1  25
TORSDOF 17
