REMARK SMILES C[C@@H](CNc1cccc(F)c1C(=O)OCCOCCOC(=O)c1ccc(-c2c3nc(c(-c4c(F)cccc4F)c4ccc([nH]4)c(-c4c(F)cccc4F)c4nc(c(-c5c(F)cccc5F)c5ccc2[nH]5)C=C4)C=C3)cc1)[NH+]1CCCCC1
REMARK SMILES IDX 16 1 15 2 14 3 12 4 13 5 11 6 5 7 6 8 7 9 9 10 8 11 10 12
REMARK SMILES IDX 4 13 3 15 2 16 1 17 77 18 78 19 82 20 79 22 81 23 80 24
REMARK SMILES IDX 17 25 18 26 19 27 20 28 21 29 22 30 23 31 24 32 76 33 25 34
REMARK SMILES IDX 75 35 26 36 27 37 28 38 69 39 29 40 74 41 68 42 70 43 30 44
REMARK SMILES IDX 73 45 67 46 66 47 31 49 57 50 40 51 56 52 41 53 44 54 55 55
REMARK SMILES IDX 71 56 42 57 43 58 54 60 72 61 45 62 32 63 33 64 38 65 34 66
REMARK SMILES IDX 35 67 37 68 39 69 36 70 58 71 59 72 64 73 60 74 61 75 63 76
REMARK SMILES IDX 65 77 62 78 46 79 47 80 52 81 48 82 49 83 51 84 53 85 50 86
REMARK H PARENT 4 14 77 21 70 48 44 59
REMARK Flexibility Score: inf
ROOT
ATOM      1  C   UNL     1      -2.143  -3.418  -3.087  1.00  0.00     0.202 C 
ENDROOT
BRANCH   1   2
ATOM      2  C   UNL     1      -3.044  -2.188  -2.855  1.00  0.00     0.261 C 
BRANCH   2   3
ATOM      3  O   UNL     1      -2.831  -1.070  -3.726  1.00  0.00    -0.460 OA
BRANCH   3   4
ATOM      4  C   UNL     1      -1.765  -0.344  -3.324  1.00  0.00     0.343 C 
ATOM      5  O   UNL     1      -0.996  -0.741  -2.456  1.00  0.00    -0.246 OA
BRANCH   4   6
ATOM      6  C   UNL     1      -1.497   0.910  -4.065  1.00  0.00     0.118 A 
ATOM      7  C   UNL     1      -0.329   1.651  -3.724  1.00  0.00     0.052 A 
ATOM      8  C   UNL     1      -0.041   2.805  -4.465  1.00  0.00     0.027 A 
ATOM      9  C   UNL     1      -0.882   3.236  -5.494  1.00  0.00     0.005 A 
ATOM     10  C   UNL     1      -2.347   1.368  -5.074  1.00  0.00     0.139 A 
ATOM     11  C   UNL     1      -2.043   2.526  -5.787  1.00  0.00     0.040 A 
ATOM     12  F   UNL     1      -3.479   0.724  -5.392  1.00  0.00    -0.206 F 
BRANCH   7  13
ATOM     13  N   UNL     1       0.496   1.260  -2.671  1.00  0.00    -0.378 N 
ATOM     14  H   UNL     1       0.713   0.302  -2.597  1.00  0.00     0.160 HD
BRANCH  13  15
ATOM     15  C   UNL     1       1.063   2.157  -1.671  1.00  0.00     0.177 C 
BRANCH  15  16
ATOM     16  C   UNL     1       0.558   1.878  -0.196  1.00  0.00     0.200 C 
ATOM     17  C   UNL     1       1.134   0.530   0.296  1.00  0.00     0.077 C 
BRANCH  16  18
ATOM     18  N   UNL     1      -0.896   2.078   0.150  1.00  0.00    -0.331 N 
ATOM     19  C   UNL     1      -1.476   3.228  -0.557  1.00  0.00     0.262 C 
ATOM     20  C   UNL     1      -1.697   0.859   0.021  1.00  0.00     0.262 C 
ATOM     21  H   UNL     1      -0.924   2.304   1.145  1.00  0.00     0.348 HD
ATOM     22  C   UNL     1      -2.988   3.389  -0.384  1.00  0.00     0.062 C 
ATOM     23  C   UNL     1      -3.215   0.990   0.119  1.00  0.00     0.062 C 
ATOM     24  C   UNL     1      -3.715   2.111  -0.773  1.00  0.00     0.012 C 
ENDBRANCH  16  18
ENDBRANCH  15  16
ENDBRANCH  13  15
ENDBRANCH   7  13
ENDBRANCH   4   6
ENDBRANCH   3   4
ENDBRANCH   2   3
ENDBRANCH   1   2
BRANCH   1  25
ATOM     25  O   UNL     1      -0.723  -3.341  -3.130  1.00  0.00    -0.374 OA
BRANCH  25  26
ATOM     26  C   UNL     1      -0.052  -2.750  -4.243  1.00  0.00     0.202 C 
BRANCH  26  27
ATOM     27  C   UNL     1      -0.070  -3.450  -5.598  1.00  0.00     0.261 C 
BRANCH  27  28
ATOM     28  O   UNL     1      -1.399  -3.617  -6.103  1.00  0.00    -0.460 OA
BRANCH  28  29
ATOM     29  C   UNL     1      -1.867  -4.880  -6.004  1.00  0.00     0.338 C 
ATOM     30  O   UNL     1      -1.260  -5.872  -5.615  1.00  0.00    -0.246 OA
BRANCH  29  31
ATOM     31  C   UNL     1      -3.319  -4.884  -6.231  1.00  0.00     0.060 A 
ATOM     32  C   UNL     1      -4.123  -5.528  -5.278  1.00  0.00     0.016 A 
ATOM     33  C   UNL     1      -3.872  -4.324  -7.382  1.00  0.00     0.016 A 
ATOM     34  C   UNL     1      -5.481  -5.683  -5.511  1.00  0.00     0.010 A 
ATOM     35  C   UNL     1      -5.232  -4.502  -7.627  1.00  0.00     0.010 A 
ATOM     36  C   UNL     1      -6.023  -5.227  -6.717  1.00  0.00    -0.014 A 
BRANCH  36  37
ATOM     37  C   UNL     1      -7.354  -5.711  -7.132  1.00  0.00     0.031 A 
ATOM     38  C   UNL     1      -7.415  -6.880  -8.074  1.00  0.00     0.074 A 
ATOM     39  C   UNL     1      -8.473  -5.152  -6.644  1.00  0.00     0.049 A 
ATOM     40  N   UNL     1      -8.454  -7.429  -8.646  1.00  0.00    -0.248 NA
ATOM     41  C   UNL     1      -6.131  -7.520  -8.418  1.00  0.00     0.031 C 
ATOM     42  C   UNL     1      -8.520  -4.070  -5.663  1.00  0.00     0.029 A 
ATOM     43  N   UNL     1      -9.788  -5.424  -6.913  1.00  0.00    -0.354 N 
ATOM     44  C   UNL     1      -7.951  -8.472  -9.413  1.00  0.00     0.074 A 
ATOM     45  C   UNL     1      -6.514  -8.463  -9.266  1.00  0.00     0.031 C 
ATOM     46  C   UNL     1      -9.805  -3.765  -5.415  1.00  0.00     0.029 A 
ATOM     47  C   UNL     1     -10.664  -4.600  -6.252  1.00  0.00     0.049 A 
ATOM     48  H   UNL     1     -10.077  -6.142  -7.522  1.00  0.00     0.167 HD
ATOM     49  C   UNL     1      -8.635  -9.365 -10.161  1.00  0.00     0.037 A 
ATOM     50  C   UNL     1     -12.005  -4.520  -6.339  1.00  0.00     0.037 A 
ATOM     51  C   UNL     1     -10.066  -9.367 -10.294  1.00  0.00     0.049 A 
ATOM     52  C   UNL     1     -12.732  -5.455  -7.271  1.00  0.00     0.074 A 
ATOM     53  C   UNL     1     -10.858 -10.215 -11.045  1.00  0.00     0.029 A 
ATOM     54  N   UNL     1     -10.917  -8.479  -9.653  1.00  0.00    -0.354 N 
ATOM     55  N   UNL     1     -12.251  -6.424  -8.013  1.00  0.00    -0.248 NA
ATOM     56  C   UNL     1     -14.188  -5.283  -7.384  1.00  0.00     0.031 C 
ATOM     57  C   UNL     1     -12.187  -9.813 -10.894  1.00  0.00     0.029 A 
ATOM     58  C   UNL     1     -12.226  -8.752 -10.004  1.00  0.00     0.049 A 
ATOM     59  H   UNL     1     -10.632  -7.764  -9.040  1.00  0.00     0.167 HD
ATOM     60  C   UNL     1     -13.345  -7.001  -8.646  1.00  0.00     0.074 A 
ATOM     61  C   UNL     1     -14.516  -6.277  -8.197  1.00  0.00     0.031 C 
ATOM     62  C   UNL     1     -13.379  -8.037  -9.519  1.00  0.00     0.037 A 
BRANCH  49  63
ATOM     63  C   UNL     1      -7.859 -10.417 -10.894  1.00  0.00     0.057 A 
ATOM     64  C   UNL     1      -7.774 -10.399 -12.292  1.00  0.00     0.134 A 
ATOM     65  C   UNL     1      -7.278 -11.500 -10.223  1.00  0.00     0.134 A 
ATOM     66  F   UNL     1      -8.309  -9.389 -12.994  1.00  0.00    -0.206 F 
ATOM     67  C   UNL     1      -7.166 -11.437 -12.999  1.00  0.00     0.040 A 
ATOM     68  C   UNL     1      -6.646 -12.533 -10.918  1.00  0.00     0.040 A 
ATOM     69  F   UNL     1      -7.310 -11.567  -8.884  1.00  0.00    -0.206 F 
ATOM     70  C   UNL     1      -6.602 -12.510 -12.311  1.00  0.00     0.006 A 
ENDBRANCH  49  63
BRANCH  50  71
ATOM     71  C   UNL     1     -12.751  -3.523  -5.531  1.00  0.00     0.057 A 
ATOM     72  C   UNL     1     -12.623  -2.147  -5.760  1.00  0.00     0.134 A 
ATOM     73  C   UNL     1     -13.628  -3.927  -4.518  1.00  0.00     0.134 A 
ATOM     74  F   UNL     1     -11.799  -1.691  -6.714  1.00  0.00    -0.206 F 
ATOM     75  C   UNL     1     -13.333  -1.211  -5.005  1.00  0.00     0.040 A 
ATOM     76  C   UNL     1     -14.365  -3.004  -3.775  1.00  0.00     0.040 A 
ATOM     77  F   UNL     1     -13.809  -5.232  -4.264  1.00  0.00    -0.206 F 
ATOM     78  C   UNL     1     -14.214  -1.639  -4.015  1.00  0.00     0.006 A 
ENDBRANCH  50  71
BRANCH  62  79
ATOM     79  C   UNL     1     -14.720  -8.493 -10.013  1.00  0.00     0.057 A 
ATOM     80  C   UNL     1     -15.229  -9.741  -9.628  1.00  0.00     0.134 A 
ATOM     81  C   UNL     1     -15.457  -7.751 -10.943  1.00  0.00     0.134 A 
ATOM     82  F   UNL     1     -14.562 -10.508  -8.752  1.00  0.00    -0.206 F 
ATOM     83  C   UNL     1     -16.414 -10.243 -10.166  1.00  0.00     0.040 A 
ATOM     84  C   UNL     1     -16.660  -8.230 -11.465  1.00  0.00     0.040 A 
ATOM     85  F   UNL     1     -15.028  -6.546 -11.345  1.00  0.00    -0.206 F 
ATOM     86  C   UNL     1     -17.134  -9.485 -11.086  1.00  0.00     0.006 A 
ENDBRANCH  62  79
ENDBRANCH  36  37
ENDBRANCH  29  31
ENDBRANCH  28  29
ENDBRANCH  27  28
ENDBRANCH  26  27
ENDBRANCH  25  26
ENDBRANCH   1  25
TORSDOF 18
