REMARK SMILES CN1C(=O)[C@H](CC(=O)OCCOCCOC(=O)c2ccc(-c3c4nc(c(-c5c(F)cccc5F)c5ccc([nH]5)c(-c5c(F)cccc5F)c5nc(c(-c6c(F)cccc6F)c6ccc3[nH]6)C=C5)C=C4)cc2)S/C1=[NH+]\N=C\c1ccc(O)cc1O
REMARK SMILES IDX 11 1 10 2 9 3 7 4 8 5 6 6 5 7 1 8 2 9 3 10 73 11 4 12 72 13
REMARK SMILES IDX 74 14 75 16 76 17 77 18 78 19 83 20 79 21 82 22 80 23 84 24
REMARK SMILES IDX 81 26 12 28 13 29 14 30 15 31 16 32 17 33 18 34 19 35 71 36
REMARK SMILES IDX 20 37 70 38 21 39 22 40 23 41 64 42 24 43 69 44 63 45 65 46
REMARK SMILES IDX 25 47 68 48 62 49 61 50 26 52 52 53 35 54 51 55 36 56 39 57
REMARK SMILES IDX 50 58 66 59 37 60 38 61 49 63 67 64 40 65 27 66 28 67 33 68
REMARK SMILES IDX 29 69 30 70 32 71 34 72 31 73 53 74 54 75 59 76 55 77 56 78
REMARK SMILES IDX 58 79 60 80 57 81 41 82 42 83 47 84 43 85 44 86 46 87 48 88
REMARK SMILES IDX 45 89
REMARK H PARENT 74 15 84 25 81 27 65 51 39 62
REMARK Flexibility Score: inf
ROOT
ATOM      1  C   UNL     1      -2.655   6.450   1.918  1.00  0.00     0.202 C 
ENDROOT
BRANCH   1   2
ATOM      2  C   UNL     1      -3.486   5.237   2.357  1.00  0.00     0.261 C 
BRANCH   2   3
ATOM      3  O   UNL     1      -2.693   4.042   2.423  1.00  0.00    -0.463 OA
BRANCH   3   4
ATOM      4  C   UNL     1      -3.254   2.943   1.859  1.00  0.00     0.307 C 
ATOM      5  O   UNL     1      -4.433   2.841   1.545  1.00  0.00    -0.252 OA
BRANCH   4   6
ATOM      6  C   UNL     1      -2.227   1.915   1.471  1.00  0.00     0.150 C 
BRANCH   6   7
ATOM      7  C   UNL     1      -1.331   1.344   2.568  1.00  0.00     0.185 C 
ATOM      8  C   UNL     1       1.375  -0.275   0.533  1.00  0.00     0.301 C 
ATOM      9  N   UNL     1       0.643   0.550   1.470  1.00  0.00    -0.191 N 
ATOM     10  C   UNL     1      -0.607   0.178   1.918  1.00  0.00     0.324 C 
ATOM     11  C   UNL     1       1.161   1.708   1.982  1.00  0.00     0.339 C 
ATOM     12  O   UNL     1      -1.132  -0.913   1.728  1.00  0.00    -0.245 OA
ATOM     13  S   UNL     1       0.030   2.428   3.105  1.00  0.00    -0.020 SA
ATOM     14  N   UNL     1       2.326   2.166   1.645  1.00  0.00    -0.142 N 
ATOM     15  H   UNL     1       2.885   1.736   0.958  1.00  0.00     0.343 HD
BRANCH  14  16
ATOM     16  N   UNL     1       2.727   3.308   2.329  1.00  0.00    -0.093 NA
ATOM     17  C   UNL     1       3.676   3.938   1.708  1.00  0.00     0.170 C 
BRANCH  17  18
ATOM     18  C   UNL     1       4.260   5.172   2.272  1.00  0.00     0.039 A 
ATOM     19  C   UNL     1       5.099   5.939   1.455  1.00  0.00     0.017 A 
ATOM     20  C   UNL     1       3.983   5.596   3.580  1.00  0.00     0.128 A 
ATOM     21  C   UNL     1       5.649   7.125   1.947  1.00  0.00     0.047 A 
ATOM     22  C   UNL     1       4.536   6.777   4.071  1.00  0.00     0.093 A 
ATOM     23  C   UNL     1       5.362   7.534   3.246  1.00  0.00     0.119 A 
BRANCH  20  24
ATOM     24  O   UNL     1       3.173   4.899   4.438  1.00  0.00    -0.507 OA
ATOM     25  H   UNL     1       2.775   4.098   4.160  1.00  0.00     0.293 HD
ENDBRANCH  20  24
BRANCH  23  26
ATOM     26  O   UNL     1       5.917   8.703   3.679  1.00  0.00    -0.508 OA
ATOM     27  H   UNL     1       6.471   9.198   3.108  1.00  0.00     0.293 HD
ENDBRANCH  23  26
ENDBRANCH  17  18
ENDBRANCH  14  16
ENDBRANCH   6   7
ENDBRANCH   4   6
ENDBRANCH   3   4
ENDBRANCH   2   3
ENDBRANCH   1   2
BRANCH   1  28
ATOM     28  O   UNL     1      -1.866   6.268   0.743  1.00  0.00    -0.374 OA
BRANCH  28  29
ATOM     29  C   UNL     1      -0.652   5.519   0.881  1.00  0.00     0.202 C 
BRANCH  29  30
ATOM     30  C   UNL     1       0.378   6.090   1.860  1.00  0.00     0.261 C 
BRANCH  30  31
ATOM     31  O   UNL     1      -0.043   5.913   3.225  1.00  0.00    -0.460 OA
BRANCH  31  32
ATOM     32  C   UNL     1       0.381   6.888   4.059  1.00  0.00     0.338 C 
ATOM     33  O   UNL     1       1.177   7.783   3.811  1.00  0.00    -0.246 OA
BRANCH  32  34
ATOM     34  C   UNL     1      -0.446   6.894   5.277  1.00  0.00     0.060 A 
ATOM     35  C   UNL     1      -1.341   7.959   5.433  1.00  0.00     0.016 A 
ATOM     36  C   UNL     1      -0.264   5.963   6.300  1.00  0.00     0.016 A 
ATOM     37  C   UNL     1      -2.015   8.132   6.641  1.00  0.00     0.010 A 
ATOM     38  C   UNL     1      -0.943   6.140   7.515  1.00  0.00     0.010 A 
ATOM     39  C   UNL     1      -1.788   7.249   7.706  1.00  0.00    -0.014 A 
BRANCH  39  40
ATOM     40  C   UNL     1      -2.317   7.598   9.051  1.00  0.00     0.031 A 
ATOM     41  C   UNL     1      -1.404   8.261  10.051  1.00  0.00     0.074 A 
ATOM     42  C   UNL     1      -3.613   7.408   9.358  1.00  0.00     0.049 A 
ATOM     43  N   UNL     1      -1.668   8.687  11.261  1.00  0.00    -0.248 NA
ATOM     44  C   UNL     1      -0.012   8.480   9.627  1.00  0.00     0.031 C 
ATOM     45  C   UNL     1      -4.614   6.819   8.471  1.00  0.00     0.029 A 
ATOM     46  N   UNL     1      -4.310   7.701  10.505  1.00  0.00    -0.354 N 
ATOM     47  C   UNL     1      -0.481   9.230  11.738  1.00  0.00     0.074 A 
ATOM     48  C   UNL     1       0.513   9.050  10.702  1.00  0.00     0.031 C 
ATOM     49  C   UNL     1      -5.798   6.792   9.108  1.00  0.00     0.029 A 
ATOM     50  C   UNL     1      -5.634   7.340  10.453  1.00  0.00     0.049 A 
ATOM     51  H   UNL     1      -3.899   8.129  11.290  1.00  0.00     0.167 HD
ATOM     52  C   UNL     1      -0.242   9.837  12.924  1.00  0.00     0.037 A 
ATOM     53  C   UNL     1      -6.600   7.431  11.388  1.00  0.00     0.037 A 
ATOM     54  C   UNL     1      -1.222  10.022  13.961  1.00  0.00     0.049 A 
ATOM     55  C   UNL     1      -6.288   8.044  12.728  1.00  0.00     0.074 A 
ATOM     56  C   UNL     1      -1.066  10.627  15.197  1.00  0.00     0.029 A 
ATOM     57  N   UNL     1      -2.540   9.603  13.885  1.00  0.00    -0.354 N 
ATOM     58  N   UNL     1      -5.167   8.569  13.158  1.00  0.00    -0.248 NA
ATOM     59  C   UNL     1      -7.381   8.079  13.713  1.00  0.00     0.031 C 
ATOM     60  C   UNL     1      -2.281  10.542  15.884  1.00  0.00     0.029 A 
ATOM     61  C   UNL     1      -3.203   9.919  15.059  1.00  0.00     0.049 A 
ATOM     62  H   UNL     1      -2.944   9.148  13.111  1.00  0.00     0.167 HD
ATOM     63  C   UNL     1      -5.426   9.018  14.447  1.00  0.00     0.074 A 
ATOM     64  C   UNL     1      -6.813   8.716  14.727  1.00  0.00     0.031 C 
ATOM     65  C   UNL     1      -4.588   9.626  15.321  1.00  0.00     0.037 A 
BRANCH  52  66
ATOM     66  C   UNL     1       1.147  10.345  13.173  1.00  0.00     0.057 A 
ATOM     67  C   UNL     1       1.621  11.512  12.562  1.00  0.00     0.134 A 
ATOM     68  C   UNL     1       1.997   9.691  14.074  1.00  0.00     0.134 A 
ATOM     69  F   UNL     1       0.859  12.176  11.681  1.00  0.00    -0.206 F 
ATOM     70  C   UNL     1       2.899  12.006  12.830  1.00  0.00     0.040 A 
ATOM     71  C   UNL     1       3.269  10.186  14.365  1.00  0.00     0.040 A 
ATOM     72  F   UNL     1       1.599   8.571  14.695  1.00  0.00    -0.206 F 
ATOM     73  C   UNL     1       3.724  11.346  13.740  1.00  0.00     0.006 A 
ENDBRANCH  52  66
BRANCH  53  74
ATOM     74  C   UNL     1      -7.963   6.914  11.106  1.00  0.00     0.057 A 
ATOM     75  C   UNL     1      -9.057   7.776  10.973  1.00  0.00     0.134 A 
ATOM     76  C   UNL     1      -8.209   5.539  11.011  1.00  0.00     0.134 A 
ATOM     77  F   UNL     1      -8.889   9.102  11.082  1.00  0.00    -0.206 F 
ATOM     78  C   UNL     1     -10.351   7.290  10.777  1.00  0.00     0.040 A 
ATOM     79  C   UNL     1      -9.493   5.040  10.791  1.00  0.00     0.040 A 
ATOM     80  F   UNL     1      -7.203   4.661  11.134  1.00  0.00    -0.206 F 
ATOM     81  C   UNL     1     -10.571   5.917  10.682  1.00  0.00     0.006 A 
ENDBRANCH  53  74
BRANCH  65  82
ATOM     82  C   UNL     1      -5.153  10.036  16.649  1.00  0.00     0.057 A 
ATOM     83  C   UNL     1      -5.432   9.100  17.652  1.00  0.00     0.134 A 
ATOM     84  C   UNL     1      -5.383  11.386  16.940  1.00  0.00     0.134 A 
ATOM     85  F   UNL     1      -5.245   7.790  17.431  1.00  0.00    -0.206 F 
ATOM     86  C   UNL     1      -5.939   9.492  18.893  1.00  0.00     0.040 A 
ATOM     87  C   UNL     1      -5.868  11.792  18.184  1.00  0.00     0.040 A 
ATOM     88  F   UNL     1      -5.128  12.334  16.025  1.00  0.00    -0.206 F 
ATOM     89  C   UNL     1      -6.152  10.842  19.163  1.00  0.00     0.006 A 
ENDBRANCH  65  82
ENDBRANCH  39  40
ENDBRANCH  32  34
ENDBRANCH  31  32
ENDBRANCH  30  31
ENDBRANCH  29  30
ENDBRANCH  28  29
ENDBRANCH   1  28
TORSDOF 19
