REMARK SMILES O=C(OCCOCCOC(=O)[C@]1(CCc2cccnc2)CCC[NH2+]C1)c1ccc(-c2c3nc(c(-c4c(F)cccc4F)c4ccc([nH]4)c(-c4c(F)cccc4F)c4nc(c(-c5c(F)cccc5F)c5ccc2[nH]5)C=C4)C=C3)cc1
REMARK SMILES IDX 7 1 6 2 5 3 4 4 3 5 2 6 1 7 26 8 27 9 79 10 28 11 78 12
REMARK SMILES IDX 29 13 30 14 31 15 72 16 32 17 77 18 71 19 73 20 33 21 76 22
REMARK SMILES IDX 70 23 69 24 34 26 60 27 43 28 59 29 44 30 47 31 58 32 74 33
REMARK SMILES IDX 45 34 46 35 57 37 75 38 48 39 35 40 36 41 41 42 37 43 38 44
REMARK SMILES IDX 40 45 42 46 39 47 61 48 62 49 67 50 63 51 64 52 66 53 68 54
REMARK SMILES IDX 65 55 49 56 50 57 55 58 51 59 52 60 54 61 56 62 53 63 8 64
REMARK SMILES IDX 9 65 10 66 11 67 12 68 21 69 25 70 22 71 24 72 23 73 13 76
REMARK SMILES IDX 14 77 15 78 16 79 20 80 17 81 19 82 18 83
REMARK H PARENT 73 25 47 36 24 74 24 75
REMARK Flexibility Score: inf
ROOT
ATOM      1  C   UNL     1       2.231  -0.994   0.884  1.00  0.00     0.202 C 
ENDROOT
BRANCH   1   2
ATOM      2  O   UNL     1       3.594  -0.814   0.533  1.00  0.00    -0.374 OA
BRANCH   2   3
ATOM      3  C   UNL     1       4.230   0.388   0.925  1.00  0.00     0.202 C 
BRANCH   3   4
ATOM      4  C   UNL     1       3.972   1.575   0.002  1.00  0.00     0.261 C 
BRANCH   4   5
ATOM      5  O   UNL     1       2.558   1.740  -0.235  1.00  0.00    -0.460 OA
BRANCH   5   6
ATOM      6  C   UNL     1       1.873   1.278  -1.313  1.00  0.00     0.338 C 
ATOM      7  O   UNL     1       0.656   1.418  -1.385  1.00  0.00    -0.246 OA
BRANCH   6   8
ATOM      8  C   UNL     1       2.590   0.662  -2.453  1.00  0.00     0.060 A 
ATOM      9  C   UNL     1       3.557  -0.323  -2.285  1.00  0.00     0.016 A 
ATOM     10  C   UNL     1       2.258   1.051  -3.750  1.00  0.00     0.016 A 
ATOM     11  C   UNL     1       4.329  -0.777  -3.315  1.00  0.00     0.010 A 
ATOM     12  C   UNL     1       2.942   0.492  -4.832  1.00  0.00     0.010 A 
ATOM     13  C   UNL     1       3.997  -0.404  -4.600  1.00  0.00    -0.014 A 
BRANCH  13  14
ATOM     14  C   UNL     1       4.887  -0.898  -5.647  1.00  0.00     0.031 A 
ATOM     15  C   UNL     1       5.764   0.101  -6.313  1.00  0.00     0.074 A 
ATOM     16  C   UNL     1       5.005  -2.224  -5.837  1.00  0.00     0.049 A 
ATOM     17  N   UNL     1       6.478  -0.025  -7.391  1.00  0.00    -0.248 NA
ATOM     18  C   UNL     1       5.842   1.432  -5.682  1.00  0.00     0.031 C 
ATOM     19  C   UNL     1       4.326  -3.264  -5.048  1.00  0.00     0.029 A 
ATOM     20  N   UNL     1       5.763  -2.930  -6.724  1.00  0.00    -0.354 N 
ATOM     21  C   UNL     1       7.019   1.230  -7.618  1.00  0.00     0.074 A 
ATOM     22  C   UNL     1       6.578   2.100  -6.554  1.00  0.00     0.031 C 
ATOM     23  C   UNL     1       4.713  -4.471  -5.481  1.00  0.00     0.029 A 
ATOM     24  C   UNL     1       5.556  -4.286  -6.650  1.00  0.00     0.049 A 
ATOM     25  H   UNL     1       6.393  -2.511  -7.353  1.00  0.00     0.167 HD
ATOM     26  C   UNL     1       7.789   1.601  -8.662  1.00  0.00     0.037 A 
ATOM     27  C   UNL     1       5.944  -5.250  -7.501  1.00  0.00     0.037 A 
ATOM     28  C   UNL     1       8.201   0.662  -9.669  1.00  0.00     0.049 A 
ATOM     29  C   UNL     1       6.711  -4.799  -8.712  1.00  0.00     0.074 A 
ATOM     30  C   UNL     1       8.920   0.883 -10.825  1.00  0.00     0.029 A 
ATOM     31  N   UNL     1       7.921  -0.701  -9.615  1.00  0.00    -0.354 N 
ATOM     32  N   UNL     1       7.122  -3.590  -9.024  1.00  0.00    -0.248 NA
ATOM     33  C   UNL     1       7.038  -5.824  -9.705  1.00  0.00     0.031 C 
ATOM     34  C   UNL     1       9.032  -0.341 -11.494  1.00  0.00     0.029 A 
ATOM     35  C   UNL     1       8.436  -1.335 -10.727  1.00  0.00     0.049 A 
ATOM     36  H   UNL     1       7.428  -1.148  -8.890  1.00  0.00     0.167 HD
ATOM     37  C   UNL     1       7.769  -3.706 -10.242  1.00  0.00     0.074 A 
ATOM     38  C   UNL     1       7.712  -5.114 -10.599  1.00  0.00     0.031 C 
ATOM     39  C   UNL     1       8.352  -2.750 -11.007  1.00  0.00     0.037 A 
BRANCH  26  40
ATOM     40  C   UNL     1       8.101   3.059  -8.793  1.00  0.00     0.057 A 
ATOM     41  C   UNL     1       8.955   3.734  -7.911  1.00  0.00     0.134 A 
ATOM     42  C   UNL     1       7.462   3.822  -9.780  1.00  0.00     0.134 A 
ATOM     43  F   UNL     1       9.565   3.073  -6.915  1.00  0.00    -0.206 F 
ATOM     44  C   UNL     1       9.140   5.117  -7.988  1.00  0.00     0.040 A 
ATOM     45  C   UNL     1       7.659   5.200  -9.883  1.00  0.00     0.040 A 
ATOM     46  F   UNL     1       6.614   3.245 -10.644  1.00  0.00    -0.206 F 
ATOM     47  C   UNL     1       8.493   5.853  -8.979  1.00  0.00     0.006 A 
ENDBRANCH  26  40
BRANCH  27  48
ATOM     48  C   UNL     1       5.528  -6.661  -7.297  1.00  0.00     0.057 A 
ATOM     49  C   UNL     1       6.469  -7.673  -7.081  1.00  0.00     0.134 A 
ATOM     50  C   UNL     1       4.177  -7.041  -7.316  1.00  0.00     0.134 A 
ATOM     51  F   UNL     1       7.778  -7.384  -7.062  1.00  0.00    -0.206 F 
ATOM     52  C   UNL     1       6.087  -9.007  -6.911  1.00  0.00     0.040 A 
ATOM     53  C   UNL     1       3.779  -8.364  -7.116  1.00  0.00     0.040 A 
ATOM     54  F   UNL     1       3.217  -6.125  -7.513  1.00  0.00    -0.206 F 
ATOM     55  C   UNL     1       4.737  -9.354  -6.923  1.00  0.00     0.006 A 
ENDBRANCH  27  48
BRANCH  39  56
ATOM     56  C   UNL     1       9.006  -3.219 -12.267  1.00  0.00     0.057 A 
ATOM     57  C   UNL     1       8.259  -3.601 -13.386  1.00  0.00     0.134 A 
ATOM     58  C   UNL     1      10.401  -3.221 -12.373  1.00  0.00     0.134 A 
ATOM     59  F   UNL     1       6.918  -3.634 -13.332  1.00  0.00    -0.206 F 
ATOM     60  C   UNL     1       8.882  -3.986 -14.571  1.00  0.00     0.040 A 
ATOM     61  C   UNL     1      11.034  -3.572 -13.562  1.00  0.00     0.040 A 
ATOM     62  F   UNL     1      11.165  -2.855 -11.333  1.00  0.00    -0.206 F 
ATOM     63  C   UNL     1      10.274  -3.960 -14.664  1.00  0.00     0.006 A 
ENDBRANCH  39  56
ENDBRANCH  13  14
ENDBRANCH   6   8
ENDBRANCH   5   6
ENDBRANCH   4   5
ENDBRANCH   3   4
ENDBRANCH   2   3
ENDBRANCH   1   2
BRANCH   1  64
ATOM     64  C   UNL     1       2.123  -2.341   1.569  1.00  0.00     0.261 C 
BRANCH  64  65
ATOM     65  O   UNL     1       2.830  -2.288   2.816  1.00  0.00    -0.463 OA
BRANCH  65  66
ATOM     66  C   UNL     1       4.195  -2.339   2.788  1.00  0.00     0.317 C 
ATOM     67  O   UNL     1       4.890  -2.637   1.832  1.00  0.00    -0.251 OA
BRANCH  66  68
ATOM     68  C   UNL     1       4.761  -2.080   4.178  1.00  0.00     0.117 C 
ATOM     69  C   UNL     1       3.684  -1.679   5.218  1.00  0.00     0.030 C 
ATOM     70  C   UNL     1       5.788  -0.913   4.111  1.00  0.00     0.279 C 
ATOM     71  C   UNL     1       3.084  -0.290   4.930  1.00  0.00     0.063 C 
ATOM     72  N   UNL     1       5.228   0.427   3.905  1.00  0.00    -0.345 N 
ATOM     73  C   UNL     1       4.156   0.787   4.823  1.00  0.00     0.260 C 
ATOM     74  H   UNL     1       5.981   1.106   4.014  1.00  0.00     0.346 HD
ATOM     75  H   UNL     1       4.819   0.428   2.970  1.00  0.00     0.346 HD
BRANCH  68  76
ATOM     76  C   UNL     1       5.520  -3.397   4.555  1.00  0.00     0.029 C 
BRANCH  76  77
ATOM     77  C   UNL     1       4.739  -4.737   4.570  1.00  0.00     0.038 C 
BRANCH  77  78
ATOM     78  C   UNL     1       4.442  -5.413   3.248  1.00  0.00    -0.030 A 
ATOM     79  C   UNL     1       5.390  -6.176   2.559  1.00  0.00     0.007 A 
ATOM     80  C   UNL     1       3.184  -5.320   2.657  1.00  0.00     0.114 A 
ATOM     81  C   UNL     1       5.073  -6.730   1.315  1.00  0.00     0.020 A 
ATOM     82  N   UNL     1       2.849  -5.826   1.445  1.00  0.00    -0.264 NA
ATOM     83  C   UNL     1       3.813  -6.499   0.789  1.00  0.00     0.111 A 
ENDBRANCH  77  78
ENDBRANCH  76  77
ENDBRANCH  68  76
ENDBRANCH  66  68
ENDBRANCH  65  66
ENDBRANCH  64  65
ENDBRANCH   1  64
TORSDOF 17
