REMARK SMILES O=C(COc1ccc(C(=O)/C=C/c2ccc(Cl)c([N+](=O)[O-])c2)cc1)OCCOCCOC(=O)c1ccc(-c2c3nc(c(-c4c(F)cccc4F)c4ccc([nH]4)c(-c4c(F)cccc4F)c4nc(c(-c5c(F)cccc5F)c5ccc2[nH]5)C=C4)C=C3)cc1
REMARK SMILES IDX 26 1 25 2 2 3 1 4 3 5 4 6 5 7 6 8 24 9 7 10 23 11 8 12 9 13
REMARK SMILES IDX 10 14 11 15 12 16 13 17 14 18 22 19 15 20 18 21 16 22 17 23
REMARK SMILES IDX 19 24 20 25 21 26 27 27 28 28 29 29 30 30 31 31 32 32 33 33
REMARK SMILES IDX 34 34 35 35 87 36 36 37 86 38 37 39 38 40 39 41 80 42 40 43
REMARK SMILES IDX 85 44 79 45 81 46 41 47 84 48 78 49 77 50 42 52 68 53 51 54
REMARK SMILES IDX 67 55 52 56 55 57 66 58 82 59 53 60 54 61 65 63 83 64 56 65
REMARK SMILES IDX 43 66 44 67 49 68 45 69 46 70 48 71 50 72 47 73 69 74 70 75
REMARK SMILES IDX 75 76 71 77 72 78 74 79 76 80 73 81 57 82 58 83 63 84 59 85
REMARK SMILES IDX 60 86 62 87 64 88 61 89
REMARK H PARENT 81 51 55 62
REMARK Flexibility Score: inf
ROOT
ATOM      1  C   UNL     1       4.283  -0.398  -0.141  1.00  0.00     0.261 C 
ENDROOT
BRANCH   1   2
ATOM      2  O   UNL     1       2.849  -0.418  -0.222  1.00  0.00    -0.461 OA
BRANCH   2   3
ATOM      3  C   UNL     1       2.027   0.119   0.715  1.00  0.00     0.344 C 
ATOM      4  O   UNL     1       0.809   0.098   0.537  1.00  0.00    -0.248 OA
BRANCH   3   5
ATOM      5  C   UNL     1       2.638   0.774   1.956  1.00  0.00     0.351 C 
BRANCH   5   6
ATOM      6  O   UNL     1       3.677   0.155   2.703  1.00  0.00    -0.482 OA
BRANCH   6   7
ATOM      7  C   UNL     1       3.321  -1.036   3.267  1.00  0.00     0.120 A 
ATOM      8  C   UNL     1       3.514  -1.172   4.637  1.00  0.00     0.047 A 
ATOM      9  C   UNL     1       2.872  -2.124   2.523  1.00  0.00     0.047 A 
ATOM     10  C   UNL     1       3.082  -2.334   5.283  1.00  0.00     0.016 A 
ATOM     11  C   UNL     1       2.477  -3.291   3.156  1.00  0.00     0.016 A 
ATOM     12  C   UNL     1       2.483  -3.364   4.547  1.00  0.00     0.022 A 
BRANCH  12  13
ATOM     13  C   UNL     1       1.862  -4.512   5.253  1.00  0.00     0.185 C 
ATOM     14  O   UNL     1       2.266  -4.844   6.363  1.00  0.00    -0.289 OA
BRANCH  13  15
ATOM     15  C   UNL     1       0.736  -5.272   4.623  1.00  0.00     0.053 C 
ATOM     16  C   UNL     1      -0.115  -4.783   3.707  1.00  0.00     0.012 C 
BRANCH  16  17
ATOM     17  C   UNL     1      -1.169  -5.580   3.084  1.00  0.00    -0.019 A 
ATOM     18  C   UNL     1      -1.058  -5.968   1.747  1.00  0.00     0.010 A 
ATOM     19  C   UNL     1      -2.323  -5.903   3.799  1.00  0.00     0.095 A 
ATOM     20  C   UNL     1      -2.096  -6.676   1.135  1.00  0.00     0.028 A 
ATOM     21  C   UNL     1      -3.381  -6.605   3.182  1.00  0.00     0.288 A 
ATOM     22  C   UNL     1      -3.266  -6.999   1.841  1.00  0.00     0.118 A 
ATOM     23  Cl  UNL     1      -4.451  -7.864   0.927  1.00  0.00    -0.077 Cl
BRANCH  21  24
ATOM     24  N   UNL     1      -4.574  -6.863   4.004  1.00  0.00     0.064 N 
ATOM     25  O   UNL     1      -5.544  -7.441   3.506  1.00  0.00    -0.258 OA
ATOM     26  O   UNL     1      -4.544  -6.470   5.180  1.00  0.00    -0.258 OA
ENDBRANCH  21  24
ENDBRANCH  16  17
ENDBRANCH  13  15
ENDBRANCH  12  13
ENDBRANCH   6   7
ENDBRANCH   5   6
ENDBRANCH   3   5
ENDBRANCH   2   3
ENDBRANCH   1   2
BRANCH   1  27
ATOM     27  C   UNL     1       4.904   0.768  -0.891  1.00  0.00     0.202 C 
BRANCH  27  28
ATOM     28  O   UNL     1       4.384   2.063  -0.626  1.00  0.00    -0.374 OA
BRANCH  28  29
ATOM     29  C   UNL     1       3.167   2.441  -1.275  1.00  0.00     0.202 C 
BRANCH  29  30
ATOM     30  C   UNL     1       3.181   2.704  -2.787  1.00  0.00     0.261 C 
BRANCH  30  31
ATOM     31  O   UNL     1       3.520   1.546  -3.565  1.00  0.00    -0.460 OA
BRANCH  31  32
ATOM     32  C   UNL     1       4.784   1.536  -4.054  1.00  0.00     0.338 C 
ATOM     33  O   UNL     1       5.636   2.402  -3.925  1.00  0.00    -0.246 OA
BRANCH  32  34
ATOM     34  C   UNL     1       5.079   0.195  -4.589  1.00  0.00     0.060 A 
ATOM     35  C   UNL     1       6.199  -0.488  -4.091  1.00  0.00     0.016 A 
ATOM     36  C   UNL     1       4.278  -0.374  -5.578  1.00  0.00     0.016 A 
ATOM     37  C   UNL     1       6.539  -1.738  -4.603  1.00  0.00     0.010 A 
ATOM     38  C   UNL     1       4.631  -1.617  -6.104  1.00  0.00     0.010 A 
ATOM     39  C   UNL     1       5.773  -2.291  -5.635  1.00  0.00    -0.014 A 
BRANCH  39  40
ATOM     40  C   UNL     1       6.217  -3.525  -6.319  1.00  0.00     0.031 A 
ATOM     41  C   UNL     1       6.889  -3.405  -7.656  1.00  0.00     0.074 A 
ATOM     42  C   UNL     1       5.980  -4.729  -5.769  1.00  0.00     0.049 A 
ATOM     43  N   UNL     1       7.219  -4.344  -8.502  1.00  0.00    -0.248 NA
ATOM     44  C   UNL     1       7.225  -2.043  -8.104  1.00  0.00     0.031 C 
ATOM     45  C   UNL     1       5.367  -4.954  -4.460  1.00  0.00     0.029 A 
ATOM     46  N   UNL     1       6.199  -5.990  -6.260  1.00  0.00    -0.354 N 
ATOM     47  C   UNL     1       7.779  -3.688  -9.591  1.00  0.00     0.074 A 
ATOM     48  C   UNL     1       7.736  -2.271  -9.305  1.00  0.00     0.031 C 
ATOM     49  C   UNL     1       5.224  -6.276  -4.268  1.00  0.00     0.029 A 
ATOM     50  C   UNL     1       5.693  -6.984  -5.457  1.00  0.00     0.049 A 
ATOM     51  H   UNL     1       6.672  -6.167  -7.105  1.00  0.00     0.167 HD
ATOM     52  C   UNL     1       8.278  -4.227 -10.726  1.00  0.00     0.037 A 
ATOM     53  C   UNL     1       5.578  -8.306  -5.683  1.00  0.00     0.037 A 
ATOM     54  C   UNL     1       8.324  -5.641 -10.990  1.00  0.00     0.049 A 
ATOM     55  C   UNL     1       6.080  -8.869  -6.989  1.00  0.00     0.074 A 
ATOM     56  C   UNL     1       8.862  -6.294 -12.085  1.00  0.00     0.029 A 
ATOM     57  N   UNL     1       7.799  -6.616 -10.157  1.00  0.00    -0.354 N 
ATOM     58  N   UNL     1       6.658  -8.250  -7.990  1.00  0.00    -0.248 NA
ATOM     59  C   UNL     1       5.907 -10.314  -7.199  1.00  0.00     0.031 C 
ATOM     60  C   UNL     1       8.602  -7.660 -11.946  1.00  0.00     0.029 A 
ATOM     61  C   UNL     1       7.958  -7.863 -10.736  1.00  0.00     0.049 A 
ATOM     62  H   UNL     1       7.376  -6.447  -9.284  1.00  0.00     0.167 HD
ATOM     63  C   UNL     1       6.936  -9.229  -8.935  1.00  0.00     0.074 A 
ATOM     64  C   UNL     1       6.487 -10.487  -8.378  1.00  0.00     0.031 C 
ATOM     65  C   UNL     1       7.507  -9.103 -10.158  1.00  0.00     0.037 A 
BRANCH  52  66
ATOM     66  C   UNL     1       8.789  -3.300 -11.787  1.00  0.00     0.057 A 
ATOM     67  C   UNL     1       9.998  -2.606 -11.651  1.00  0.00     0.134 A 
ATOM     68  C   UNL     1       8.102  -3.170 -13.002  1.00  0.00     0.134 A 
ATOM     69  F   UNL     1      10.697  -2.677 -10.509  1.00  0.00    -0.206 F 
ATOM     70  C   UNL     1      10.504  -1.815 -12.684  1.00  0.00     0.040 A 
ATOM     71  C   UNL     1       8.609  -2.402 -14.050  1.00  0.00     0.040 A 
ATOM     72  F   UNL     1       6.939  -3.809 -13.197  1.00  0.00    -0.206 F 
ATOM     73  C   UNL     1       9.815  -1.722 -13.893  1.00  0.00     0.006 A 
ENDBRANCH  52  66
BRANCH  53  74
ATOM     74  C   UNL     1       4.912  -9.188  -4.689  1.00  0.00     0.057 A 
ATOM     75  C   UNL     1       5.616 -10.201  -4.027  1.00  0.00     0.134 A 
ATOM     76  C   UNL     1       3.542  -9.075  -4.417  1.00  0.00     0.134 A 
ATOM     77  F   UNL     1       6.925 -10.375  -4.260  1.00  0.00    -0.206 F 
ATOM     78  C   UNL     1       4.978 -11.091  -3.160  1.00  0.00     0.040 A 
ATOM     79  C   UNL     1       2.898  -9.937  -3.528  1.00  0.00     0.040 A 
ATOM     80  F   UNL     1       2.808  -8.123  -5.011  1.00  0.00    -0.206 F 
ATOM     81  C   UNL     1       3.614 -10.958  -2.908  1.00  0.00     0.006 A 
ENDBRANCH  53  74
BRANCH  65  82
ATOM     82  C   UNL     1       7.698 -10.355 -10.964  1.00  0.00     0.057 A 
ATOM     83  C   UNL     1       6.617 -11.025 -11.551  1.00  0.00     0.134 A 
ATOM     84  C   UNL     1       8.982 -10.863 -11.201  1.00  0.00     0.134 A 
ATOM     85  F   UNL     1       5.362 -10.597 -11.352  1.00  0.00    -0.206 F 
ATOM     86  C   UNL     1       6.805 -12.169 -12.329  1.00  0.00     0.040 A 
ATOM     87  C   UNL     1       9.185 -11.987 -12.002  1.00  0.00     0.040 A 
ATOM     88  F   UNL     1      10.060 -10.262 -10.678  1.00  0.00    -0.206 F 
ATOM     89  C   UNL     1       8.093 -12.646 -12.564  1.00  0.00     0.006 A 
ENDBRANCH  65  82
ENDBRANCH  39  40
ENDBRANCH  32  34
ENDBRANCH  31  32
ENDBRANCH  30  31
ENDBRANCH  29  30
ENDBRANCH  28  29
ENDBRANCH  27  28
ENDBRANCH   1  27
TORSDOF 20
