REMARK SMILES C=CCN(CC(=O)OCCOCCOC(=O)c1ccc(-c2c3nc(c(-c4c(F)cccc4F)c4ccc([nH]4)c(-c4c(F)cccc4F)c4nc(c(-c5c(F)cccc5F)c5ccc2[nH]5)C=C4)C=C3)cc1)C(=O)[C@@H]1[C@H](C)[C@H](C)O[C@@H]1C
REMARK SMILES IDX 10 1 9 2 8 3 6 4 7 5 5 6 4 7 3 8 2 9 1 10 71 11 72 12 73 13
REMARK SMILES IDX 74 14 79 15 75 16 76 17 78 18 80 19 77 20 11 21 12 22 13 23
REMARK SMILES IDX 14 24 15 25 16 26 17 27 18 28 70 29 19 30 69 31 20 32 21 33
REMARK SMILES IDX 22 34 63 35 23 36 68 37 62 38 64 39 24 40 67 41 61 42 60 43
REMARK SMILES IDX 25 45 51 46 34 47 50 48 35 49 38 50 49 51 65 52 36 53 37 54
REMARK SMILES IDX 48 56 66 57 39 58 26 59 27 60 32 61 28 62 29 63 31 64 33 65
REMARK SMILES IDX 30 66 52 67 53 68 58 69 54 70 55 71 57 72 59 73 56 74 40 75
REMARK SMILES IDX 41 76 46 77 42 78 43 79 45 80 47 81 44 82
REMARK H PARENT 64 44 38 55
REMARK Flexibility Score: inf
ROOT
ATOM      1  C   UNL     1      -6.251   0.323  -2.583  1.00  0.00     0.202 C 
ENDROOT
BRANCH   1   2
ATOM      2  C   UNL     1      -5.678  -1.066  -2.254  1.00  0.00     0.261 C 
BRANCH   2   3
ATOM      3  O   UNL     1      -4.236  -0.990  -2.116  1.00  0.00    -0.462 OA
BRANCH   3   4
ATOM      4  C   UNL     1      -3.524  -2.061  -2.571  1.00  0.00     0.325 C 
ATOM      5  O   UNL     1      -4.026  -3.119  -2.938  1.00  0.00    -0.250 OA
BRANCH   4   6
ATOM      6  C   UNL     1      -2.005  -1.785  -2.695  1.00  0.00     0.242 C 
BRANCH   6   7
ATOM      7  N   UNL     1      -1.515  -0.600  -1.994  1.00  0.00    -0.328 N 
BRANCH   7   8
ATOM      8  C   UNL     1      -1.248  -0.812  -0.567  1.00  0.00     0.147 C 
BRANCH   8   9
ATOM      9  C   UNL     1       0.211  -1.161  -0.425  1.00  0.00    -0.014 C 
ATOM     10  C   UNL     1       1.104  -0.428   0.256  1.00  0.00     0.006 C 
ENDBRANCH   8   9
ENDBRANCH   7   8
BRANCH   7  11
ATOM     11  C   UNL     1      -1.389   0.699  -2.478  1.00  0.00     0.229 C 
ATOM     12  O   UNL     1      -1.338   1.599  -1.631  1.00  0.00    -0.274 OA
BRANCH  11  13
ATOM     13  C   UNL     1      -1.055   1.028  -3.976  1.00  0.00     0.113 C 
ATOM     14  C   UNL     1      -0.686   2.534  -4.278  1.00  0.00     0.030 C 
ATOM     15  C   UNL     1      -1.933   0.643  -5.184  1.00  0.00     0.128 C 
ATOM     16  C   UNL     1      -1.022   3.607  -3.237  1.00  0.00     0.011 C 
ATOM     17  C   UNL     1      -1.299   2.834  -5.655  1.00  0.00     0.119 C 
ATOM     18  O   UNL     1      -2.289   1.844  -5.881  1.00  0.00    -0.374 OA
ATOM     19  C   UNL     1      -3.243  -0.076  -5.005  1.00  0.00     0.039 C 
ATOM     20  C   UNL     1      -1.967   4.186  -5.884  1.00  0.00     0.039 C 
ENDBRANCH  11  13
ENDBRANCH   7  11
ENDBRANCH   6   7
ENDBRANCH   4   6
ENDBRANCH   3   4
ENDBRANCH   2   3
ENDBRANCH   1   2
BRANCH   1  21
ATOM     21  O   UNL     1      -5.981   0.634  -3.952  1.00  0.00    -0.374 OA
BRANCH  21  22
ATOM     22  C   UNL     1      -6.152   2.010  -4.316  1.00  0.00     0.202 C 
BRANCH  22  23
ATOM     23  C   UNL     1      -4.925   2.867  -3.980  1.00  0.00     0.261 C 
BRANCH  23  24
ATOM     24  O   UNL     1      -4.868   3.135  -2.576  1.00  0.00    -0.460 OA
BRANCH  24  25
ATOM     25  C   UNL     1      -5.598   4.201  -2.207  1.00  0.00     0.338 C 
ATOM     26  O   UNL     1      -6.076   5.068  -2.929  1.00  0.00    -0.246 OA
BRANCH  25  27
ATOM     27  C   UNL     1      -6.015   3.990  -0.824  1.00  0.00     0.060 A 
ATOM     28  C   UNL     1      -7.394   3.955  -0.604  1.00  0.00     0.016 A 
ATOM     29  C   UNL     1      -5.101   3.853   0.226  1.00  0.00     0.016 A 
ATOM     30  C   UNL     1      -7.871   3.881   0.690  1.00  0.00     0.010 A 
ATOM     31  C   UNL     1      -5.585   3.777   1.532  1.00  0.00     0.010 A 
ATOM     32  C   UNL     1      -6.968   3.850   1.762  1.00  0.00    -0.014 A 
BRANCH  32  33
ATOM     33  C   UNL     1      -7.524   4.105   3.105  1.00  0.00     0.031 A 
ATOM     34  C   UNL     1      -7.521   5.518   3.613  1.00  0.00     0.074 A 
ATOM     35  C   UNL     1      -8.166   3.121   3.753  1.00  0.00     0.049 A 
ATOM     36  N   UNL     1      -8.133   6.026   4.649  1.00  0.00    -0.248 NA
ATOM     37  C   UNL     1      -6.738   6.495   2.837  1.00  0.00     0.031 C 
ATOM     38  C   UNL     1      -8.249   1.732   3.301  1.00  0.00     0.029 A 
ATOM     39  N   UNL     1      -8.909   3.149   4.902  1.00  0.00    -0.354 N 
ATOM     40  C   UNL     1      -7.819   7.379   4.641  1.00  0.00     0.074 A 
ATOM     41  C   UNL     1      -6.934   7.610   3.523  1.00  0.00     0.031 C 
ATOM     42  C   UNL     1      -9.030   1.044   4.150  1.00  0.00     0.029 A 
ATOM     43  C   UNL     1      -9.490   1.943   5.205  1.00  0.00     0.049 A 
ATOM     44  H   UNL     1      -9.016   3.955   5.456  1.00  0.00     0.167 HD
ATOM     45  C   UNL     1      -8.248   8.344   5.487  1.00  0.00     0.037 A 
ATOM     46  C   UNL     1     -10.316   1.616   6.216  1.00  0.00     0.037 A 
ATOM     47  C   UNL     1      -9.123   8.090   6.599  1.00  0.00     0.049 A 
ATOM     48  C   UNL     1     -10.751   2.700   7.163  1.00  0.00     0.074 A 
ATOM     49  C   UNL     1      -9.607   8.976   7.543  1.00  0.00     0.029 A 
ATOM     50  N   UNL     1      -9.641   6.841   6.914  1.00  0.00    -0.354 N 
ATOM     51  N   UNL     1     -10.458   3.979   7.143  1.00  0.00    -0.248 NA
ATOM     52  C   UNL     1     -11.635   2.301   8.264  1.00  0.00     0.031 C 
ATOM     53  C   UNL     1     -10.390   8.254   8.451  1.00  0.00     0.029 A 
ATOM     54  C   UNL     1     -10.427   6.927   8.049  1.00  0.00     0.049 A 
ATOM     55  H   UNL     1      -9.474   6.015   6.404  1.00  0.00     0.167 HD
ATOM     56  C   UNL     1     -11.126   4.541   8.221  1.00  0.00     0.074 A 
ATOM     57  C   UNL     1     -11.861   3.465   8.858  1.00  0.00     0.031 C 
ATOM     58  C   UNL     1     -11.132   5.826   8.655  1.00  0.00     0.037 A 
BRANCH  45  59
ATOM     59  C   UNL     1      -7.747   9.738   5.250  1.00  0.00     0.057 A 
ATOM     60  C   UNL     1      -8.199  10.515   4.175  1.00  0.00     0.134 A 
ATOM     61  C   UNL     1      -6.791  10.307   6.099  1.00  0.00     0.134 A 
ATOM     62  F   UNL     1      -9.098  10.021   3.309  1.00  0.00    -0.206 F 
ATOM     63  C   UNL     1      -7.702  11.799   3.941  1.00  0.00     0.040 A 
ATOM     64  C   UNL     1      -6.302  11.598   5.889  1.00  0.00     0.040 A 
ATOM     65  F   UNL     1      -6.311   9.616   7.144  1.00  0.00    -0.206 F 
ATOM     66  C   UNL     1      -6.753  12.346   4.803  1.00  0.00     0.006 A 
ENDBRANCH  45  59
BRANCH  46  67
ATOM     67  C   UNL     1     -10.790   0.217   6.358  1.00  0.00     0.057 A 
ATOM     68  C   UNL     1     -12.125  -0.132   6.124  1.00  0.00     0.134 A 
ATOM     69  C   UNL     1      -9.907  -0.813   6.707  1.00  0.00     0.134 A 
ATOM     70  F   UNL     1     -13.023   0.810   5.801  1.00  0.00    -0.206 F 
ATOM     71  C   UNL     1     -12.566  -1.453   6.237  1.00  0.00     0.040 A 
ATOM     72  C   UNL     1     -10.329  -2.140   6.801  1.00  0.00     0.040 A 
ATOM     73  F   UNL     1      -8.614  -0.546   6.939  1.00  0.00    -0.206 F 
ATOM     74  C   UNL     1     -11.664  -2.463   6.569  1.00  0.00     0.006 A 
ENDBRANCH  46  67
BRANCH  58  75
ATOM     75  C   UNL     1     -11.956   6.120   9.870  1.00  0.00     0.057 A 
ATOM     76  C   UNL     1     -11.534   5.736  11.149  1.00  0.00     0.134 A 
ATOM     77  C   UNL     1     -13.164   6.820   9.763  1.00  0.00     0.134 A 
ATOM     78  F   UNL     1     -10.390   5.054  11.312  1.00  0.00    -0.206 F 
ATOM     79  C   UNL     1     -12.300   6.017  12.280  1.00  0.00     0.040 A 
ATOM     80  C   UNL     1     -13.927   7.126  10.889  1.00  0.00     0.040 A 
ATOM     81  F   UNL     1     -13.614   7.223   8.566  1.00  0.00    -0.206 F 
ATOM     82  C   UNL     1     -13.498   6.718  12.152  1.00  0.00     0.006 A 
ENDBRANCH  58  75
ENDBRANCH  32  33
ENDBRANCH  25  27
ENDBRANCH  24  25
ENDBRANCH  23  24
ENDBRANCH  22  23
ENDBRANCH  21  22
ENDBRANCH   1  21
TORSDOF 19
