REMARK SMILES Cc1cc(Br)cc([N+](=O)[O-])c1OCCC[C@@](C)([NH3+])C(=O)OCCOCCOC(=O)c1ccc(-c2c3nc(c(-c4c(F)cccc4F)c4ccc([nH]4)c(-c4c(F)cccc4F)c4nc(c(-c5c(F)cccc5F)c5ccc2[nH]5)C=C4)C=C3)cc1
REMARK SMILES IDX 22 1 21 2 19 3 20 4 16 5 17 6 15 7 14 8 13 9 12 10 11 11
REMARK SMILES IDX 1 12 2 13 3 14 4 15 7 16 5 17 6 18 8 19 9 20 10 21 18 22
REMARK SMILES IDX 23 26 24 27 25 28 26 29 27 30 28 31 29 32 30 33 31 34 83 35
REMARK SMILES IDX 32 36 82 37 33 38 34 39 35 40 76 41 36 42 81 43 75 44 77 45
REMARK SMILES IDX 37 46 80 47 74 48 73 49 38 51 64 52 47 53 63 54 48 55 51 56
REMARK SMILES IDX 62 57 78 58 49 59 50 60 61 62 79 63 52 64 39 65 40 66 45 67
REMARK SMILES IDX 41 68 42 69 44 70 46 71 43 72 65 73 66 74 71 75 67 76 68 77
REMARK SMILES IDX 70 78 72 79 69 80 53 81 54 82 59 83 55 84 56 85 58 86 60 87
REMARK SMILES IDX 57 88
REMARK H PARENT 18 23 18 24 18 25 77 50 51 61
REMARK Flexibility Score: inf
ROOT
ATOM      1  C   UNL     1      -4.447  -1.469   3.416  1.00  0.00     0.261 C 
ENDROOT
BRANCH   1   2
ATOM      2  O   UNL     1      -4.058  -2.132   2.195  1.00  0.00    -0.459 OA
BRANCH   2   3
ATOM      3  C   UNL     1      -5.083  -2.336   1.310  1.00  0.00     0.367 C 
ATOM      4  O   UNL     1      -6.217  -1.897   1.462  1.00  0.00    -0.245 OA
BRANCH   3   5
ATOM      5  C   UNL     1      -4.657  -3.180   0.080  1.00  0.00     0.190 C 
ATOM      6  C   UNL     1      -5.595  -4.401   0.059  1.00  0.00     0.092 C 
BRANCH   5   7
ATOM      7  C   UNL     1      -4.757  -2.419  -1.289  1.00  0.00     0.084 C 
BRANCH   7   8
ATOM      8  C   UNL     1      -5.282  -0.963  -1.356  1.00  0.00     0.049 C 
BRANCH   8   9
ATOM      9  C   UNL     1      -4.475   0.190  -0.713  1.00  0.00     0.230 C 
BRANCH   9  10
ATOM     10  O   UNL     1      -3.482   0.705  -1.621  1.00  0.00    -0.487 OA
BRANCH  10  11
ATOM     11  C   UNL     1      -2.227   1.000  -1.141  1.00  0.00     0.200 A 
ATOM     12  C   UNL     1      -1.619  -1.467  -1.057  1.00  0.00     0.049 C 
ATOM     13  C   UNL     1      -1.260  -0.026  -1.153  1.00  0.00    -0.001 A 
ATOM     14  C   UNL     1       0.112   0.266  -1.137  1.00  0.00     0.023 A 
ATOM     15  C   UNL     1       0.544   1.565  -0.946  1.00  0.00     0.025 A 
ATOM     16  C   UNL     1      -1.768   2.312  -0.907  1.00  0.00     0.312 A 
ATOM     17  Br  UNL     1       2.395   1.901  -0.796  1.00  0.00    -0.051 Br
ATOM     18  C   UNL     1      -0.384   2.584  -0.782  1.00  0.00     0.105 A 
BRANCH  16  19
ATOM     19  N   UNL     1      -2.685   3.431  -0.655  1.00  0.00     0.066 N 
ATOM     20  O   UNL     1      -2.203   4.574  -0.671  1.00  0.00    -0.258 OA
ATOM     21  O   UNL     1      -3.860   3.180  -0.364  1.00  0.00    -0.258 OA
ENDBRANCH  16  19
ENDBRANCH  10  11
ENDBRANCH   9  10
ENDBRANCH   8   9
ENDBRANCH   7   8
ENDBRANCH   5   7
BRANCH   5  22
ATOM     22  N   UNL     1      -3.322  -3.811   0.283  1.00  0.00    -0.344 N 
ATOM     23  H   UNL     1      -3.075  -4.357  -0.542  1.00  0.00     0.345 HD
ATOM     24  H   UNL     1      -3.356  -4.424   1.098  1.00  0.00     0.345 HD
ATOM     25  H   UNL     1      -2.622  -3.085   0.433  1.00  0.00     0.345 HD
ENDBRANCH   5  22
ENDBRANCH   3   5
ENDBRANCH   2   3
ENDBRANCH   1   2
BRANCH   1  26
ATOM     26  C   UNL     1      -3.276  -0.733   4.075  1.00  0.00     0.202 C 
BRANCH  26  27
ATOM     27  O   UNL     1      -2.868   0.475   3.429  1.00  0.00    -0.374 OA
BRANCH  27  28
ATOM     28  C   UNL     1      -2.142   0.316   2.217  1.00  0.00     0.202 C 
BRANCH  28  29
ATOM     29  C   UNL     1      -0.626   0.174   2.346  1.00  0.00     0.261 C 
BRANCH  29  30
ATOM     30  O   UNL     1      -0.274  -0.822   3.298  1.00  0.00    -0.460 OA
BRANCH  30  31
ATOM     31  C   UNL     1       0.133  -0.301   4.471  1.00  0.00     0.338 C 
ATOM     32  O   UNL     1       0.397   0.866   4.730  1.00  0.00    -0.246 OA
BRANCH  31  33
ATOM     33  C   UNL     1       0.028  -1.343   5.486  1.00  0.00     0.060 A 
ATOM     34  C   UNL     1      -0.678  -1.010   6.644  1.00  0.00     0.016 A 
ATOM     35  C   UNL     1       0.620  -2.599   5.318  1.00  0.00     0.016 A 
ATOM     36  C   UNL     1      -0.713  -1.909   7.692  1.00  0.00     0.010 A 
ATOM     37  C   UNL     1       0.577  -3.506   6.372  1.00  0.00     0.010 A 
ATOM     38  C   UNL     1      -0.038  -3.132   7.577  1.00  0.00    -0.014 A 
BRANCH  38  39
ATOM     39  C   UNL     1       0.167  -3.912   8.808  1.00  0.00     0.031 A 
ATOM     40  C   UNL     1       1.483  -3.786   9.519  1.00  0.00     0.074 A 
ATOM     41  C   UNL     1      -0.859  -4.603   9.328  1.00  0.00     0.049 A 
ATOM     42  N   UNL     1       1.848  -4.270  10.675  1.00  0.00    -0.248 NA
ATOM     43  C   UNL     1       2.529  -3.003   8.838  1.00  0.00     0.031 C 
ATOM     44  C   UNL     1      -2.180  -4.736   8.712  1.00  0.00     0.029 A 
ATOM     45  N   UNL     1      -0.959  -5.294  10.502  1.00  0.00    -0.354 N 
ATOM     46  C   UNL     1       3.158  -3.849  10.861  1.00  0.00     0.074 A 
ATOM     47  C   UNL     1       3.543  -3.109   9.682  1.00  0.00     0.031 C 
ATOM     48  C   UNL     1      -2.969  -5.450   9.530  1.00  0.00     0.029 A 
ATOM     49  C   UNL     1      -2.200  -5.843  10.706  1.00  0.00     0.049 A 
ATOM     50  H   UNL     1      -0.215  -5.389  11.139  1.00  0.00     0.167 HD
ATOM     51  C   UNL     1       3.959  -4.051  11.933  1.00  0.00     0.037 A 
ATOM     52  C   UNL     1      -2.651  -6.581  11.735  1.00  0.00     0.037 A 
ATOM     53  C   UNL     1       3.549  -4.796  13.094  1.00  0.00     0.049 A 
ATOM     54  C   UNL     1      -1.723  -6.835  12.891  1.00  0.00     0.074 A 
ATOM     55  C   UNL     1       4.268  -5.077  14.241  1.00  0.00     0.029 A 
ATOM     56  N   UNL     1       2.301  -5.387  13.246  1.00  0.00    -0.354 N 
ATOM     57  N   UNL     1      -0.490  -6.420  13.069  1.00  0.00    -0.248 NA
ATOM     58  C   UNL     1      -2.251  -7.645  13.993  1.00  0.00     0.031 C 
ATOM     59  C   UNL     1       3.474  -5.884  15.062  1.00  0.00     0.029 A 
ATOM     60  C   UNL     1       2.236  -6.050  14.459  1.00  0.00     0.049 A 
ATOM     61  H   UNL     1       1.570  -5.340  12.588  1.00  0.00     0.167 HD
ATOM     62  C   UNL     1      -0.103  -6.894  14.315  1.00  0.00     0.074 A 
ATOM     63  C   UNL     1      -1.245  -7.609  14.854  1.00  0.00     0.031 C 
ATOM     64  C   UNL     1       1.082  -6.755  14.961  1.00  0.00     0.037 A 
BRANCH  51  65
ATOM     65  C   UNL     1       5.352  -3.494  11.874  1.00  0.00     0.057 A 
ATOM     66  C   UNL     1       5.609  -2.116  11.912  1.00  0.00     0.134 A 
ATOM     67  C   UNL     1       6.457  -4.349  11.784  1.00  0.00     0.134 A 
ATOM     68  F   UNL     1       4.597  -1.237  11.976  1.00  0.00    -0.206 F 
ATOM     69  C   UNL     1       6.909  -1.610  11.838  1.00  0.00     0.040 A 
ATOM     70  C   UNL     1       7.763  -3.858  11.738  1.00  0.00     0.040 A 
ATOM     71  F   UNL     1       6.287  -5.679  11.739  1.00  0.00    -0.206 F 
ATOM     72  C   UNL     1       7.992  -2.483  11.758  1.00  0.00     0.006 A 
ENDBRANCH  51  65
BRANCH  52  73
ATOM     73  C   UNL     1      -4.036  -7.115  11.715  1.00  0.00     0.057 A 
ATOM     74  C   UNL     1      -5.006  -6.673  12.621  1.00  0.00     0.134 A 
ATOM     75  C   UNL     1      -4.423  -8.086  10.782  1.00  0.00     0.134 A 
ATOM     76  F   UNL     1      -4.696  -5.754  13.547  1.00  0.00    -0.206 F 
ATOM     77  C   UNL     1      -6.303  -7.189  12.614  1.00  0.00     0.040 A 
ATOM     78  C   UNL     1      -5.724  -8.590  10.745  1.00  0.00     0.040 A 
ATOM     79  F   UNL     1      -3.545  -8.546   9.879  1.00  0.00    -0.206 F 
ATOM     80  C   UNL     1      -6.666  -8.147  11.670  1.00  0.00     0.006 A 
ENDBRANCH  52  73
BRANCH  64  81
ATOM     81  C   UNL     1       1.177  -7.357  16.333  1.00  0.00     0.057 A 
ATOM     82  C   UNL     1       1.193  -8.743  16.537  1.00  0.00     0.134 A 
ATOM     83  C   UNL     1       1.266  -6.534  17.463  1.00  0.00     0.134 A 
ATOM     84  F   UNL     1       1.101  -9.585  15.497  1.00  0.00    -0.206 F 
ATOM     85  C   UNL     1       1.250  -9.288  17.820  1.00  0.00     0.040 A 
ATOM     86  C   UNL     1       1.359  -7.068  18.748  1.00  0.00     0.040 A 
ATOM     87  F   UNL     1       1.271  -5.199  17.336  1.00  0.00    -0.206 F 
ATOM     88  C   UNL     1       1.338  -8.449  18.930  1.00  0.00     0.006 A 
ENDBRANCH  64  81
ENDBRANCH  38  39
ENDBRANCH  31  33
ENDBRANCH  30  31
ENDBRANCH  29  30
ENDBRANCH  28  29
ENDBRANCH  27  28
ENDBRANCH  26  27
ENDBRANCH   1  26
TORSDOF 21
