REMARK SMILES CC(C)[C@H](NC(=O)[C@H](Cc1ccccc1)n1c(=O)[nH]c2ccccc2c1=O)C(=O)OCCOCCOC(=O)c1ccc(-c2c3nc(c(-c4c(F)cccc4F)c4ccc([nH]4)c(-c4c(F)cccc4F)c4nc(c(-c5c(F)cccc5F)c5ccc2[nH]5)C=C4)C=C3)cc1
REMARK SMILES IDX 32 1 31 2 30 3 28 4 29 5 4 6 2 7 1 8 3 9 5 10 6 11 7 13 8 14
REMARK SMILES IDX 16 15 17 16 26 17 18 18 19 19 25 20 27 21 20 22 24 24 21 25
REMARK SMILES IDX 23 26 22 27 9 28 10 29 11 30 15 31 12 32 14 33 13 34 33 35
REMARK SMILES IDX 34 36 35 37 36 38 37 39 38 40 39 41 40 42 92 43 41 44 91 45
REMARK SMILES IDX 42 46 43 47 44 48 85 49 45 50 90 51 84 52 86 53 46 54 89 55
REMARK SMILES IDX 83 56 82 57 47 59 73 60 56 61 72 62 57 63 60 64 71 65 87 66
REMARK SMILES IDX 58 67 59 68 70 70 88 71 61 72 48 73 49 74 54 75 50 76 51 77
REMARK SMILES IDX 53 78 55 79 52 80 74 81 75 82 80 83 76 84 77 85 79 86 81 87
REMARK SMILES IDX 78 88 62 89 63 90 68 91 64 92 65 93 67 94 69 95 66 96
REMARK H PARENT 5 12 19 23 86 58 60 69
REMARK Flexibility Score: inf
ROOT
ATOM      1  C   UNL     1      -5.145  -1.142   0.275  1.00  0.00     0.202 C 
ENDROOT
BRANCH   1   2
ATOM      2  C   UNL     1      -3.938  -0.102  -0.331  1.00  0.00     0.261 C 
BRANCH   2   3
ATOM      3  O   UNL     1      -2.801  -0.806  -1.179  1.00  0.00    -0.462 OA
BRANCH   3   4
ATOM      4  C   UNL     1      -1.776  -0.630  -2.094  1.00  0.00     0.328 C 
ATOM      5  O   UNL     1      -1.441   0.476  -2.501  1.00  0.00    -0.250 OA
BRANCH   4   6
ATOM      6  C   UNL     1      -0.906  -2.092  -2.517  1.00  0.00     0.194 C 
BRANCH   6   7
ATOM      7  C   UNL     1      -0.290  -2.276  -3.947  1.00  0.00     0.017 C 
ATOM      8  C   UNL     1      -0.011  -1.004  -4.714  1.00  0.00     0.010 C 
ATOM      9  C   UNL     1       1.046  -3.083  -3.841  1.00  0.00     0.010 C 
ENDBRANCH   6   7
BRANCH   6  10
ATOM     10  N   UNL     1      -1.300  -3.529  -2.181  1.00  0.00    -0.341 N 
ATOM     11  C   UNL     1      -2.070  -4.045  -1.177  1.00  0.00     0.244 C 
ATOM     12  H   UNL     1      -0.933  -4.204  -2.797  1.00  0.00     0.164 HD
ATOM     13  O   UNL     1      -2.161  -5.247  -0.961  1.00  0.00    -0.273 OA
BRANCH  11  14
ATOM     14  C   UNL     1      -2.934  -3.022  -0.549  1.00  0.00     0.189 C 
BRANCH  14  15
ATOM     15  N   UNL     1      -1.794  -2.133   0.405  1.00  0.00    -0.247 N 
ATOM     16  C   UNL     1      -0.419  -2.315   0.286  1.00  0.00     0.329 A 
ATOM     17  C   UNL     1      -2.056  -1.264   1.479  1.00  0.00     0.264 A 
ATOM     18  O   UNL     1       0.156  -3.379   0.080  1.00  0.00    -0.248 OA
ATOM     19  N   UNL     1       0.350  -1.154   0.323  1.00  0.00    -0.307 N 
ATOM     20  C   UNL     1      -1.104  -0.227   1.887  1.00  0.00     0.064 A 
ATOM     21  O   UNL     1      -3.056  -1.121   2.160  1.00  0.00    -0.268 OA
ATOM     22  C   UNL     1      -0.013  -0.052   1.083  1.00  0.00     0.055 A 
ATOM     23  H   UNL     1       1.178  -1.115  -0.208  1.00  0.00     0.171 HD
ATOM     24  C   UNL     1      -1.376   0.661   2.942  1.00  0.00     0.016 A 
ATOM     25  C   UNL     1       0.727   1.123   1.178  1.00  0.00     0.027 A 
ATOM     26  C   UNL     1      -0.610   1.808   3.090  1.00  0.00     0.001 A 
ATOM     27  C   UNL     1       0.404   2.066   2.168  1.00  0.00     0.002 A 
ENDBRANCH  14  15
BRANCH  14  28
ATOM     28  C   UNL     1      -3.881  -2.732  -2.124  1.00  0.00     0.071 C 
BRANCH  28  29
ATOM     29  C   UNL     1      -4.856  -1.637  -2.704  1.00  0.00    -0.045 A 
ATOM     30  C   UNL     1      -4.447  -0.511  -3.450  1.00  0.00     0.004 A 
ATOM     31  C   UNL     1      -6.237  -1.736  -2.516  1.00  0.00     0.004 A 
ATOM     32  C   UNL     1      -5.297   0.592  -3.659  1.00  0.00     0.000 A 
ATOM     33  C   UNL     1      -7.108  -0.657  -2.743  1.00  0.00     0.000 A 
ATOM     34  C   UNL     1      -6.620   0.539  -3.249  1.00  0.00     0.000 A 
ENDBRANCH  28  29
ENDBRANCH  14  28
ENDBRANCH  11  14
ENDBRANCH   6  10
ENDBRANCH   4   6
ENDBRANCH   3   4
ENDBRANCH   2   3
ENDBRANCH   1   2
BRANCH   1  35
ATOM     35  O   UNL     1      -5.401  -1.610   1.629  1.00  0.00    -0.374 OA
BRANCH  35  36
ATOM     36  C   UNL     1      -4.786  -2.779   2.222  1.00  0.00     0.202 C 
BRANCH  36  37
ATOM     37  C   UNL     1      -5.301  -4.214   2.122  1.00  0.00     0.261 C 
BRANCH  37  38
ATOM     38  O   UNL     1      -5.812  -4.534   0.844  1.00  0.00    -0.460 OA
BRANCH  38  39
ATOM     39  C   UNL     1      -7.139  -4.300   0.797  1.00  0.00     0.338 C 
ATOM     40  O   UNL     1      -7.850  -3.850   1.669  1.00  0.00    -0.246 OA
BRANCH  39  41
ATOM     41  C   UNL     1      -7.623  -4.622  -0.544  1.00  0.00     0.060 A 
ATOM     42  C   UNL     1      -8.598  -3.763  -1.054  1.00  0.00     0.016 A 
ATOM     43  C   UNL     1      -7.186  -5.747  -1.253  1.00  0.00     0.016 A 
ATOM     44  C   UNL     1      -9.183  -4.050  -2.273  1.00  0.00     0.010 A 
ATOM     45  C   UNL     1      -7.801  -6.056  -2.462  1.00  0.00     0.010 A 
ATOM     46  C   UNL     1      -8.829  -5.228  -2.942  1.00  0.00    -0.014 A 
BRANCH  46  47
ATOM     47  C   UNL     1      -9.741  -5.708  -3.992  1.00  0.00     0.031 A 
ATOM     48  C   UNL     1     -10.882  -6.585  -3.569  1.00  0.00     0.074 A 
ATOM     49  C   UNL     1      -9.601  -5.296  -5.260  1.00  0.00     0.049 A 
ATOM     50  N   UNL     1     -11.851  -7.086  -4.286  1.00  0.00    -0.248 NA
ATOM     51  C   UNL     1     -10.945  -6.934  -2.138  1.00  0.00     0.031 C 
ATOM     52  C   UNL     1      -8.561  -4.394  -5.749  1.00  0.00     0.029 A 
ATOM     53  N   UNL     1     -10.354  -5.585  -6.365  1.00  0.00    -0.354 N 
ATOM     54  C   UNL     1     -12.644  -7.796  -3.394  1.00  0.00     0.074 A 
ATOM     55  C   UNL     1     -12.026  -7.695  -2.092  1.00  0.00     0.031 C 
ATOM     56  C   UNL     1      -8.737  -4.211  -7.069  1.00  0.00     0.029 A 
ATOM     57  C   UNL     1      -9.885  -5.001  -7.513  1.00  0.00     0.049 A 
ATOM     58  H   UNL     1     -11.155  -6.157  -6.339  1.00  0.00     0.167 HD
ATOM     59  C   UNL     1     -13.792  -8.466  -3.642  1.00  0.00     0.037 A 
ATOM     60  C   UNL     1     -10.332  -5.114  -8.777  1.00  0.00     0.037 A 
ATOM     61  C   UNL     1     -14.377  -8.584  -4.950  1.00  0.00     0.049 A 
ATOM     62  C   UNL     1     -11.552  -5.958  -9.044  1.00  0.00     0.074 A 
ATOM     63  C   UNL     1     -15.529  -9.250  -5.321  1.00  0.00     0.029 A 
ATOM     64  N   UNL     1     -13.839  -8.032  -6.104  1.00  0.00    -0.354 N 
ATOM     65  N   UNL     1     -12.314  -6.609  -8.196  1.00  0.00    -0.248 NA
ATOM     66  C   UNL     1     -11.976  -6.080 -10.445  1.00  0.00     0.031 C 
ATOM     67  C   UNL     1     -15.655  -9.155  -6.711  1.00  0.00     0.029 A 
ATOM     68  C   UNL     1     -14.619  -8.371  -7.196  1.00  0.00     0.049 A 
ATOM     69  H   UNL     1     -13.023  -7.482  -6.141  1.00  0.00     0.167 HD
ATOM     70  C   UNL     1     -13.325  -7.187  -8.955  1.00  0.00     0.074 A 
ATOM     71  C   UNL     1     -13.084  -6.798 -10.330  1.00  0.00     0.031 C 
ATOM     72  C   UNL     1     -14.361  -7.965  -8.555  1.00  0.00     0.037 A 
BRANCH  59  73
ATOM     73  C   UNL     1     -14.451  -9.153  -2.484  1.00  0.00     0.057 A 
ATOM     74  C   UNL     1     -15.070  -8.437  -1.450  1.00  0.00     0.134 A 
ATOM     75  C   UNL     1     -14.469 -10.550  -2.403  1.00  0.00     0.134 A 
ATOM     76  F   UNL     1     -15.069  -7.095  -1.455  1.00  0.00    -0.206 F 
ATOM     77  C   UNL     1     -15.663  -9.088  -0.366  1.00  0.00     0.040 A 
ATOM     78  C   UNL     1     -15.084 -11.212  -1.339  1.00  0.00     0.040 A 
ATOM     79  F   UNL     1     -13.891 -11.296  -3.357  1.00  0.00    -0.206 F 
ATOM     80  C   UNL     1     -15.677 -10.480  -0.313  1.00  0.00     0.006 A 
ENDBRANCH  59  73
BRANCH  60  81
ATOM     81  C   UNL     1      -9.621  -4.429  -9.884  1.00  0.00     0.057 A 
ATOM     82  C   UNL     1     -10.223  -3.393 -10.607  1.00  0.00     0.134 A 
ATOM     83  C   UNL     1      -8.330  -4.815 -10.267  1.00  0.00     0.134 A 
ATOM     84  F   UNL     1     -11.466  -2.991 -10.302  1.00  0.00    -0.206 F 
ATOM     85  C   UNL     1      -9.579  -2.783 -11.685  1.00  0.00     0.040 A 
ATOM     86  C   UNL     1      -7.663  -4.195 -11.325  1.00  0.00     0.040 A 
ATOM     87  F   UNL     1      -7.695  -5.800  -9.614  1.00  0.00    -0.206 F 
ATOM     88  C   UNL     1      -8.293  -3.182 -12.044  1.00  0.00     0.006 A 
ENDBRANCH  60  81
BRANCH  72  89
ATOM     89  C   UNL     1     -15.336  -8.412  -9.607  1.00  0.00     0.057 A 
ATOM     90  C   UNL     1     -14.998  -9.362 -10.579  1.00  0.00     0.134 A 
ATOM     91  C   UNL     1     -16.648  -7.920  -9.613  1.00  0.00     0.134 A 
ATOM     92  F   UNL     1     -13.756  -9.867 -10.635  1.00  0.00    -0.206 F 
ATOM     93  C   UNL     1     -15.923  -9.787 -11.535  1.00  0.00     0.040 A 
ATOM     94  C   UNL     1     -17.590  -8.361 -10.543  1.00  0.00     0.040 A 
ATOM     95  F   UNL     1     -17.042  -7.017  -8.702  1.00  0.00    -0.206 F 
ATOM     96  C   UNL     1     -17.225  -9.292 -11.512  1.00  0.00     0.006 A 
ENDBRANCH  72  89
ENDBRANCH  46  47
ENDBRANCH  39  41
ENDBRANCH  38  39
ENDBRANCH  37  38
ENDBRANCH  36  37
ENDBRANCH  35  36
ENDBRANCH   1  35
TORSDOF 20
