REMARK SMILES COc1cc(-c2cc(C(=O)OCCOCCOC(=O)c3ccc(-c4c5nc(c(-c6c(F)cccc6F)c6ccc([nH]6)c(-c6c(F)cccc6F)c6nc(c(-c7c(F)cccc7F)c7ccc4[nH]7)C=C6)C=C5)cc3)c3cc(C)ccc3n2)cc(OC)c1OC
REMARK SMILES IDX 14 1 13 2 12 3 11 4 9 5 10 6 8 7 6 8 7 9 81 10 80 11 74 12
REMARK SMILES IDX 79 13 75 14 78 15 76 16 77 17 5 18 3 19 4 20 86 21 83 22
REMARK SMILES IDX 82 23 2 24 1 25 87 26 88 27 84 28 85 29 15 30 16 31 17 32
REMARK SMILES IDX 18 33 19 34 20 35 21 36 73 37 22 38 72 39 23 40 24 41 25 42
REMARK SMILES IDX 66 43 26 44 71 45 65 46 67 47 27 48 70 49 64 50 63 51 28 53
REMARK SMILES IDX 54 54 37 55 53 56 38 57 41 58 52 59 68 60 39 61 40 62 51 64
REMARK SMILES IDX 69 65 42 66 29 67 30 68 35 69 31 70 32 71 34 72 36 73 33 74
REMARK SMILES IDX 55 75 56 76 61 77 57 78 58 79 60 80 62 81 59 82 43 83 44 84
REMARK SMILES IDX 49 85 45 86 46 87 48 88 50 89 47 90
REMARK H PARENT 67 52 41 63
REMARK Flexibility Score: inf
ROOT
ATOM      1  O   UNL     1       3.244   9.947   6.122  1.00  0.00    -0.374 OA
ENDROOT
BRANCH   1   2
ATOM      2  C   UNL     1       2.486  10.719   5.186  1.00  0.00     0.202 C 
BRANCH   2   3
ATOM      3  C   UNL     1       2.267  10.167   3.773  1.00  0.00     0.261 C 
BRANCH   3   4
ATOM      4  O   UNL     1       1.601   8.892   3.797  1.00  0.00    -0.460 OA
BRANCH   4   5
ATOM      5  C   UNL     1       1.450   8.355   2.569  1.00  0.00     0.338 C 
ATOM      6  O   UNL     1       1.433   8.964   1.514  1.00  0.00    -0.246 OA
BRANCH   5   7
ATOM      7  C   UNL     1       1.505   6.872   2.656  1.00  0.00     0.071 A 
ATOM      8  C   UNL     1       0.899   5.263   1.058  1.00  0.00     0.072 A 
ATOM      9  C   UNL     1       0.488   6.204   1.982  1.00  0.00     0.045 A 
ATOM     10  N   UNL     1       2.133   5.398   0.501  1.00  0.00    -0.248 NA
ATOM     11  C   UNL     1       3.112   5.734   1.339  1.00  0.00     0.072 A 
ATOM     12  C   UNL     1       2.803   6.336   2.555  1.00  0.00     0.015 A 
ATOM     13  C   UNL     1       4.378   5.219   1.127  1.00  0.00     0.029 A 
ATOM     14  C   UNL     1       3.655   6.082   3.651  1.00  0.00     0.014 A 
ATOM     15  C   UNL     1       5.249   5.024   2.200  1.00  0.00     0.005 A 
ATOM     16  C   UNL     1       4.840   5.354   3.490  1.00  0.00    -0.050 A 
ATOM     17  C   UNL     1       5.606   4.874   4.688  1.00  0.00     0.044 C 
BRANCH   8  18
ATOM     18  C   UNL     1       0.664   3.807   1.283  1.00  0.00     0.008 A 
ATOM     19  C   UNL     1       0.441   1.628   0.234  1.00  0.00     0.165 A 
ATOM     20  C   UNL     1       0.130   2.995   0.280  1.00  0.00     0.061 A 
ATOM     21  C   UNL     1       1.398   1.093   1.113  1.00  0.00     0.203 A 
ATOM     22  C   UNL     1       1.853   1.875   2.172  1.00  0.00     0.165 A 
ATOM     23  C   UNL     1       1.402   3.183   2.317  1.00  0.00     0.061 A 
BRANCH  19  24
ATOM     24  O   UNL     1      -0.149   0.935  -0.791  1.00  0.00    -0.493 OA
ATOM     25  C   UNL     1      -0.592  -0.373  -0.434  1.00  0.00     0.278 C 
ENDBRANCH  19  24
BRANCH  21  26
ATOM     26  O   UNL     1       1.909  -0.172   0.975  1.00  0.00    -0.490 OA
ATOM     27  C   UNL     1       2.708  -0.302  -0.204  1.00  0.00     0.278 C 
ENDBRANCH  21  26
BRANCH  22  28
ATOM     28  O   UNL     1       2.823   1.457   3.048  1.00  0.00    -0.493 OA
ATOM     29  C   UNL     1       4.111   1.469   2.421  1.00  0.00     0.278 C 
ENDBRANCH  22  28
ENDBRANCH   8  18
ENDBRANCH   5   7
ENDBRANCH   4   5
ENDBRANCH   3   4
ENDBRANCH   2   3
ENDBRANCH   1   2
BRANCH   1  30
ATOM     30  C   UNL     1       2.918   8.571   6.255  1.00  0.00     0.202 C 
BRANCH  30  31
ATOM     31  C   UNL     1       1.612   8.177   6.963  1.00  0.00     0.261 C 
BRANCH  31  32
ATOM     32  O   UNL     1       0.500   9.032   6.676  1.00  0.00    -0.460 OA
BRANCH  32  33
ATOM     33  C   UNL     1       0.252   9.950   7.644  1.00  0.00     0.338 C 
ATOM     34  O   UNL     1       0.801  10.058   8.724  1.00  0.00    -0.246 OA
BRANCH  33  35
ATOM     35  C   UNL     1      -0.704  10.949   7.137  1.00  0.00     0.060 A 
ATOM     36  C   UNL     1      -0.282  12.284   7.114  1.00  0.00     0.016 A 
ATOM     37  C   UNL     1      -1.998  10.599   6.750  1.00  0.00     0.016 A 
ATOM     38  C   UNL     1      -1.167  13.285   6.729  1.00  0.00     0.010 A 
ATOM     39  C   UNL     1      -2.895  11.608   6.386  1.00  0.00     0.010 A 
ATOM     40  C   UNL     1      -2.489  12.955   6.404  1.00  0.00    -0.014 A 
BRANCH  40  41
ATOM     41  C   UNL     1      -3.479  14.044   6.255  1.00  0.00     0.031 A 
ATOM     42  C   UNL     1      -4.286  14.451   7.454  1.00  0.00     0.074 A 
ATOM     43  C   UNL     1      -3.619  14.690   5.085  1.00  0.00     0.049 A 
ATOM     44  N   UNL     1      -5.199  15.380   7.564  1.00  0.00    -0.248 NA
ATOM     45  C   UNL     1      -4.023  13.711   8.700  1.00  0.00     0.031 C 
ATOM     46  C   UNL     1      -2.860  14.409   3.869  1.00  0.00     0.029 A 
ATOM     47  N   UNL     1      -4.454  15.719   4.735  1.00  0.00    -0.354 N 
ATOM     48  C   UNL     1      -5.619  15.339   8.887  1.00  0.00     0.074 A 
ATOM     49  C   UNL     1      -4.882  14.275   9.535  1.00  0.00     0.031 C 
ATOM     50  C   UNL     1      -3.272  15.242   2.898  1.00  0.00     0.029 A 
ATOM     51  C   UNL     1      -4.338  16.096   3.420  1.00  0.00     0.049 A 
ATOM     52  H   UNL     1      -5.077  16.147   5.365  1.00  0.00     0.167 HD
ATOM     53  C   UNL     1      -6.530  16.123   9.508  1.00  0.00     0.037 A 
ATOM     54  C   UNL     1      -5.027  17.016   2.719  1.00  0.00     0.037 A 
ATOM     55  C   UNL     1      -7.267  17.173   8.857  1.00  0.00     0.049 A 
ATOM     56  C   UNL     1      -6.087  17.828   3.413  1.00  0.00     0.074 A 
ATOM     57  C   UNL     1      -8.207  18.032   9.398  1.00  0.00     0.029 A 
ATOM     58  N   UNL     1      -7.150  17.500   7.514  1.00  0.00    -0.354 N 
ATOM     59  N   UNL     1      -6.461  17.799   4.670  1.00  0.00    -0.248 NA
ATOM     60  C   UNL     1      -6.819  18.803   2.592  1.00  0.00     0.031 C 
ATOM     61  C   UNL     1      -8.691  18.850   8.372  1.00  0.00     0.029 A 
ATOM     62  C   UNL     1      -8.019  18.532   7.202  1.00  0.00     0.049 A 
ATOM     63  H   UNL     1      -6.539  17.063   6.878  1.00  0.00     0.167 HD
ATOM     64  C   UNL     1      -7.451  18.765   4.797  1.00  0.00     0.074 A 
ATOM     65  C   UNL     1      -7.614  19.370   3.490  1.00  0.00     0.031 C 
ATOM     66  C   UNL     1      -8.162  19.121   5.895  1.00  0.00     0.037 A 
BRANCH  53  67
ATOM     67  C   UNL     1      -6.798  15.848  10.957  1.00  0.00     0.057 A 
ATOM     68  C   UNL     1      -5.872  16.177  11.956  1.00  0.00     0.134 A 
ATOM     69  C   UNL     1      -8.001  15.255  11.360  1.00  0.00     0.134 A 
ATOM     70  F   UNL     1      -4.693  16.731  11.634  1.00  0.00    -0.206 F 
ATOM     71  C   UNL     1      -6.124  15.906  13.302  1.00  0.00     0.040 A 
ATOM     72  C   UNL     1      -8.274  15.000  12.705  1.00  0.00     0.040 A 
ATOM     73  F   UNL     1      -8.929  14.915  10.454  1.00  0.00    -0.206 F 
ATOM     74  C   UNL     1      -7.330  15.320  13.679  1.00  0.00     0.006 A 
ENDBRANCH  53  67
BRANCH  54  75
ATOM     75  C   UNL     1      -4.743  17.212   1.276  1.00  0.00     0.057 A 
ATOM     76  C   UNL     1      -4.123  18.376   0.808  1.00  0.00     0.134 A 
ATOM     77  C   UNL     1      -5.093  16.242   0.330  1.00  0.00     0.134 A 
ATOM     78  F   UNL     1      -3.785  19.352   1.664  1.00  0.00    -0.206 F 
ATOM     79  C   UNL     1      -3.871  18.573  -0.551  1.00  0.00     0.040 A 
ATOM     80  C   UNL     1      -4.827  16.416  -1.029  1.00  0.00     0.040 A 
ATOM     81  F   UNL     1      -5.691  15.105   0.715  1.00  0.00    -0.206 F 
ATOM     82  C   UNL     1      -4.219  17.588  -1.473  1.00  0.00     0.006 A 
ENDBRANCH  54  75
BRANCH  66  83
ATOM     83  C   UNL     1      -9.156  20.233   5.738  1.00  0.00     0.057 A 
ATOM     84  C   UNL     1     -10.374  20.045   5.073  1.00  0.00     0.134 A 
ATOM     85  C   UNL     1      -8.911  21.492   6.300  1.00  0.00     0.134 A 
ATOM     86  F   UNL     1     -10.663  18.866   4.503  1.00  0.00    -0.206 F 
ATOM     87  C   UNL     1     -11.306  21.078   4.955  1.00  0.00     0.040 A 
ATOM     88  C   UNL     1      -9.845  22.525   6.210  1.00  0.00     0.040 A 
ATOM     89  F   UNL     1      -7.768  21.734   6.959  1.00  0.00    -0.206 F 
ATOM     90  C   UNL     1     -11.044  22.320   5.531  1.00  0.00     0.006 A 
ENDBRANCH  66  83
ENDBRANCH  40  41
ENDBRANCH  33  35
ENDBRANCH  32  33
ENDBRANCH  31  32
ENDBRANCH  30  31
ENDBRANCH   1  30
TORSDOF 18
