REMARK SMILES C[C@@H](C(=O)OCCOCCOC(=O)c1ccc(-c2c3nc(c(-c4c(F)cccc4F)c4ccc([nH]4)c(-c4c(F)cccc4F)c4nc(c(-c5c(F)cccc5F)c5ccc2[nH]5)C=C4)C=C3)cc1)n1ccc(C(=O)N2CC[NH+](Cc3cccc(F)c3)CC2)n1
REMARK SMILES IDX 7 1 6 2 5 3 3 4 4 5 2 6 1 7 68 8 69 9 88 10 70 11 71 12
REMARK SMILES IDX 72 13 73 14 74 15 75 16 87 17 76 18 86 19 77 20 78 22 79 23
REMARK SMILES IDX 80 24 85 25 81 26 83 27 82 28 84 29 8 30 9 31 10 32 11 33
REMARK SMILES IDX 12 34 13 35 14 36 15 37 67 38 16 39 66 40 17 41 18 42 19 43
REMARK SMILES IDX 60 44 20 45 65 46 59 47 61 48 21 49 64 50 58 51 57 52 22 54
REMARK SMILES IDX 48 55 31 56 47 57 32 58 35 59 46 60 62 61 33 62 34 63 45 65
REMARK SMILES IDX 63 66 36 67 23 68 24 69 29 70 25 71 26 72 28 73 30 74 27 75
REMARK SMILES IDX 49 76 50 77 55 78 51 79 52 80 54 81 56 82 53 83 37 84 38 85
REMARK SMILES IDX 43 86 39 87 40 88 42 89 44 90 41 91
REMARK H PARENT 77 21 61 53 35 64
REMARK Flexibility Score: inf
ROOT
ATOM      1  C   UNL     1       2.049   3.215  -3.488  1.00  0.00     0.202 C 
ENDROOT
BRANCH   1   2
ATOM      2  C   UNL     1       2.188   3.668  -2.034  1.00  0.00     0.261 C 
BRANCH   2   3
ATOM      3  O   UNL     1       1.945   2.566  -1.145  1.00  0.00    -0.462 OA
BRANCH   3   4
ATOM      4  C   UNL     1       1.272   2.878  -0.000  1.00  0.00     0.330 C 
ATOM      5  O   UNL     1       1.107   4.029   0.388  1.00  0.00    -0.250 OA
BRANCH   4   6
ATOM      6  C   UNL     1       0.732   1.635   0.704  1.00  0.00     0.213 C 
ATOM      7  C   UNL     1       1.537   0.370   0.403  1.00  0.00     0.046 C 
BRANCH   6   8
ATOM      8  N   UNL     1      -0.705   1.501   0.470  1.00  0.00    -0.258 N 
ATOM      9  C   UNL     1      -1.431   0.410   0.074  1.00  0.00     0.110 A 
ATOM     10  N   UNL     1      -1.484   2.550   0.758  1.00  0.00    -0.167 NA
ATOM     11  C   UNL     1      -2.753   0.796   0.097  1.00  0.00     0.056 A 
ATOM     12  C   UNL     1      -2.741   2.153   0.503  1.00  0.00     0.150 A 
BRANCH  12  13
ATOM     13  C   UNL     1      -3.884   3.048   0.737  1.00  0.00     0.274 C 
ATOM     14  O   UNL     1      -4.951   2.616   1.173  1.00  0.00    -0.267 OA
ATOM     15  N   UNL     1      -3.673   4.410   0.484  1.00  0.00    -0.326 N 
ATOM     16  C   UNL     1      -4.599   5.353   1.087  1.00  0.00     0.181 C 
ATOM     17  C   UNL     1      -2.971   4.843  -0.729  1.00  0.00     0.181 C 
ATOM     18  C   UNL     1      -4.128   6.818   1.033  1.00  0.00     0.284 C 
ATOM     19  C   UNL     1      -2.553   6.323  -0.729  1.00  0.00     0.284 C 
ATOM     20  N   UNL     1      -3.556   7.275  -0.238  1.00  0.00    -0.328 N 
ATOM     21  H   UNL     1      -3.054   8.138  -0.031  1.00  0.00     0.348 HD
BRANCH  20  22
ATOM     22  C   UNL     1      -4.496   7.804  -1.229  1.00  0.00     0.299 C 
BRANCH  22  23
ATOM     23  C   UNL     1      -5.482   6.843  -1.848  1.00  0.00     0.009 A 
ATOM     24  C   UNL     1      -5.191   6.191  -3.058  1.00  0.00     0.010 A 
ATOM     25  C   UNL     1      -6.700   6.564  -1.214  1.00  0.00     0.048 A 
ATOM     26  C   UNL     1      -6.058   5.222  -3.574  1.00  0.00     0.004 A 
ATOM     27  C   UNL     1      -7.547   5.586  -1.726  1.00  0.00     0.123 A 
ATOM     28  C   UNL     1      -7.231   4.905  -2.893  1.00  0.00     0.039 A 
ATOM     29  F   UNL     1      -8.673   5.282  -1.066  1.00  0.00    -0.207 F 
ENDBRANCH  22  23
ENDBRANCH  20  22
ENDBRANCH  12  13
ENDBRANCH   6   8
ENDBRANCH   4   6
ENDBRANCH   3   4
ENDBRANCH   2   3
ENDBRANCH   1   2
BRANCH   1  30
ATOM     30  O   UNL     1       0.761   2.723  -3.861  1.00  0.00    -0.374 OA
BRANCH  30  31
ATOM     31  C   UNL     1       0.374   1.435  -3.376  1.00  0.00     0.202 C 
BRANCH  31  32
ATOM     32  C   UNL     1       1.073   0.227  -4.013  1.00  0.00     0.261 C 
BRANCH  32  33
ATOM     33  O   UNL     1       2.480   0.176  -3.703  1.00  0.00    -0.460 OA
BRANCH  33  34
ATOM     34  C   UNL     1       3.299   0.239  -4.781  1.00  0.00     0.338 C 
ATOM     35  O   UNL     1       2.970   0.248  -5.961  1.00  0.00    -0.246 OA
BRANCH  34  36
ATOM     36  C   UNL     1       4.693   0.472  -4.364  1.00  0.00     0.060 A 
ATOM     37  C   UNL     1       5.352   1.583  -4.908  1.00  0.00     0.016 A 
ATOM     38  C   UNL     1       5.379  -0.427  -3.545  1.00  0.00     0.016 A 
ATOM     39  C   UNL     1       6.713   1.772  -4.675  1.00  0.00     0.010 A 
ATOM     40  C   UNL     1       6.749  -0.240  -3.321  1.00  0.00     0.010 A 
ATOM     41  C   UNL     1       7.429   0.839  -3.914  1.00  0.00    -0.014 A 
BRANCH  41  42
ATOM     42  C   UNL     1       8.910   0.920  -3.871  1.00  0.00     0.031 A 
ATOM     43  C   UNL     1       9.718   0.062  -4.806  1.00  0.00     0.074 A 
ATOM     44  C   UNL     1       9.531   1.777  -3.042  1.00  0.00     0.049 A 
ATOM     45  N   UNL     1      11.017  -0.032  -4.933  1.00  0.00    -0.248 NA
ATOM     46  C   UNL     1       8.958  -0.802  -5.723  1.00  0.00     0.031 C 
ATOM     47  C   UNL     1       8.864   2.689  -2.115  1.00  0.00     0.029 A 
ATOM     48  N   UNL     1      10.868   2.015  -2.847  1.00  0.00    -0.354 N 
ATOM     49  C   UNL     1      11.230  -0.963  -5.942  1.00  0.00     0.074 A 
ATOM     50  C   UNL     1       9.929  -1.427  -6.373  1.00  0.00     0.031 C 
ATOM     51  C   UNL     1       9.798   3.382  -1.439  1.00  0.00     0.029 A 
ATOM     52  C   UNL     1      11.125   2.945  -1.870  1.00  0.00     0.049 A 
ATOM     53  H   UNL     1      11.577   1.562  -3.359  1.00  0.00     0.167 HD
ATOM     54  C   UNL     1      12.403  -1.385  -6.471  1.00  0.00     0.037 A 
ATOM     55  C   UNL     1      12.297   3.381  -1.369  1.00  0.00     0.037 A 
ATOM     56  C   UNL     1      13.700  -0.929  -6.046  1.00  0.00     0.049 A 
ATOM     57  C   UNL     1      13.589   2.847  -1.926  1.00  0.00     0.074 A 
ATOM     58  C   UNL     1      14.945  -1.294  -6.528  1.00  0.00     0.029 A 
ATOM     59  N   UNL     1      13.918  -0.010  -5.031  1.00  0.00    -0.354 N 
ATOM     60  N   UNL     1      13.778   1.981  -2.893  1.00  0.00    -0.248 NA
ATOM     61  C   UNL     1      14.832   3.353  -1.324  1.00  0.00     0.031 C 
ATOM     62  C   UNL     1      15.918  -0.624  -5.779  1.00  0.00     0.029 A 
ATOM     63  C   UNL     1      15.277   0.189  -4.859  1.00  0.00     0.049 A 
ATOM     64  H   UNL     1      13.210   0.435  -4.511  1.00  0.00     0.167 HD
ATOM     65  C   UNL     1      15.155   1.857  -3.030  1.00  0.00     0.074 A 
ATOM     66  C   UNL     1      15.755   2.745  -2.056  1.00  0.00     0.031 C 
ATOM     67  C   UNL     1      15.860   1.079  -3.888  1.00  0.00     0.037 A 
BRANCH  54  68
ATOM     68  C   UNL     1      12.335  -2.411  -7.563  1.00  0.00     0.057 A 
ATOM     69  C   UNL     1      11.920  -2.081  -8.859  1.00  0.00     0.134 A 
ATOM     70  C   UNL     1      12.715  -3.737  -7.322  1.00  0.00     0.134 A 
ATOM     71  F   UNL     1      11.529  -0.831  -9.149  1.00  0.00    -0.206 F 
ATOM     72  C   UNL     1      11.868  -3.038  -9.873  1.00  0.00     0.040 A 
ATOM     73  C   UNL     1      12.688  -4.699  -8.333  1.00  0.00     0.040 A 
ATOM     74  F   UNL     1      13.125  -4.118  -6.102  1.00  0.00    -0.206 F 
ATOM     75  C   UNL     1      12.258  -4.351  -9.613  1.00  0.00     0.006 A 
ENDBRANCH  54  68
BRANCH  55  76
ATOM     76  C   UNL     1      12.307   4.370  -0.263  1.00  0.00     0.057 A 
ATOM     77  C   UNL     1      12.733   5.687  -0.469  1.00  0.00     0.134 A 
ATOM     78  C   UNL     1      11.910   4.014   1.031  1.00  0.00     0.134 A 
ATOM     79  F   UNL     1      13.149   6.079  -1.682  1.00  0.00    -0.206 F 
ATOM     80  C   UNL     1      12.777   6.611   0.576  1.00  0.00     0.040 A 
ATOM     81  C   UNL     1      11.927   4.934   2.080  1.00  0.00     0.040 A 
ATOM     82  F   UNL     1      11.492   2.766   1.292  1.00  0.00    -0.206 F 
ATOM     83  C   UNL     1      12.368   6.236   1.855  1.00  0.00     0.006 A 
ENDBRANCH  55  76
BRANCH  67  84
ATOM     84  C   UNL     1      17.356   1.172  -3.832  1.00  0.00     0.057 A 
ATOM     85  C   UNL     1      18.092   0.593  -2.791  1.00  0.00     0.134 A 
ATOM     86  C   UNL     1      18.070   1.812  -4.853  1.00  0.00     0.134 A 
ATOM     87  F   UNL     1      17.466  -0.023  -1.777  1.00  0.00    -0.206 F 
ATOM     88  C   UNL     1      19.486   0.663  -2.758  1.00  0.00     0.040 A 
ATOM     89  C   UNL     1      19.464   1.869  -4.843  1.00  0.00     0.040 A 
ATOM     90  F   UNL     1      17.424   2.380  -5.883  1.00  0.00    -0.206 F 
ATOM     91  C   UNL     1      20.176   1.298  -3.790  1.00  0.00     0.006 A 
ENDBRANCH  67  84
ENDBRANCH  41  42
ENDBRANCH  34  36
ENDBRANCH  33  34
ENDBRANCH  32  33
ENDBRANCH  31  32
ENDBRANCH  30  31
ENDBRANCH   1  30
TORSDOF 18
