REMARK SMILES C[NH2+][C@]1(C(=O)OCCOCCOC(=O)c2ccc(-c3c4nc(c(-c5c(F)cccc5F)c5ccc([nH]5)c(-c5c(F)cccc5F)c5nc(c(-c6c(F)cccc6F)c6ccc3[nH]6)C=C5)C=C4)cc2)CCC[C@H]1CCOC1C[C@@H](C)C[C@H](C)C1
REMARK SMILES IDX 8 1 7 2 6 3 4 4 5 5 3 6 69 7 72 8 70 9 71 10 2 11 1 12 73 15
REMARK SMILES IDX 74 16 75 17 76 18 77 19 83 20 78 21 81 22 79 23 80 24 82 25
REMARK SMILES IDX 9 26 10 27 11 28 12 29 13 30 14 31 15 32 16 33 68 34 17 35
REMARK SMILES IDX 67 36 18 37 19 38 20 39 61 40 21 41 66 42 60 43 62 44 22 45
REMARK SMILES IDX 65 46 59 47 58 48 23 50 49 51 32 52 48 53 33 54 36 55 47 56
REMARK SMILES IDX 63 57 34 58 35 59 46 61 64 62 37 63 24 64 25 65 30 66 26 67
REMARK SMILES IDX 27 68 29 69 31 70 28 71 50 72 51 73 56 74 52 75 53 76 55 77
REMARK SMILES IDX 57 78 54 79 38 80 39 81 44 82 40 83 41 84 43 85 45 86 42 87
REMARK H PARENT 2 13 2 14 62 49 36 60
REMARK Flexibility Score: inf
ROOT
ATOM      1  C   UNL     1       3.508   2.119  -1.392  1.00  0.00     0.202 C 
ENDROOT
BRANCH   1   2
ATOM      2  C   UNL     1       2.499   0.998  -1.658  1.00  0.00     0.261 C 
BRANCH   2   3
ATOM      3  O   UNL     1       1.157   1.303  -2.147  1.00  0.00    -0.459 OA
BRANCH   3   4
ATOM      4  C   UNL     1       0.140   0.887  -1.319  1.00  0.00     0.368 C 
ATOM      5  O   UNL     1       0.385   0.527  -0.167  1.00  0.00    -0.245 OA
BRANCH   4   6
ATOM      6  C   UNL     1      -1.323   0.856  -1.944  1.00  0.00     0.197 C 
ATOM      7  C   UNL     1      -1.523   2.097  -2.845  1.00  0.00     0.081 C 
ATOM      8  C   UNL     1      -1.955  -0.376  -2.870  1.00  0.00     0.065 C 
ATOM      9  C   UNL     1      -2.900   1.897  -3.461  1.00  0.00     0.008 C 
ATOM     10  C   UNL     1      -2.863   0.444  -3.888  1.00  0.00     0.011 C 
BRANCH   6  11
ATOM     11  N   UNL     1      -2.375   1.139  -0.851  1.00  0.00    -0.334 N 
ATOM     12  C   UNL     1      -1.972   1.371   0.529  1.00  0.00     0.331 C 
ATOM     13  H   UNL     1      -2.887   1.970  -1.148  1.00  0.00     0.347 HD
ATOM     14  H   UNL     1      -2.885   0.258  -0.794  1.00  0.00     0.347 HD
ENDBRANCH   6  11
BRANCH   8  15
ATOM     15  C   UNL     1      -1.355  -1.540  -3.822  1.00  0.00     0.039 C 
BRANCH  15  16
ATOM     16  C   UNL     1      -0.538  -2.925  -3.727  1.00  0.00     0.161 C 
BRANCH  16  17
ATOM     17  O   UNL     1      -0.835  -4.116  -3.003  1.00  0.00    -0.378 OA
BRANCH  17  18
ATOM     18  C   UNL     1      -0.498  -4.598  -1.688  1.00  0.00     0.118 C 
ATOM     19  C   UNL     1       0.490  -3.942  -0.720  1.00  0.00     0.035 C 
ATOM     20  C   UNL     1      -1.831  -4.661  -0.946  1.00  0.00     0.035 C 
ATOM     21  C   UNL     1       0.158  -2.487  -0.527  1.00  0.00    -0.011 C 
ATOM     22  C   UNL     1      -2.386  -3.245  -0.984  1.00  0.00    -0.011 C 
ATOM     23  C   UNL     1       0.966  -1.819  -1.635  1.00  0.00     0.008 C 
ATOM     24  C   UNL     1      -1.382  -2.291  -0.283  1.00  0.00     0.006 C 
ATOM     25  C   UNL     1      -3.835  -3.183  -0.506  1.00  0.00     0.008 C 
ENDBRANCH  17  18
ENDBRANCH  16  17
ENDBRANCH  15  16
ENDBRANCH   8  15
ENDBRANCH   4   6
ENDBRANCH   3   4
ENDBRANCH   2   3
ENDBRANCH   1   2
BRANCH   1  26
ATOM     26  O   UNL     1       3.201   3.125  -0.444  1.00  0.00    -0.374 OA
BRANCH  26  27
ATOM     27  C   UNL     1       1.937   3.760  -0.541  1.00  0.00     0.202 C 
BRANCH  27  28
ATOM     28  C   UNL     1       1.630   4.577  -1.805  1.00  0.00     0.261 C 
BRANCH  28  29
ATOM     29  O   UNL     1       1.850   3.891  -3.055  1.00  0.00    -0.460 OA
BRANCH  29  30
ATOM     30  C   UNL     1       2.972   4.229  -3.710  1.00  0.00     0.338 C 
ATOM     31  O   UNL     1       3.830   5.058  -3.346  1.00  0.00    -0.246 OA
BRANCH  30  32
ATOM     32  C   UNL     1       3.188   3.386  -4.891  1.00  0.00     0.060 A 
ATOM     33  C   UNL     1       4.376   2.643  -4.991  1.00  0.00     0.016 A 
ATOM     34  C   UNL     1       2.311   3.460  -5.977  1.00  0.00     0.016 A 
ATOM     35  C   UNL     1       4.726   2.037  -6.193  1.00  0.00     0.010 A 
ATOM     36  C   UNL     1       2.675   2.869  -7.190  1.00  0.00     0.010 A 
ATOM     37  C   UNL     1       3.909   2.204  -7.317  1.00  0.00    -0.014 A 
BRANCH  37  38
ATOM     38  C   UNL     1       4.453   1.881  -8.658  1.00  0.00     0.031 A 
ATOM     39  C   UNL     1       5.019   2.999  -9.494  1.00  0.00     0.074 A 
ATOM     40  C   UNL     1       4.495   0.615  -9.106  1.00  0.00     0.049 A 
ATOM     41  N   UNL     1       5.505   2.966 -10.709  1.00  0.00    -0.248 NA
ATOM     42  C   UNL     1       5.040   4.335  -8.875  1.00  0.00     0.031 C 
ATOM     43  C   UNL     1       4.039  -0.559  -8.366  1.00  0.00     0.029 A 
ATOM     44  N   UNL     1       4.942   0.111 -10.301  1.00  0.00    -0.354 N 
ATOM     45  C   UNL     1       5.877   4.273 -11.002  1.00  0.00     0.074 A 
ATOM     46  C   UNL     1       5.538   5.080  -9.850  1.00  0.00     0.031 C 
ATOM     47  C   UNL     1       4.218  -1.650  -9.130  1.00  0.00     0.029 A 
ATOM     48  C   UNL     1       4.767  -1.245 -10.423  1.00  0.00     0.049 A 
ATOM     49  H   UNL     1       5.349   0.667 -11.003  1.00  0.00     0.167 HD
ATOM     50  C   UNL     1       6.457   4.756 -12.126  1.00  0.00     0.037 A 
ATOM     51  C   UNL     1       4.999  -2.060 -11.471  1.00  0.00     0.037 A 
ATOM     52  C   UNL     1       6.800   3.951 -13.268  1.00  0.00     0.049 A 
ATOM     53  C   UNL     1       5.570  -1.486 -12.741  1.00  0.00     0.074 A 
ATOM     54  C   UNL     1       7.401   4.343 -14.451  1.00  0.00     0.029 A 
ATOM     55  N   UNL     1       6.569   2.587 -13.369  1.00  0.00    -0.354 N 
ATOM     56  N   UNL     1       5.923  -0.252 -13.007  1.00  0.00    -0.248 NA
ATOM     57  C   UNL     1       5.776  -2.422 -13.856  1.00  0.00     0.031 C 
ATOM     58  C   UNL     1       7.487   3.226 -15.288  1.00  0.00     0.029 A 
ATOM     59  C   UNL     1       6.990   2.127 -14.605  1.00  0.00     0.049 A 
ATOM     60  H   UNL     1       6.165   2.029 -12.665  1.00  0.00     0.167 HD
ATOM     61  C   UNL     1       6.417  -0.267 -14.306  1.00  0.00     0.074 A 
ATOM     62  C   UNL     1       6.330  -1.636 -14.769  1.00  0.00     0.031 C 
ATOM     63  C   UNL     1       6.902   0.759 -15.048  1.00  0.00     0.037 A 
BRANCH  50  64
ATOM     64  C   UNL     1       6.726   6.232 -12.188  1.00  0.00     0.057 A 
ATOM     65  C   UNL     1       7.737   6.836 -11.429  1.00  0.00     0.134 A 
ATOM     66  C   UNL     1       5.982   7.055 -13.043  1.00  0.00     0.134 A 
ATOM     67  F   UNL     1       8.477   6.107 -10.579  1.00  0.00    -0.206 F 
ATOM     68  C   UNL     1       7.983   8.208 -11.502  1.00  0.00     0.040 A 
ATOM     69  C   UNL     1       6.236   8.424 -13.144  1.00  0.00     0.040 A 
ATOM     70  F   UNL     1       5.001   6.541 -13.800  1.00  0.00    -0.206 F 
ATOM     71  C   UNL     1       7.236   9.005 -12.367  1.00  0.00     0.006 A 
ENDBRANCH  50  64
BRANCH  51  72
ATOM     72  C   UNL     1       4.671  -3.504 -11.373  1.00  0.00     0.057 A 
ATOM     73  C   UNL     1       5.674  -4.480 -11.364  1.00  0.00     0.134 A 
ATOM     74  C   UNL     1       3.343  -3.944 -11.306  1.00  0.00     0.134 A 
ATOM     75  F   UNL     1       6.963  -4.123 -11.451  1.00  0.00    -0.206 F 
ATOM     76  C   UNL     1       5.369  -5.841 -11.306  1.00  0.00     0.040 A 
ATOM     77  C   UNL     1       3.024  -5.300 -11.220  1.00  0.00     0.040 A 
ATOM     78  F   UNL     1       2.335  -3.059 -11.311  1.00  0.00    -0.206 F 
ATOM     79  C   UNL     1       4.040  -6.254 -11.228  1.00  0.00     0.006 A 
ENDBRANCH  51  72
BRANCH  63  80
ATOM     80  C   UNL     1       7.410   0.435 -16.424  1.00  0.00     0.057 A 
ATOM     81  C   UNL     1       6.545   0.115 -17.477  1.00  0.00     0.134 A 
ATOM     82  C   UNL     1       8.782   0.486 -16.706  1.00  0.00     0.134 A 
ATOM     83  F   UNL     1       5.221   0.039 -17.271  1.00  0.00    -0.206 F 
ATOM     84  C   UNL     1       7.028  -0.166 -18.757  1.00  0.00     0.040 A 
ATOM     85  C   UNL     1       9.274   0.233 -17.987  1.00  0.00     0.040 A 
ATOM     86  F   UNL     1       9.664   0.797 -15.744  1.00  0.00    -0.206 F 
ATOM     87  C   UNL     1       8.396  -0.101 -19.015  1.00  0.00     0.006 A 
ENDBRANCH  63  80
ENDBRANCH  37  38
ENDBRANCH  30  32
ENDBRANCH  29  30
ENDBRANCH  28  29
ENDBRANCH  27  28
ENDBRANCH  26  27
ENDBRANCH   1  26
TORSDOF 19
