REMARK SMILES CC(=O)NCCNC(=O)C[N@@H+](C)CC(=O)OCCOCCOC(=O)c1ccc(-c2c3nc(c(-c4c(F)cccc4F)c4ccc([nH]4)c(-c4c(F)cccc4F)c4nc(c(-c5c(F)cccc5F)c5ccc2[nH]5)C=C4)C=C3)cc1
REMARK SMILES IDX 17 1 16 2 14 3 15 4 13 5 11 6 12 7 10 9 8 10 7 11 9 13 6 14
REMARK SMILES IDX 5 15 4 16 1 17 2 18 3 19 18 21 19 22 20 23 21 24 22 25 23 26
REMARK SMILES IDX 24 27 25 28 26 29 78 30 27 31 77 32 28 33 29 34 30 35 71 36
REMARK SMILES IDX 31 37 76 38 70 39 72 40 32 41 75 42 69 43 68 44 33 46 59 47
REMARK SMILES IDX 42 48 58 49 43 50 46 51 57 52 73 53 44 54 45 55 56 57 74 58
REMARK SMILES IDX 47 59 34 60 35 61 40 62 36 63 37 64 39 65 41 66 38 67 60 68
REMARK SMILES IDX 61 69 66 70 62 71 63 72 65 73 67 74 64 75 48 76 49 77 54 78
REMARK SMILES IDX 50 79 51 80 53 81 55 82 52 83
REMARK H PARENT 11 8 7 12 4 20 72 45 46 56
REMARK Flexibility Score: inf
ROOT
ATOM      1  C   UNL     1       2.541   6.590  -7.862  1.00  0.00     0.261 C 
ENDROOT
BRANCH   1   2
ATOM      2  O   UNL     1       2.693   5.848  -6.631  1.00  0.00    -0.459 OA
BRANCH   2   3
ATOM      3  C   UNL     1       1.617   5.114  -6.245  1.00  0.00     0.361 C 
ATOM      4  O   UNL     1       0.571   5.045  -6.886  1.00  0.00    -0.245 OA
BRANCH   3   5
ATOM      5  C   UNL     1       1.736   4.459  -4.874  1.00  0.00     0.386 C 
BRANCH   5   6
ATOM      6  N   UNL     1       3.058   4.122  -4.293  1.00  0.00    -0.320 N 
ATOM      7  C   UNL     1       3.850   5.296  -3.937  1.00  0.00     0.333 C 
ATOM      8  H   UNL     1       2.795   3.632  -3.438  1.00  0.00     0.348 HD
BRANCH   6   9
ATOM      9  C   UNL     1       3.875   3.165  -5.059  1.00  0.00     0.363 C 
BRANCH   9  10
ATOM     10  C   UNL     1       3.135   1.875  -5.427  1.00  0.00     0.275 C 
ATOM     11  N   UNL     1       2.836   0.960  -4.460  1.00  0.00    -0.349 N 
ATOM     12  H   UNL     1       2.464   0.104  -4.775  1.00  0.00     0.163 HD
ATOM     13  O   UNL     1       2.826   1.630  -6.594  1.00  0.00    -0.269 OA
BRANCH  11  14
ATOM     14  C   UNL     1       2.998   1.093  -3.020  1.00  0.00     0.137 C 
BRANCH  14  15
ATOM     15  C   UNL     1       1.678   1.466  -2.337  1.00  0.00     0.137 C 
BRANCH  15  16
ATOM     16  N   UNL     1       0.748   0.346  -2.324  1.00  0.00    -0.355 N 
ATOM     17  C   UNL     1       0.994  -0.133   0.078  1.00  0.00     0.114 C 
ATOM     18  C   UNL     1       0.414  -0.456  -1.272  1.00  0.00     0.216 C 
ATOM     19  O   UNL     1      -0.347  -1.404  -1.444  1.00  0.00    -0.275 OA
ATOM     20  H   UNL     1       0.306   0.141  -3.179  1.00  0.00     0.163 HD
ENDBRANCH  15  16
ENDBRANCH  14  15
ENDBRANCH  11  14
ENDBRANCH   9  10
ENDBRANCH   6   9
ENDBRANCH   5   6
ENDBRANCH   3   5
ENDBRANCH   2   3
ENDBRANCH   1   2
BRANCH   1  21
ATOM     21  C   UNL     1       3.641   6.250  -8.870  1.00  0.00     0.202 C 
BRANCH  21  22
ATOM     22  O   UNL     1       3.493   5.007  -9.556  1.00  0.00    -0.374 OA
BRANCH  22  23
ATOM     23  C   UNL     1       3.755   3.824  -8.801  1.00  0.00     0.202 C 
BRANCH  23  24
ATOM     24  C   UNL     1       5.242   3.466  -8.662  1.00  0.00     0.261 C 
BRANCH  24  25
ATOM     25  O   UNL     1       5.973   4.482  -7.943  1.00  0.00    -0.460 OA
BRANCH  25  26
ATOM     26  C   UNL     1       6.938   5.099  -8.665  1.00  0.00     0.338 C 
ATOM     27  O   UNL     1       7.353   4.783  -9.772  1.00  0.00    -0.246 OA
BRANCH  26  28
ATOM     28  C   UNL     1       7.352   6.359  -8.018  1.00  0.00     0.060 A 
ATOM     29  C   UNL     1       7.277   7.524  -8.790  1.00  0.00     0.016 A 
ATOM     30  C   UNL     1       7.903   6.396  -6.734  1.00  0.00     0.016 A 
ATOM     31  C   UNL     1       7.818   8.716  -8.314  1.00  0.00     0.010 A 
ATOM     32  C   UNL     1       8.453   7.596  -6.259  1.00  0.00     0.010 A 
ATOM     33  C   UNL     1       8.456   8.749  -7.067  1.00  0.00    -0.014 A 
BRANCH  33  34
ATOM     34  C   UNL     1       9.283   9.934  -6.719  1.00  0.00     0.031 A 
ATOM     35  C   UNL     1      10.772   9.872  -6.940  1.00  0.00     0.074 A 
ATOM     36  C   UNL     1       8.719  11.080  -6.296  1.00  0.00     0.049 A 
ATOM     37  N   UNL     1      11.681  10.794  -6.747  1.00  0.00    -0.248 NA
ATOM     38  C   UNL     1      11.306   8.601  -7.455  1.00  0.00     0.031 C 
ATOM     39  C   UNL     1       7.289  11.294  -6.090  1.00  0.00     0.029 A 
ATOM     40  N   UNL     1       9.290  12.287  -5.976  1.00  0.00    -0.354 N 
ATOM     41  C   UNL     1      12.890  10.217  -7.117  1.00  0.00     0.074 A 
ATOM     42  C   UNL     1      12.605   8.854  -7.512  1.00  0.00     0.031 C 
ATOM     43  C   UNL     1       7.092  12.559  -5.679  1.00  0.00     0.029 A 
ATOM     44  C   UNL     1       8.384  13.236  -5.572  1.00  0.00     0.049 A 
ATOM     45  H   UNL     1      10.259  12.456  -6.030  1.00  0.00     0.167 HD
ATOM     46  C   UNL     1      14.125  10.773  -7.144  1.00  0.00     0.037 A 
ATOM     47  C   UNL     1       8.576  14.504  -5.155  1.00  0.00     0.037 A 
ATOM     48  C   UNL     1      14.417  12.128  -6.762  1.00  0.00     0.049 A 
ATOM     49  C   UNL     1       9.969  15.076  -5.121  1.00  0.00     0.074 A 
ATOM     50  C   UNL     1      15.638  12.780  -6.762  1.00  0.00     0.029 A 
ATOM     51  N   UNL     1      13.476  13.040  -6.310  1.00  0.00    -0.354 N 
ATOM     52  N   UNL     1      11.100  14.524  -5.487  1.00  0.00    -0.248 NA
ATOM     53  C   UNL     1      10.110  16.451  -4.619  1.00  0.00     0.031 C 
ATOM     54  C   UNL     1      15.443  14.075  -6.270  1.00  0.00     0.029 A 
ATOM     55  C   UNL     1      14.093  14.243  -6.007  1.00  0.00     0.049 A 
ATOM     56  H   UNL     1      12.513  12.860  -6.218  1.00  0.00     0.167 HD
ATOM     57  C   UNL     1      12.079  15.491  -5.288  1.00  0.00     0.074 A 
ATOM     58  C   UNL     1      11.408  16.668  -4.778  1.00  0.00     0.031 C 
ATOM     59  C   UNL     1      13.413  15.411  -5.511  1.00  0.00     0.037 A 
BRANCH  46  60
ATOM     60  C   UNL     1      15.262   9.902  -7.590  1.00  0.00     0.057 A 
ATOM     61  C   UNL     1      15.435   9.543  -8.932  1.00  0.00     0.134 A 
ATOM     62  C   UNL     1      16.211   9.442  -6.669  1.00  0.00     0.134 A 
ATOM     63  F   UNL     1      14.552   9.939  -9.861  1.00  0.00    -0.206 F 
ATOM     64  C   UNL     1      16.502   8.741  -9.341  1.00  0.00     0.040 A 
ATOM     65  C   UNL     1      17.295   8.659  -7.068  1.00  0.00     0.040 A 
ATOM     66  F   UNL     1      16.104   9.753  -5.368  1.00  0.00    -0.206 F 
ATOM     67  C   UNL     1      17.439   8.302  -8.407  1.00  0.00     0.006 A 
ENDBRANCH  46  60
BRANCH  47  68
ATOM     68  C   UNL     1       7.419  15.329  -4.724  1.00  0.00     0.057 A 
ATOM     69  C   UNL     1       6.992  16.431  -5.472  1.00  0.00     0.134 A 
ATOM     70  C   UNL     1       6.735  15.053  -3.533  1.00  0.00     0.134 A 
ATOM     71  F   UNL     1       7.624  16.762  -6.608  1.00  0.00    -0.206 F 
ATOM     72  C   UNL     1       5.938  17.241  -5.044  1.00  0.00     0.040 A 
ATOM     73  C   UNL     1       5.665  15.840  -3.105  1.00  0.00     0.040 A 
ATOM     74  F   UNL     1       7.098  14.011  -2.770  1.00  0.00    -0.206 F 
ATOM     75  C   UNL     1       5.269  16.943  -3.859  1.00  0.00     0.006 A 
ENDBRANCH  47  68
BRANCH  59  76
ATOM     76  C   UNL     1      14.234  16.638  -5.242  1.00  0.00     0.057 A 
ATOM     77  C   UNL     1      14.523  17.064  -3.939  1.00  0.00     0.134 A 
ATOM     78  C   UNL     1      14.779  17.377  -6.300  1.00  0.00     0.134 A 
ATOM     79  F   UNL     1      14.023  16.406  -2.882  1.00  0.00    -0.206 F 
ATOM     80  C   UNL     1      15.308  18.193  -3.699  1.00  0.00     0.040 A 
ATOM     81  C   UNL     1      15.584  18.494  -6.072  1.00  0.00     0.040 A 
ATOM     82  F   UNL     1      14.548  17.018  -7.572  1.00  0.00    -0.206 F 
ATOM     83  C   UNL     1      15.847  18.908  -4.768  1.00  0.00     0.006 A 
ENDBRANCH  59  76
ENDBRANCH  33  34
ENDBRANCH  26  28
ENDBRANCH  25  26
ENDBRANCH  24  25
ENDBRANCH  23  24
ENDBRANCH  22  23
ENDBRANCH  21  22
ENDBRANCH   1  21
TORSDOF 20
