REMARK SMILES C=C(C)COc1ccc2nc(C)n(-c3cccc(C(=O)OCCOCCOC(=O)c4ccc(-c5c6nc(c(-c7c(F)cccc7F)c7ccc([nH]7)c(-c7c(F)cccc7F)c7nc(c(-c8c(F)cccc8F)c8ccc5[nH]8)C=C7)C=C6)cc4)c3)c(=O)c2c1
REMARK SMILES IDX 23 1 22 2 21 3 19 4 20 5 18 6 14 7 15 8 84 9 16 10 17 11
REMARK SMILES IDX 13 12 6 13 7 14 88 15 8 16 87 17 9 18 85 19 10 20 86 21
REMARK SMILES IDX 11 22 12 23 5 24 4 25 2 26 1 27 3 28 24 29 25 30 26 31 27 32
REMARK SMILES IDX 28 33 29 34 30 35 31 36 83 37 32 38 82 39 33 40 34 41 35 42
REMARK SMILES IDX 76 43 36 44 81 45 75 46 77 47 37 48 80 49 74 50 73 51 38 53
REMARK SMILES IDX 64 54 47 55 63 56 48 57 51 58 62 59 78 60 49 61 50 62 61 64
REMARK SMILES IDX 79 65 52 66 39 67 40 68 45 69 41 70 42 71 44 72 46 73 43 74
REMARK SMILES IDX 65 75 66 76 71 77 67 78 68 79 70 80 72 81 69 82 53 83 54 84
REMARK SMILES IDX 59 85 55 86 56 87 58 88 60 89 57 90
REMARK H PARENT 77 52 51 63
REMARK Flexibility Score: inf
ROOT
ATOM      1  C   UNL     1      -2.438 -10.255  -8.365  1.00  0.00     0.202 C 
ENDROOT
BRANCH   1   2
ATOM      2  C   UNL     1      -1.078 -10.319  -7.659  1.00  0.00     0.261 C 
BRANCH   2   3
ATOM      3  O   UNL     1      -0.442  -9.033  -7.603  1.00  0.00    -0.460 OA
BRANCH   3   4
ATOM      4  C   UNL     1       0.681  -8.919  -8.357  1.00  0.00     0.338 C 
ATOM      5  O   UNL     1       1.257  -9.817  -8.950  1.00  0.00    -0.246 OA
BRANCH   4   6
ATOM      6  C   UNL     1       1.022  -7.488  -8.547  1.00  0.00     0.062 A 
ATOM      7  C   UNL     1       1.051  -5.165  -7.840  1.00  0.00     0.051 A 
ATOM      8  C   UNL     1       1.596  -4.813  -9.087  1.00  0.00     0.027 A 
ATOM      9  C   UNL     1       0.782  -6.516  -7.568  1.00  0.00     0.042 A 
ATOM     10  C   UNL     1       1.833  -5.782 -10.061  1.00  0.00     0.003 A 
ATOM     11  C   UNL     1       1.541  -7.116  -9.794  1.00  0.00     0.016 A 
BRANCH   7  12
ATOM     12  N   UNL     1       0.772  -4.157  -6.864  1.00  0.00    -0.264 N 
ATOM     13  C   UNL     1       1.386  -2.197  -2.457  1.00  0.00     0.120 A 
ATOM     14  C   UNL     1       0.653  -1.096  -2.899  1.00  0.00     0.049 A 
ATOM     15  C   UNL     1       1.630  -3.263  -3.321  1.00  0.00     0.062 A 
ATOM     16  C   UNL     1       0.119  -1.078  -4.184  1.00  0.00     0.033 A 
ATOM     17  C   UNL     1       1.092  -3.232  -4.617  1.00  0.00     0.070 A 
ATOM     18  C   UNL     1       0.341  -2.144  -5.052  1.00  0.00     0.078 A 
ATOM     19  C   UNL     1       1.317  -4.328  -5.579  1.00  0.00     0.266 A 
ATOM     20  N   UNL     1      -0.204  -2.070  -6.330  1.00  0.00    -0.234 NA
ATOM     21  O   UNL     1       1.984  -5.295  -5.212  1.00  0.00    -0.268 OA
ATOM     22  C   UNL     1       0.011  -3.037  -7.163  1.00  0.00     0.113 A 
ATOM     23  C   UNL     1      -0.689  -2.890  -8.501  1.00  0.00     0.088 C 
BRANCH  13  24
ATOM     24  O   UNL     1       1.969  -2.200  -1.218  1.00  0.00    -0.489 OA
BRANCH  24  25
ATOM     25  C   UNL     1       1.016  -2.362  -0.152  1.00  0.00     0.260 C 
BRANCH  25  26
ATOM     26  C   UNL     1       0.358  -1.057   0.252  1.00  0.00    -0.043 C 
ATOM     27  C   UNL     1       1.054   0.075   0.455  1.00  0.00     0.011 C 
ATOM     28  C   UNL     1      -1.141  -1.088   0.347  1.00  0.00     0.042 C 
ENDBRANCH  25  26
ENDBRANCH  24  25
ENDBRANCH  13  24
ENDBRANCH   7  12
ENDBRANCH   4   6
ENDBRANCH   3   4
ENDBRANCH   2   3
ENDBRANCH   1   2
BRANCH   1  29
ATOM     29  O   UNL     1      -2.460  -9.785  -9.710  1.00  0.00    -0.374 OA
BRANCH  29  30
ATOM     30  C   UNL     1      -2.352  -8.378  -9.928  1.00  0.00     0.202 C 
BRANCH  30  31
ATOM     31  C   UNL     1      -3.582  -7.513  -9.621  1.00  0.00     0.261 C 
BRANCH  31  32
ATOM     32  O   UNL     1      -3.910  -7.494  -8.222  1.00  0.00    -0.460 OA
BRANCH  32  33
ATOM     33  C   UNL     1      -5.033  -8.175  -7.884  1.00  0.00     0.338 C 
ATOM     34  O   UNL     1      -5.811  -8.743  -8.635  1.00  0.00    -0.246 OA
BRANCH  33  35
ATOM     35  C   UNL     1      -5.090  -8.311  -6.417  1.00  0.00     0.060 A 
ATOM     36  C   UNL     1      -5.009  -7.196  -5.582  1.00  0.00     0.016 A 
ATOM     37  C   UNL     1      -5.252  -9.595  -5.876  1.00  0.00     0.016 A 
ATOM     38  C   UNL     1      -5.112  -7.368  -4.200  1.00  0.00     0.010 A 
ATOM     39  C   UNL     1      -5.357  -9.764  -4.495  1.00  0.00     0.010 A 
ATOM     40  C   UNL     1      -5.305  -8.649  -3.647  1.00  0.00    -0.014 A 
BRANCH  40  41
ATOM     41  C   UNL     1      -5.570  -8.796  -2.195  1.00  0.00     0.031 A 
ATOM     42  C   UNL     1      -4.545  -9.369  -1.262  1.00  0.00     0.074 A 
ATOM     43  C   UNL     1      -6.768  -8.405  -1.719  1.00  0.00     0.049 A 
ATOM     44  N   UNL     1      -4.592  -9.484   0.042  1.00  0.00    -0.248 NA
ATOM     45  C   UNL     1      -3.311  -9.885  -1.870  1.00  0.00     0.031 C 
ATOM     46  C   UNL     1      -7.861  -7.872  -2.534  1.00  0.00     0.029 A 
ATOM     47  N   UNL     1      -7.263  -8.385  -0.441  1.00  0.00    -0.354 N 
ATOM     48  C   UNL     1      -3.387 -10.065   0.416  1.00  0.00     0.074 A 
ATOM     49  C   UNL     1      -2.655 -10.330  -0.806  1.00  0.00     0.031 C 
ATOM     50  C   UNL     1      -8.885  -7.544  -1.731  1.00  0.00     0.029 A 
ATOM     51  C   UNL     1      -8.534  -7.873  -0.354  1.00  0.00     0.049 A 
ATOM     52  H   UNL     1      -6.755  -8.706   0.339  1.00  0.00     0.167 HD
ATOM     53  C   UNL     1      -2.929 -10.333   1.663  1.00  0.00     0.037 A 
ATOM     54  C   UNL     1      -9.328  -7.690   0.717  1.00  0.00     0.037 A 
ATOM     55  C   UNL     1      -3.676 -10.099   2.875  1.00  0.00     0.049 A 
ATOM     56  C   UNL     1      -8.817  -8.058   2.082  1.00  0.00     0.074 A 
ATOM     57  C   UNL     1      -3.285 -10.311   4.186  1.00  0.00     0.029 A 
ATOM     58  N   UNL     1      -4.979  -9.623   2.923  1.00  0.00    -0.354 N 
ATOM     59  N   UNL     1      -7.642  -8.523   2.431  1.00  0.00    -0.248 NA
ATOM     60  C   UNL     1      -9.746  -7.870   3.205  1.00  0.00     0.031 C 
ATOM     61  C   UNL     1      -4.369 -10.021   5.023  1.00  0.00     0.029 A 
ATOM     62  C   UNL     1      -5.417  -9.566   4.238  1.00  0.00     0.049 A 
ATOM     63  H   UNL     1      -5.514  -9.363   2.139  1.00  0.00     0.167 HD
ATOM     64  C   UNL     1      -7.681  -8.655   3.813  1.00  0.00     0.074 A 
ATOM     65  C   UNL     1      -8.987  -8.198   4.239  1.00  0.00     0.031 C 
ATOM     66  C   UNL     1      -6.722  -9.116   4.654  1.00  0.00     0.037 A 
BRANCH  53  67
ATOM     67  C   UNL     1      -1.551 -10.922   1.778  1.00  0.00     0.057 A 
ATOM     68  C   UNL     1      -1.363 -12.234   2.232  1.00  0.00     0.134 A 
ATOM     69  C   UNL     1      -0.403 -10.178   1.469  1.00  0.00     0.134 A 
ATOM     70  F   UNL     1      -2.415 -13.000   2.559  1.00  0.00    -0.206 F 
ATOM     71  C   UNL     1      -0.087 -12.786   2.369  1.00  0.00     0.040 A 
ATOM     72  C   UNL     1       0.876 -10.728   1.573  1.00  0.00     0.040 A 
ATOM     73  F   UNL     1      -0.510  -8.916   1.026  1.00  0.00    -0.206 F 
ATOM     74  C   UNL     1       1.036 -12.035   2.029  1.00  0.00     0.006 A 
ENDBRANCH  53  67
BRANCH  54  75
ATOM     75  C   UNL     1     -10.688  -7.118   0.552  1.00  0.00     0.057 A 
ATOM     76  C   UNL     1     -11.706  -7.831  -0.093  1.00  0.00     0.134 A 
ATOM     77  C   UNL     1     -11.012  -5.859   1.071  1.00  0.00     0.134 A 
ATOM     78  F   UNL     1     -11.458  -9.039  -0.620  1.00  0.00    -0.206 F 
ATOM     79  C   UNL     1     -12.997  -7.315  -0.212  1.00  0.00     0.040 A 
ATOM     80  C   UNL     1     -12.307  -5.344   0.987  1.00  0.00     0.040 A 
ATOM     81  F   UNL     1     -10.085  -5.135   1.715  1.00  0.00    -0.206 F 
ATOM     82  C   UNL     1     -13.303  -6.073   0.340  1.00  0.00     0.006 A 
ENDBRANCH  54  75
BRANCH  66  83
ATOM     83  C   UNL     1      -7.045  -9.115   6.123  1.00  0.00     0.057 A 
ATOM     84  C   UNL     1      -6.393  -8.235   6.996  1.00  0.00     0.134 A 
ATOM     85  C   UNL     1      -7.997  -9.982   6.676  1.00  0.00     0.134 A 
ATOM     86  F   UNL     1      -5.464  -7.382   6.538  1.00  0.00    -0.206 F 
ATOM     87  C   UNL     1      -6.678  -8.214   8.363  1.00  0.00     0.040 A 
ATOM     88  C   UNL     1      -8.316  -9.947   8.035  1.00  0.00     0.040 A 
ATOM     89  F   UNL     1      -8.671 -10.840   5.894  1.00  0.00    -0.206 F 
ATOM     90  C   UNL     1      -7.651  -9.065   8.883  1.00  0.00     0.006 A 
ENDBRANCH  66  83
ENDBRANCH  40  41
ENDBRANCH  33  35
ENDBRANCH  32  33
ENDBRANCH  31  32
ENDBRANCH  30  31
ENDBRANCH  29  30
ENDBRANCH   1  29
TORSDOF 18
