REMARK SMILES C/C(=N\[NH+]=C1\NC(=O)[C@H](CC(=O)OCCOCCOC(=O)c2ccc(-c3c4nc(c(-c5c(F)cccc5F)c5ccc([nH]5)c(-c5c(F)cccc5F)c5nc(c(-c6c(F)cccc6F)c6ccc3[nH]6)C=C5)C=C4)cc2)S1)c1ccc([N+](=O)[O-])cc1
REMARK SMILES IDX 15 1 14 2 13 3 11 4 12 5 10 6 9 7 4 8 5 9 6 11 76 12 7 13
REMARK SMILES IDX 8 15 3 16 1 17 2 18 77 19 78 20 85 21 79 22 84 23 80 24
REMARK SMILES IDX 81 25 82 26 83 27 16 28 17 29 18 30 19 31 20 32 21 33 22 34
REMARK SMILES IDX 23 35 75 36 24 37 74 38 25 39 26 40 27 41 68 42 28 43 73 44
REMARK SMILES IDX 67 45 69 46 29 47 72 48 66 49 65 50 30 52 56 53 39 54 55 55
REMARK SMILES IDX 40 56 43 57 54 58 70 59 41 60 42 61 53 63 71 64 44 65 31 66
REMARK SMILES IDX 32 67 37 68 33 69 34 70 36 71 38 72 35 73 57 74 58 75 63 76
REMARK SMILES IDX 59 77 60 78 62 79 64 80 61 81 45 82 46 83 51 84 47 85 48 86
REMARK SMILES IDX 50 87 52 88 49 89
REMARK H PARENT 4 10 6 14 69 51 43 62
REMARK Flexibility Score: inf
ROOT
ATOM      1  C   UNL     1      -3.405   2.817   6.536  1.00  0.00     0.202 C 
ENDROOT
BRANCH   1   2
ATOM      2  C   UNL     1      -4.637   2.501   5.685  1.00  0.00     0.261 C 
BRANCH   2   3
ATOM      3  O   UNL     1      -4.287   1.712   4.531  1.00  0.00    -0.463 OA
BRANCH   3   4
ATOM      4  C   UNL     1      -4.341   2.309   3.319  1.00  0.00     0.307 C 
ATOM      5  O   UNL     1      -4.658   3.472   3.115  1.00  0.00    -0.252 OA
BRANCH   4   6
ATOM      6  C   UNL     1      -3.974   1.344   2.219  1.00  0.00     0.150 C 
BRANCH   6   7
ATOM      7  C   UNL     1      -2.525   0.898   2.283  1.00  0.00     0.184 C 
ATOM      8  N   UNL     1      -0.426  -1.927   0.679  1.00  0.00    -0.142 N 
ATOM      9  C   UNL     1      -1.224  -1.098   1.262  1.00  0.00     0.337 C 
ATOM     10  H   UNL     1      -0.005  -2.673   1.164  1.00  0.00     0.343 HD
ATOM     11  N   UNL     1      -1.541  -1.268   2.562  1.00  0.00    -0.202 N 
ATOM     12  S   UNL     1      -1.976   0.332   0.627  1.00  0.00    -0.020 SA
ATOM     13  C   UNL     1      -2.271  -0.303   3.187  1.00  0.00     0.322 C 
ATOM     14  H   UNL     1      -1.251  -2.072   3.049  1.00  0.00     0.316 HD
ATOM     15  O   UNL     1      -2.596  -0.396   4.362  1.00  0.00    -0.246 OA
BRANCH   8  16
ATOM     16  N   UNL     1      -0.196  -1.705  -0.673  1.00  0.00    -0.090 NA
ATOM     17  C   UNL     1       1.697  -0.234   0.029  1.00  0.00     0.071 C 
ATOM     18  C   UNL     1       0.828  -0.961  -0.982  1.00  0.00     0.088 C 
BRANCH  18  19
ATOM     19  C   UNL     1       1.133  -0.762  -2.436  1.00  0.00    -0.000 A 
ATOM     20  C   UNL     1       0.116  -0.975  -3.381  1.00  0.00     0.017 A 
ATOM     21  C   UNL     1       2.414  -0.402  -2.875  1.00  0.00     0.017 A 
ATOM     22  C   UNL     1       0.371  -0.832  -4.748  1.00  0.00     0.086 A 
ATOM     23  C   UNL     1       2.680  -0.264  -4.242  1.00  0.00     0.086 A 
ATOM     24  C   UNL     1       1.657  -0.481  -5.174  1.00  0.00     0.269 A 
BRANCH  24  25
ATOM     25  N   UNL     1       1.941  -0.346  -6.609  1.00  0.00     0.062 N 
ATOM     26  O   UNL     1       1.010  -0.542  -7.402  1.00  0.00    -0.258 OA
ATOM     27  O   UNL     1       3.096  -0.045  -6.940  1.00  0.00    -0.258 OA
ENDBRANCH  24  25
ENDBRANCH  18  19
ENDBRANCH   8  16
ENDBRANCH   6   7
ENDBRANCH   4   6
ENDBRANCH   3   4
ENDBRANCH   2   3
ENDBRANCH   1   2
BRANCH   1  28
ATOM     28  O   UNL     1      -2.595   3.886   6.042  1.00  0.00    -0.374 OA
BRANCH  28  29
ATOM     29  C   UNL     1      -1.634   3.531   5.050  1.00  0.00     0.202 C 
BRANCH  29  30
ATOM     30  C   UNL     1      -0.291   3.037   5.600  1.00  0.00     0.261 C 
BRANCH  30  31
ATOM     31  O   UNL     1      -0.437   1.764   6.256  1.00  0.00    -0.460 OA
BRANCH  31  32
ATOM     32  C   UNL     1      -0.351   1.814   7.604  1.00  0.00     0.338 C 
ATOM     33  O   UNL     1      -0.021   2.777   8.286  1.00  0.00    -0.246 OA
BRANCH  32  34
ATOM     34  C   UNL     1      -0.871   0.573   8.210  1.00  0.00     0.060 A 
ATOM     35  C   UNL     1      -1.763   0.718   9.280  1.00  0.00     0.016 A 
ATOM     36  C   UNL     1      -0.443  -0.697   7.813  1.00  0.00     0.016 A 
ATOM     37  C   UNL     1      -2.173  -0.398  10.003  1.00  0.00     0.010 A 
ATOM     38  C   UNL     1      -0.856  -1.819   8.545  1.00  0.00     0.010 A 
ATOM     39  C   UNL     1      -1.685  -1.669   9.671  1.00  0.00    -0.014 A 
BRANCH  39  40
ATOM     40  C   UNL     1      -1.922  -2.788  10.617  1.00  0.00     0.031 A 
ATOM     41  C   UNL     1      -0.835  -3.171  11.585  1.00  0.00     0.074 A 
ATOM     42  C   UNL     1      -3.120  -3.397  10.679  1.00  0.00     0.049 A 
ATOM     43  N   UNL     1      -0.853  -4.059  12.547  1.00  0.00    -0.248 NA
ATOM     44  C   UNL     1       0.444  -2.454  11.453  1.00  0.00     0.031 C 
ATOM     45  C   UNL     1      -4.264  -3.099   9.821  1.00  0.00     0.029 A 
ATOM     46  N   UNL     1      -3.572  -4.387  11.516  1.00  0.00    -0.354 N 
ATOM     47  C   UNL     1       0.405  -4.005  13.136  1.00  0.00     0.074 A 
ATOM     48  C   UNL     1       1.175  -3.026  12.398  1.00  0.00     0.031 C 
ATOM     49  C   UNL     1      -5.293  -3.887  10.180  1.00  0.00     0.029 A 
ATOM     50  C   UNL     1      -4.874  -4.754  11.280  1.00  0.00     0.049 A 
ATOM     51  H   UNL     1      -3.016  -4.794  12.219  1.00  0.00     0.167 HD
ATOM     52  C   UNL     1       0.873  -4.693  14.204  1.00  0.00     0.037 A 
ATOM     53  C   UNL     1      -5.638  -5.686  11.882  1.00  0.00     0.037 A 
ATOM     54  C   UNL     1       0.111  -5.664  14.944  1.00  0.00     0.049 A 
ATOM     55  C   UNL     1      -5.076  -6.478  13.033  1.00  0.00     0.074 A 
ATOM     56  C   UNL     1       0.494  -6.399  16.053  1.00  0.00     0.029 A 
ATOM     57  N   UNL     1      -1.190  -6.040  14.646  1.00  0.00    -0.354 N 
ATOM     58  N   UNL     1      -3.897  -6.393  13.601  1.00  0.00    -0.248 NA
ATOM     59  C   UNL     1      -5.958  -7.490  13.632  1.00  0.00     0.031 C 
ATOM     60  C   UNL     1      -0.560  -7.253  16.397  1.00  0.00     0.029 A 
ATOM     61  C   UNL     1      -1.616  -7.015  15.533  1.00  0.00     0.049 A 
ATOM     62  H   UNL     1      -1.731  -5.669  13.911  1.00  0.00     0.167 HD
ATOM     63  C   UNL     1      -3.905  -7.320  14.636  1.00  0.00     0.074 A 
ATOM     64  C   UNL     1      -5.213  -7.942  14.630  1.00  0.00     0.031 C 
ATOM     65  C   UNL     1      -2.919  -7.629  15.514  1.00  0.00     0.037 A 
BRANCH  52  66
ATOM     66  C   UNL     1       2.289  -4.429  14.625  1.00  0.00     0.057 A 
ATOM     67  C   UNL     1       2.664  -3.235  15.253  1.00  0.00     0.134 A 
ATOM     68  C   UNL     1       3.285  -5.393  14.422  1.00  0.00     0.134 A 
ATOM     69  F   UNL     1       1.762  -2.264  15.463  1.00  0.00    -0.206 F 
ATOM     70  C   UNL     1       3.984  -2.998  15.643  1.00  0.00     0.040 A 
ATOM     71  C   UNL     1       4.602  -5.179  14.830  1.00  0.00     0.040 A 
ATOM     72  F   UNL     1       2.992  -6.560  13.829  1.00  0.00    -0.206 F 
ATOM     73  C   UNL     1       4.956  -3.975  15.437  1.00  0.00     0.006 A 
ENDBRANCH  52  66
BRANCH  53  74
ATOM     74  C   UNL     1      -7.024  -5.928  11.410  1.00  0.00     0.057 A 
ATOM     75  C   UNL     1      -8.131  -5.586  12.195  1.00  0.00     0.134 A 
ATOM     76  C   UNL     1      -7.273  -6.537  10.173  1.00  0.00     0.134 A 
ATOM     77  F   UNL     1      -7.956  -5.024  13.400  1.00  0.00    -0.206 F 
ATOM     78  C   UNL     1      -9.435  -5.857  11.777  1.00  0.00     0.040 A 
ATOM     79  C   UNL     1      -8.572  -6.790   9.732  1.00  0.00     0.040 A 
ATOM     80  F   UNL     1      -6.254  -6.890   9.375  1.00  0.00    -0.206 F 
ATOM     81  C   UNL     1      -9.658  -6.457  10.539  1.00  0.00     0.006 A 
ENDBRANCH  53  74
BRANCH  65  82
ATOM     82  C   UNL     1      -3.227  -8.668  16.553  1.00  0.00     0.057 A 
ATOM     83  C   UNL     1      -3.357 -10.025  16.227  1.00  0.00     0.134 A 
ATOM     84  C   UNL     1      -3.379  -8.311  17.899  1.00  0.00     0.134 A 
ATOM     85  F   UNL     1      -3.235 -10.433  14.955  1.00  0.00    -0.206 F 
ATOM     86  C   UNL     1      -3.658 -10.983  17.197  1.00  0.00     0.040 A 
ATOM     87  C   UNL     1      -3.653  -9.264  18.882  1.00  0.00     0.040 A 
ATOM     88  F   UNL     1      -3.258  -7.031  18.283  1.00  0.00    -0.206 F 
ATOM     89  C   UNL     1      -3.802 -10.603  18.530  1.00  0.00     0.006 A 
ENDBRANCH  65  82
ENDBRANCH  39  40
ENDBRANCH  32  34
ENDBRANCH  31  32
ENDBRANCH  30  31
ENDBRANCH  29  30
ENDBRANCH  28  29
ENDBRANCH   1  28
TORSDOF 18
