REMARK SMILES CC(C)CN(C)c1cc2c(cc1Cl)C=C(C(=O)OCCOCCOC(=O)c1ccc(-c3c4nc(c(-c5c(F)cccc5F)c5ccc([nH]5)c(-c5c(F)cccc5F)c5nc(c(-c6c(F)cccc6F)c6ccc3[nH]6)C=C5)C=C4)cc1)[C@H](C(F)(F)F)O2
REMARK SMILES IDX 20 1 19 2 18 3 16 4 17 5 15 6 7 7 8 8 12 9 9 10 11 11 13 12
REMARK SMILES IDX 10 13 86 14 14 15 81 16 5 17 6 18 4 19 2 20 1 21 3 22 82 23
REMARK SMILES IDX 83 24 84 25 85 26 21 27 22 28 23 29 24 30 25 31 26 32 27 33
REMARK SMILES IDX 28 34 80 35 29 36 79 37 30 38 31 39 32 40 73 41 33 42 78 43
REMARK SMILES IDX 72 44 74 45 34 46 77 47 71 48 70 49 35 51 61 52 44 53 60 54
REMARK SMILES IDX 45 55 48 56 59 57 75 58 46 59 47 60 58 62 76 63 49 64 36 65
REMARK SMILES IDX 37 66 42 67 38 68 39 69 41 70 43 71 40 72 62 73 63 74 68 75
REMARK SMILES IDX 64 76 65 77 67 78 69 79 66 80 50 81 51 82 56 83 52 84 53 85
REMARK SMILES IDX 55 86 57 87 54 88
REMARK H PARENT 74 50 48 61
REMARK Flexibility Score: inf
ROOT
ATOM      1  C   UNL     1      -0.675   2.205   9.729  1.00  0.00     0.202 C 
ENDROOT
BRANCH   1   2
ATOM      2  C   UNL     1      -0.927   3.528   9.007  1.00  0.00     0.261 C 
BRANCH   2   3
ATOM      3  O   UNL     1      -1.520   3.282   7.719  1.00  0.00    -0.460 OA
BRANCH   3   4
ATOM      4  C   UNL     1      -0.701   3.523   6.681  1.00  0.00     0.338 C 
ATOM      5  O   UNL     1       0.349   4.148   6.741  1.00  0.00    -0.246 OA
BRANCH   4   6
ATOM      6  C   UNL     1      -1.167   2.852   5.448  1.00  0.00     0.087 C 
ATOM      7  C   UNL     1      -1.004   1.739   0.535  1.00  0.00     0.059 A 
ATOM      8  C   UNL     1      -2.033   1.759   1.503  1.00  0.00     0.074 A 
ATOM      9  C   UNL     1       0.290   2.096   0.965  1.00  0.00     0.065 A 
ATOM     10  C   UNL     1      -1.769   2.077   2.841  1.00  0.00     0.130 A 
ATOM     11  C   UNL     1       0.574   2.275   2.315  1.00  0.00     0.034 A 
ATOM     12  Cl  UNL     1       1.582   2.459  -0.129  1.00  0.00    -0.082 Cl
ATOM     13  C   UNL     1      -0.457   2.264   3.249  1.00  0.00     0.019 A 
ATOM     14  O   UNL     1      -2.838   2.241   3.678  1.00  0.00    -0.475 OA
ATOM     15  C   UNL     1      -0.151   2.602   4.615  1.00  0.00     0.027 C 
ATOM     16  C   UNL     1      -2.615   2.626   5.081  1.00  0.00     0.316 C 
BRANCH   7  17
ATOM     17  N   UNL     1      -1.266   1.391  -0.796  1.00  0.00    -0.373 N 
ATOM     18  C   UNL     1      -2.315   2.155  -1.464  1.00  0.00     0.143 C 
BRANCH  17  19
ATOM     19  C   UNL     1      -1.105  -0.029  -1.189  1.00  0.00     0.119 C 
BRANCH  19  20
ATOM     20  C   UNL     1       0.371  -0.454  -1.354  1.00  0.00     0.002 C 
ATOM     21  C   UNL     1       0.947  -1.073  -0.075  1.00  0.00     0.009 C 
ATOM     22  C   UNL     1       0.560  -1.448  -2.503  1.00  0.00     0.009 C 
ENDBRANCH  19  20
ENDBRANCH  17  19
ENDBRANCH   7  17
BRANCH  16  23
ATOM     23  C   UNL     1      -3.367   1.574   5.926  1.00  0.00     0.430 C 
ATOM     24  F   UNL     1      -2.781   0.355   5.851  1.00  0.00    -0.167 F 
ATOM     25  F   UNL     1      -3.464   1.897   7.232  1.00  0.00    -0.167 F 
ATOM     26  F   UNL     1      -4.644   1.429   5.485  1.00  0.00    -0.167 F 
ENDBRANCH  16  23
ENDBRANCH   4   6
ENDBRANCH   3   4
ENDBRANCH   2   3
ENDBRANCH   1   2
BRANCH   1  27
ATOM     27  O   UNL     1       0.270   1.326   9.120  1.00  0.00    -0.374 OA
BRANCH  27  28
ATOM     28  C   UNL     1      -0.210   0.455   8.091  1.00  0.00     0.202 C 
BRANCH  28  29
ATOM     29  C   UNL     1      -1.009  -0.776   8.539  1.00  0.00     0.261 C 
BRANCH  29  30
ATOM     30  O   UNL     1      -2.308  -0.410   9.037  1.00  0.00    -0.460 OA
BRANCH  30  31
ATOM     31  C   UNL     1      -2.463  -0.497  10.380  1.00  0.00     0.338 C 
ATOM     32  O   UNL     1      -1.663  -0.947  11.187  1.00  0.00    -0.246 OA
BRANCH  31  33
ATOM     33  C   UNL     1      -3.670   0.257  10.780  1.00  0.00     0.060 A 
ATOM     34  C   UNL     1      -4.887   0.111  10.113  1.00  0.00     0.016 A 
ATOM     35  C   UNL     1      -3.560   1.140  11.864  1.00  0.00     0.016 A 
ATOM     36  C   UNL     1      -6.005   0.821  10.562  1.00  0.00     0.010 A 
ATOM     37  C   UNL     1      -4.676   1.847  12.311  1.00  0.00     0.010 A 
ATOM     38  C   UNL     1      -5.915   1.673  11.679  1.00  0.00    -0.014 A 
BRANCH  38  39
ATOM     39  C   UNL     1      -7.144   2.259  12.270  1.00  0.00     0.031 A 
ATOM     40  C   UNL     1      -7.464   3.720  12.151  1.00  0.00     0.074 A 
ATOM     41  C   UNL     1      -7.968   1.445  12.957  1.00  0.00     0.049 A 
ATOM     42  N   UNL     1      -8.531   4.364  12.555  1.00  0.00    -0.248 NA
ATOM     43  C   UNL     1      -6.455   4.572  11.506  1.00  0.00     0.031 C 
ATOM     44  C   UNL     1      -7.737   0.018  13.191  1.00  0.00     0.029 A 
ATOM     45  N   UNL     1      -9.163   1.696  13.582  1.00  0.00    -0.354 N 
ATOM     46  C   UNL     1      -8.333   5.692  12.204  1.00  0.00     0.074 A 
ATOM     47  C   UNL     1      -7.020   5.770  11.594  1.00  0.00     0.031 C 
ATOM     48  C   UNL     1      -8.773  -0.487  13.880  1.00  0.00     0.029 A 
ATOM     49  C   UNL     1      -9.722   0.583  14.163  1.00  0.00     0.049 A 
ATOM     50  H   UNL     1      -9.581   2.587  13.610  1.00  0.00     0.167 HD
ATOM     51  C   UNL     1      -9.174   6.744  12.365  1.00  0.00     0.037 A 
ATOM     52  C   UNL     1     -10.871   0.442  14.850  1.00  0.00     0.037 A 
ATOM     53  C   UNL     1     -10.472   6.664  12.990  1.00  0.00     0.049 A 
ATOM     54  C   UNL     1     -11.759   1.639  15.049  1.00  0.00     0.074 A 
ATOM     55  C   UNL     1     -11.421   7.662  13.139  1.00  0.00     0.029 A 
ATOM     56  N   UNL     1     -10.994   5.529  13.593  1.00  0.00    -0.354 N 
ATOM     57  N   UNL     1     -11.613   2.864  14.608  1.00  0.00    -0.248 NA
ATOM     58  C   UNL     1     -12.980   1.427  15.838  1.00  0.00     0.031 C 
ATOM     59  C   UNL     1     -12.486   7.149  13.888  1.00  0.00     0.029 A 
ATOM     60  C   UNL     1     -12.232   5.814  14.152  1.00  0.00     0.049 A 
ATOM     61  H   UNL     1     -10.551   4.650  13.621  1.00  0.00     0.167 HD
ATOM     62  C   UNL     1     -12.736   3.559  15.040  1.00  0.00     0.074 A 
ATOM     63  C   UNL     1     -13.565   2.611  15.753  1.00  0.00     0.031 C 
ATOM     64  C   UNL     1     -13.051   4.866  14.864  1.00  0.00     0.037 A 
BRANCH  51  65
ATOM     65  C   UNL     1      -8.717   8.085  11.864  1.00  0.00     0.057 A 
ATOM     66  C   UNL     1      -8.441   9.128  12.759  1.00  0.00     0.134 A 
ATOM     67  C   UNL     1      -8.611   8.366  10.495  1.00  0.00     0.134 A 
ATOM     68  F   UNL     1      -8.536   8.933  14.083  1.00  0.00    -0.206 F 
ATOM     69  C   UNL     1      -8.079  10.399  12.311  1.00  0.00     0.040 A 
ATOM     70  C   UNL     1      -8.224   9.627  10.036  1.00  0.00     0.040 A 
ATOM     71  F   UNL     1      -8.857   7.413   9.584  1.00  0.00    -0.206 F 
ATOM     72  C   UNL     1      -7.964  10.650  10.945  1.00  0.00     0.006 A 
ENDBRANCH  51  65
BRANCH  52  73
ATOM     73  C   UNL     1     -11.262  -0.879  15.402  1.00  0.00     0.057 A 
ATOM     74  C   UNL     1     -10.555  -1.468  16.457  1.00  0.00     0.134 A 
ATOM     75  C   UNL     1     -12.393  -1.555  14.928  1.00  0.00     0.134 A 
ATOM     76  F   UNL     1      -9.458  -0.877  16.951  1.00  0.00    -0.206 F 
ATOM     77  C   UNL     1     -10.964  -2.674  17.027  1.00  0.00     0.040 A 
ATOM     78  C   UNL     1     -12.832  -2.745  15.510  1.00  0.00     0.040 A 
ATOM     79  F   UNL     1     -13.123  -1.032  13.930  1.00  0.00    -0.206 F 
ATOM     80  C   UNL     1     -12.116  -3.308  16.564  1.00  0.00     0.006 A 
ENDBRANCH  52  73
BRANCH  64  81
ATOM     81  C   UNL     1     -14.364   5.332  15.427  1.00  0.00     0.057 A 
ATOM     82  C   UNL     1     -15.419   5.690  14.577  1.00  0.00     0.134 A 
ATOM     83  C   UNL     1     -14.592   5.420  16.808  1.00  0.00     0.134 A 
ATOM     84  F   UNL     1     -15.270   5.637  13.245  1.00  0.00    -0.206 F 
ATOM     85  C   UNL     1     -16.651   6.113  15.079  1.00  0.00     0.040 A 
ATOM     86  C   UNL     1     -15.831   5.809  17.321  1.00  0.00     0.040 A 
ATOM     87  F   UNL     1     -13.631   5.077  17.679  1.00  0.00    -0.206 F 
ATOM     88  C   UNL     1     -16.864   6.162  16.455  1.00  0.00     0.006 A 
ENDBRANCH  64  81
ENDBRANCH  38  39
ENDBRANCH  31  33
ENDBRANCH  30  31
ENDBRANCH  29  30
ENDBRANCH  28  29
ENDBRANCH  27  28
ENDBRANCH   1  27
TORSDOF 18
