REMARK SMILES Cc1c(-c2nn(-c3ccccc3)cc2/C=N/O)nnn1-c1ccc(C(=O)OCCOCCOC(=O)c2ccc(-c3c4nc(c(-c5c(F)cccc5F)c5ccc([nH]5)c(-c5c(F)cccc5F)c5nc(c(-c6c(F)cccc6F)c6ccc3[nH]6)C=C5)C=C4)cc2)cc1
REMARK SMILES IDX 29 1 28 2 27 3 25 4 26 5 24 6 21 7 22 8 91 9 23 10 90 11
REMARK SMILES IDX 20 12 1 13 2 14 3 15 18 16 19 17 4 18 5 19 14 20 6 21 13 22
REMARK SMILES IDX 15 23 16 24 17 25 7 27 8 28 12 29 9 30 11 31 10 32 30 33
REMARK SMILES IDX 31 34 32 35 33 36 34 37 35 38 36 39 37 40 89 41 38 42 88 43
REMARK SMILES IDX 39 44 40 45 41 46 82 47 42 48 87 49 81 50 83 51 43 52 86 53
REMARK SMILES IDX 80 54 79 55 44 57 70 58 53 59 69 60 54 61 57 62 68 63 84 64
REMARK SMILES IDX 55 65 56 66 67 68 85 69 58 70 45 71 46 72 51 73 47 74 48 75
REMARK SMILES IDX 50 76 52 77 49 78 71 79 72 80 77 81 73 82 74 83 76 84 78 85
REMARK SMILES IDX 75 86 59 87 60 88 65 89 61 90 62 91 64 92 66 93 63 94
REMARK H PARENT 17 26 83 56 57 67
REMARK Flexibility Score: inf
ROOT
ATOM      1  C   UNL     1       4.296   8.148   2.547  1.00  0.00     0.202 C 
ENDROOT
BRANCH   1   2
ATOM      2  C   UNL     1       3.950   6.800   3.183  1.00  0.00     0.261 C 
BRANCH   2   3
ATOM      3  O   UNL     1       3.611   5.787   2.221  1.00  0.00    -0.460 OA
BRANCH   3   4
ATOM      4  C   UNL     1       2.297   5.449   2.225  1.00  0.00     0.338 C 
ATOM      5  O   UNL     1       1.427   5.893   2.955  1.00  0.00    -0.246 OA
BRANCH   4   6
ATOM      6  C   UNL     1       1.981   4.561   1.090  1.00  0.00     0.060 A 
ATOM      7  C   UNL     1       1.073   2.765  -0.834  1.00  0.00     0.067 A 
ATOM      8  C   UNL     1       0.381   3.963  -0.629  1.00  0.00     0.029 A 
ATOM      9  C   UNL     1       2.277   2.518  -0.154  1.00  0.00     0.029 A 
ATOM     10  C   UNL     1       0.819   4.841   0.359  1.00  0.00     0.018 A 
ATOM     11  C   UNL     1       2.745   3.430   0.798  1.00  0.00     0.018 A 
BRANCH   7  12
ATOM     12  N   UNL     1       0.488   1.786  -1.674  1.00  0.00    -0.217 N 
ATOM     13  C   UNL     1       0.877  -0.312  -0.282  1.00  0.00     0.069 C 
ATOM     14  C   UNL     1       0.431   0.414  -1.494  1.00  0.00     0.071 A 
ATOM     15  C   UNL     1      -0.243  -0.025  -2.618  1.00  0.00     0.137 A 
ATOM     16  N   UNL     1      -0.631   1.035  -3.381  1.00  0.00    -0.128 NA
ATOM     17  N   UNL     1      -0.237   2.142  -2.764  1.00  0.00    -0.061 NA
BRANCH  15  18
ATOM     18  C   UNL     1      -0.602  -1.394  -2.971  1.00  0.00     0.124 A 
ATOM     19  N   UNL     1      -1.607  -2.046  -2.372  1.00  0.00    -0.165 NA
ATOM     20  C   UNL     1       0.093  -2.203  -3.900  1.00  0.00     0.044 A 
ATOM     21  N   UNL     1      -1.489  -3.317  -2.813  1.00  0.00    -0.240 N 
ATOM     22  C   UNL     1      -0.473  -3.452  -3.731  1.00  0.00     0.125 A 
BRANCH  20  23
ATOM     23  C   UNL     1       1.154  -1.900  -4.826  1.00  0.00     0.166 C 
ATOM     24  N   UNL     1       1.692  -0.727  -4.834  1.00  0.00    -0.097 NA
BRANCH  24  25
ATOM     25  O   UNL     1       2.659  -0.667  -5.845  1.00  0.00    -0.411 OA
ATOM     26  H   UNL     1       3.145   0.122  -5.982  1.00  0.00     0.330 HD
ENDBRANCH  24  25
ENDBRANCH  20  23
BRANCH  21  27
ATOM     27  C   UNL     1      -2.317  -4.345  -2.308  1.00  0.00     0.065 A 
ATOM     28  C   UNL     1      -3.664  -4.075  -2.041  1.00  0.00     0.028 A 
ATOM     29  C   UNL     1      -1.785  -5.617  -2.062  1.00  0.00     0.028 A 
ATOM     30  C   UNL     1      -4.487  -5.093  -1.559  1.00  0.00     0.002 A 
ATOM     31  C   UNL     1      -2.604  -6.612  -1.524  1.00  0.00     0.002 A 
ATOM     32  C   UNL     1      -3.955  -6.354  -1.287  1.00  0.00     0.000 A 
ENDBRANCH  21  27
ENDBRANCH  15  18
ENDBRANCH   7  12
ENDBRANCH   4   6
ENDBRANCH   3   4
ENDBRANCH   2   3
ENDBRANCH   1   2
BRANCH   1  33
ATOM     33  O   UNL     1       3.312   8.840   1.781  1.00  0.00    -0.374 OA
BRANCH  33  34
ATOM     34  C   UNL     1       2.806   8.292   0.568  1.00  0.00     0.202 C 
BRANCH  34  35
ATOM     35  C   UNL     1       3.713   8.251  -0.655  1.00  0.00     0.261 C 
BRANCH  35  36
ATOM     36  O   UNL     1       4.906   7.538  -0.386  1.00  0.00    -0.460 OA
BRANCH  36  37
ATOM     37  C   UNL     1       5.955   8.333  -0.071  1.00  0.00     0.338 C 
ATOM     38  O   UNL     1       5.955   9.540   0.066  1.00  0.00    -0.246 OA
BRANCH  37  39
ATOM     39  C   UNL     1       7.165   7.500  -0.020  1.00  0.00     0.060 A 
ATOM     40  C   UNL     1       8.356   8.223   0.051  1.00  0.00     0.016 A 
ATOM     41  C   UNL     1       7.103   6.188  -0.508  1.00  0.00     0.016 A 
ATOM     42  C   UNL     1       9.392   7.793  -0.735  1.00  0.00     0.010 A 
ATOM     43  C   UNL     1       8.137   5.761  -1.295  1.00  0.00     0.010 A 
ATOM     44  C   UNL     1       9.193   6.642  -1.500  1.00  0.00    -0.014 A 
BRANCH  44  45
ATOM     45  C   UNL     1      10.116   6.380  -2.572  1.00  0.00     0.031 A 
ATOM     46  C   UNL     1      11.374   5.788  -2.101  1.00  0.00     0.074 A 
ATOM     47  C   UNL     1       9.790   6.603  -3.857  1.00  0.00     0.049 A 
ATOM     48  N   UNL     1      12.520   6.372  -2.017  1.00  0.00    -0.248 NA
ATOM     49  C   UNL     1      11.301   4.479  -1.438  1.00  0.00     0.031 C 
ATOM     50  C   UNL     1       8.500   6.979  -4.441  1.00  0.00     0.029 A 
ATOM     51  N   UNL     1      10.585   6.435  -4.944  1.00  0.00    -0.354 N 
ATOM     52  C   UNL     1      13.369   5.424  -1.467  1.00  0.00     0.074 A 
ATOM     53  C   UNL     1      12.531   4.383  -0.933  1.00  0.00     0.031 C 
ATOM     54  C   UNL     1       8.547   6.785  -5.780  1.00  0.00     0.029 A 
ATOM     55  C   UNL     1       9.895   6.391  -6.149  1.00  0.00     0.049 A 
ATOM     56  H   UNL     1      11.564   6.351  -4.885  1.00  0.00     0.167 HD
ATOM     57  C   UNL     1      14.703   5.444  -1.722  1.00  0.00     0.037 A 
ATOM     58  C   UNL     1      10.422   5.934  -7.312  1.00  0.00     0.037 A 
ATOM     59  C   UNL     1      15.111   6.699  -2.300  1.00  0.00     0.049 A 
ATOM     60  C   UNL     1      11.907   6.035  -7.181  1.00  0.00     0.074 A 
ATOM     61  C   UNL     1      15.104   8.009  -1.863  1.00  0.00     0.029 A 
ATOM     62  N   UNL     1      15.236   6.757  -3.668  1.00  0.00    -0.354 N 
ATOM     63  N   UNL     1      12.537   7.179  -7.107  1.00  0.00    -0.248 NA
ATOM     64  C   UNL     1      12.620   4.900  -6.605  1.00  0.00     0.031 C 
ATOM     65  C   UNL     1      14.749   8.780  -3.008  1.00  0.00     0.029 A 
ATOM     66  C   UNL     1      14.620   7.908  -4.091  1.00  0.00     0.049 A 
ATOM     67  H   UNL     1      15.686   6.093  -4.240  1.00  0.00     0.167 HD
ATOM     68  C   UNL     1      13.503   6.997  -6.124  1.00  0.00     0.074 A 
ATOM     69  C   UNL     1      13.549   5.553  -5.897  1.00  0.00     0.031 C 
ATOM     70  C   UNL     1      13.953   8.042  -5.366  1.00  0.00     0.037 A 
BRANCH  57  71
ATOM     71  C   UNL     1      15.552   4.209  -1.793  1.00  0.00     0.057 A 
ATOM     72  C   UNL     1      16.948   4.343  -1.824  1.00  0.00     0.134 A 
ATOM     73  C   UNL     1      15.058   2.925  -2.106  1.00  0.00     0.134 A 
ATOM     74  F   UNL     1      17.532   5.521  -1.557  1.00  0.00    -0.206 F 
ATOM     75  C   UNL     1      17.787   3.292  -2.207  1.00  0.00     0.040 A 
ATOM     76  C   UNL     1      15.889   1.855  -2.433  1.00  0.00     0.040 A 
ATOM     77  F   UNL     1      13.750   2.663  -2.217  1.00  0.00    -0.206 F 
ATOM     78  C   UNL     1      17.258   2.045  -2.518  1.00  0.00     0.006 A 
ENDBRANCH  57  71
BRANCH  58  79
ATOM     79  C   UNL     1       9.740   5.095  -8.326  1.00  0.00     0.057 A 
ATOM     80  C   UNL     1      10.287   4.884  -9.598  1.00  0.00     0.134 A 
ATOM     81  C   UNL     1       8.644   4.276  -7.989  1.00  0.00     0.134 A 
ATOM     82  F   UNL     1      11.365   5.575  -9.997  1.00  0.00    -0.206 F 
ATOM     83  C   UNL     1       9.779   3.917 -10.479  1.00  0.00     0.040 A 
ATOM     84  C   UNL     1       8.122   3.315  -8.860  1.00  0.00     0.040 A 
ATOM     85  F   UNL     1       8.091   4.319  -6.769  1.00  0.00    -0.206 F 
ATOM     86  C   UNL     1       8.696   3.124 -10.108  1.00  0.00     0.006 A 
ENDBRANCH  58  79
BRANCH  70  87
ATOM     87  C   UNL     1      13.503   9.427  -5.747  1.00  0.00     0.057 A 
ATOM     88  C   UNL     1      12.169   9.857  -5.672  1.00  0.00     0.134 A 
ATOM     89  C   UNL     1      14.462  10.404  -6.030  1.00  0.00     0.134 A 
ATOM     90  F   UNL     1      11.196   9.021  -5.292  1.00  0.00    -0.206 F 
ATOM     91  C   UNL     1      11.799  11.182  -5.917  1.00  0.00     0.040 A 
ATOM     92  C   UNL     1      14.111  11.740  -6.245  1.00  0.00     0.040 A 
ATOM     93  F   UNL     1      15.765  10.085  -6.048  1.00  0.00    -0.206 F 
ATOM     94  C   UNL     1      12.775  12.131  -6.200  1.00  0.00     0.006 A 
ENDBRANCH  70  87
ENDBRANCH  44  45
ENDBRANCH  37  39
ENDBRANCH  36  37
ENDBRANCH  35  36
ENDBRANCH  34  35
ENDBRANCH  33  34
ENDBRANCH   1  33
TORSDOF 19
