REMARK SMILES O=C(OCCOCCOC(=O)[C@H]1CC[C@@H]2CCCC[C@@H]2N1C(=O)Cc1ccn[nH]1)c1ccc(-c2c3nc(c(-c4c(F)cccc4F)c4ccc([nH]4)c(-c4c(F)cccc4F)c4nc(c(-c5c(F)cccc5F)c5ccc2[nH]5)C=C4)C=C3)cc1
REMARK SMILES IDX 7 1 6 2 5 3 4 4 3 5 2 6 1 7 30 8 31 9 83 10 32 11 82 12
REMARK SMILES IDX 33 13 34 14 35 15 76 16 36 17 81 18 75 19 77 20 37 21 80 22
REMARK SMILES IDX 74 23 73 24 38 26 64 27 47 28 63 29 48 30 51 31 62 32 78 33
REMARK SMILES IDX 49 34 50 35 61 37 79 38 52 39 39 40 40 41 45 42 41 43 42 44
REMARK SMILES IDX 44 45 46 46 43 47 65 48 66 49 71 50 67 51 68 52 70 53 72 54
REMARK SMILES IDX 69 55 53 56 54 57 59 58 55 59 56 60 58 61 60 62 57 63 8 64
REMARK SMILES IDX 9 65 10 66 11 67 12 68 13 69 21 70 14 71 20 72 15 73 19 74
REMARK SMILES IDX 16 75 18 76 17 77 22 78 23 79 24 80 25 81 26 82 29 83 27 84
REMARK SMILES IDX 28 85
REMARK H PARENT 77 25 51 36 29 86
REMARK Flexibility Score: inf
ROOT
ATOM      1  C   UNL     1       4.070   4.155   1.539  1.00  0.00     0.202 C 
ENDROOT
BRANCH   1   2
ATOM      2  O   UNL     1       3.418   2.879   1.502  1.00  0.00    -0.374 OA
BRANCH   2   3
ATOM      3  C   UNL     1       4.003   1.871   0.685  1.00  0.00     0.202 C 
BRANCH   3   4
ATOM      4  C   UNL     1       3.558   1.924  -0.777  1.00  0.00     0.261 C 
BRANCH   4   5
ATOM      5  O   UNL     1       3.842   3.209  -1.347  1.00  0.00    -0.460 OA
BRANCH   5   6
ATOM      6  C   UNL     1       3.020   4.280  -1.438  1.00  0.00     0.338 C 
ATOM      7  O   UNL     1       3.475   5.322  -1.909  1.00  0.00    -0.246 OA
BRANCH   6   8
ATOM      8  C   UNL     1       1.597   4.301  -0.967  1.00  0.00     0.060 A 
ATOM      9  C   UNL     1       1.059   3.486   0.033  1.00  0.00     0.016 A 
ATOM     10  C   UNL     1       0.775   5.310  -1.496  1.00  0.00     0.016 A 
ATOM     11  C   UNL     1      -0.217   3.672   0.525  1.00  0.00     0.010 A 
ATOM     12  C   UNL     1      -0.529   5.491  -1.031  1.00  0.00     0.010 A 
ATOM     13  C   UNL     1      -1.016   4.668  -0.013  1.00  0.00    -0.014 A 
BRANCH  13  14
ATOM     14  C   UNL     1      -2.416   4.677   0.414  1.00  0.00     0.031 A 
ATOM     15  C   UNL     1      -3.395   3.953  -0.450  1.00  0.00     0.074 A 
ATOM     16  C   UNL     1      -2.735   5.161   1.626  1.00  0.00     0.049 A 
ATOM     17  N   UNL     1      -4.689   3.870  -0.339  1.00  0.00    -0.248 NA
ATOM     18  C   UNL     1      -2.834   3.197  -1.587  1.00  0.00     0.031 C 
ATOM     19  C   UNL     1      -1.781   5.705   2.597  1.00  0.00     0.029 A 
ATOM     20  N   UNL     1      -3.943   5.251   2.258  1.00  0.00    -0.354 N 
ATOM     21  C   UNL     1      -5.101   3.093  -1.412  1.00  0.00     0.074 A 
ATOM     22  C   UNL     1      -3.924   2.702  -2.150  1.00  0.00     0.031 C 
ATOM     23  C   UNL     1      -2.447   6.084   3.700  1.00  0.00     0.029 A 
ATOM     24  C   UNL     1      -3.873   5.879   3.478  1.00  0.00     0.049 A 
ATOM     25  H   UNL     1      -4.780   4.900   1.877  1.00  0.00     0.167 HD
ATOM     26  C   UNL     1      -6.367   2.768  -1.750  1.00  0.00     0.037 A 
ATOM     27  C   UNL     1      -4.872   6.293   4.277  1.00  0.00     0.037 A 
ATOM     28  C   UNL     1      -7.503   3.185  -0.978  1.00  0.00     0.049 A 
ATOM     29  C   UNL     1      -6.280   6.027   3.809  1.00  0.00     0.074 A 
ATOM     30  C   UNL     1      -8.844   2.986  -1.233  1.00  0.00     0.029 A 
ATOM     31  N   UNL     1      -7.413   3.899   0.211  1.00  0.00    -0.354 N 
ATOM     32  N   UNL     1      -6.687   5.359   2.753  1.00  0.00    -0.248 NA
ATOM     33  C   UNL     1      -7.365   6.591   4.618  1.00  0.00     0.031 C 
ATOM     34  C   UNL     1      -9.569   3.631  -0.226  1.00  0.00     0.029 A 
ATOM     35  C   UNL     1      -8.678   4.180   0.687  1.00  0.00     0.049 A 
ATOM     36  H   UNL     1      -6.573   4.164   0.649  1.00  0.00     0.167 HD
ATOM     37  C   UNL     1      -8.073   5.412   2.776  1.00  0.00     0.074 A 
ATOM     38  C   UNL     1      -8.435   6.152   3.971  1.00  0.00     0.031 C 
ATOM     39  C   UNL     1      -8.973   4.913   1.893  1.00  0.00     0.037 A 
BRANCH  26  40
ATOM     40  C   UNL     1      -6.570   2.037  -3.040  1.00  0.00     0.057 A 
ATOM     41  C   UNL     1      -6.249   0.684  -3.201  1.00  0.00     0.134 A 
ATOM     42  C   UNL     1      -7.080   2.718  -4.153  1.00  0.00     0.134 A 
ATOM     43  F   UNL     1      -5.718  -0.015  -2.186  1.00  0.00    -0.206 F 
ATOM     44  C   UNL     1      -6.420   0.036  -4.427  1.00  0.00     0.040 A 
ATOM     45  C   UNL     1      -7.276   2.077  -5.377  1.00  0.00     0.040 A 
ATOM     46  F   UNL     1      -7.387   4.021  -4.072  1.00  0.00    -0.206 F 
ATOM     47  C   UNL     1      -6.942   0.732  -5.517  1.00  0.00     0.006 A 
ENDBRANCH  26  40
BRANCH  27  48
ATOM     48  C   UNL     1      -4.599   7.082   5.509  1.00  0.00     0.057 A 
ATOM     49  C   UNL     1      -5.002   6.637   6.773  1.00  0.00     0.134 A 
ATOM     50  C   UNL     1      -3.983   8.341   5.445  1.00  0.00     0.134 A 
ATOM     51  F   UNL     1      -5.614   5.451   6.908  1.00  0.00    -0.206 F 
ATOM     52  C   UNL     1      -4.837   7.423   7.917  1.00  0.00     0.040 A 
ATOM     53  C   UNL     1      -3.781   9.123   6.583  1.00  0.00     0.040 A 
ATOM     54  F   UNL     1      -3.571   8.837   4.269  1.00  0.00    -0.206 F 
ATOM     55  C   UNL     1      -4.223   8.671   7.823  1.00  0.00     0.006 A 
ENDBRANCH  27  48
BRANCH  39  56
ATOM     56  C   UNL     1     -10.419   5.135   2.212  1.00  0.00     0.057 A 
ATOM     57  C   UNL     1     -11.017   6.393   2.074  1.00  0.00     0.134 A 
ATOM     58  C   UNL     1     -11.230   4.062   2.598  1.00  0.00     0.134 A 
ATOM     59  F   UNL     1     -10.284   7.460   1.720  1.00  0.00    -0.206 F 
ATOM     60  C   UNL     1     -12.374   6.580   2.329  1.00  0.00     0.040 A 
ATOM     61  C   UNL     1     -12.595   4.230   2.824  1.00  0.00     0.040 A 
ATOM     62  F   UNL     1     -10.714   2.830   2.735  1.00  0.00    -0.206 F 
ATOM     63  C   UNL     1     -13.168   5.494   2.694  1.00  0.00     0.006 A 
ENDBRANCH  39  56
ENDBRANCH  13  14
ENDBRANCH   6   8
ENDBRANCH   5   6
ENDBRANCH   4   5
ENDBRANCH   3   4
ENDBRANCH   2   3
ENDBRANCH   1   2
BRANCH   1  64
ATOM     64  C   UNL     1       4.134   4.585   2.993  1.00  0.00     0.261 C 
BRANCH  64  65
ATOM     65  O   UNL     1       4.871   3.556   3.651  1.00  0.00    -0.462 OA
BRANCH  65  66
ATOM     66  C   UNL     1       4.131   2.514   4.116  1.00  0.00     0.328 C 
ATOM     67  O   UNL     1       2.926   2.520   4.319  1.00  0.00    -0.250 OA
BRANCH  66  68
ATOM     68  C   UNL     1       5.038   1.321   4.379  1.00  0.00     0.195 C 
ATOM     69  C   UNL     1       6.421   1.373   3.703  1.00  0.00     0.037 C 
ATOM     70  N   UNL     1       5.126   0.788   5.756  1.00  0.00    -0.325 N 
ATOM     71  C   UNL     1       7.109   0.009   3.764  1.00  0.00     0.008 C 
ATOM     72  C   UNL     1       5.721  -0.571   5.824  1.00  0.00     0.089 C 
ATOM     73  C   UNL     1       7.131  -0.530   5.204  1.00  0.00     0.012 C 
ATOM     74  C   UNL     1       4.812  -1.664   5.228  1.00  0.00     0.025 C 
ATOM     75  C   UNL     1       7.766  -1.913   5.306  1.00  0.00     0.006 C 
ATOM     76  C   UNL     1       5.485  -2.954   4.741  1.00  0.00     0.002 C 
ATOM     77  C   UNL     1       6.996  -2.960   4.519  1.00  0.00     0.000 C 
BRANCH  70  78
ATOM     78  C   UNL     1       5.144   1.551   6.933  1.00  0.00     0.229 C 
ATOM     79  O   UNL     1       5.549   1.061   7.996  1.00  0.00    -0.274 OA
BRANCH  78  80
ATOM     80  C   UNL     1       4.580   2.973   6.993  1.00  0.00     0.155 C 
BRANCH  80  81
ATOM     81  C   UNL     1       5.491   4.030   6.463  1.00  0.00     0.044 A 
ATOM     82  C   UNL     1       6.809   4.048   6.058  1.00  0.00     0.045 A 
ATOM     83  N   UNL     1       5.039   5.311   6.255  1.00  0.00    -0.282 N 
ATOM     84  C   UNL     1       7.003   5.325   5.499  1.00  0.00     0.135 A 
ATOM     85  N   UNL     1       5.925   6.101   5.626  1.00  0.00    -0.184 NA
ATOM     86  H   UNL     1       4.149   5.620   6.540  1.00  0.00     0.190 HD
ENDBRANCH  80  81
ENDBRANCH  78  80
ENDBRANCH  70  78
ENDBRANCH  66  68
ENDBRANCH  65  66
ENDBRANCH  64  65
ENDBRANCH   1  64
TORSDOF 17
