REMARK SMILES CC(C)C[C@H](NC(=O)[C@H](C)NC(=O)[C@@H](NC(=O)CNC(=O)OCc1ccccc1)C(C)C)C(=O)OCCOCCOC(=O)c1ccc(-c2c3nc(c(-c4c(F)cccc4F)c4ccc([nH]4)c(-c4c(F)cccc4F)c4nc(c(-c5c(F)cccc5F)c5ccc2[nH]5)C=C4)C=C3)cc1
REMARK SMILES IDX 33 1 34 2 5 3 4 4 2 5 1 6 3 7 6 8 7 9 8 11 9 12 10 13 11 14
REMARK SMILES IDX 12 15 13 17 14 18 15 19 16 20 17 22 18 23 19 24 20 25 21 27
REMARK SMILES IDX 22 28 23 29 24 30 25 31 29 32 26 33 28 34 27 35 30 36 31 37
REMARK SMILES IDX 32 38 35 39 36 40 37 41 38 42 39 43 40 44 41 45 42 46 43 47
REMARK SMILES IDX 44 48 45 49 97 50 46 51 96 52 47 53 48 54 49 55 90 56 50 57
REMARK SMILES IDX 95 58 89 59 91 60 51 61 94 62 88 63 87 64 52 66 78 67 61 68
REMARK SMILES IDX 77 69 62 70 65 71 76 72 92 73 63 74 64 75 75 77 93 78 66 79
REMARK SMILES IDX 53 80 54 81 59 82 55 83 56 84 58 85 60 86 57 87 79 88 80 89
REMARK SMILES IDX 85 90 81 91 82 92 84 93 86 94 83 95 67 96 68 97 73 98 69 99
REMARK SMILES IDX 70 100 72 101 74 102 71 103
REMARK H PARENT 6 10 11 16 15 21 19 26 91 65 65 76
REMARK Flexibility Score: inf
ROOT
ATOM      1  C   UNL     1       0.079  -6.490  -3.307  1.00  0.00     0.328 C 
ATOM      2  O   UNL     1      -0.608  -6.173  -4.290  1.00  0.00    -0.250 OA
ENDROOT
BRANCH   1   3
ATOM      3  C   UNL     1       1.118  -5.318  -2.760  1.00  0.00     0.192 C 
BRANCH   3   4
ATOM      4  C   UNL     1       2.760  -5.175  -2.103  1.00  0.00     0.040 C 
BRANCH   4   5
ATOM      5  C   UNL     1       4.004  -6.201  -1.279  1.00  0.00    -0.015 C 
ATOM      6  C   UNL     1       5.089  -6.838  -2.178  1.00  0.00     0.007 C 
ATOM      7  C   UNL     1       4.857  -5.749  -0.043  1.00  0.00     0.007 C 
ENDBRANCH   4   5
ENDBRANCH   3   4
BRANCH   3   8
ATOM      8  N   UNL     1       0.028  -4.295  -2.474  1.00  0.00    -0.341 N 
ATOM      9  C   UNL     1      -0.278  -3.155  -1.828  1.00  0.00     0.242 C 
ATOM     10  H   UNL     1      -0.779  -4.584  -2.957  1.00  0.00     0.164 HD
ATOM     11  O   UNL     1      -1.370  -2.643  -2.090  1.00  0.00    -0.273 OA
BRANCH   9  12
ATOM     12  C   UNL     1       0.692  -2.490  -0.887  1.00  0.00     0.168 C 
ATOM     13  C   UNL     1      -0.036  -1.718   0.207  1.00  0.00     0.041 C 
BRANCH  12  14
ATOM     14  N   UNL     1       1.538  -1.611  -1.663  1.00  0.00    -0.343 N 
ATOM     15  C   UNL     1       2.878  -1.464  -1.729  1.00  0.00     0.243 C 
ATOM     16  H   UNL     1       1.041  -1.002  -2.257  1.00  0.00     0.164 HD
ATOM     17  O   UNL     1       3.286  -0.608  -2.524  1.00  0.00    -0.273 OA
BRANCH  15  18
ATOM     18  C   UNL     1       3.895  -2.357  -0.963  1.00  0.00     0.174 C 
BRANCH  18  19
ATOM     19  N   UNL     1       3.428  -3.022   0.366  1.00  0.00    -0.343 N 
ATOM     20  C   UNL     1       2.731  -3.956   1.082  1.00  0.00     0.240 C 
ATOM     21  H   UNL     1       3.870  -2.483   1.061  1.00  0.00     0.164 HD
ATOM     22  O   UNL     1       2.798  -3.672   2.301  1.00  0.00    -0.273 OA
BRANCH  20  23
ATOM     23  C   UNL     1       1.889  -5.384   0.787  1.00  0.00     0.219 C 
BRANCH  23  24
ATOM     24  N   UNL     1       1.315  -6.124  -0.411  1.00  0.00    -0.312 N 
ATOM     25  C   UNL     1       1.550  -7.478  -0.777  1.00  0.00     0.407 C 
ATOM     26  H   UNL     1       0.716  -5.609  -0.998  1.00  0.00     0.167 HD
ATOM     27  O   UNL     1       1.261  -8.352   0.038  1.00  0.00    -0.225 OA
BRANCH  25  28
ATOM     28  O   UNL     1       2.050  -7.874  -2.076  1.00  0.00    -0.445 OA
BRANCH  28  29
ATOM     29  C   UNL     1       2.740  -7.658  -3.562  1.00  0.00     0.270 C 
BRANCH  29  30
ATOM     30  C   UNL     1       2.126  -7.954  -4.952  1.00  0.00    -0.011 A 
ATOM     31  C   UNL     1       1.571  -6.970  -5.796  1.00  0.00     0.007 A 
ATOM     32  C   UNL     1       2.129  -9.269  -5.437  1.00  0.00     0.007 A 
ATOM     33  C   UNL     1       0.817  -7.320  -6.926  1.00  0.00     0.000 A 
ATOM     34  C   UNL     1       1.412  -9.617  -6.586  1.00  0.00     0.000 A 
ATOM     35  C   UNL     1       0.708  -8.651  -7.299  1.00  0.00     0.000 A 
ENDBRANCH  29  30
ENDBRANCH  28  29
ENDBRANCH  25  28
ENDBRANCH  23  24
ENDBRANCH  20  23
ENDBRANCH  18  19
BRANCH  18  36
ATOM     36  C   UNL     1       4.937  -3.081  -1.916  1.00  0.00     0.015 C 
ATOM     37  C   UNL     1       4.827  -2.848  -3.438  1.00  0.00     0.010 C 
ATOM     38  C   UNL     1       6.418  -2.983  -1.518  1.00  0.00     0.010 C 
ENDBRANCH  18  36
ENDBRANCH  15  18
ENDBRANCH  12  14
ENDBRANCH   9  12
ENDBRANCH   3   8
ENDBRANCH   1   3
BRANCH   1  39
ATOM     39  O   UNL     1      -0.369  -7.511  -2.505  1.00  0.00    -0.462 OA
BRANCH  39  40
ATOM     40  C   UNL     1      -0.113  -8.911  -2.885  1.00  0.00     0.261 C 
BRANCH  40  41
ATOM     41  C   UNL     1      -1.099  -9.867  -3.539  1.00  0.00     0.202 C 
BRANCH  41  42
ATOM     42  O   UNL     1      -1.731  -9.483  -4.742  1.00  0.00    -0.374 OA
BRANCH  42  43
ATOM     43  C   UNL     1      -2.511  -8.300  -4.668  1.00  0.00     0.202 C 
BRANCH  43  44
ATOM     44  C   UNL     1      -3.993  -8.514  -4.401  1.00  0.00     0.261 C 
BRANCH  44  45
ATOM     45  O   UNL     1      -4.173  -8.670  -2.978  1.00  0.00    -0.460 OA
BRANCH  45  46
ATOM     46  C   UNL     1      -4.113  -9.943  -2.541  1.00  0.00     0.338 C 
ATOM     47  O   UNL     1      -4.233 -10.955  -3.220  1.00  0.00    -0.246 OA
BRANCH  46  48
ATOM     48  C   UNL     1      -3.656  -9.978  -1.130  1.00  0.00     0.060 A 
ATOM     49  C   UNL     1      -2.963 -11.130  -0.718  1.00  0.00     0.016 A 
ATOM     50  C   UNL     1      -3.929  -8.954  -0.218  1.00  0.00     0.016 A 
ATOM     51  C   UNL     1      -2.688 -11.338   0.623  1.00  0.00     0.010 A 
ATOM     52  C   UNL     1      -3.690  -9.176   1.139  1.00  0.00     0.010 A 
ATOM     53  C   UNL     1      -3.171 -10.415   1.555  1.00  0.00    -0.014 A 
BRANCH  53  54
ATOM     54  C   UNL     1      -3.541 -10.956   2.879  1.00  0.00     0.031 A 
ATOM     55  C   UNL     1      -4.933 -11.521   3.017  1.00  0.00     0.074 A 
ATOM     56  C   UNL     1      -2.644 -11.056   3.869  1.00  0.00     0.049 A 
ATOM     57  N   UNL     1      -5.511 -12.085   4.044  1.00  0.00    -0.248 NA
ATOM     58  C   UNL     1      -5.792 -11.447   1.819  1.00  0.00     0.031 C 
ATOM     59  C   UNL     1      -1.250 -10.627   3.795  1.00  0.00     0.029 A 
ATOM     60  N   UNL     1      -2.781 -11.567   5.131  1.00  0.00    -0.354 N 
ATOM     61  C   UNL     1      -6.792 -12.419   3.615  1.00  0.00     0.074 A 
ATOM     62  C   UNL     1      -6.923 -11.973   2.251  1.00  0.00     0.031 C 
ATOM     63  C   UNL     1      -0.656 -10.888   4.973  1.00  0.00     0.029 A 
ATOM     64  C   UNL     1      -1.639 -11.473   5.883  1.00  0.00     0.049 A 
ATOM     65  H   UNL     1      -3.617 -11.964   5.465  1.00  0.00     0.167 HD
ATOM     66  C   UNL     1      -7.774 -13.049   4.299  1.00  0.00     0.037 A 
ATOM     67  C   UNL     1      -1.432 -11.811   7.169  1.00  0.00     0.037 A 
ATOM     68  C   UNL     1      -7.629 -13.479   5.661  1.00  0.00     0.049 A 
ATOM     69  C   UNL     1      -2.566 -12.427   7.945  1.00  0.00     0.074 A 
ATOM     70  C   UNL     1      -8.550 -14.110   6.473  1.00  0.00     0.029 A 
ATOM     71  N   UNL     1      -6.475 -13.306   6.413  1.00  0.00    -0.354 N 
ATOM     72  N   UNL     1      -3.779 -12.729   7.542  1.00  0.00    -0.248 NA
ATOM     73  C   UNL     1      -2.302 -12.754   9.352  1.00  0.00     0.031 C 
ATOM     74  C   UNL     1      -7.971 -14.271   7.736  1.00  0.00     0.029 A 
ATOM     75  C   UNL     1      -6.668 -13.795   7.691  1.00  0.00     0.049 A 
ATOM     76  H   UNL     1      -5.642 -12.895   6.085  1.00  0.00     0.167 HD
ATOM     77  C   UNL     1      -4.413 -13.308   8.634  1.00  0.00     0.074 A 
ATOM     78  C   UNL     1      -3.445 -13.321   9.713  1.00  0.00     0.031 C 
ATOM     79  C   UNL     1      -5.677 -13.793   8.739  1.00  0.00     0.037 A 
BRANCH  66  80
ATOM     80  C   UNL     1      -9.087 -13.242   3.595  1.00  0.00     0.057 A 
ATOM     81  C   UNL     1      -9.239 -14.126   2.518  1.00  0.00     0.134 A 
ATOM     82  C   UNL     1     -10.211 -12.499   3.980  1.00  0.00     0.134 A 
ATOM     83  F   UNL     1      -8.197 -14.848   2.078  1.00  0.00    -0.206 F 
ATOM     84  C   UNL     1     -10.450 -14.240   1.830  1.00  0.00     0.040 A 
ATOM     85  C   UNL     1     -11.434 -12.626   3.319  1.00  0.00     0.040 A 
ATOM     86  F   UNL     1     -10.136 -11.628   4.998  1.00  0.00    -0.206 F 
ATOM     87  C   UNL     1     -11.553 -13.491   2.233  1.00  0.00     0.006 A 
ENDBRANCH  66  80
BRANCH  67  88
ATOM     88  C   UNL     1      -0.107 -11.569   7.790  1.00  0.00     0.057 A 
ATOM     89  C   UNL     1       0.735 -12.627   8.146  1.00  0.00     0.134 A 
ATOM     90  C   UNL     1       0.359 -10.268   8.024  1.00  0.00     0.134 A 
ATOM     91  F   UNL     1       0.339 -13.896   7.965  1.00  0.00    -0.206 F 
ATOM     92  C   UNL     1       1.990 -12.403   8.718  1.00  0.00     0.040 A 
ATOM     93  C   UNL     1       1.620 -10.029   8.572  1.00  0.00     0.040 A 
ATOM     94  F   UNL     1      -0.400  -9.210   7.704  1.00  0.00    -0.206 F 
ATOM     95  C   UNL     1       2.438 -11.100   8.924  1.00  0.00     0.006 A 
ENDBRANCH  67  88
BRANCH  79  96
ATOM     96  C   UNL     1      -6.062 -14.414  10.049  1.00  0.00     0.057 A 
ATOM     97  C   UNL     1      -6.284 -13.645  11.197  1.00  0.00     0.134 A 
ATOM     98  C   UNL     1      -6.257 -15.798  10.145  1.00  0.00     0.134 A 
ATOM     99  F   UNL     1      -6.106 -12.316  11.171  1.00  0.00    -0.206 F 
ATOM    100  C   UNL     1      -6.658 -14.235  12.405  1.00  0.00     0.040 A 
ATOM    101  C   UNL     1      -6.661 -16.395  11.338  1.00  0.00     0.040 A 
ATOM    102  F   UNL     1      -6.076 -16.588   9.076  1.00  0.00    -0.206 F 
ATOM    103  C   UNL     1      -6.854 -15.614  12.475  1.00  0.00     0.006 A 
ENDBRANCH  79  96
ENDBRANCH  53  54
ENDBRANCH  46  48
ENDBRANCH  45  46
ENDBRANCH  44  45
ENDBRANCH  43  44
ENDBRANCH  42  43
ENDBRANCH  41  42
ENDBRANCH  40  41
ENDBRANCH  39  40
ENDBRANCH   1  39
TORSDOF 27
