REMARK SMILES Nc1ccc([C@H]([NH3+])C(=O)OCCOCCOC(=O)c2ccc(-c3c4nc(c(-c5c(F)cccc5F)c5ccc([nH]5)c(-c5c(F)cccc5F)c5nc(c(-c6c(F)cccc6F)c6ccc3[nH]6)C=C5)C=C4)cc2)cc1C(F)(F)F
REMARK SMILES IDX 13 1 12 2 11 3 10 4 8 5 9 6 6 7 5 8 2 9 3 10 74 11 4 12
REMARK SMILES IDX 73 13 1 14 75 17 76 18 77 19 78 20 7 21 14 25 15 26 16 27
REMARK SMILES IDX 17 28 18 29 19 30 20 31 72 32 21 33 71 34 22 35 23 36 24 37
REMARK SMILES IDX 65 38 25 39 70 40 64 41 66 42 26 43 69 44 63 45 62 46 27 48
REMARK SMILES IDX 53 49 36 50 52 51 37 52 40 53 51 54 67 55 38 56 39 57 50 59
REMARK SMILES IDX 68 60 41 61 28 62 29 63 34 64 30 65 31 66 33 67 35 68 32 69
REMARK SMILES IDX 54 70 55 71 60 72 56 73 57 74 59 75 61 76 58 77 42 78 43 79
REMARK SMILES IDX 48 80 44 81 45 82 47 83 49 84 46 85
REMARK H PARENT 1 15 1 16 7 22 7 23 7 24 66 47 40 58
REMARK Flexibility Score: inf
ROOT
ATOM      1  O   UNL     1      -3.987  -0.573   4.250  1.00  0.00    -0.374 OA
ENDROOT
BRANCH   1   2
ATOM      2  C   UNL     1      -4.164  -1.915   3.796  1.00  0.00     0.202 C 
BRANCH   2   3
ATOM      3  C   UNL     1      -4.922  -2.089   2.478  1.00  0.00     0.261 C 
BRANCH   3   4
ATOM      4  O   UNL     1      -4.143  -1.602   1.372  1.00  0.00    -0.459 OA
BRANCH   4   5
ATOM      5  C   UNL     1      -4.706  -0.586   0.650  1.00  0.00     0.369 C 
ATOM      6  O   UNL     1      -5.851  -0.173   0.798  1.00  0.00    -0.245 OA
BRANCH   5   7
ATOM      7  C   UNL     1      -3.747  -0.046  -0.431  1.00  0.00     0.323 C 
BRANCH   7   8
ATOM      8  C   UNL     1      -3.943  -0.794  -1.731  1.00  0.00     0.021 A 
ATOM      9  C   UNL     1      -4.528  -2.226  -4.106  1.00  0.00     0.044 A 
ATOM     10  C   UNL     1      -4.793  -0.854  -3.996  1.00  0.00     0.026 A 
ATOM     11  C   UNL     1      -3.955  -2.891  -3.012  1.00  0.00     0.079 A 
ATOM     12  C   UNL     1      -4.502  -0.143  -2.831  1.00  0.00     0.013 A 
ATOM     13  C   UNL     1      -3.657  -2.163  -1.840  1.00  0.00     0.025 A 
BRANCH   9  14
ATOM     14  N   UNL     1      -4.930  -2.882  -5.256  1.00  0.00    -0.398 N 
ATOM     15  H   UNL     1      -5.328  -2.373  -5.999  1.00  0.00     0.156 HD
ATOM     16  H   UNL     1      -4.817  -3.857  -5.332  1.00  0.00     0.156 HD
ENDBRANCH   9  14
BRANCH  11  17
ATOM     17  C   UNL     1      -3.659  -4.370  -2.999  1.00  0.00     0.418 C 
ATOM     18  F   UNL     1      -2.351  -4.630  -2.710  1.00  0.00    -0.166 F 
ATOM     19  F   UNL     1      -4.378  -5.032  -2.047  1.00  0.00    -0.166 F 
ATOM     20  F   UNL     1      -3.910  -5.023  -4.170  1.00  0.00    -0.166 F 
ENDBRANCH  11  17
ENDBRANCH   7   8
BRANCH   7  21
ATOM     21  N   UNL     1      -2.328  -0.033  -0.006  1.00  0.00    -0.342 N 
ATOM     22  H   UNL     1      -2.016  -0.990   0.163  1.00  0.00     0.345 HD
ATOM     23  H   UNL     1      -2.235   0.512   0.851  1.00  0.00     0.345 HD
ATOM     24  H   UNL     1      -1.757   0.386  -0.740  1.00  0.00     0.345 HD
ENDBRANCH   7  21
ENDBRANCH   5   7
ENDBRANCH   4   5
ENDBRANCH   3   4
ENDBRANCH   2   3
ENDBRANCH   1   2
BRANCH   1  25
ATOM     25  C   UNL     1      -3.027   0.233   3.567  1.00  0.00     0.202 C 
BRANCH  25  26
ATOM     26  C   UNL     1      -1.554  -0.004   3.923  1.00  0.00     0.261 C 
BRANCH  26  27
ATOM     27  O   UNL     1      -1.109  -1.338   3.618  1.00  0.00    -0.460 OA
BRANCH  27  28
ATOM     28  C   UNL     1      -0.888  -2.119   4.701  1.00  0.00     0.338 C 
ATOM     29  O   UNL     1      -0.971  -1.800   5.879  1.00  0.00    -0.246 OA
BRANCH  28  30
ATOM     30  C   UNL     1      -0.665  -3.516   4.287  1.00  0.00     0.060 A 
ATOM     31  C   UNL     1      -1.452  -4.503   4.893  1.00  0.00     0.016 A 
ATOM     32  C   UNL     1       0.357  -3.865   3.401  1.00  0.00     0.016 A 
ATOM     33  C   UNL     1      -1.185  -5.850   4.657  1.00  0.00     0.010 A 
ATOM     34  C   UNL     1       0.629  -5.219   3.172  1.00  0.00     0.010 A 
ATOM     35  C   UNL     1      -0.115  -6.215   3.829  1.00  0.00    -0.014 A 
BRANCH  35  36
ATOM     36  C   UNL     1       0.312  -7.634   3.778  1.00  0.00     0.031 A 
ATOM     37  C   UNL     1       1.465  -8.081   4.634  1.00  0.00     0.074 A 
ATOM     38  C   UNL     1      -0.337  -8.521   3.005  1.00  0.00     0.049 A 
ATOM     39  N   UNL     1       2.015  -9.264   4.736  1.00  0.00    -0.248 NA
ATOM     40  C   UNL     1       2.080  -7.055   5.492  1.00  0.00     0.031 C 
ATOM     41  C   UNL     1      -1.489  -8.220   2.158  1.00  0.00     0.029 A 
ATOM     42  N   UNL     1      -0.113  -9.861   2.808  1.00  0.00    -0.354 N 
ATOM     43  C   UNL     1       3.041  -9.125   5.662  1.00  0.00     0.074 A 
ATOM     44  C   UNL     1       3.056  -7.737   6.072  1.00  0.00     0.031 C 
ATOM     45  C   UNL     1      -1.866  -9.342   1.522  1.00  0.00     0.029 A 
ATOM     46  C   UNL     1      -0.967 -10.432   1.898  1.00  0.00     0.049 A 
ATOM     47  H   UNL     1       0.593 -10.363   3.274  1.00  0.00     0.167 HD
ATOM     48  C   UNL     1       3.888 -10.070   6.135  1.00  0.00     0.037 A 
ATOM     49  C   UNL     1      -1.006 -11.687   1.412  1.00  0.00     0.037 A 
ATOM     50  C   UNL     1       3.871 -11.450   5.730  1.00  0.00     0.049 A 
ATOM     51  C   UNL     1      -0.015 -12.706   1.907  1.00  0.00     0.074 A 
ATOM     52  C   UNL     1       4.675 -12.488   6.169  1.00  0.00     0.029 A 
ATOM     53  N   UNL     1       3.009 -11.984   4.785  1.00  0.00    -0.354 N 
ATOM     54  N   UNL     1       0.934 -12.570   2.802  1.00  0.00    -0.248 NA
ATOM     55  C   UNL     1      -0.102 -14.054   1.325  1.00  0.00     0.031 C 
ATOM     56  C   UNL     1       4.327 -13.641   5.457  1.00  0.00     0.029 A 
ATOM     57  C   UNL     1       3.277 -13.331   4.608  1.00  0.00     0.049 A 
ATOM     58  H   UNL     1       2.310 -11.480   4.309  1.00  0.00     0.167 HD
ATOM     59  C   UNL     1       1.538 -13.817   2.910  1.00  0.00     0.074 A 
ATOM     60  C   UNL     1       0.843 -14.699   1.996  1.00  0.00     0.031 C 
ATOM     61  C   UNL     1       2.572 -14.198   3.699  1.00  0.00     0.037 A 
BRANCH  48  62
ATOM     62  C   UNL     1       4.921  -9.632   7.130  1.00  0.00     0.057 A 
ATOM     63  C   UNL     1       4.586  -9.315   8.453  1.00  0.00     0.134 A 
ATOM     64  C   UNL     1       6.271  -9.550   6.766  1.00  0.00     0.134 A 
ATOM     65  F   UNL     1       3.308  -9.360   8.860  1.00  0.00    -0.206 F 
ATOM     66  C   UNL     1       5.555  -8.911   9.373  1.00  0.00     0.040 A 
ATOM     67  C   UNL     1       7.251  -9.169   7.684  1.00  0.00     0.040 A 
ATOM     68  F   UNL     1       6.658  -9.842   5.516  1.00  0.00    -0.206 F 
ATOM     69  C   UNL     1       6.893  -8.843   8.990  1.00  0.00     0.006 A 
ENDBRANCH  48  62
BRANCH  49  70
ATOM     70  C   UNL     1      -2.017 -12.052   0.390  1.00  0.00     0.057 A 
ATOM     71  C   UNL     1      -3.084 -12.904   0.695  1.00  0.00     0.134 A 
ATOM     72  C   UNL     1      -1.933 -11.566  -0.921  1.00  0.00     0.134 A 
ATOM     73  F   UNL     1      -3.204 -13.421   1.927  1.00  0.00    -0.206 F 
ATOM     74  C   UNL     1      -4.026 -13.269  -0.268  1.00  0.00     0.040 A 
ATOM     75  C   UNL     1      -2.880 -11.904  -1.888  1.00  0.00     0.040 A 
ATOM     76  F   UNL     1      -0.932 -10.747  -1.276  1.00  0.00    -0.206 F 
ATOM     77  C   UNL     1      -3.928 -12.763  -1.563  1.00  0.00     0.006 A 
ENDBRANCH  49  70
BRANCH  61  78
ATOM     78  C   UNL     1       2.995 -15.636   3.634  1.00  0.00     0.057 A 
ATOM     79  C   UNL     1       3.708 -16.148   2.543  1.00  0.00     0.134 A 
ATOM     80  C   UNL     1       2.725 -16.506   4.698  1.00  0.00     0.134 A 
ATOM     81  F   UNL     1       3.988 -15.369   1.487  1.00  0.00    -0.206 F 
ATOM     82  C   UNL     1       4.121 -17.481   2.504  1.00  0.00     0.040 A 
ATOM     83  C   UNL     1       3.153 -17.834   4.681  1.00  0.00     0.040 A 
ATOM     84  F   UNL     1       2.054 -16.076   5.777  1.00  0.00    -0.206 F 
ATOM     85  C   UNL     1       3.850 -18.326   3.579  1.00  0.00     0.006 A 
ENDBRANCH  61  78
ENDBRANCH  35  36
ENDBRANCH  28  30
ENDBRANCH  27  28
ENDBRANCH  26  27
ENDBRANCH  25  26
ENDBRANCH   1  25
TORSDOF 18
