REMARK SMILES O=C(C[C@H]1S/C(=[NH+]\c2ccccc2)N(NC(=O)c2ccc([N+](=O)[O-])cc2)C1=O)OCCOCCOC(=O)c1ccc(-c2c3nc(c(-c4c(F)cccc4F)c4ccc([nH]4)c(-c4c(F)cccc4F)c4nc(c(-c5c(F)cccc5F)c5ccc2[nH]5)C=C4)C=C3)cc1
REMARK SMILES IDX 31 1 30 2 29 3 2 4 1 5 3 6 4 7 5 8 27 9 6 10 14 11 28 12
REMARK SMILES IDX 7 13 15 15 16 16 17 18 18 19 19 20 26 21 20 22 25 23 21 24
REMARK SMILES IDX 22 25 23 26 24 27 8 28 9 29 13 30 10 31 12 32 11 33 32 34
REMARK SMILES IDX 33 35 34 36 35 37 36 38 37 39 38 40 39 41 91 42 40 43 90 44
REMARK SMILES IDX 41 45 42 46 43 47 84 48 44 49 89 50 83 51 85 52 45 53 88 54
REMARK SMILES IDX 82 55 81 56 46 58 72 59 55 60 71 61 56 62 59 63 70 64 86 65
REMARK SMILES IDX 57 66 58 67 69 69 87 70 60 71 47 72 48 73 53 74 49 75 50 76
REMARK SMILES IDX 52 77 54 78 51 79 73 80 74 81 79 82 75 83 76 84 78 85 80 86
REMARK SMILES IDX 77 87 61 88 62 89 67 90 63 91 64 92 66 93 68 94 65 95
REMARK H PARENT 7 14 15 17 85 57 59 68
REMARK Flexibility Score: inf
ROOT
ATOM      1  C   UNL     1       4.763  -1.221   0.951  1.00  0.00     0.202 C 
ENDROOT
BRANCH   1   2
ATOM      2  C   UNL     1       4.381   0.262   0.933  1.00  0.00     0.261 C 
BRANCH   2   3
ATOM      3  O   UNL     1       3.024   0.594   0.608  1.00  0.00    -0.463 OA
BRANCH   3   4
ATOM      4  C   UNL     1       2.528   0.680  -0.639  1.00  0.00     0.307 C 
ATOM      5  O   UNL     1       1.546   1.380  -0.880  1.00  0.00    -0.252 OA
BRANCH   4   6
ATOM      6  C   UNL     1       3.148  -0.132  -1.740  1.00  0.00     0.150 C 
BRANCH   6   7
ATOM      7  C   UNL     1       4.377   0.490  -2.378  1.00  0.00     0.187 C 
ATOM      8  S   UNL     1       4.278   0.273  -4.178  1.00  0.00    -0.019 SA
ATOM      9  C   UNL     1       4.456   1.990  -2.212  1.00  0.00     0.348 C 
ATOM     10  C   UNL     1       3.597   1.881  -4.382  1.00  0.00     0.343 C 
ATOM     11  N   UNL     1       3.834   2.638  -3.258  1.00  0.00    -0.078 N 
ATOM     12  O   UNL     1       4.994   2.548  -1.261  1.00  0.00    -0.243 OA
ATOM     13  N   UNL     1       2.956   2.295  -5.415  1.00  0.00    -0.233 N 
ATOM     14  H   UNL     1       2.748   3.255  -5.490  1.00  0.00     0.313 HD
BRANCH  11  15
ATOM     15  N   UNL     1       3.713   4.042  -3.109  1.00  0.00    -0.182 N 
ATOM     16  C   UNL     1       2.561   4.789  -3.228  1.00  0.00     0.286 C 
ATOM     17  H   UNL     1       4.538   4.535  -2.898  1.00  0.00     0.217 HD
ATOM     18  O   UNL     1       2.360   5.761  -2.504  1.00  0.00    -0.266 OA
BRANCH  16  19
ATOM     19  C   UNL     1       1.660   4.576  -4.362  1.00  0.00     0.043 A 
ATOM     20  C   UNL     1       2.024   5.155  -5.587  1.00  0.00     0.021 A 
ATOM     21  C   UNL     1       0.504   3.802  -4.235  1.00  0.00     0.021 A 
ATOM     22  C   UNL     1       1.284   4.866  -6.731  1.00  0.00     0.086 A 
ATOM     23  C   UNL     1      -0.243   3.514  -5.382  1.00  0.00     0.086 A 
ATOM     24  C   UNL     1       0.175   4.014  -6.630  1.00  0.00     0.269 A 
BRANCH  24  25
ATOM     25  N   UNL     1      -0.510   3.580  -7.855  1.00  0.00     0.062 N 
ATOM     26  O   UNL     1      -0.058   3.975  -8.941  1.00  0.00    -0.258 OA
ATOM     27  O   UNL     1      -1.502   2.847  -7.734  1.00  0.00    -0.258 OA
ENDBRANCH  24  25
ENDBRANCH  16  19
ENDBRANCH  11  15
BRANCH  13  28
ATOM     28  C   UNL     1       2.543   1.435  -6.436  1.00  0.00     0.125 A 
ATOM     29  C   UNL     1       3.036   1.624  -7.725  1.00  0.00     0.051 A 
ATOM     30  C   UNL     1       1.494   0.526  -6.231  1.00  0.00     0.051 A 
ATOM     31  C   UNL     1       2.497   0.912  -8.796  1.00  0.00     0.004 A 
ATOM     32  C   UNL     1       0.957  -0.191  -7.299  1.00  0.00     0.004 A 
ATOM     33  C   UNL     1       1.457   0.007  -8.584  1.00  0.00     0.000 A 
ENDBRANCH  13  28
ENDBRANCH   6   7
ENDBRANCH   4   6
ENDBRANCH   3   4
ENDBRANCH   2   3
ENDBRANCH   1   2
BRANCH   1  34
ATOM     34  O   UNL     1       3.799  -2.175   0.541  1.00  0.00    -0.374 OA
BRANCH  34  35
ATOM     35  C   UNL     1       2.579  -2.288   1.275  1.00  0.00     0.202 C 
BRANCH  35  36
ATOM     36  C   UNL     1       2.714  -2.669   2.745  1.00  0.00     0.261 C 
BRANCH  36  37
ATOM     37  O   UNL     1       3.123  -1.525   3.516  1.00  0.00    -0.460 OA
BRANCH  37  38
ATOM     38  C   UNL     1       4.266  -1.687   4.218  1.00  0.00     0.338 C 
ATOM     39  O   UNL     1       4.952  -2.690   4.300  1.00  0.00    -0.246 OA
BRANCH  38  40
ATOM     40  C   UNL     1       4.703  -0.387   4.748  1.00  0.00     0.060 A 
ATOM     41  C   UNL     1       6.011   0.021   4.459  1.00  0.00     0.016 A 
ATOM     42  C   UNL     1       3.893   0.350   5.613  1.00  0.00     0.016 A 
ATOM     43  C   UNL     1       6.549   1.124   5.109  1.00  0.00     0.010 A 
ATOM     44  C   UNL     1       4.439   1.449   6.279  1.00  0.00     0.010 A 
ATOM     45  C   UNL     1       5.788   1.793   6.076  1.00  0.00    -0.014 A 
BRANCH  45  46
ATOM     46  C   UNL     1       6.496   2.638   7.062  1.00  0.00     0.031 A 
ATOM     47  C   UNL     1       6.931   1.996   8.353  1.00  0.00     0.074 A 
ATOM     48  C   UNL     1       6.804   3.917   6.793  1.00  0.00     0.049 A 
ATOM     49  N   UNL     1       7.582   2.511   9.363  1.00  0.00    -0.248 NA
ATOM     50  C   UNL     1       6.585   0.574   8.526  1.00  0.00     0.031 C 
ATOM     51  C   UNL     1       6.475   4.626   5.559  1.00  0.00     0.029 A 
ATOM     52  N   UNL     1       7.472   4.843   7.551  1.00  0.00    -0.354 N 
ATOM     53  C   UNL     1       7.714   1.483  10.289  1.00  0.00     0.074 A 
ATOM     54  C   UNL     1       7.053   0.323   9.738  1.00  0.00     0.031 C 
ATOM     55  C   UNL     1       6.941   5.884   5.645  1.00  0.00     0.029 A 
ATOM     56  C   UNL     1       7.580   6.070   6.947  1.00  0.00     0.049 A 
ATOM     57  H   UNL     1       7.840   4.646   8.443  1.00  0.00     0.167 HD
ATOM     58  C   UNL     1       8.340   1.501  11.488  1.00  0.00     0.037 A 
ATOM     59  C   UNL     1       8.129   7.211   7.405  1.00  0.00     0.037 A 
ATOM     60  C   UNL     1       9.000   2.657  12.030  1.00  0.00     0.049 A 
ATOM     61  C   UNL     1       8.775   7.220   8.765  1.00  0.00     0.074 A 
ATOM     62  C   UNL     1       9.672   2.785  13.233  1.00  0.00     0.029 A 
ATOM     63  N   UNL     1       9.067   3.890  11.399  1.00  0.00    -0.354 N 
ATOM     64  N   UNL     1       8.914   6.239   9.624  1.00  0.00    -0.248 NA
ATOM     65  C   UNL     1       9.352   8.495   9.213  1.00  0.00     0.031 C 
ATOM     66  C   UNL     1      10.110   4.109  13.347  1.00  0.00     0.029 A 
ATOM     67  C   UNL     1       9.755   4.790  12.193  1.00  0.00     0.049 A 
ATOM     68  H   UNL     1       8.681   4.095  10.516  1.00  0.00     0.167 HD
ATOM     69  C   UNL     1       9.624   6.767  10.696  1.00  0.00     0.074 A 
ATOM     70  C   UNL     1       9.893   8.153  10.373  1.00  0.00     0.031 C 
ATOM     71  C   UNL     1      10.024   6.161  11.842  1.00  0.00     0.037 A 
BRANCH  58  72
ATOM     72  C   UNL     1       8.307   0.240  12.300  1.00  0.00     0.057 A 
ATOM     73  C   UNL     1       9.050  -0.893  11.943  1.00  0.00     0.134 A 
ATOM     74  C   UNL     1       7.523   0.160  13.457  1.00  0.00     0.134 A 
ATOM     75  F   UNL     1       9.804  -0.890  10.833  1.00  0.00    -0.206 F 
ATOM     76  C   UNL     1       8.994  -2.069  12.694  1.00  0.00     0.040 A 
ATOM     77  C   UNL     1       7.479  -1.001  14.231  1.00  0.00     0.040 A 
ATOM     78  F   UNL     1       6.785   1.208  13.854  1.00  0.00    -0.206 F 
ATOM     79  C   UNL     1       8.211  -2.123  13.845  1.00  0.00     0.006 A 
ENDBRANCH  58  72
BRANCH  59  80
ATOM     80  C   UNL     1       8.101   8.438   6.570  1.00  0.00     0.057 A 
ATOM     81  C   UNL     1       9.272   8.965   6.015  1.00  0.00     0.134 A 
ATOM     82  C   UNL     1       6.906   9.125   6.326  1.00  0.00     0.134 A 
ATOM     83  F   UNL     1      10.451   8.364   6.232  1.00  0.00    -0.206 F 
ATOM     84  C   UNL     1       9.261  10.141   5.263  1.00  0.00     0.040 A 
ATOM     85  C   UNL     1       6.875  10.289   5.556  1.00  0.00     0.040 A 
ATOM     86  F   UNL     1       5.749   8.671   6.830  1.00  0.00    -0.206 F 
ATOM     87  C   UNL     1       8.058  10.804   5.028  1.00  0.00     0.006 A 
ENDBRANCH  59  80
BRANCH  71  88
ATOM     88  C   UNL     1      10.839   6.978  12.800  1.00  0.00     0.057 A 
ATOM     89  C   UNL     1      10.275   8.002  13.571  1.00  0.00     0.134 A 
ATOM     90  C   UNL     1      12.203   6.710  12.976  1.00  0.00     0.134 A 
ATOM     91  F   UNL     1       8.976   8.313  13.442  1.00  0.00    -0.206 F 
ATOM     92  C   UNL     1      11.045   8.752  14.461  1.00  0.00     0.040 A 
ATOM     93  C   UNL     1      12.977   7.435  13.883  1.00  0.00     0.040 A 
ATOM     94  F   UNL     1      12.802   5.734  12.278  1.00  0.00    -0.206 F 
ATOM     95  C   UNL     1      12.400   8.464  14.622  1.00  0.00     0.006 A 
ENDBRANCH  71  88
ENDBRANCH  45  46
ENDBRANCH  38  40
ENDBRANCH  37  38
ENDBRANCH  36  37
ENDBRANCH  35  36
ENDBRANCH  34  35
ENDBRANCH   1  34
TORSDOF 19
