REMARK SMILES CCOc1ccccc1NC(=O)N[C@@](C)(CC)C(=O)OCCOCCOC(=O)c1ccc(-c2c3nc(c(-c4c(F)cccc4F)c4ccc([nH]4)c(-c4c(F)cccc4F)c4nc(c(-c5c(F)cccc5F)c5ccc2[nH]5)C=C4)C=C3)cc1
REMARK SMILES IDX 22 1 21 2 20 3 18 4 19 5 14 6 15 7 13 8 10 9 11 10 12 12
REMARK SMILES IDX 9 14 4 15 5 16 6 17 8 18 7 19 3 20 2 21 1 22 16 23 17 24
REMARK SMILES IDX 23 25 24 26 25 27 26 28 27 29 28 30 29 31 30 32 82 33 31 34
REMARK SMILES IDX 81 35 32 36 33 37 34 38 75 39 35 40 80 41 74 42 76 43 36 44
REMARK SMILES IDX 79 45 73 46 72 47 37 49 63 50 46 51 62 52 47 53 50 54 61 55
REMARK SMILES IDX 77 56 48 57 49 58 60 60 78 61 51 62 38 63 39 64 44 65 40 66
REMARK SMILES IDX 41 67 43 68 45 69 42 70 64 71 65 72 70 73 66 74 67 75 69 76
REMARK SMILES IDX 71 77 68 78 52 79 53 80 58 81 54 82 55 83 57 84 59 85 56 86
REMARK H PARENT 10 11 13 13 76 48 50 59
REMARK Flexibility Score: inf
ROOT
ATOM      1  C   UNL     1       2.196   0.976   3.955  1.00  0.00     0.202 C 
ENDROOT
BRANCH   1   2
ATOM      2  C   UNL     1       3.633   0.544   3.640  1.00  0.00     0.261 C 
BRANCH   2   3
ATOM      3  O   UNL     1       4.605   1.482   3.158  1.00  0.00    -0.462 OA
BRANCH   3   4
ATOM      4  C   UNL     1       4.521   1.683   1.812  1.00  0.00     0.331 C 
ATOM      5  O   UNL     1       3.526   2.145   1.261  1.00  0.00    -0.249 OA
BRANCH   4   6
ATOM      6  C   UNL     1       5.839   1.445   1.036  1.00  0.00     0.136 C 
ATOM      7  C   UNL     1       6.842   0.418   1.580  1.00  0.00     0.047 C 
BRANCH   6   8
ATOM      8  N   UNL     1       5.442   1.022  -0.344  1.00  0.00    -0.322 N 
ATOM      9  N   UNL     1       3.759  -0.651  -0.138  1.00  0.00    -0.305 N 
ATOM     10  C   UNL     1       4.604   0.100  -0.867  1.00  0.00     0.320 C 
ATOM     11  H   UNL     1       2.823  -0.499  -0.402  1.00  0.00     0.172 HD
ATOM     12  O   UNL     1       4.432   0.158  -2.090  1.00  0.00    -0.248 OA
ATOM     13  H   UNL     1       5.904   1.542  -1.040  1.00  0.00     0.166 HD
BRANCH   9  14
ATOM     14  C   UNL     1       3.854  -1.594   0.900  1.00  0.00     0.085 A 
ATOM     15  C   UNL     1       2.649  -1.936   1.557  1.00  0.00     0.142 A 
ATOM     16  C   UNL     1       2.641  -2.743   2.700  1.00  0.00     0.048 A 
ATOM     17  C   UNL     1       3.848  -3.232   3.192  1.00  0.00     0.004 A 
ATOM     18  C   UNL     1       5.028  -2.195   1.332  1.00  0.00     0.030 A 
ATOM     19  C   UNL     1       5.034  -2.972   2.501  1.00  0.00     0.002 A 
BRANCH  15  20
ATOM     20  O   UNL     1       1.538  -1.184   1.270  1.00  0.00    -0.492 OA
BRANCH  20  21
ATOM     21  C   UNL     1       0.492  -1.903   0.626  1.00  0.00     0.226 C 
ATOM     22  C   UNL     1      -0.046  -0.985  -0.458  1.00  0.00     0.049 C 
ENDBRANCH  20  21
ENDBRANCH  15  20
ENDBRANCH   9  14
ENDBRANCH   6   8
BRANCH   6  23
ATOM     23  C   UNL     1       6.614   2.813   0.965  1.00  0.00     0.037 C 
ATOM     24  C   UNL     1       5.812   4.100   1.123  1.00  0.00     0.007 C 
ENDBRANCH   6  23
ENDBRANCH   4   6
ENDBRANCH   3   4
ENDBRANCH   2   3
ENDBRANCH   1   2
BRANCH   1  25
ATOM     25  O   UNL     1       1.600   1.730   2.928  1.00  0.00    -0.374 OA
BRANCH  25  26
ATOM     26  C   UNL     1       1.421   3.128   3.116  1.00  0.00     0.202 C 
BRANCH  26  27
ATOM     27  C   UNL     1       2.499   4.017   3.777  1.00  0.00     0.261 C 
BRANCH  27  28
ATOM     28  O   UNL     1       3.252   3.450   4.862  1.00  0.00    -0.460 OA
BRANCH  28  29
ATOM     29  C   UNL     1       2.647   3.433   6.070  1.00  0.00     0.338 C 
ATOM     30  O   UNL     1       1.555   3.889   6.353  1.00  0.00    -0.246 OA
BRANCH  29  31
ATOM     31  C   UNL     1       3.433   2.562   6.976  1.00  0.00     0.060 A 
ATOM     32  C   UNL     1       2.774   1.484   7.583  1.00  0.00     0.016 A 
ATOM     33  C   UNL     1       4.771   2.830   7.276  1.00  0.00     0.016 A 
ATOM     34  C   UNL     1       3.423   0.723   8.554  1.00  0.00     0.010 A 
ATOM     35  C   UNL     1       5.415   2.082   8.270  1.00  0.00     0.010 A 
ATOM     36  C   UNL     1       4.721   1.067   8.953  1.00  0.00    -0.014 A 
BRANCH  36  37
ATOM     37  C   UNL     1       5.208   0.568  10.263  1.00  0.00     0.031 A 
ATOM     38  C   UNL     1       4.942   1.418  11.479  1.00  0.00     0.074 A 
ATOM     39  C   UNL     1       5.785  -0.637  10.399  1.00  0.00     0.049 A 
ATOM     40  N   UNL     1       5.226   1.190  12.736  1.00  0.00    -0.248 NA
ATOM     41  C   UNL     1       4.252   2.697  11.241  1.00  0.00     0.031 C 
ATOM     42  C   UNL     1       6.035  -1.586   9.319  1.00  0.00     0.029 A 
ATOM     43  N   UNL     1       6.253  -1.271  11.524  1.00  0.00    -0.354 N 
ATOM     44  C   UNL     1       4.742   2.289  13.435  1.00  0.00     0.074 A 
ATOM     45  C   UNL     1       4.182   3.201  12.463  1.00  0.00     0.031 C 
ATOM     46  C   UNL     1       6.609  -2.689   9.834  1.00  0.00     0.029 A 
ATOM     47  C   UNL     1       6.787  -2.510  11.275  1.00  0.00     0.049 A 
ATOM     48  H   UNL     1       6.210  -0.874  12.423  1.00  0.00     0.167 HD
ATOM     49  C   UNL     1       4.749   2.519  14.769  1.00  0.00     0.037 A 
ATOM     50  C   UNL     1       7.359  -3.393  12.117  1.00  0.00     0.037 A 
ATOM     51  C   UNL     1       5.315   1.626  15.742  1.00  0.00     0.049 A 
ATOM     52  C   UNL     1       7.454  -3.068  13.585  1.00  0.00     0.074 A 
ATOM     53  C   UNL     1       5.385   1.775  17.116  1.00  0.00     0.029 A 
ATOM     54  N   UNL     1       5.918   0.415  15.439  1.00  0.00    -0.354 N 
ATOM     55  N   UNL     1       6.994  -2.027  14.237  1.00  0.00    -0.248 NA
ATOM     56  C   UNL     1       8.150  -4.046  14.435  1.00  0.00     0.031 C 
ATOM     57  C   UNL     1       6.069   0.673  17.640  1.00  0.00     0.029 A 
ATOM     58  C   UNL     1       6.383  -0.184  16.598  1.00  0.00     0.049 A 
ATOM     59  H   UNL     1       6.003   0.037  14.534  1.00  0.00     0.167 HD
ATOM     60  C   UNL     1       7.316  -2.239  15.573  1.00  0.00     0.074 A 
ATOM     61  C   UNL     1       8.003  -3.512  15.639  1.00  0.00     0.031 C 
ATOM     62  C   UNL     1       7.061  -1.454  16.649  1.00  0.00     0.037 A 
BRANCH  49  63
ATOM     63  C   UNL     1       4.150   3.812  15.238  1.00  0.00     0.057 A 
ATOM     64  C   UNL     1       2.767   4.036  15.217  1.00  0.00     0.134 A 
ATOM     65  C   UNL     1       4.967   4.849  15.703  1.00  0.00     0.134 A 
ATOM     66  F   UNL     1       1.931   3.090  14.761  1.00  0.00    -0.206 F 
ATOM     67  C   UNL     1       2.220   5.257  15.617  1.00  0.00     0.040 A 
ATOM     68  C   UNL     1       4.430   6.065  16.129  1.00  0.00     0.040 A 
ATOM     69  F   UNL     1       6.299   4.699  15.746  1.00  0.00    -0.206 F 
ATOM     70  C   UNL     1       3.053   6.274  16.078  1.00  0.00     0.006 A 
ENDBRANCH  49  63
BRANCH  50  71
ATOM     71  C   UNL     1       7.892  -4.678  11.601  1.00  0.00     0.057 A 
ATOM     72  C   UNL     1       7.280  -5.896  11.919  1.00  0.00     0.134 A 
ATOM     73  C   UNL     1       9.044  -4.723  10.806  1.00  0.00     0.134 A 
ATOM     74  F   UNL     1       6.190  -5.919  12.700  1.00  0.00    -0.206 F 
ATOM     75  C   UNL     1       7.800  -7.113  11.476  1.00  0.00     0.040 A 
ATOM     76  C   UNL     1       9.562  -5.931  10.338  1.00  0.00     0.040 A 
ATOM     77  F   UNL     1       9.680  -3.591  10.471  1.00  0.00    -0.206 F 
ATOM     78  C   UNL     1       8.942  -7.132  10.678  1.00  0.00     0.006 A 
ENDBRANCH  50  71
BRANCH  62  79
ATOM     79  C   UNL     1       7.494  -1.966  17.992  1.00  0.00     0.057 A 
ATOM     80  C   UNL     1       8.841  -2.001  18.373  1.00  0.00     0.134 A 
ATOM     81  C   UNL     1       6.545  -2.405  18.925  1.00  0.00     0.134 A 
ATOM     82  F   UNL     1       9.799  -1.606  17.521  1.00  0.00    -0.206 F 
ATOM     83  C   UNL     1       9.231  -2.480  19.625  1.00  0.00     0.040 A 
ATOM     84  C   UNL     1       6.921  -2.861  20.189  1.00  0.00     0.040 A 
ATOM     85  F   UNL     1       5.237  -2.388  18.627  1.00  0.00    -0.206 F 
ATOM     86  C   UNL     1       8.269  -2.906  20.539  1.00  0.00     0.006 A 
ENDBRANCH  62  79
ENDBRANCH  36  37
ENDBRANCH  29  31
ENDBRANCH  28  29
ENDBRANCH  27  28
ENDBRANCH  26  27
ENDBRANCH  25  26
ENDBRANCH   1  25
TORSDOF 19
