REMARK SMILES CCC(CC)([NH2+]CC(=O)Nc1ccc(C)cc1)C(=O)OCCOCCOC(=O)c1ccc(-c2c3nc(c(-c4c(F)cccc4F)c4ccc([nH]4)c(-c4c(F)cccc4F)c4nc(c(-c5c(F)cccc5F)c5ccc2[nH]5)C=C4)C=C3)cc1
REMARK SMILES IDX 22 1 21 2 20 3 18 4 19 5 3 6 2 7 1 8 4 9 5 10 6 11 7 14 8 15
REMARK SMILES IDX 9 16 10 17 11 19 12 20 17 21 13 22 16 23 14 24 15 25 23 26
REMARK SMILES IDX 24 27 25 28 26 29 27 30 28 31 29 32 30 33 82 34 31 35 81 36
REMARK SMILES IDX 32 37 33 38 34 39 75 40 35 41 80 42 74 43 76 44 36 45 79 46
REMARK SMILES IDX 73 47 72 48 37 50 63 51 46 52 62 53 47 54 50 55 61 56 77 57
REMARK SMILES IDX 48 58 49 59 60 61 78 62 51 63 38 64 39 65 44 66 40 67 41 68
REMARK SMILES IDX 43 69 45 70 42 71 64 72 65 73 70 74 66 75 67 76 69 77 71 78
REMARK SMILES IDX 68 79 52 80 53 81 58 82 54 83 55 84 57 85 59 86 56 87
REMARK H PARENT 6 12 6 13 10 18 76 49 50 60
REMARK Flexibility Score: inf
ROOT
ATOM      1  C   UNL     1       3.231  -3.341   1.650  1.00  0.00     0.202 C 
ENDROOT
BRANCH   1   2
ATOM      2  C   UNL     1       3.031  -1.840   1.533  1.00  0.00     0.261 C 
BRANCH   2   3
ATOM      3  O   UNL     1       1.665  -1.502   1.704  1.00  0.00    -0.459 OA
BRANCH   3   4
ATOM      4  C   UNL     1       0.900  -1.717   0.600  1.00  0.00     0.368 C 
ATOM      5  O   UNL     1       1.422  -1.907  -0.494  1.00  0.00    -0.245 OA
BRANCH   4   6
ATOM      6  C   UNL     1      -0.677  -1.935   0.951  1.00  0.00     0.194 C 
BRANCH   6   7
ATOM      7  C   UNL     1      -1.141  -2.635  -0.379  1.00  0.00     0.077 C 
ATOM      8  C   UNL     1      -1.072  -1.694  -1.626  1.00  0.00     0.011 C 
ENDBRANCH   6   7
BRANCH   6   9
ATOM      9  C   UNL     1      -1.857  -0.917   1.261  1.00  0.00     0.077 C 
ATOM     10  C   UNL     1      -3.076  -1.348   2.098  1.00  0.00     0.011 C 
ENDBRANCH   6   9
BRANCH   6  11
ATOM     11  N   UNL     1      -0.591  -2.744   2.173  1.00  0.00    -0.324 N 
ATOM     12  H   UNL     1       0.066  -3.504   2.002  1.00  0.00     0.347 HD
ATOM     13  H   UNL     1      -1.542  -3.058   2.368  1.00  0.00     0.347 HD
BRANCH  11  14
ATOM     14  C   UNL     1      -0.139  -2.009   3.404  1.00  0.00     0.363 C 
BRANCH  14  15
ATOM     15  C   UNL     1      -0.294  -0.462   3.698  1.00  0.00     0.279 C 
ATOM     16  O   UNL     1      -0.770  -0.211   4.830  1.00  0.00    -0.268 OA
ATOM     17  N   UNL     1       0.166   0.683   3.081  1.00  0.00    -0.321 N 
ATOM     18  H   UNL     1       0.117   1.424   3.727  1.00  0.00     0.170 HD
BRANCH  17  19
ATOM     19  C   UNL     1       0.688   1.191   1.849  1.00  0.00     0.041 A 
ATOM     20  C   UNL     1       0.335   0.967   0.526  1.00  0.00     0.026 A 
ATOM     21  C   UNL     1       1.674   2.131   1.940  1.00  0.00     0.026 A 
ATOM     22  C   UNL     1       1.244   1.099  -0.540  1.00  0.00     0.005 A 
ATOM     23  C   UNL     1       2.637   2.200   0.925  1.00  0.00     0.005 A 
ATOM     24  C   UNL     1       2.508   1.538  -0.272  1.00  0.00    -0.051 A 
ATOM     25  C   UNL     1       3.669   1.366  -1.189  1.00  0.00     0.044 C 
ENDBRANCH  17  19
ENDBRANCH  14  15
ENDBRANCH  11  14
ENDBRANCH   6  11
ENDBRANCH   4   6
ENDBRANCH   3   4
ENDBRANCH   2   3
ENDBRANCH   1   2
BRANCH   1  26
ATOM     26  O   UNL     1       3.512  -3.800   0.337  1.00  0.00    -0.374 OA
BRANCH  26  27
ATOM     27  C   UNL     1       3.345  -5.193   0.138  1.00  0.00     0.202 C 
BRANCH  27  28
ATOM     28  C   UNL     1       4.377  -6.032   0.899  1.00  0.00     0.261 C 
BRANCH  28  29
ATOM     29  O   UNL     1       5.690  -5.487   0.663  1.00  0.00    -0.460 OA
BRANCH  29  30
ATOM     30  C   UNL     1       6.403  -5.207   1.780  1.00  0.00     0.338 C 
ATOM     31  O   UNL     1       6.443  -5.909   2.792  1.00  0.00    -0.246 OA
BRANCH  30  32
ATOM     32  C   UNL     1       6.845  -3.785   1.768  1.00  0.00     0.060 A 
ATOM     33  C   UNL     1       7.311  -3.224   2.967  1.00  0.00     0.016 A 
ATOM     34  C   UNL     1       6.435  -2.951   0.730  1.00  0.00     0.016 A 
ATOM     35  C   UNL     1       7.126  -1.863   3.222  1.00  0.00     0.010 A 
ATOM     36  C   UNL     1       6.204  -1.616   1.008  1.00  0.00     0.010 A 
ATOM     37  C   UNL     1       6.461  -1.087   2.283  1.00  0.00    -0.014 A 
BRANCH  37  38
ATOM     38  C   UNL     1       5.918   0.249   2.558  1.00  0.00     0.031 A 
ATOM     39  C   UNL     1       6.369   1.369   1.675  1.00  0.00     0.074 A 
ATOM     40  C   UNL     1       4.867   0.393   3.410  1.00  0.00     0.049 A 
ATOM     41  N   UNL     1       5.933   2.577   1.728  1.00  0.00    -0.248 NA
ATOM     42  C   UNL     1       7.357   1.212   0.610  1.00  0.00     0.031 C 
ATOM     43  C   UNL     1       4.027   1.562   3.557  1.00  0.00     0.029 A 
ATOM     44  N   UNL     1       4.331  -0.463   4.382  1.00  0.00    -0.354 N 
ATOM     45  C   UNL     1       6.284   3.249   0.577  1.00  0.00     0.074 A 
ATOM     46  C   UNL     1       7.260   2.383  -0.033  1.00  0.00     0.031 C 
ATOM     47  C   UNL     1       3.172   1.449   4.585  1.00  0.00     0.029 A 
ATOM     48  C   UNL     1       3.659   0.336   5.330  1.00  0.00     0.049 A 
ATOM     49  H   UNL     1       4.410  -1.444   4.400  1.00  0.00     0.167 HD
ATOM     50  C   UNL     1       5.591   4.390   0.260  1.00  0.00     0.037 A 
ATOM     51  C   UNL     1       4.223   0.484   6.555  1.00  0.00     0.037 A 
ATOM     52  C   UNL     1       4.773   4.845   1.428  1.00  0.00     0.049 A 
ATOM     53  C   UNL     1       4.757   1.926   6.685  1.00  0.00     0.074 A 
ATOM     54  C   UNL     1       3.449   5.200   1.647  1.00  0.00     0.029 A 
ATOM     55  N   UNL     1       5.330   4.756   2.717  1.00  0.00    -0.354 N 
ATOM     56  N   UNL     1       5.097   2.705   5.667  1.00  0.00    -0.248 NA
ATOM     57  C   UNL     1       4.636   2.696   7.908  1.00  0.00     0.031 C 
ATOM     58  C   UNL     1       3.212   5.217   3.063  1.00  0.00     0.029 A 
ATOM     59  C   UNL     1       4.399   4.927   3.727  1.00  0.00     0.049 A 
ATOM     60  H   UNL     1       6.285   4.588   2.884  1.00  0.00     0.167 HD
ATOM     61  C   UNL     1       4.963   4.039   6.005  1.00  0.00     0.074 A 
ATOM     62  C   UNL     1       4.806   3.955   7.456  1.00  0.00     0.031 C 
ATOM     63  C   UNL     1       4.835   5.108   5.123  1.00  0.00     0.037 A 
BRANCH  50  64
ATOM     64  C   UNL     1       5.510   5.016  -1.152  1.00  0.00     0.057 A 
ATOM     65  C   UNL     1       4.708   6.152  -1.412  1.00  0.00     0.134 A 
ATOM     66  C   UNL     1       6.124   4.514  -2.324  1.00  0.00     0.134 A 
ATOM     67  F   UNL     1       4.040   6.779  -0.436  1.00  0.00    -0.206 F 
ATOM     68  C   UNL     1       4.535   6.718  -2.694  1.00  0.00     0.040 A 
ATOM     69  C   UNL     1       5.996   5.096  -3.602  1.00  0.00     0.040 A 
ATOM     70  F   UNL     1       6.854   3.398  -2.334  1.00  0.00    -0.206 F 
ATOM     71  C   UNL     1       5.191   6.200  -3.796  1.00  0.00     0.006 A 
ENDBRANCH  50  64
BRANCH  51  72
ATOM     72  C   UNL     1       4.535  -0.902   7.065  1.00  0.00     0.057 A 
ATOM     73  C   UNL     1       3.384  -1.727   7.228  1.00  0.00     0.134 A 
ATOM     74  C   UNL     1       5.691  -1.582   6.652  1.00  0.00     0.134 A 
ATOM     75  F   UNL     1       2.226  -1.175   7.626  1.00  0.00    -0.206 F 
ATOM     76  C   UNL     1       3.321  -3.054   6.765  1.00  0.00     0.040 A 
ATOM     77  C   UNL     1       5.641  -2.927   6.215  1.00  0.00     0.040 A 
ATOM     78  F   UNL     1       6.834  -0.909   6.457  1.00  0.00    -0.206 F 
ATOM     79  C   UNL     1       4.444  -3.642   6.203  1.00  0.00     0.006 A 
ENDBRANCH  51  72
BRANCH  63  80
ATOM     80  C   UNL     1       5.236   6.549   5.443  1.00  0.00     0.057 A 
ATOM     81  C   UNL     1       5.241   7.137   6.702  1.00  0.00     0.134 A 
ATOM     82  C   UNL     1       5.762   7.389   4.420  1.00  0.00     0.134 A 
ATOM     83  F   UNL     1       4.492   6.666   7.702  1.00  0.00    -0.206 F 
ATOM     84  C   UNL     1       5.952   8.312   6.974  1.00  0.00     0.040 A 
ATOM     85  C   UNL     1       6.437   8.580   4.666  1.00  0.00     0.040 A 
ATOM     86  F   UNL     1       5.654   7.120   3.114  1.00  0.00    -0.206 F 
ATOM     87  C   UNL     1       6.595   9.012   5.963  1.00  0.00     0.006 A 
ENDBRANCH  63  80
ENDBRANCH  37  38
ENDBRANCH  30  32
ENDBRANCH  29  30
ENDBRANCH  28  29
ENDBRANCH  27  28
ENDBRANCH  26  27
ENDBRANCH   1  26
TORSDOF 20
