REMARK SMILES Cc1ccc(NC(=O)C[C@H]([NH2+]Cc2cccnc2)C(=O)OCCOCCOC(=O)c2ccc(-c3c4nc(c(-c5c(F)cccc5F)c5ccc([nH]5)c(-c5c(F)cccc5F)c5nc(c(-c6c(F)cccc6F)c6ccc3[nH]6)C=C5)C=C4)cc2)cc1Cl
REMARK SMILES IDX 23 1 22 2 21 3 19 4 20 5 10 6 9 7 7 8 6 9 8 11 5 12 1 13
REMARK SMILES IDX 2 14 3 15 85 16 4 17 84 18 86 19 11 20 12 23 13 24 14 25
REMARK SMILES IDX 18 26 15 27 17 28 16 29 24 30 25 31 26 32 27 33 28 34 29 35
REMARK SMILES IDX 30 36 31 37 83 38 32 39 82 40 33 41 34 42 35 43 76 44 36 45
REMARK SMILES IDX 81 46 75 47 77 48 37 49 80 50 74 51 73 52 38 54 64 55 47 56
REMARK SMILES IDX 63 57 48 58 51 59 62 60 78 61 49 62 50 63 61 65 79 66 52 67
REMARK SMILES IDX 39 68 40 69 45 70 41 71 42 72 44 73 46 74 43 75 65 76 66 77
REMARK SMILES IDX 71 78 67 79 68 80 70 81 72 82 69 83 53 84 54 85 59 86 55 87
REMARK SMILES IDX 56 88 58 89 60 90 57 91
REMARK H PARENT 6 10 11 21 11 22 77 53 51 64
REMARK Flexibility Score: inf
ROOT
ATOM      1  C   UNL     1       3.930  -3.616  -1.000  1.00  0.00     0.202 C 
ENDROOT
BRANCH   1   2
ATOM      2  C   UNL     1       3.120  -2.475  -1.613  1.00  0.00     0.261 C 
BRANCH   2   3
ATOM      3  O   UNL     1       1.767  -2.453  -1.121  1.00  0.00    -0.459 OA
BRANCH   3   4
ATOM      4  C   UNL     1       0.767  -2.803  -1.967  1.00  0.00     0.365 C 
ATOM      5  O   UNL     1       0.925  -3.388  -3.033  1.00  0.00    -0.245 OA
BRANCH   4   6
ATOM      6  C   UNL     1      -0.626  -2.416  -1.426  1.00  0.00     0.303 C 
BRANCH   6   7
ATOM      7  C   UNL     1      -0.612  -1.139  -0.584  1.00  0.00     0.177 C 
BRANCH   7   8
ATOM      8  C   UNL     1       0.412  -0.781   0.486  1.00  0.00     0.231 C 
ATOM      9  N   UNL     1       0.518  -1.343   1.717  1.00  0.00    -0.326 N 
ATOM     10  H   UNL     1       0.839  -0.691   2.381  1.00  0.00     0.169 HD
ATOM     11  O   UNL     1       1.059   0.269   0.329  1.00  0.00    -0.274 OA
BRANCH   9  12
ATOM     12  C   UNL     1       0.295  -2.598   2.302  1.00  0.00     0.042 A 
ATOM     13  C   UNL     1      -0.191  -6.342   4.451  1.00  0.00     0.046 C 
ATOM     14  C   UNL     1      -0.024  -5.055   3.695  1.00  0.00    -0.032 A 
ATOM     15  C   UNL     1       0.015  -3.839   4.385  1.00  0.00     0.007 A 
ATOM     16  C   UNL     1       0.107  -5.021   2.303  1.00  0.00     0.046 A 
ATOM     17  C   UNL     1       0.175  -2.631   3.696  1.00  0.00     0.026 A 
ATOM     18  C   UNL     1       0.315  -3.809   1.628  1.00  0.00     0.047 A 
ATOM     19  Cl  UNL     1       0.021  -6.473   1.367  1.00  0.00    -0.084 Cl
ENDBRANCH   9  12
ENDBRANCH   7   8
ENDBRANCH   6   7
BRANCH   6  20
ATOM     20  N   UNL     1      -1.317  -3.577  -0.823  1.00  0.00    -0.330 N 
ATOM     21  H   UNL     1      -0.855  -3.796   0.060  1.00  0.00     0.347 HD
ATOM     22  H   UNL     1      -1.259  -4.330  -1.509  1.00  0.00     0.347 HD
BRANCH  20  23
ATOM     23  C   UNL     1      -2.742  -3.379  -0.552  1.00  0.00     0.299 C 
BRANCH  23  24
ATOM     24  C   UNL     1      -3.145  -4.014   0.752  1.00  0.00     0.024 A 
ATOM     25  C   UNL     1      -3.430  -5.378   0.854  1.00  0.00     0.013 A 
ATOM     26  C   UNL     1      -3.217  -3.265   1.926  1.00  0.00     0.120 A 
ATOM     27  C   UNL     1      -3.776  -5.924   2.089  1.00  0.00     0.021 A 
ATOM     28  N   UNL     1      -3.561  -3.764   3.137  1.00  0.00    -0.264 NA
ATOM     29  C   UNL     1      -3.827  -5.085   3.190  1.00  0.00     0.111 A 
ENDBRANCH  23  24
ENDBRANCH  20  23
ENDBRANCH   6  20
ENDBRANCH   4   6
ENDBRANCH   3   4
ENDBRANCH   2   3
ENDBRANCH   1   2
BRANCH   1  30
ATOM     30  O   UNL     1       3.801  -4.827  -1.745  1.00  0.00    -0.374 OA
BRANCH  30  31
ATOM     31  C   UNL     1       2.740  -5.689  -1.325  1.00  0.00     0.202 C 
BRANCH  31  32
ATOM     32  C   UNL     1       3.191  -6.625  -0.204  1.00  0.00     0.261 C 
BRANCH  32  33
ATOM     33  O   UNL     1       3.315  -5.875   1.019  1.00  0.00    -0.460 OA
BRANCH  33  34
ATOM     34  C   UNL     1       4.360  -6.227   1.791  1.00  0.00     0.338 C 
ATOM     35  O   UNL     1       5.103  -7.189   1.646  1.00  0.00    -0.246 OA
BRANCH  34  36
ATOM     36  C   UNL     1       4.598  -5.193   2.809  1.00  0.00     0.060 A 
ATOM     37  C   UNL     1       5.836  -4.548   2.799  1.00  0.00     0.016 A 
ATOM     38  C   UNL     1       3.687  -4.965   3.842  1.00  0.00     0.016 A 
ATOM     39  C   UNL     1       6.203  -3.742   3.875  1.00  0.00     0.010 A 
ATOM     40  C   UNL     1       4.046  -4.134   4.910  1.00  0.00     0.010 A 
ATOM     41  C   UNL     1       5.333  -3.574   4.964  1.00  0.00    -0.014 A 
BRANCH  41  42
ATOM     42  C   UNL     1       5.868  -2.987   6.222  1.00  0.00     0.031 A 
ATOM     43  C   UNL     1       6.214  -3.902   7.370  1.00  0.00     0.074 A 
ATOM     44  C   UNL     1       6.131  -1.672   6.316  1.00  0.00     0.049 A 
ATOM     45  N   UNL     1       6.788  -3.620   8.513  1.00  0.00    -0.248 NA
ATOM     46  C   UNL     1       5.863  -5.323   7.213  1.00  0.00     0.031 C 
ATOM     47  C   UNL     1       5.852  -0.676   5.283  1.00  0.00     0.029 A 
ATOM     48  N   UNL     1       6.713  -0.952   7.331  1.00  0.00    -0.354 N 
ATOM     49  C   UNL     1       6.865  -4.823   9.206  1.00  0.00     0.074 A 
ATOM     50  C   UNL     1       6.238  -5.829   8.378  1.00  0.00     0.031 C 
ATOM     51  C   UNL     1       6.281   0.524   5.709  1.00  0.00     0.029 A 
ATOM     52  C   UNL     1       6.856   0.383   7.046  1.00  0.00     0.049 A 
ATOM     53  H   UNL     1       7.000  -1.355   8.182  1.00  0.00     0.167 HD
ATOM     54  C   UNL     1       7.429  -5.078  10.410  1.00  0.00     0.037 A 
ATOM     55  C   UNL     1       7.400   1.377   7.775  1.00  0.00     0.037 A 
ATOM     56  C   UNL     1       8.081  -4.093  11.230  1.00  0.00     0.049 A 
ATOM     57  C   UNL     1       8.013   1.072   9.116  1.00  0.00     0.074 A 
ATOM     58  C   UNL     1       8.710  -4.266  12.451  1.00  0.00     0.029 A 
ATOM     59  N   UNL     1       8.190  -2.750  10.910  1.00  0.00    -0.354 N 
ATOM     60  N   UNL     1       8.120  -0.079   9.735  1.00  0.00    -0.248 NA
ATOM     61  C   UNL     1       8.595   2.204   9.852  1.00  0.00     0.031 C 
ATOM     62  C   UNL     1       9.173  -3.018  12.886  1.00  0.00     0.029 A 
ATOM     63  C   UNL     1       8.863  -2.078  11.917  1.00  0.00     0.049 A 
ATOM     64  H   UNL     1       7.840  -2.334  10.089  1.00  0.00     0.167 HD
ATOM     65  C   UNL     1       8.803   0.186  10.916  1.00  0.00     0.074 A 
ATOM     66  C   UNL     1       9.096   1.604  10.922  1.00  0.00     0.031 C 
ATOM     67  C   UNL     1       9.157  -0.669  11.906  1.00  0.00     0.037 A 
BRANCH  54  68
ATOM     68  C   UNL     1       7.364  -6.489  10.915  1.00  0.00     0.057 A 
ATOM     69  C   UNL     1       8.158  -7.505  10.366  1.00  0.00     0.134 A 
ATOM     70  C   UNL     1       6.519  -6.831  11.977  1.00  0.00     0.134 A 
ATOM     71  F   UNL     1       8.979  -7.245   9.337  1.00  0.00    -0.206 F 
ATOM     72  C   UNL     1       8.096  -8.816  10.842  1.00  0.00     0.040 A 
ATOM     73  C   UNL     1       6.465  -8.133  12.476  1.00  0.00     0.040 A 
ATOM     74  F   UNL     1       5.735  -5.904  12.549  1.00  0.00    -0.206 F 
ATOM     75  C   UNL     1       7.252  -9.131  11.905  1.00  0.00     0.006 A 
ENDBRANCH  54  68
BRANCH  55  76
ATOM     76  C   UNL     1       7.417   2.761   7.242  1.00  0.00     0.057 A 
ATOM     77  C   UNL     1       8.608   3.361   6.817  1.00  0.00     0.134 A 
ATOM     78  C   UNL     1       6.246   3.522   7.165  1.00  0.00     0.134 A 
ATOM     79  F   UNL     1       9.766   2.688   6.890  1.00  0.00    -0.206 F 
ATOM     80  C   UNL     1       8.637   4.675   6.348  1.00  0.00     0.040 A 
ATOM     81  C   UNL     1       6.256   4.830   6.678  1.00  0.00     0.040 A 
ATOM     82  F   UNL     1       5.074   3.003   7.557  1.00  0.00    -0.206 F 
ATOM     83  C   UNL     1       7.457   5.412   6.274  1.00  0.00     0.006 A 
ENDBRANCH  55  76
BRANCH  67  84
ATOM     84  C   UNL     1       9.927  -0.104  13.062  1.00  0.00     0.057 A 
ATOM     85  C   UNL     1       9.315   0.690  14.039  1.00  0.00     0.134 A 
ATOM     86  C   UNL     1      11.290  -0.388  13.219  1.00  0.00     0.134 A 
ATOM     87  F   UNL     1       8.015   1.007  13.941  1.00  0.00    -0.206 F 
ATOM     88  C   UNL     1      10.036   1.201  15.120  1.00  0.00     0.040 A 
ATOM     89  C   UNL     1      12.016   0.098  14.307  1.00  0.00     0.040 A 
ATOM     90  F   UNL     1      11.934  -1.151  12.322  1.00  0.00    -0.206 F 
ATOM     91  C   UNL     1      11.389   0.900  15.259  1.00  0.00     0.006 A 
ENDBRANCH  67  84
ENDBRANCH  41  42
ENDBRANCH  34  36
ENDBRANCH  33  34
ENDBRANCH  32  33
ENDBRANCH  31  32
ENDBRANCH  30  31
ENDBRANCH   1  30
TORSDOF 20
