REMARK SMILES [NH3+][C@]1(C(=O)OCCOCCOC(=O)c2ccc(-c3c4nc(c(-c5c(F)cccc5F)c5ccc([nH]5)c(-c5c(F)cccc5F)c5nc(c(-c6c(F)cccc6F)c6ccc3[nH]6)C=C5)C=C4)cc2)CCC[C@@H](Oc2ccc3c(c2)CCC3)C1
REMARK SMILES IDX 8 1 7 2 6 3 5 4 3 5 4 6 2 7 68 8 82 9 69 10 71 11 70 12 1 13
REMARK SMILES IDX 72 17 73 18 74 19 78 20 75 21 77 22 76 23 79 24 81 25 80 26
REMARK SMILES IDX 9 27 10 28 11 29 12 30 13 31 14 32 15 33 67 34 16 35 66 36
REMARK SMILES IDX 17 37 18 38 19 39 60 40 20 41 65 42 59 43 61 44 21 45 64 46
REMARK SMILES IDX 58 47 57 48 22 50 48 51 31 52 47 53 32 54 35 55 46 56 62 57
REMARK SMILES IDX 33 58 34 59 45 61 63 62 36 63 23 64 24 65 29 66 25 67 26 68
REMARK SMILES IDX 28 69 30 70 27 71 49 72 50 73 55 74 51 75 52 76 54 77 56 78
REMARK SMILES IDX 53 79 37 80 38 81 43 82 39 83 40 84 42 85 44 86 41 87
REMARK H PARENT 1 14 1 15 1 16 61 49 35 60
REMARK Flexibility Score: inf
ROOT
ATOM      1  O   UNL     1      -0.394   1.261  -4.864  1.00  0.00    -0.374 OA
ENDROOT
BRANCH   1   2
ATOM      2  C   UNL     1      -1.173   2.109  -3.994  1.00  0.00     0.202 C 
BRANCH   2   3
ATOM      3  C   UNL     1      -2.277   1.472  -3.111  1.00  0.00     0.261 C 
BRANCH   3   4
ATOM      4  O   UNL     1      -1.816   1.401  -1.737  1.00  0.00    -0.459 OA
BRANCH   4   5
ATOM      5  C   UNL     1      -2.401   0.564  -0.813  1.00  0.00     0.368 C 
ATOM      6  O   UNL     1      -3.455  -0.027  -0.998  1.00  0.00    -0.245 OA
BRANCH   5   7
ATOM      7  C   UNL     1      -1.432   0.405   0.489  1.00  0.00     0.196 C 
ATOM      8  C   UNL     1      -1.164  -1.082   0.940  1.00  0.00     0.081 C 
ATOM      9  C   UNL     1      -0.112   1.212   0.275  1.00  0.00     0.126 C 
ATOM     10  C   UNL     1       0.278  -1.560   1.268  1.00  0.00     0.011 C 
ATOM     11  C   UNL     1       1.206   0.419   0.080  1.00  0.00     0.180 C 
ATOM     12  C   UNL     1       1.374  -0.514   1.256  1.00  0.00     0.046 C 
BRANCH   7  13
ATOM     13  N   UNL     1      -2.232   0.987   1.603  1.00  0.00    -0.343 N 
ATOM     14  H   UNL     1      -3.088   0.446   1.725  1.00  0.00     0.345 HD
ATOM     15  H   UNL     1      -2.470   1.954   1.382  1.00  0.00     0.345 HD
ATOM     16  H   UNL     1      -1.686   0.958   2.464  1.00  0.00     0.345 HD
ENDBRANCH   7  13
BRANCH  11  17
ATOM     17  O   UNL     1       1.650  -0.180  -1.159  1.00  0.00    -0.490 OA
BRANCH  17  18
ATOM     18  C   UNL     1       1.096  -1.267  -1.779  1.00  0.00     0.120 A 
ATOM     19  C   UNL     1       1.894  -2.153  -2.504  1.00  0.00     0.047 A 
ATOM     20  C   UNL     1      -0.263  -1.351  -1.992  1.00  0.00     0.050 A 
ATOM     21  C   UNL     1       1.317  -3.051  -3.438  1.00  0.00     0.008 A 
ATOM     22  C   UNL     1      -0.855  -2.228  -2.867  1.00  0.00    -0.041 A 
ATOM     23  C   UNL     1      -0.058  -3.044  -3.640  1.00  0.00    -0.045 A 
ATOM     24  C   UNL     1      -2.305  -2.354  -3.210  1.00  0.00     0.036 C 
ATOM     25  C   UNL     1      -0.916  -3.737  -4.657  1.00  0.00     0.036 C 
ATOM     26  C   UNL     1      -2.176  -2.843  -4.649  1.00  0.00     0.010 C 
ENDBRANCH  17  18
ENDBRANCH  11  17
ENDBRANCH   5   7
ENDBRANCH   4   5
ENDBRANCH   3   4
ENDBRANCH   2   3
ENDBRANCH   1   2
BRANCH   1  27
ATOM     27  C   UNL     1       0.803   0.721  -4.299  1.00  0.00     0.202 C 
BRANCH  27  28
ATOM     28  C   UNL     1       2.089   1.566  -4.210  1.00  0.00     0.261 C 
BRANCH  28  29
ATOM     29  O   UNL     1       1.791   2.951  -4.130  1.00  0.00    -0.460 OA
BRANCH  29  30
ATOM     30  C   UNL     1       1.849   3.536  -5.350  1.00  0.00     0.338 C 
ATOM     31  O   UNL     1       2.541   3.233  -6.295  1.00  0.00    -0.246 OA
BRANCH  30  32
ATOM     32  C   UNL     1       0.676   4.407  -5.443  1.00  0.00     0.060 A 
ATOM     33  C   UNL     1      -0.172   4.166  -6.528  1.00  0.00     0.016 A 
ATOM     34  C   UNL     1       0.376   5.362  -4.467  1.00  0.00     0.016 A 
ATOM     35  C   UNL     1      -1.293   4.952  -6.697  1.00  0.00     0.010 A 
ATOM     36  C   UNL     1      -0.750   6.160  -4.640  1.00  0.00     0.010 A 
ATOM     37  C   UNL     1      -1.540   5.989  -5.789  1.00  0.00    -0.014 A 
BRANCH  37  38
ATOM     38  C   UNL     1      -2.461   7.048  -6.221  1.00  0.00     0.031 A 
ATOM     39  C   UNL     1      -1.859   8.251  -6.885  1.00  0.00     0.074 A 
ATOM     40  C   UNL     1      -3.786   6.865  -6.132  1.00  0.00     0.049 A 
ATOM     41  N   UNL     1      -2.448   9.296  -7.397  1.00  0.00    -0.248 NA
ATOM     42  C   UNL     1      -0.388   8.275  -6.994  1.00  0.00     0.031 C 
ATOM     43  C   UNL     1      -4.439   5.683  -5.570  1.00  0.00     0.029 A 
ATOM     44  N   UNL     1      -4.816   7.668  -6.531  1.00  0.00    -0.354 N 
ATOM     45  C   UNL     1      -1.424  10.097  -7.885  1.00  0.00     0.074 A 
ATOM     46  C   UNL     1      -0.175   9.441  -7.582  1.00  0.00     0.031 C 
ATOM     47  C   UNL     1      -5.770   5.843  -5.657  1.00  0.00     0.029 A 
ATOM     48  C   UNL     1      -6.052   7.150  -6.245  1.00  0.00     0.049 A 
ATOM     49  H   UNL     1      -4.684   8.534  -6.981  1.00  0.00     0.167 HD
ATOM     50  C   UNL     1      -1.529  11.277  -8.536  1.00  0.00     0.037 A 
ATOM     51  C   UNL     1      -7.268   7.697  -6.420  1.00  0.00     0.037 A 
ATOM     52  C   UNL     1      -2.789  11.905  -8.822  1.00  0.00     0.049 A 
ATOM     53  C   UNL     1      -7.351   9.054  -7.064  1.00  0.00     0.074 A 
ATOM     54  C   UNL     1      -3.029  13.098  -9.476  1.00  0.00     0.029 A 
ATOM     55  N   UNL     1      -4.024  11.386  -8.457  1.00  0.00    -0.354 N 
ATOM     56  N   UNL     1      -6.384   9.809  -7.532  1.00  0.00    -0.248 NA
ATOM     57  C   UNL     1      -8.690   9.637  -7.206  1.00  0.00     0.031 C 
ATOM     58  C   UNL     1      -4.407  13.333  -9.448  1.00  0.00     0.029 A 
ATOM     59  C   UNL     1      -5.031  12.255  -8.836  1.00  0.00     0.049 A 
ATOM     60  H   UNL     1      -4.162  10.527  -7.997  1.00  0.00     0.167 HD
ATOM     61  C   UNL     1      -6.996  10.947  -8.039  1.00  0.00     0.074 A 
ATOM     62  C   UNL     1      -8.422  10.769  -7.842  1.00  0.00     0.031 C 
ATOM     63  C   UNL     1      -6.439  12.043  -8.613  1.00  0.00     0.037 A 
BRANCH  50  64
ATOM     64  C   UNL     1      -0.259  11.972  -8.926  1.00  0.00     0.057 A 
ATOM     65  C   UNL     1       0.580  11.489  -9.940  1.00  0.00     0.134 A 
ATOM     66  C   UNL     1       0.125  13.155  -8.282  1.00  0.00     0.134 A 
ATOM     67  F   UNL     1       0.287  10.347 -10.580  1.00  0.00    -0.206 F 
ATOM     68  C   UNL     1       1.760  12.150 -10.288  1.00  0.00     0.040 A 
ATOM     69  C   UNL     1       1.287  13.840  -8.640  1.00  0.00     0.040 A 
ATOM     70  F   UNL     1      -0.627  13.668  -7.296  1.00  0.00    -0.206 F 
ATOM     71  C   UNL     1       2.111  13.335  -9.642  1.00  0.00     0.006 A 
ENDBRANCH  50  64
BRANCH  51  72
ATOM     72  C   UNL     1      -8.479   6.982  -5.947  1.00  0.00     0.057 A 
ATOM     73  C   UNL     1      -9.446   6.508  -6.838  1.00  0.00     0.134 A 
ATOM     74  C   UNL     1      -8.697   6.757  -4.581  1.00  0.00     0.134 A 
ATOM     75  F   UNL     1      -9.304   6.704  -8.157  1.00  0.00    -0.206 F 
ATOM     76  C   UNL     1     -10.595   5.853  -6.389  1.00  0.00     0.040 A 
ATOM     77  C   UNL     1      -9.825   6.079  -4.120  1.00  0.00     0.040 A 
ATOM     78  F   UNL     1      -7.805   7.182  -3.673  1.00  0.00    -0.206 F 
ATOM     79  C   UNL     1     -10.783   5.631  -5.026  1.00  0.00     0.006 A 
ENDBRANCH  51  72
BRANCH  63  80
ATOM     80  C   UNL     1      -7.379  13.116  -9.076  1.00  0.00     0.057 A 
ATOM     81  C   UNL     1      -8.069  13.933  -8.172  1.00  0.00     0.134 A 
ATOM     82  C   UNL     1      -7.560  13.362 -10.443  1.00  0.00     0.134 A 
ATOM     83  F   UNL     1      -7.946  13.740  -6.850  1.00  0.00    -0.206 F 
ATOM     84  C   UNL     1      -8.931  14.938  -8.612  1.00  0.00     0.040 A 
ATOM     85  C   UNL     1      -8.392  14.386 -10.894  1.00  0.00     0.040 A 
ATOM     86  F   UNL     1      -6.917  12.625 -11.361  1.00  0.00    -0.206 F 
ATOM     87  C   UNL     1      -9.087  15.171  -9.977  1.00  0.00     0.006 A 
ENDBRANCH  63  80
ENDBRANCH  37  38
ENDBRANCH  30  32
ENDBRANCH  29  30
ENDBRANCH  28  29
ENDBRANCH  27  28
ENDBRANCH   1  27
TORSDOF 17
