REMARK SMILES CCOc1cccc(C(=O)Nc2ccc(Cl)c(C(=O)OCCOCCOC(=O)c3ccc(-c4c5nc(c(-c6c(F)cccc6F)c6ccc([nH]6)c(-c6c(F)cccc6F)c6nc(c(-c7c(F)cccc7F)c7ccc4[nH]7)C=C6)C=C5)cc3)c2)c1
REMARK SMILES IDX 22 1 21 2 20 3 18 4 19 5 17 6 12 7 13 8 83 9 14 10 15 11
REMARK SMILES IDX 16 12 11 13 9 14 10 15 8 17 4 18 5 19 84 20 6 21 7 22 3 23
REMARK SMILES IDX 2 24 1 25 23 26 24 27 25 28 26 29 27 30 28 31 29 32 30 33
REMARK SMILES IDX 82 34 31 35 81 36 32 37 33 38 34 39 75 40 35 41 80 42 74 43
REMARK SMILES IDX 76 44 36 45 79 46 73 47 72 48 37 50 63 51 46 52 62 53 47 54
REMARK SMILES IDX 50 55 61 56 77 57 48 58 49 59 60 61 78 62 51 63 38 64 39 65
REMARK SMILES IDX 44 66 40 67 41 68 43 69 45 70 42 71 64 72 65 73 70 74 66 75
REMARK SMILES IDX 67 76 69 77 71 78 68 79 52 80 53 81 58 82 54 83 55 84 57 85
REMARK SMILES IDX 59 86 56 87
REMARK H PARENT 11 16 76 49 50 60
REMARK Flexibility Score: inf
ROOT
ATOM      1  C   UNL     1      -1.811   4.529  -0.392  1.00  0.00     0.202 C 
ENDROOT
BRANCH   1   2
ATOM      2  C   UNL     1      -0.893   3.624   0.436  1.00  0.00     0.261 C 
BRANCH   2   3
ATOM      3  O   UNL     1       0.143   3.001  -0.342  1.00  0.00    -0.460 OA
BRANCH   3   4
ATOM      4  C   UNL     1       0.018   1.656  -0.458  1.00  0.00     0.339 C 
ATOM      5  O   UNL     1      -0.885   0.978   0.013  1.00  0.00    -0.246 OA
BRANCH   4   6
ATOM      6  C   UNL     1       1.093   1.096  -1.306  1.00  0.00     0.080 A 
ATOM      7  C   UNL     1       3.481   0.769  -1.595  1.00  0.00     0.042 A 
ATOM      8  C   UNL     1       3.223  -0.240  -2.526  1.00  0.00     0.028 A 
ATOM      9  C   UNL     1       2.415   1.511  -1.079  1.00  0.00     0.043 A 
ATOM     10  C   UNL     1       1.907  -0.597  -2.829  1.00  0.00     0.023 A 
ATOM     11  C   UNL     1       0.840   0.044  -2.195  1.00  0.00     0.055 A 
ATOM     12  Cl  UNL     1      -0.747  -0.513  -2.591  1.00  0.00    -0.083 Cl
BRANCH   7  13
ATOM     13  N   UNL     1       4.812   0.906  -1.161  1.00  0.00    -0.322 N 
ATOM     14  C   UNL     1       5.361   1.330   0.037  1.00  0.00     0.255 C 
ATOM     15  O   UNL     1       6.578   1.507   0.098  1.00  0.00    -0.269 OA
ATOM     16  H   UNL     1       5.481   0.653  -1.839  1.00  0.00     0.170 HD
BRANCH  14  17
ATOM     17  C   UNL     1       4.552   1.523   1.274  1.00  0.00     0.043 A 
ATOM     18  C   UNL     1       2.529   1.167   2.542  1.00  0.00     0.120 A 
ATOM     19  C   UNL     1       2.871   2.219   3.389  1.00  0.00     0.046 A 
ATOM     20  C   UNL     1       3.413   0.759   1.549  1.00  0.00     0.060 A 
ATOM     21  C   UNL     1       4.098   2.868   3.234  1.00  0.00     0.005 A 
ATOM     22  C   UNL     1       4.927   2.539   2.160  1.00  0.00     0.014 A 
BRANCH  18  23
ATOM     23  O   UNL     1       1.226   0.752   2.545  1.00  0.00    -0.494 OA
BRANCH  23  24
ATOM     24  C   UNL     1       1.012  -0.623   2.862  1.00  0.00     0.226 C 
ATOM     25  C   UNL     1       0.804  -1.486   1.627  1.00  0.00     0.049 C 
ENDBRANCH  23  24
ENDBRANCH  18  23
ENDBRANCH  14  17
ENDBRANCH   7  13
ENDBRANCH   4   6
ENDBRANCH   3   4
ENDBRANCH   2   3
ENDBRANCH   1   2
BRANCH   1  26
ATOM     26  O   UNL     1      -2.574   3.977  -1.460  1.00  0.00    -0.374 OA
BRANCH  26  27
ATOM     27  C   UNL     1      -1.908   3.317  -2.527  1.00  0.00     0.202 C 
BRANCH  27  28
ATOM     28  C   UNL     1      -0.995   4.122  -3.465  1.00  0.00     0.261 C 
BRANCH  28  29
ATOM     29  O   UNL     1      -0.088   5.015  -2.802  1.00  0.00    -0.460 OA
BRANCH  29  30
ATOM     30  C   UNL     1      -0.443   6.319  -2.892  1.00  0.00     0.338 C 
ATOM     31  O   UNL     1      -1.398   6.790  -3.494  1.00  0.00    -0.246 OA
BRANCH  30  32
ATOM     32  C   UNL     1       0.407   7.151  -2.025  1.00  0.00     0.060 A 
ATOM     33  C   UNL     1      -0.235   7.949  -1.069  1.00  0.00     0.016 A 
ATOM     34  C   UNL     1       1.783   7.258  -2.235  1.00  0.00     0.016 A 
ATOM     35  C   UNL     1       0.485   8.906  -0.363  1.00  0.00     0.010 A 
ATOM     36  C   UNL     1       2.504   8.232  -1.537  1.00  0.00     0.010 A 
ATOM     37  C   UNL     1       1.846   9.091  -0.637  1.00  0.00    -0.014 A 
BRANCH  37  38
ATOM     38  C   UNL     1       2.510  10.321  -0.144  1.00  0.00     0.031 A 
ATOM     39  C   UNL     1       2.591  11.508  -1.067  1.00  0.00     0.074 A 
ATOM     40  C   UNL     1       2.967  10.406   1.116  1.00  0.00     0.049 A 
ATOM     41  N   UNL     1       3.127  12.684  -0.863  1.00  0.00    -0.248 NA
ATOM     42  C   UNL     1       1.979  11.350  -2.397  1.00  0.00     0.031 C 
ATOM     43  C   UNL     1       2.895   9.342   2.116  1.00  0.00     0.029 A 
ATOM     44  N   UNL     1       3.583  11.443   1.769  1.00  0.00    -0.354 N 
ATOM     45  C   UNL     1       2.916  13.402  -2.033  1.00  0.00     0.074 A 
ATOM     46  C   UNL     1       2.232  12.524  -2.956  1.00  0.00     0.031 C 
ATOM     47  C   UNL     1       3.460   9.778   3.256  1.00  0.00     0.029 A 
ATOM     48  C   UNL     1       3.951  11.141   3.056  1.00  0.00     0.049 A 
ATOM     49  H   UNL     1       3.745  12.321   1.354  1.00  0.00     0.167 HD
ATOM     50  C   UNL     1       3.251  14.684  -2.311  1.00  0.00     0.037 A 
ATOM     51  C   UNL     1       4.624  11.878   3.961  1.00  0.00     0.037 A 
ATOM     52  C   UNL     1       3.932  15.557  -1.394  1.00  0.00     0.049 A 
ATOM     53  C   UNL     1       5.044  13.280   3.603  1.00  0.00     0.074 A 
ATOM     54  C   UNL     1       4.337  16.867  -1.587  1.00  0.00     0.029 A 
ATOM     55  N   UNL     1       4.305  15.207  -0.106  1.00  0.00    -0.354 N 
ATOM     56  N   UNL     1       4.840  13.948   2.493  1.00  0.00    -0.248 NA
ATOM     57  C   UNL     1       5.782  14.033   4.628  1.00  0.00     0.031 C 
ATOM     58  C   UNL     1       4.983  17.299  -0.425  1.00  0.00     0.029 A 
ATOM     59  C   UNL     1       4.942  16.273   0.505  1.00  0.00     0.049 A 
ATOM     60  H   UNL     1       4.141  14.331   0.312  1.00  0.00     0.167 HD
ATOM     61  C   UNL     1       5.391  15.207   2.699  1.00  0.00     0.074 A 
ATOM     62  C   UNL     1       5.930  15.213   4.043  1.00  0.00     0.031 C 
ATOM     63  C   UNL     1       5.448  16.265   1.853  1.00  0.00     0.037 A 
BRANCH  50  64
ATOM     64  C   UNL     1       2.895  15.214  -3.667  1.00  0.00     0.057 A 
ATOM     65  C   UNL     1       1.575  15.535  -4.008  1.00  0.00     0.134 A 
ATOM     66  C   UNL     1       3.886  15.441  -4.630  1.00  0.00     0.134 A 
ATOM     67  F   UNL     1       0.577  15.324  -3.136  1.00  0.00    -0.206 F 
ATOM     68  C   UNL     1       1.252  16.053  -5.263  1.00  0.00     0.040 A 
ATOM     69  C   UNL     1       3.579  15.980  -5.880  1.00  0.00     0.040 A 
ATOM     70  F   UNL     1       5.170  15.155  -4.366  1.00  0.00    -0.206 F 
ATOM     71  C   UNL     1       2.257  16.284  -6.200  1.00  0.00     0.006 A 
ENDBRANCH  50  64
BRANCH  51  72
ATOM     72  C   UNL     1       4.964  11.308   5.289  1.00  0.00     0.057 A 
ATOM     73  C   UNL     1       4.381  11.797   6.463  1.00  0.00     0.134 A 
ATOM     74  C   UNL     1       5.916  10.290   5.417  1.00  0.00     0.134 A 
ATOM     75  F   UNL     1       3.479  12.789   6.407  1.00  0.00    -0.206 F 
ATOM     76  C   UNL     1       4.752  11.315   7.720  1.00  0.00     0.040 A 
ATOM     77  C   UNL     1       6.279   9.780   6.665  1.00  0.00     0.040 A 
ATOM     78  F   UNL     1       6.510   9.777   4.330  1.00  0.00    -0.206 F 
ATOM     79  C   UNL     1       5.703  10.300   7.822  1.00  0.00     0.006 A 
ENDBRANCH  51  72
BRANCH  63  80
ATOM     80  C   UNL     1       6.063  17.530   2.373  1.00  0.00     0.057 A 
ATOM     81  C   UNL     1       7.444  17.663   2.554  1.00  0.00     0.134 A 
ATOM     82  C   UNL     1       5.261  18.644   2.655  1.00  0.00     0.134 A 
ATOM     83  F   UNL     1       8.264  16.629   2.311  1.00  0.00    -0.206 F 
ATOM     84  C   UNL     1       8.006  18.852   3.021  1.00  0.00     0.040 A 
ATOM     85  C   UNL     1       5.813  19.846   3.099  1.00  0.00     0.040 A 
ATOM     86  F   UNL     1       3.931  18.585   2.492  1.00  0.00    -0.206 F 
ATOM     87  C   UNL     1       7.190  19.950   3.288  1.00  0.00     0.006 A 
ENDBRANCH  63  80
ENDBRANCH  37  38
ENDBRANCH  30  32
ENDBRANCH  29  30
ENDBRANCH  28  29
ENDBRANCH  27  28
ENDBRANCH  26  27
ENDBRANCH   1  26
TORSDOF 18
