REMARK SMILES O=C(OCCOCCOC(=O)[C@@H]1[C@H](C(=O)Nc2ccccc2Cc2ccccc2)[C@H]2C=C[C@@H]1O2)c1ccc(-c2c3nc(c(-c4c(F)cccc4F)c4ccc([nH]4)c(-c4c(F)cccc4F)c4nc(c(-c5c(F)cccc5F)c5ccc2[nH]5)C=C4)C=C3)cc1
REMARK SMILES IDX 7 1 6 2 5 3 4 4 3 5 2 6 1 7 35 8 36 9 88 10 37 11 87 12
REMARK SMILES IDX 38 13 39 14 40 15 81 16 41 17 86 18 80 19 82 20 42 21 85 22
REMARK SMILES IDX 79 23 78 24 43 26 69 27 52 28 68 29 53 30 56 31 67 32 83 33
REMARK SMILES IDX 54 34 55 35 66 37 84 38 57 39 44 40 45 41 50 42 46 43 47 44
REMARK SMILES IDX 49 45 51 46 48 47 70 48 71 49 76 50 72 51 73 52 75 53 77 54
REMARK SMILES IDX 74 55 58 56 59 57 64 58 60 59 61 60 63 61 65 62 62 63 8 64
REMARK SMILES IDX 9 65 10 66 11 67 12 68 13 69 33 70 30 71 32 72 34 73 31 74
REMARK SMILES IDX 14 75 15 76 16 77 17 79 18 80 22 81 19 82 21 83 20 84 23 85
REMARK SMILES IDX 24 86 25 87 29 88 26 89 28 90 27 91
REMARK H PARENT 82 25 56 36 16 78
REMARK Flexibility Score: inf
ROOT
ATOM      1  C   UNL     1       4.343   0.323  -3.132  1.00  0.00     0.202 C 
ENDROOT
BRANCH   1   2
ATOM      2  O   UNL     1       5.320   0.190  -1.957  1.00  0.00    -0.374 OA
BRANCH   2   3
ATOM      3  C   UNL     1       5.604  -0.237  -0.016  1.00  0.00     0.202 C 
BRANCH   3   4
ATOM      4  C   UNL     1       4.636   0.048   1.413  1.00  0.00     0.261 C 
BRANCH   4   5
ATOM      5  O   UNL     1       3.192  -0.219   1.553  1.00  0.00    -0.460 OA
BRANCH   5   6
ATOM      6  C   UNL     1       2.135   0.636   1.761  1.00  0.00     0.338 C 
ATOM      7  O   UNL     1       1.054   0.223   2.167  1.00  0.00    -0.246 OA
BRANCH   6   8
ATOM      8  C   UNL     1       2.232   2.060   1.344  1.00  0.00     0.060 A 
ATOM      9  C   UNL     1       1.879   2.471   0.058  1.00  0.00     0.016 A 
ATOM     10  C   UNL     1       2.601   3.051   2.230  1.00  0.00     0.016 A 
ATOM     11  C   UNL     1       2.396   3.676  -0.455  1.00  0.00     0.010 A 
ATOM     12  C   UNL     1       2.974   4.310   1.725  1.00  0.00     0.010 A 
ATOM     13  C   UNL     1       3.175   4.517   0.346  1.00  0.00    -0.014 A 
BRANCH  13  14
ATOM     14  C   UNL     1       4.312   5.443  -0.139  1.00  0.00     0.031 A 
ATOM     15  C   UNL     1       5.380   5.888   0.874  1.00  0.00     0.074 A 
ATOM     16  C   UNL     1       4.665   5.779  -1.410  1.00  0.00     0.049 A 
ATOM     17  N   UNL     1       6.064   7.005   0.948  1.00  0.00    -0.248 NA
ATOM     18  C   UNL     1       5.715   4.937   1.950  1.00  0.00     0.031 C 
ATOM     19  C   UNL     1       4.149   5.245  -2.668  1.00  0.00     0.029 A 
ATOM     20  N   UNL     1       5.620   6.697  -1.843  1.00  0.00    -0.354 N 
ATOM     21  C   UNL     1       6.732   6.962   2.171  1.00  0.00     0.074 A 
ATOM     22  C   UNL     1       6.402   5.699   2.788  1.00  0.00     0.031 C 
ATOM     23  C   UNL     1       4.749   5.854  -3.705  1.00  0.00     0.029 A 
ATOM     24  C   UNL     1       5.640   6.891  -3.208  1.00  0.00     0.049 A 
ATOM     25  H   UNL     1       6.229   7.166  -1.227  1.00  0.00     0.167 HD
ATOM     26  C   UNL     1       7.545   7.888   2.734  1.00  0.00     0.037 A 
ATOM     27  C   UNL     1       6.233   7.821  -3.989  1.00  0.00     0.037 A 
ATOM     28  C   UNL     1       8.086   9.024   2.037  1.00  0.00     0.049 A 
ATOM     29  C   UNL     1       7.054   8.924  -3.373  1.00  0.00     0.074 A 
ATOM     30  C   UNL     1       8.893  10.039   2.526  1.00  0.00     0.029 A 
ATOM     31  N   UNL     1       7.951   9.244   0.678  1.00  0.00    -0.354 N 
ATOM     32  N   UNL     1       7.423   9.085  -2.128  1.00  0.00    -0.248 NA
ATOM     33  C   UNL     1       7.509   9.999  -4.273  1.00  0.00     0.031 C 
ATOM     34  C   UNL     1       9.219  10.892   1.466  1.00  0.00     0.029 A 
ATOM     35  C   UNL     1       8.651  10.381   0.312  1.00  0.00     0.049 A 
ATOM     36  H   UNL     1       7.434   8.676   0.063  1.00  0.00     0.167 HD
ATOM     37  C   UNL     1       8.156  10.267  -2.098  1.00  0.00     0.074 A 
ATOM     38  C   UNL     1       8.205  10.771  -3.451  1.00  0.00     0.031 C 
ATOM     39  C   UNL     1       8.724  10.883  -1.033  1.00  0.00     0.037 A 
BRANCH  26  40
ATOM     40  C   UNL     1       7.838   7.765   4.202  1.00  0.00     0.057 A 
ATOM     41  C   UNL     1       8.706   6.814   4.746  1.00  0.00     0.134 A 
ATOM     42  C   UNL     1       7.239   8.673   5.091  1.00  0.00     0.134 A 
ATOM     43  F   UNL     1       9.301   5.906   3.958  1.00  0.00    -0.206 F 
ATOM     44  C   UNL     1       8.947   6.751   6.122  1.00  0.00     0.040 A 
ATOM     45  C   UNL     1       7.496   8.641   6.460  1.00  0.00     0.040 A 
ATOM     46  F   UNL     1       6.403   9.619   4.635  1.00  0.00    -0.206 F 
ATOM     47  C   UNL     1       8.348   7.671   6.981  1.00  0.00     0.006 A 
ENDBRANCH  26  40
BRANCH  27  48
ATOM     48  C   UNL     1       5.975   7.842  -5.460  1.00  0.00     0.057 A 
ATOM     49  C   UNL     1       7.003   7.658  -6.392  1.00  0.00     0.134 A 
ATOM     50  C   UNL     1       4.695   8.110  -5.966  1.00  0.00     0.134 A 
ATOM     51  F   UNL     1       8.261   7.448  -5.978  1.00  0.00    -0.206 F 
ATOM     52  C   UNL     1       6.770   7.744  -7.768  1.00  0.00     0.040 A 
ATOM     53  C   UNL     1       4.440   8.163  -7.337  1.00  0.00     0.040 A 
ATOM     54  F   UNL     1       3.667   8.322  -5.130  1.00  0.00    -0.206 F 
ATOM     55  C   UNL     1       5.482   7.987  -8.243  1.00  0.00     0.006 A 
ENDBRANCH  27  48
BRANCH  39  56
ATOM     56  C   UNL     1       9.484  12.151  -1.281  1.00  0.00     0.057 A 
ATOM     57  C   UNL     1       8.833  13.356  -1.573  1.00  0.00     0.134 A 
ATOM     58  C   UNL     1      10.882  12.178  -1.188  1.00  0.00     0.134 A 
ATOM     59  F   UNL     1       7.497  13.395  -1.688  1.00  0.00    -0.206 F 
ATOM     60  C   UNL     1       9.545  14.538  -1.785  1.00  0.00     0.040 A 
ATOM     61  C   UNL     1      11.603  13.358  -1.376  1.00  0.00     0.040 A 
ATOM     62  F   UNL     1      11.567  11.061  -0.903  1.00  0.00    -0.206 F 
ATOM     63  C   UNL     1      10.935  14.542  -1.680  1.00  0.00     0.006 A 
ENDBRANCH  39  56
ENDBRANCH  13  14
ENDBRANCH   6   8
ENDBRANCH   5   6
ENDBRANCH   4   5
ENDBRANCH   3   4
ENDBRANCH   2   3
ENDBRANCH   1   2
BRANCH   1  64
ATOM     64  C   UNL     1       4.377  -0.720  -4.288  1.00  0.00     0.261 C 
BRANCH  64  65
ATOM     65  O   UNL     1       4.260  -2.112  -3.904  1.00  0.00    -0.463 OA
BRANCH  65  66
ATOM     66  C   UNL     1       5.206  -2.978  -4.341  1.00  0.00     0.312 C 
ATOM     67  O   UNL     1       6.077  -2.660  -5.149  1.00  0.00    -0.252 OA
BRANCH  66  68
ATOM     68  C   UNL     1       5.149  -4.416  -3.785  1.00  0.00     0.147 C 
ATOM     69  C   UNL     1       3.847  -5.216  -3.960  1.00  0.00     0.129 C 
ATOM     70  C   UNL     1       5.524  -4.827  -2.332  1.00  0.00     0.157 C 
ATOM     71  C   UNL     1       3.804  -6.108  -2.718  1.00  0.00     0.155 C 
ATOM     72  C   UNL     1       6.067  -6.218  -2.344  1.00  0.00     0.004 C 
ATOM     73  O   UNL     1       4.240  -5.176  -1.724  1.00  0.00    -0.365 OA
ATOM     74  C   UNL     1       5.018  -7.010  -2.620  1.00  0.00     0.004 C 
BRANCH  69  75
ATOM     75  C   UNL     1       2.634  -4.393  -4.340  1.00  0.00     0.231 C 
ATOM     76  O   UNL     1       2.388  -4.351  -5.562  1.00  0.00    -0.274 OA
ATOM     77  N   UNL     1       1.747  -3.689  -3.609  1.00  0.00    -0.325 N 
ATOM     78  H   UNL     1       1.168  -3.174  -4.215  1.00  0.00     0.169 HD
BRANCH  77  79
ATOM     79  C   UNL     1       1.362  -3.434  -2.276  1.00  0.00     0.044 A 
ATOM     80  C   UNL     1      -0.018  -3.687  -2.093  1.00  0.00     0.026 A 
ATOM     81  C   UNL     1       2.095  -2.880  -1.199  1.00  0.00    -0.020 A 
ATOM     82  C   UNL     1      -0.653  -3.511  -0.869  1.00  0.00     0.002 A 
ATOM     83  C   UNL     1       1.417  -2.688   0.029  1.00  0.00     0.006 A 
ATOM     84  C   UNL     1       0.070  -3.012   0.199  1.00  0.00     0.000 A 
BRANCH  81  85
ATOM     85  C   UNL     1       3.579  -2.663  -1.171  1.00  0.00     0.073 C 
BRANCH  85  86
ATOM     86  C   UNL     1       4.368  -1.398  -1.300  1.00  0.00    -0.044 A 
ATOM     87  C   UNL     1       6.130  -1.540  -1.761  1.00  0.00     0.004 A 
ATOM     88  C   UNL     1       3.734   0.222  -0.845  1.00  0.00     0.004 A 
ATOM     89  C   UNL     1       7.219  -0.128  -1.706  1.00  0.00     0.000 A 
ATOM     90  C   UNL     1       4.875   1.649  -0.786  1.00  0.00     0.000 A 
ATOM     91  C   UNL     1       6.598   1.467  -1.229  1.00  0.00     0.000 A 
ENDBRANCH  85  86
ENDBRANCH  81  85
ENDBRANCH  77  79
ENDBRANCH  69  75
ENDBRANCH  66  68
ENDBRANCH  65  66
ENDBRANCH  64  65
ENDBRANCH   1  64
TORSDOF 18
