REMARK SMILES O=C(NC1(C(=O)OCCOCCOC(=O)c2ccc(-c3c4nc(c(-c5c(F)cccc5F)c5ccc([nH]5)c(-c5c(F)cccc5F)c5nc(c(-c6c(F)cccc6F)c6ccc3[nH]6)C=C5)C=C4)cc2)CC[NH2+]CC1)OCC1c2ccccc2-c2ccccc21
REMARK SMILES IDX 9 1 8 2 7 3 5 4 6 5 4 6 70 7 74 8 71 9 73 10 72 11 3 14 1 15
REMARK SMILES IDX 2 16 75 18 76 19 77 20 78 21 89 22 79 23 83 24 84 25 88 26
REMARK SMILES IDX 80 27 82 28 85 29 87 30 81 31 86 32 10 33 11 34 12 35 13 36
REMARK SMILES IDX 14 37 15 38 16 39 17 40 69 41 18 42 68 43 19 44 20 45 21 46
REMARK SMILES IDX 62 47 22 48 67 49 61 50 63 51 23 52 66 53 60 54 59 55 24 57
REMARK SMILES IDX 50 58 33 59 49 60 34 61 37 62 48 63 64 64 35 65 36 66 47 68
REMARK SMILES IDX 65 69 38 70 25 71 26 72 31 73 27 74 28 75 30 76 32 77 29 78
REMARK SMILES IDX 51 79 52 80 57 81 53 82 54 83 56 84 58 85 55 86 39 87 40 88
REMARK SMILES IDX 45 89 41 90 42 91 44 92 46 93 43 94
REMARK H PARENT 72 12 72 13 3 17 63 56 37 67
REMARK Flexibility Score: inf
ROOT
ATOM      1  C   UNL     1       5.889  -1.076  -4.281  1.00  0.00     0.202 C 
ENDROOT
BRANCH   1   2
ATOM      2  C   UNL     1       5.604   0.424  -4.108  1.00  0.00     0.261 C 
BRANCH   2   3
ATOM      3  O   UNL     1       4.998   0.771  -2.844  1.00  0.00    -0.461 OA
BRANCH   3   4
ATOM      4  C   UNL     1       3.655   1.012  -2.866  1.00  0.00     0.332 C 
ATOM      5  O   UNL     1       2.954   0.906  -3.868  1.00  0.00    -0.249 OA
BRANCH   4   6
ATOM      6  C   UNL     1       3.064   1.391  -1.482  1.00  0.00     0.151 C 
ATOM      7  C   UNL     1       4.067   1.747  -0.418  1.00  0.00     0.102 C 
ATOM      8  C   UNL     1       2.352   2.767  -1.664  1.00  0.00     0.102 C 
ATOM      9  C   UNL     1       3.322   2.028   0.892  1.00  0.00     0.263 C 
ATOM     10  C   UNL     1       1.964   3.525  -0.366  1.00  0.00     0.263 C 
ATOM     11  N   UNL     1       2.842   3.390   0.799  1.00  0.00    -0.346 N 
ATOM     12  H   UNL     1       3.636   4.024   0.701  1.00  0.00     0.346 HD
ATOM     13  H   UNL     1       2.322   3.624   1.645  1.00  0.00     0.346 HD
BRANCH   6  14
ATOM     14  N   UNL     1       2.218   0.247  -1.011  1.00  0.00    -0.305 N 
ATOM     15  O   UNL     1       1.842  -1.534   0.391  1.00  0.00    -0.225 OA
ATOM     16  C   UNL     1       2.628  -0.808  -0.191  1.00  0.00     0.408 C 
ATOM     17  H   UNL     1       1.279   0.237  -1.310  1.00  0.00     0.168 HD
BRANCH  16  18
ATOM     18  O   UNL     1       3.974  -0.918  -0.095  1.00  0.00    -0.449 OA
BRANCH  18  19
ATOM     19  C   UNL     1       4.816  -1.124   1.129  1.00  0.00     0.248 C 
BRANCH  19  20
ATOM     20  C   UNL     1       6.258  -0.633   0.723  1.00  0.00     0.088 C 
ATOM     21  C   UNL     1       7.579  -1.365   0.758  1.00  0.00    -0.029 A 
ATOM     22  C   UNL     1       6.790   0.815   0.746  1.00  0.00    -0.029 A 
ATOM     23  C   UNL     1       7.964  -2.548   1.343  1.00  0.00     0.005 A 
ATOM     24  C   UNL     1       8.532  -0.503   0.114  1.00  0.00    -0.014 A 
ATOM     25  C   UNL     1       7.938   0.809  -0.062  1.00  0.00    -0.014 A 
ATOM     26  C   UNL     1       6.440   2.006   1.343  1.00  0.00     0.005 A 
ATOM     27  C   UNL     1       9.332  -2.837   1.338  1.00  0.00     0.000 A 
ATOM     28  C   UNL     1       9.872  -0.816   0.070  1.00  0.00     0.009 A 
ATOM     29  C   UNL     1       8.371   1.956  -0.701  1.00  0.00     0.009 A 
ATOM     30  C   UNL     1       6.891   3.195   0.749  1.00  0.00     0.000 A 
ATOM     31  C   UNL     1      10.271  -1.976   0.725  1.00  0.00     0.001 A 
ATOM     32  C   UNL     1       7.769   3.160  -0.345  1.00  0.00     0.001 A 
ENDBRANCH  19  20
ENDBRANCH  18  19
ENDBRANCH  16  18
ENDBRANCH   6  14
ENDBRANCH   4   6
ENDBRANCH   3   4
ENDBRANCH   2   3
ENDBRANCH   1   2
BRANCH   1  33
ATOM     33  O   UNL     1       4.749  -1.934  -4.237  1.00  0.00    -0.374 OA
BRANCH  33  34
ATOM     34  C   UNL     1       4.340  -2.297  -2.920  1.00  0.00     0.202 C 
BRANCH  34  35
ATOM     35  C   UNL     1       4.992  -3.559  -2.346  1.00  0.00     0.261 C 
BRANCH  35  36
ATOM     36  O   UNL     1       6.421  -3.433  -2.245  1.00  0.00    -0.460 OA
BRANCH  36  37
ATOM     37  C   UNL     1       7.117  -4.029  -3.244  1.00  0.00     0.338 C 
ATOM     38  O   UNL     1       6.678  -4.693  -4.165  1.00  0.00    -0.246 OA
BRANCH  37  39
ATOM     39  C   UNL     1       8.544  -3.678  -3.128  1.00  0.00     0.060 A 
ATOM     40  C   UNL     1       9.206  -3.150  -4.241  1.00  0.00     0.016 A 
ATOM     41  C   UNL     1       9.247  -3.945  -1.959  1.00  0.00     0.016 A 
ATOM     42  C   UNL     1      10.583  -2.904  -4.189  1.00  0.00     0.010 A 
ATOM     43  C   UNL     1      10.619  -3.683  -1.909  1.00  0.00     0.010 A 
ATOM     44  C   UNL     1      11.312  -3.178  -3.022  1.00  0.00    -0.014 A 
BRANCH  44  45
ATOM     45  C   UNL     1      12.799  -3.056  -2.980  1.00  0.00     0.031 A 
ATOM     46  C   UNL     1      13.637  -4.286  -2.717  1.00  0.00     0.074 A 
ATOM     47  C   UNL     1      13.415  -1.868  -3.150  1.00  0.00     0.049 A 
ATOM     48  N   UNL     1      14.935  -4.397  -2.574  1.00  0.00    -0.248 NA
ATOM     49  C   UNL     1      12.912  -5.557  -2.559  1.00  0.00     0.031 C 
ATOM     50  C   UNL     1      12.746  -0.587  -3.380  1.00  0.00     0.029 A 
ATOM     51  N   UNL     1      14.753  -1.546  -3.153  1.00  0.00    -0.354 N 
ATOM     52  C   UNL     1      15.170  -5.736  -2.281  1.00  0.00     0.074 A 
ATOM     53  C   UNL     1      13.880  -6.383  -2.199  1.00  0.00     0.031 C 
ATOM     54  C   UNL     1      13.675   0.373  -3.534  1.00  0.00     0.029 A 
ATOM     55  C   UNL     1      15.004  -0.213  -3.376  1.00  0.00     0.049 A 
ATOM     56  H   UNL     1      15.465  -2.210  -3.008  1.00  0.00     0.167 HD
ATOM     57  C   UNL     1      16.349  -6.385  -2.129  1.00  0.00     0.037 A 
ATOM     58  C   UNL     1      16.171   0.462  -3.442  1.00  0.00     0.037 A 
ATOM     59  C   UNL     1      17.640  -5.764  -2.263  1.00  0.00     0.049 A 
ATOM     60  C   UNL     1      17.472  -0.278  -3.262  1.00  0.00     0.074 A 
ATOM     61  C   UNL     1      18.890  -6.354  -2.194  1.00  0.00     0.029 A 
ATOM     62  N   UNL     1      17.846  -4.414  -2.498  1.00  0.00    -0.354 N 
ATOM     63  N   UNL     1      17.678  -1.555  -3.047  1.00  0.00    -0.248 NA
ATOM     64  C   UNL     1      18.707   0.519  -3.340  1.00  0.00     0.031 C 
ATOM     65  C   UNL     1      19.854  -5.352  -2.337  1.00  0.00     0.029 A 
ATOM     66  C   UNL     1      19.204  -4.148  -2.553  1.00  0.00     0.049 A 
ATOM     67  H   UNL     1      17.133  -3.744  -2.609  1.00  0.00     0.167 HD
ATOM     68  C   UNL     1      19.058  -1.718  -2.998  1.00  0.00     0.074 A 
ATOM     69  C   UNL     1      19.642  -0.412  -3.219  1.00  0.00     0.031 C 
ATOM     70  C   UNL     1      19.777  -2.848  -2.789  1.00  0.00     0.037 A 
BRANCH  57  71
ATOM     71  C   UNL     1      16.296  -7.851  -1.804  1.00  0.00     0.057 A 
ATOM     72  C   UNL     1      15.847  -8.802  -2.731  1.00  0.00     0.134 A 
ATOM     73  C   UNL     1      16.723  -8.321  -0.556  1.00  0.00     0.134 A 
ATOM     74  F   UNL     1      15.413  -8.419  -3.942  1.00  0.00    -0.206 F 
ATOM     75  C   UNL     1      15.789 -10.160  -2.416  1.00  0.00     0.040 A 
ATOM     76  C   UNL     1      16.702  -9.681  -0.241  1.00  0.00     0.040 A 
ATOM     77  F   UNL     1      17.174  -7.468   0.377  1.00  0.00    -0.206 F 
ATOM     78  C   UNL     1      16.225 -10.604  -1.169  1.00  0.00     0.006 A 
ENDBRANCH  57  71
BRANCH  58  79
ATOM     79  C   UNL     1      16.178   1.925  -3.708  1.00  0.00     0.057 A 
ATOM     80  C   UNL     1      16.686   2.440  -4.908  1.00  0.00     0.134 A 
ATOM     81  C   UNL     1      15.716   2.846  -2.760  1.00  0.00     0.134 A 
ATOM     82  F   UNL     1      17.168   1.612  -5.846  1.00  0.00    -0.206 F 
ATOM     83  C   UNL     1      16.756   3.814  -5.146  1.00  0.00     0.040 A 
ATOM     84  C   UNL     1      15.755   4.222  -2.996  1.00  0.00     0.040 A 
ATOM     85  F   UNL     1      15.215   2.421  -1.591  1.00  0.00    -0.206 F 
ATOM     86  C   UNL     1      16.285   4.710  -4.188  1.00  0.00     0.006 A 
ENDBRANCH  58  79
BRANCH  70  87
ATOM     87  C   UNL     1      21.275  -2.741  -2.835  1.00  0.00     0.057 A 
ATOM     88  C   UNL     1      22.007  -2.105  -1.824  1.00  0.00     0.134 A 
ATOM     89  C   UNL     1      21.998  -3.329  -3.882  1.00  0.00     0.134 A 
ATOM     90  F   UNL     1      21.377  -1.513  -0.798  1.00  0.00    -0.206 F 
ATOM     91  C   UNL     1      23.401  -2.039  -1.865  1.00  0.00     0.040 A 
ATOM     92  C   UNL     1      23.392  -3.295  -3.918  1.00  0.00     0.040 A 
ATOM     93  F   UNL     1      21.361  -3.965  -4.877  1.00  0.00    -0.206 F 
ATOM     94  C   UNL     1      24.098  -2.642  -2.910  1.00  0.00     0.006 A 
ENDBRANCH  70  87
ENDBRANCH  44  45
ENDBRANCH  37  39
ENDBRANCH  36  37
ENDBRANCH  35  36
ENDBRANCH  34  35
ENDBRANCH  33  34
ENDBRANCH   1  33
TORSDOF 18
