REMARK SMILES CC1(C)Cc2c(-c3ccccc3)c(-c3ccc(Cl)cc3)c(CC(=O)OCCOCCOC(=O)c3ccc(-c4c5nc(c(-c6c(F)cccc6F)c6ccc([nH]6)c(-c6c(F)cccc6F)c6nc(c(-c7c(F)cccc7F)c7ccc4[nH]7)C=C6)C=C5)cc3)n2C1
REMARK SMILES IDX 28 1 27 2 26 3 25 4 23 5 24 6 22 7 21 8 1 9 2 10 3 11 4 12
REMARK SMILES IDX 89 13 5 14 88 15 6 16 13 17 7 18 8 19 12 20 9 21 11 22 10 23
REMARK SMILES IDX 14 24 15 25 20 26 16 27 19 28 17 29 18 30 29 31 30 32 31 33
REMARK SMILES IDX 32 34 33 35 34 36 35 37 87 38 36 39 86 40 37 41 38 42 39 43
REMARK SMILES IDX 80 44 40 45 85 46 79 47 81 48 41 49 84 50 78 51 77 52 42 54
REMARK SMILES IDX 68 55 51 56 67 57 52 58 55 59 66 60 82 61 53 62 54 63 65 65
REMARK SMILES IDX 83 66 56 67 43 68 44 69 49 70 45 71 46 72 48 73 50 74 47 75
REMARK SMILES IDX 69 76 70 77 75 78 71 79 72 80 74 81 76 82 73 83 57 84 58 85
REMARK SMILES IDX 63 86 59 87 60 88 62 89 64 90 61 91
REMARK H PARENT 81 53 55 64
REMARK Flexibility Score: inf
ROOT
ATOM      1  O   UNL     1      -5.284  -5.299  -4.489  1.00  0.00    -0.374 OA
ENDROOT
BRANCH   1   2
ATOM      2  C   UNL     1      -5.122  -4.019  -5.072  1.00  0.00     0.202 C 
BRANCH   2   3
ATOM      3  C   UNL     1      -4.956  -2.873  -4.061  1.00  0.00     0.261 C 
BRANCH   3   4
ATOM      4  O   UNL     1      -4.084  -3.192  -2.946  1.00  0.00    -0.463 OA
BRANCH   4   5
ATOM      5  C   UNL     1      -4.680  -3.423  -1.752  1.00  0.00     0.311 C 
ATOM      6  O   UNL     1      -5.869  -3.187  -1.540  1.00  0.00    -0.252 OA
BRANCH   5   7
ATOM      7  C   UNL     1      -3.803  -3.994  -0.645  1.00  0.00     0.177 C 
BRANCH   7   8
ATOM      8  C   UNL     1      -2.339  -4.305  -0.869  1.00  0.00     0.037 A 
ATOM      9  C   UNL     1       0.529  -0.354  -0.060  1.00  0.00     0.013 C 
ATOM     10  C   UNL     1       0.115  -1.480  -1.015  1.00  0.00    -0.012 C 
ATOM     11  C   UNL     1       0.405  -1.046  -2.461  1.00  0.00     0.013 C 
ATOM     12  C   UNL     1       0.907  -2.783  -0.696  1.00  0.00     0.063 C 
ATOM     13  C   UNL     1      -1.390  -1.866  -0.841  1.00  0.00     0.129 C 
ATOM     14  C   UNL     1      -0.123  -3.837  -0.832  1.00  0.00     0.027 A 
ATOM     15  N   UNL     1      -1.383  -3.324  -0.932  1.00  0.00    -0.346 N 
ATOM     16  C   UNL     1      -0.203  -5.202  -0.814  1.00  0.00     0.011 A 
ATOM     17  C   UNL     1      -1.616  -5.518  -0.815  1.00  0.00     0.011 A 
BRANCH  16  18
ATOM     18  C   UNL     1       0.945  -6.083  -0.680  1.00  0.00    -0.016 A 
ATOM     19  C   UNL     1       1.914  -5.882   0.312  1.00  0.00     0.009 A 
ATOM     20  C   UNL     1       1.075  -7.176  -1.541  1.00  0.00     0.009 A 
ATOM     21  C   UNL     1       3.007  -6.745   0.420  1.00  0.00     0.001 A 
ATOM     22  C   UNL     1       2.138  -8.064  -1.398  1.00  0.00     0.001 A 
ATOM     23  C   UNL     1       3.117  -7.837  -0.436  1.00  0.00     0.000 A 
ENDBRANCH  16  18
BRANCH  17  24
ATOM     24  C   UNL     1      -2.148  -6.861  -0.551  1.00  0.00    -0.016 A 
ATOM     25  C   UNL     1      -2.167  -7.359   0.758  1.00  0.00     0.010 A 
ATOM     26  C   UNL     1      -2.390  -7.763  -1.594  1.00  0.00     0.010 A 
ATOM     27  C   UNL     1      -2.436  -8.716   1.002  1.00  0.00     0.021 A 
ATOM     28  C   UNL     1      -2.685  -9.108  -1.359  1.00  0.00     0.021 A 
ATOM     29  C   UNL     1      -2.699  -9.582  -0.057  1.00  0.00     0.041 A 
ATOM     30  Cl  UNL     1      -2.988 -11.252   0.232  1.00  0.00    -0.084 Cl
ENDBRANCH  17  24
ENDBRANCH   7   8
ENDBRANCH   5   7
ENDBRANCH   4   5
ENDBRANCH   3   4
ENDBRANCH   2   3
ENDBRANCH   1   2
BRANCH   1  31
ATOM     31  C   UNL     1      -4.126  -5.968  -4.005  1.00  0.00     0.202 C 
BRANCH  31  32
ATOM     32  C   UNL     1      -2.737  -5.373  -4.236  1.00  0.00     0.261 C 
BRANCH  32  33
ATOM     33  O   UNL     1      -2.427  -5.131  -5.605  1.00  0.00    -0.460 OA
BRANCH  33  34
ATOM     34  C   UNL     1      -1.844  -6.196  -6.183  1.00  0.00     0.338 C 
ATOM     35  O   UNL     1      -2.441  -7.091  -6.746  1.00  0.00    -0.246 OA
BRANCH  34  36
ATOM     36  C   UNL     1      -0.374  -6.099  -6.079  1.00  0.00     0.060 A 
ATOM     37  C   UNL     1       0.366  -6.741  -7.070  1.00  0.00     0.016 A 
ATOM     38  C   UNL     1       0.261  -5.466  -4.994  1.00  0.00     0.016 A 
ATOM     39  C   UNL     1       1.743  -6.773  -6.961  1.00  0.00     0.010 A 
ATOM     40  C   UNL     1       1.627  -5.556  -4.848  1.00  0.00     0.010 A 
ATOM     41  C   UNL     1       2.354  -6.200  -5.840  1.00  0.00    -0.014 A 
BRANCH  41  42
ATOM     42  C   UNL     1       3.795  -6.123  -5.811  1.00  0.00     0.031 A 
ATOM     43  C   UNL     1       4.373  -4.991  -6.560  1.00  0.00     0.074 A 
ATOM     44  C   UNL     1       4.570  -6.934  -5.079  1.00  0.00     0.049 A 
ATOM     45  N   UNL     1       5.075  -5.069  -7.639  1.00  0.00    -0.248 NA
ATOM     46  C   UNL     1       4.067  -3.621  -6.130  1.00  0.00     0.031 C 
ATOM     47  C   UNL     1       4.151  -7.917  -4.091  1.00  0.00     0.029 A 
ATOM     48  N   UNL     1       5.926  -6.971  -5.015  1.00  0.00    -0.354 N 
ATOM     49  C   UNL     1       5.459  -3.771  -7.934  1.00  0.00     0.074 A 
ATOM     50  C   UNL     1       4.697  -2.909  -7.066  1.00  0.00     0.031 C 
ATOM     51  C   UNL     1       5.226  -8.305  -3.369  1.00  0.00     0.029 A 
ATOM     52  C   UNL     1       6.415  -7.713  -3.957  1.00  0.00     0.049 A 
ATOM     53  H   UNL     1       6.507  -6.512  -5.664  1.00  0.00     0.167 HD
ATOM     54  C   UNL     1       6.539  -3.522  -8.719  1.00  0.00     0.037 A 
ATOM     55  C   UNL     1       7.708  -7.808  -3.574  1.00  0.00     0.037 A 
ATOM     56  C   UNL     1       6.940  -4.689  -9.463  1.00  0.00     0.049 A 
ATOM     57  C   UNL     1       8.551  -7.480  -4.748  1.00  0.00     0.074 A 
ATOM     58  C   UNL     1       6.322  -5.515 -10.382  1.00  0.00     0.029 A 
ATOM     59  N   UNL     1       8.051  -5.373  -9.035  1.00  0.00    -0.354 N 
ATOM     60  N   UNL     1       8.643  -8.236  -5.807  1.00  0.00    -0.248 NA
ATOM     61  C   UNL     1       8.986  -6.103  -4.932  1.00  0.00     0.031 C 
ATOM     62  C   UNL     1       6.832  -6.820 -10.117  1.00  0.00     0.029 A 
ATOM     63  C   UNL     1       7.748  -6.710  -9.070  1.00  0.00     0.049 A 
ATOM     64  H   UNL     1       8.907  -4.977  -8.753  1.00  0.00     0.167 HD
ATOM     65  C   UNL     1       8.719  -7.348  -6.869  1.00  0.00     0.074 A 
ATOM     66  C   UNL     1       9.065  -6.066  -6.265  1.00  0.00     0.031 C 
ATOM     67  C   UNL     1       8.215  -7.673  -8.097  1.00  0.00     0.037 A 
BRANCH  54  68
ATOM     68  C   UNL     1       7.433  -2.327  -8.551  1.00  0.00     0.057 A 
ATOM     69  C   UNL     1       8.367  -2.018  -9.552  1.00  0.00     0.134 A 
ATOM     70  C   UNL     1       7.600  -1.639  -7.332  1.00  0.00     0.134 A 
ATOM     71  F   UNL     1       8.327  -2.635 -10.743  1.00  0.00    -0.206 F 
ATOM     72  C   UNL     1       9.422  -1.125  -9.338  1.00  0.00     0.040 A 
ATOM     73  C   UNL     1       8.617  -0.704  -7.126  1.00  0.00     0.040 A 
ATOM     74  F   UNL     1       6.858  -1.909  -6.250  1.00  0.00    -0.206 F 
ATOM     75  C   UNL     1       9.550  -0.466  -8.122  1.00  0.00     0.006 A 
ENDBRANCH  54  68
BRANCH  55  76
ATOM     76  C   UNL     1       8.228  -7.940  -2.202  1.00  0.00     0.057 A 
ATOM     77  C   UNL     1       9.506  -8.446  -1.946  1.00  0.00     0.134 A 
ATOM     78  C   UNL     1       7.566  -7.338  -1.117  1.00  0.00     0.134 A 
ATOM     79  F   UNL     1      10.229  -8.997  -2.931  1.00  0.00    -0.206 F 
ATOM     80  C   UNL     1      10.098  -8.352  -0.680  1.00  0.00     0.040 A 
ATOM     81  C   UNL     1       8.142  -7.241   0.152  1.00  0.00     0.040 A 
ATOM     82  F   UNL     1       6.370  -6.750  -1.276  1.00  0.00    -0.206 F 
ATOM     83  C   UNL     1       9.419  -7.741   0.371  1.00  0.00     0.006 A 
ENDBRANCH  55  76
BRANCH  67  84
ATOM     84  C   UNL     1       7.857  -9.113  -8.344  1.00  0.00     0.057 A 
ATOM     85  C   UNL     1       6.827  -9.787  -7.671  1.00  0.00     0.134 A 
ATOM     86  C   UNL     1       8.475  -9.795  -9.397  1.00  0.00     0.134 A 
ATOM     87  F   UNL     1       6.107  -9.181  -6.720  1.00  0.00    -0.206 F 
ATOM     88  C   UNL     1       6.463 -11.096  -7.998  1.00  0.00     0.040 A 
ATOM     89  C   UNL     1       8.099 -11.092  -9.756  1.00  0.00     0.040 A 
ATOM     90  F   UNL     1       9.427  -9.192 -10.127  1.00  0.00    -0.206 F 
ATOM     91  C   UNL     1       7.097 -11.752  -9.049  1.00  0.00     0.006 A 
ENDBRANCH  67  84
ENDBRANCH  41  42
ENDBRANCH  34  36
ENDBRANCH  33  34
ENDBRANCH  32  33
ENDBRANCH  31  32
ENDBRANCH   1  31
TORSDOF 17
