REMARK SMILES NS(=O)(=O)c1ccc(-c2coc(=O)n2-c2ccc(C(=O)OCCOCCOC(=O)c3ccc(-c4c5nc(c(-c6c(F)cccc6F)c6ccc([nH]6)c(-c6c(F)cccc6F)c6nc(c(-c7c(F)cccc7F)c7ccc4[nH]7)C=C6)C=C5)cc3)cc2)cc1
REMARK SMILES IDX 23 1 22 2 21 3 19 4 20 5 18 6 15 7 16 8 85 9 17 10 84 11
REMARK SMILES IDX 14 12 9 13 10 14 11 15 12 16 13 17 8 18 5 19 6 20 87 21 7 22
REMARK SMILES IDX 86 23 2 24 3 25 4 26 1 27 24 30 25 31 26 32 27 33 28 34
REMARK SMILES IDX 29 35 30 36 31 37 83 38 32 39 82 40 33 41 34 42 35 43 76 44
REMARK SMILES IDX 36 45 81 46 75 47 77 48 37 49 80 50 74 51 73 52 38 54 64 55
REMARK SMILES IDX 47 56 63 57 48 58 51 59 62 60 78 61 49 62 50 63 61 65 79 66
REMARK SMILES IDX 52 67 39 68 40 69 45 70 41 71 42 72 44 73 46 74 43 75 65 76
REMARK SMILES IDX 66 77 71 78 67 79 68 80 70 81 72 82 69 83 53 84 54 85 59 86
REMARK SMILES IDX 55 87 56 88 58 89 60 90 57 91
REMARK H PARENT 1 28 1 29 77 53 51 64
REMARK Flexibility Score: inf
ROOT
ATOM      1  C   UNL     1      -3.181  -2.928 -10.417  1.00  0.00     0.202 C 
ENDROOT
BRANCH   1   2
ATOM      2  C   UNL     1      -2.564  -2.994  -9.019  1.00  0.00     0.261 C 
BRANCH   2   3
ATOM      3  O   UNL     1      -2.085  -1.720  -8.565  1.00  0.00    -0.460 OA
BRANCH   3   4
ATOM      4  C   UNL     1      -0.734  -1.617  -8.539  1.00  0.00     0.338 C 
ATOM      5  O   UNL     1       0.078  -2.484  -8.818  1.00  0.00    -0.246 OA
BRANCH   4   6
ATOM      6  C   UNL     1      -0.335  -0.222  -8.280  1.00  0.00     0.060 A 
ATOM      7  C   UNL     1       0.767   2.244  -7.596  1.00  0.00     0.053 A 
ATOM      8  C   UNL     1       1.278   1.543  -8.690  1.00  0.00     0.028 A 
ATOM      9  C   UNL     1      -0.383   1.766  -6.941  1.00  0.00     0.028 A 
ATOM     10  C   UNL     1       0.747   0.294  -9.009  1.00  0.00     0.018 A 
ATOM     11  C   UNL     1      -0.947   0.540  -7.288  1.00  0.00     0.018 A 
BRANCH   7  12
ATOM     12  N   UNL     1       1.506   3.311  -7.039  1.00  0.00    -0.242 N 
ATOM     13  C   UNL     1       1.853   3.476  -5.725  1.00  0.00     0.095 A 
ATOM     14  C   UNL     1       2.585   4.581  -5.672  1.00  0.00     0.228 A 
ATOM     15  O   UNL     1       2.774   5.202  -6.906  1.00  0.00    -0.415 OA
ATOM     16  C   UNL     1       2.098   4.338  -7.770  1.00  0.00     0.424 A 
ATOM     17  O   UNL     1       2.049   4.524  -8.979  1.00  0.00    -0.223 OA
BRANCH  13  18
ATOM     18  C   UNL     1       1.609   2.503  -4.662  1.00  0.00     0.002 A 
ATOM     19  C   UNL     1       0.951   0.542  -2.781  1.00  0.00     0.082 A 
ATOM     20  C   UNL     1       1.798   0.217  -3.840  1.00  0.00     0.022 A 
ATOM     21  C   UNL     1       0.448   1.840  -2.640  1.00  0.00     0.022 A 
ATOM     22  C   UNL     1       2.131   1.201  -4.772  1.00  0.00     0.012 A 
ATOM     23  C   UNL     1       0.786   2.822  -3.576  1.00  0.00     0.012 A 
BRANCH  19  24
ATOM     24  S   UNL     1       0.462  -0.706  -1.628  1.00  0.00     0.238 S 
ATOM     25  O   UNL     1       1.161  -1.937  -1.928  1.00  0.00    -0.207 OA
ATOM     26  O   UNL     1      -0.967  -0.643  -1.461  1.00  0.00    -0.207 OA
BRANCH  24  27
ATOM     27  N   UNL     1       1.137  -0.148  -0.196  1.00  0.00    -0.225 NA
ATOM     28  H   UNL     1       0.919  -0.798   0.559  1.00  0.00     0.137 HD
ATOM     29  H   UNL     1       0.754   0.771   0.025  1.00  0.00     0.137 HD
ENDBRANCH  24  27
ENDBRANCH  19  24
ENDBRANCH  13  18
ENDBRANCH   7  12
ENDBRANCH   4   6
ENDBRANCH   3   4
ENDBRANCH   2   3
ENDBRANCH   1   2
BRANCH   1  30
ATOM     30  O   UNL     1      -2.363  -2.554 -11.525  1.00  0.00    -0.374 OA
BRANCH  30  31
ATOM     31  C   UNL     1      -1.820  -1.242 -11.627  1.00  0.00     0.202 C 
BRANCH  31  32
ATOM     32  C   UNL     1      -2.753  -0.077 -11.925  1.00  0.00     0.261 C 
BRANCH  32  33
ATOM     33  O   UNL     1      -3.808   0.001 -10.984  1.00  0.00    -0.460 OA
BRANCH  33  34
ATOM     34  C   UNL     1      -4.955  -0.571 -11.411  1.00  0.00     0.338 C 
ATOM     35  O   UNL     1      -5.121  -1.246 -12.413  1.00  0.00    -0.246 OA
BRANCH  34  36
ATOM     36  C   UNL     1      -6.046  -0.128 -10.537  1.00  0.00     0.060 A 
ATOM     37  C   UNL     1      -7.324  -0.480 -10.974  1.00  0.00     0.016 A 
ATOM     38  C   UNL     1      -5.811   0.957  -9.682  1.00  0.00     0.016 A 
ATOM     39  C   UNL     1      -8.311   0.464 -10.858  1.00  0.00     0.010 A 
ATOM     40  C   UNL     1      -6.788   1.909  -9.592  1.00  0.00     0.010 A 
ATOM     41  C   UNL     1      -7.976   1.693 -10.285  1.00  0.00    -0.014 A 
BRANCH  41  42
ATOM     42  C   UNL     1      -8.941   2.760 -10.348  1.00  0.00     0.031 A 
ATOM     43  C   UNL     1      -9.961   2.614  -9.295  1.00  0.00     0.074 A 
ATOM     44  C   UNL     1      -8.807   3.794 -11.197  1.00  0.00     0.049 A 
ATOM     45  N   UNL     1     -11.168   2.177  -9.431  1.00  0.00    -0.248 NA
ATOM     46  C   UNL     1      -9.499   2.690  -7.899  1.00  0.00     0.031 C 
ATOM     47  C   UNL     1      -7.676   4.124 -12.069  1.00  0.00     0.029 A 
ATOM     48  N   UNL     1      -9.652   4.844 -11.379  1.00  0.00    -0.354 N 
ATOM     49  C   UNL     1     -11.686   2.171  -8.142  1.00  0.00     0.074 A 
ATOM     50  C   UNL     1     -10.555   2.187  -7.261  1.00  0.00     0.031 C 
ATOM     51  C   UNL     1      -7.806   5.399 -12.505  1.00  0.00     0.029 A 
ATOM     52  C   UNL     1      -9.081   5.923 -12.049  1.00  0.00     0.049 A 
ATOM     53  H   UNL     1     -10.585   4.842 -11.064  1.00  0.00     0.167 HD
ATOM     54  C   UNL     1     -12.979   2.530  -7.918  1.00  0.00     0.037 A 
ATOM     55  C   UNL     1      -9.617   7.169 -12.104  1.00  0.00     0.037 A 
ATOM     56  C   UNL     1     -13.737   2.473  -9.147  1.00  0.00     0.049 A 
ATOM     57  C   UNL     1     -11.059   7.041 -11.752  1.00  0.00     0.074 A 
ATOM     58  C   UNL     1     -14.046   1.483 -10.059  1.00  0.00     0.029 A 
ATOM     59  N   UNL     1     -13.974   3.666  -9.789  1.00  0.00    -0.354 N 
ATOM     60  N   UNL     1     -11.930   6.426 -12.508  1.00  0.00    -0.248 NA
ATOM     61  C   UNL     1     -11.415   7.133 -10.342  1.00  0.00     0.031 C 
ATOM     62  C   UNL     1     -14.016   2.125 -11.332  1.00  0.00     0.029 A 
ATOM     63  C   UNL     1     -13.763   3.482 -11.129  1.00  0.00     0.049 A 
ATOM     64  H   UNL     1     -14.248   4.508  -9.358  1.00  0.00     0.167 HD
ATOM     65  C   UNL     1     -12.710   5.690 -11.625  1.00  0.00     0.074 A 
ATOM     66  C   UNL     1     -12.386   6.215 -10.300  1.00  0.00     0.031 C 
ATOM     67  C   UNL     1     -13.311   4.528 -12.018  1.00  0.00     0.037 A 
BRANCH  54  68
ATOM     68  C   UNL     1     -13.426   3.373  -6.739  1.00  0.00     0.057 A 
ATOM     69  C   UNL     1     -14.792   3.691  -6.642  1.00  0.00     0.134 A 
ATOM     70  C   UNL     1     -12.584   4.132  -5.896  1.00  0.00     0.134 A 
ATOM     71  F   UNL     1     -15.707   3.023  -7.362  1.00  0.00    -0.206 F 
ATOM     72  C   UNL     1     -15.263   4.766  -5.881  1.00  0.00     0.040 A 
ATOM     73  C   UNL     1     -13.050   5.179  -5.098  1.00  0.00     0.040 A 
ATOM     74  F   UNL     1     -11.259   3.981  -5.840  1.00  0.00    -0.206 F 
ATOM     75  C   UNL     1     -14.387   5.529  -5.122  1.00  0.00     0.006 A 
ENDBRANCH  54  68
BRANCH  55  76
ATOM     76  C   UNL     1      -8.902   8.467 -12.079  1.00  0.00     0.057 A 
ATOM     77  C   UNL     1      -9.527   9.660 -12.467  1.00  0.00     0.134 A 
ATOM     78  C   UNL     1      -7.665   8.607 -11.423  1.00  0.00     0.134 A 
ATOM     79  F   UNL     1     -10.735   9.636 -13.049  1.00  0.00    -0.206 F 
ATOM     80  C   UNL     1      -8.956  10.917 -12.217  1.00  0.00     0.040 A 
ATOM     81  C   UNL     1      -7.083   9.853 -11.171  1.00  0.00     0.040 A 
ATOM     82  F   UNL     1      -7.023   7.541 -10.924  1.00  0.00    -0.206 F 
ATOM     83  C   UNL     1      -7.733  11.017 -11.561  1.00  0.00     0.006 A 
ENDBRANCH  55  76
BRANCH  67  84
ATOM     84  C   UNL     1     -13.303   4.194 -13.483  1.00  0.00     0.057 A 
ATOM     85  C   UNL     1     -12.143   3.875 -14.208  1.00  0.00     0.134 A 
ATOM     86  C   UNL     1     -14.527   4.008 -14.132  1.00  0.00     0.134 A 
ATOM     87  F   UNL     1     -10.934   3.933 -13.636  1.00  0.00    -0.206 F 
ATOM     88  C   UNL     1     -12.203   3.417 -15.528  1.00  0.00     0.040 A 
ATOM     89  C   UNL     1     -14.602   3.521 -15.438  1.00  0.00     0.040 A 
ATOM     90  F   UNL     1     -15.677   4.239 -13.479  1.00  0.00    -0.206 F 
ATOM     91  C   UNL     1     -13.437   3.230 -16.143  1.00  0.00     0.006 A 
ENDBRANCH  67  84
ENDBRANCH  41  42
ENDBRANCH  34  36
ENDBRANCH  33  34
ENDBRANCH  32  33
ENDBRANCH  31  32
ENDBRANCH  30  31
ENDBRANCH   1  30
TORSDOF 18
