REMARK SMILES C[C@H](C[N@H+](C)[C@H]1CC[C@H]([NH3+])CC1)C(=O)OCCOCCOC(=O)c1ccc(-c2c3nc(c(-c4c(F)cccc4F)c4ccc([nH]4)c(-c4c(F)cccc4F)c4nc(c(-c5c(F)cccc5F)c5ccc2[nH]5)C=C4)C=C3)cc1
REMARK SMILES IDX 17 1 16 2 15 3 13 4 14 5 2 6 1 7 3 8 4 9 5 10 6 12 7 13
REMARK SMILES IDX 12 14 8 15 11 16 9 17 10 18 18 22 19 23 20 24 21 25 22 26
REMARK SMILES IDX 23 27 24 28 25 29 77 30 26 31 76 32 27 33 28 34 29 35 70 36
REMARK SMILES IDX 30 37 75 38 69 39 71 40 31 41 74 42 68 43 67 44 32 46 58 47
REMARK SMILES IDX 41 48 57 49 42 50 45 51 56 52 72 53 43 54 44 55 55 57 73 58
REMARK SMILES IDX 46 59 33 60 34 61 39 62 35 63 36 64 38 65 40 66 37 67 59 68
REMARK SMILES IDX 60 69 65 70 61 71 62 72 64 73 66 74 63 75 47 76 48 77 53 78
REMARK SMILES IDX 49 79 50 80 52 81 54 82 51 83
REMARK H PARENT 4 11 10 19 10 20 10 21 71 45 45 56
REMARK Flexibility Score: inf
ROOT
ATOM      1  C   UNL     1      -4.097  -0.805   0.054  1.00  0.00     0.202 C 
ENDROOT
BRANCH   1   2
ATOM      2  C   UNL     1      -3.583  -0.736   1.489  1.00  0.00     0.261 C 
BRANCH   2   3
ATOM      3  O   UNL     1      -2.214  -0.319   1.562  1.00  0.00    -0.463 OA
BRANCH   3   4
ATOM      4  C   UNL     1      -1.306  -1.307   1.799  1.00  0.00     0.314 C 
ATOM      5  O   UNL     1      -1.544  -2.506   1.808  1.00  0.00    -0.252 OA
BRANCH   4   6
ATOM      6  C   UNL     1       0.036  -0.719   2.167  1.00  0.00     0.151 C 
ATOM      7  C   UNL     1      -0.185  -0.033   3.521  1.00  0.00     0.026 C 
BRANCH   6   8
ATOM      8  C   UNL     1       0.615   0.118   0.982  1.00  0.00     0.277 C 
BRANCH   8   9
ATOM      9  N   UNL     1       1.810   0.981   1.158  1.00  0.00    -0.334 N 
ATOM     10  C   UNL     1       2.497   1.226  -0.109  1.00  0.00     0.332 C 
ATOM     11  H   UNL     1       1.447   1.880   1.474  1.00  0.00     0.348 HD
BRANCH   9  12
ATOM     12  C   UNL     1       2.698   0.601   2.249  1.00  0.00     0.184 C 
ATOM     13  C   UNL     1       3.614   1.717   2.767  1.00  0.00     0.071 C 
ATOM     14  C   UNL     1       3.522  -0.677   2.078  1.00  0.00     0.071 C 
ATOM     15  C   UNL     1       4.024   1.343   4.197  1.00  0.00     0.071 C 
ATOM     16  C   UNL     1       3.936  -1.153   3.472  1.00  0.00     0.071 C 
ATOM     17  C   UNL     1       4.648  -0.064   4.296  1.00  0.00     0.181 C 
BRANCH  17  18
ATOM     18  N   UNL     1       4.678  -0.491   5.698  1.00  0.00    -0.355 N 
ATOM     19  H   UNL     1       3.724  -0.573   6.049  1.00  0.00     0.344 HD
ATOM     20  H   UNL     1       5.186   0.198   6.252  1.00  0.00     0.344 HD
ATOM     21  H   UNL     1       5.145  -1.395   5.767  1.00  0.00     0.344 HD
ENDBRANCH  17  18
ENDBRANCH   9  12
ENDBRANCH   8   9
ENDBRANCH   6   8
ENDBRANCH   4   6
ENDBRANCH   3   4
ENDBRANCH   2   3
ENDBRANCH   1   2
BRANCH   1  22
ATOM     22  O   UNL     1      -3.522  -1.810  -0.773  1.00  0.00    -0.374 OA
BRANCH  22  23
ATOM     23  C   UNL     1      -2.248  -1.537  -1.357  1.00  0.00     0.202 C 
BRANCH  23  24
ATOM     24  C   UNL     1      -2.250  -0.578  -2.552  1.00  0.00     0.261 C 
BRANCH  24  25
ATOM     25  O   UNL     1      -2.471   0.784  -2.135  1.00  0.00    -0.460 OA
BRANCH  25  26
ATOM     26  C   UNL     1      -3.634   1.328  -2.567  1.00  0.00     0.338 C 
ATOM     27  O   UNL     1      -4.457   0.823  -3.309  1.00  0.00    -0.246 OA
BRANCH  26  28
ATOM     28  C   UNL     1      -3.889   2.600  -1.866  1.00  0.00     0.060 A 
ATOM     29  C   UNL     1      -5.109   2.730  -1.190  1.00  0.00     0.016 A 
ATOM     30  C   UNL     1      -3.010   3.681  -1.963  1.00  0.00     0.016 A 
ATOM     31  C   UNL     1      -5.484   3.960  -0.659  1.00  0.00     0.010 A 
ATOM     32  C   UNL     1      -3.394   4.920  -1.438  1.00  0.00     0.010 A 
ATOM     33  C   UNL     1      -4.650   5.074  -0.822  1.00  0.00    -0.014 A 
BRANCH  33  34
ATOM     34  C   UNL     1      -5.172   6.421  -0.493  1.00  0.00     0.031 A 
ATOM     35  C   UNL     1      -5.725   7.278  -1.599  1.00  0.00     0.074 A 
ATOM     36  C   UNL     1      -5.200   6.856   0.778  1.00  0.00     0.049 A 
ATOM     37  N   UNL     1      -6.225   8.486  -1.543  1.00  0.00    -0.248 NA
ATOM     38  C   UNL     1      -5.716   6.692  -2.950  1.00  0.00     0.031 C 
ATOM     39  C   UNL     1      -4.734   6.102   1.940  1.00  0.00     0.029 A 
ATOM     40  N   UNL     1      -5.641   8.045   1.302  1.00  0.00    -0.354 N 
ATOM     41  C   UNL     1      -6.587   8.805  -2.846  1.00  0.00     0.074 A 
ATOM     42  C   UNL     1      -6.223   7.677  -3.676  1.00  0.00     0.031 C 
ATOM     43  C   UNL     1      -4.906   6.851   3.042  1.00  0.00     0.029 A 
ATOM     44  C   UNL     1      -5.467   8.146   2.660  1.00  0.00     0.049 A 
ATOM     45  H   UNL     1      -6.044   8.758   0.755  1.00  0.00     0.167 HD
ATOM     46  C   UNL     1      -7.178   9.932  -3.308  1.00  0.00     0.037 A 
ATOM     47  C   UNL     1      -5.715   9.174   3.493  1.00  0.00     0.037 A 
ATOM     48  C   UNL     1      -7.541  11.053  -2.482  1.00  0.00     0.049 A 
ATOM     49  C   UNL     1      -6.307  10.445   2.943  1.00  0.00     0.074 A 
ATOM     50  C   UNL     1      -8.158  12.235  -2.853  1.00  0.00     0.029 A 
ATOM     51  N   UNL     1      -7.314  11.132  -1.116  1.00  0.00    -0.354 N 
ATOM     52  N   UNL     1      -6.665  10.728   1.714  1.00  0.00    -0.248 NA
ATOM     53  C   UNL     1      -6.532  11.539   3.900  1.00  0.00     0.031 C 
ATOM     54  C   UNL     1      -8.263  13.048  -1.720  1.00  0.00     0.029 A 
ATOM     55  C   UNL     1      -7.756  12.353  -0.634  1.00  0.00     0.049 A 
ATOM     56  H   UNL     1      -6.900  10.425  -0.571  1.00  0.00     0.167 HD
ATOM     57  C   UNL     1      -7.179  12.018   1.754  1.00  0.00     0.074 A 
ATOM     58  C   UNL     1      -7.100  12.457   3.131  1.00  0.00     0.031 C 
ATOM     59  C   UNL     1      -7.674  12.772   0.742  1.00  0.00     0.037 A 
BRANCH  46  60
ATOM     60  C   UNL     1      -7.451  10.017  -4.781  1.00  0.00     0.057 A 
ATOM     61  C   UNL     1      -8.470   9.274  -5.388  1.00  0.00     0.134 A 
ATOM     62  C   UNL     1      -6.707  10.882  -5.594  1.00  0.00     0.134 A 
ATOM     63  F   UNL     1      -9.209   8.417  -4.667  1.00  0.00    -0.206 F 
ATOM     64  C   UNL     1      -8.729   9.374  -6.757  1.00  0.00     0.040 A 
ATOM     65  C   UNL     1      -6.972  11.007  -6.959  1.00  0.00     0.040 A 
ATOM     66  F   UNL     1      -5.718  11.624  -5.074  1.00  0.00    -0.206 F 
ATOM     67  C   UNL     1      -7.983  10.248  -7.544  1.00  0.00     0.006 A 
ENDBRANCH  46  60
BRANCH  47  68
ATOM     68  C   UNL     1      -5.391   9.056   4.937  1.00  0.00     0.057 A 
ATOM     69  C   UNL     1      -6.398   9.007   5.907  1.00  0.00     0.134 A 
ATOM     70  C   UNL     1      -4.064   9.018   5.382  1.00  0.00     0.134 A 
ATOM     71  F   UNL     1      -7.688   9.064   5.544  1.00  0.00    -0.206 F 
ATOM     72  C   UNL     1      -6.099   8.941   7.269  1.00  0.00     0.040 A 
ATOM     73  C   UNL     1      -3.750   8.928   6.738  1.00  0.00     0.040 A 
ATOM     74  F   UNL     1      -3.053   9.063   4.502  1.00  0.00    -0.206 F 
ATOM     75  C   UNL     1      -4.770   8.897   7.687  1.00  0.00     0.006 A 
ENDBRANCH  47  68
BRANCH  59  76
ATOM     76  C   UNL     1      -8.196  14.135   1.091  1.00  0.00     0.057 A 
ATOM     77  C   UNL     1      -7.340  15.193   1.420  1.00  0.00     0.134 A 
ATOM     78  C   UNL     1      -9.571  14.399   1.064  1.00  0.00     0.134 A 
ATOM     79  F   UNL     1      -6.013  15.001   1.476  1.00  0.00    -0.206 F 
ATOM     80  C   UNL     1      -7.834  16.460   1.732  1.00  0.00     0.040 A 
ATOM     81  C   UNL     1     -10.076  15.669   1.349  1.00  0.00     0.040 A 
ATOM     82  F   UNL     1     -10.446  13.432   0.748  1.00  0.00    -0.206 F 
ATOM     83  C   UNL     1      -9.206  16.702   1.691  1.00  0.00     0.006 A 
ENDBRANCH  59  76
ENDBRANCH  33  34
ENDBRANCH  26  28
ENDBRANCH  25  26
ENDBRANCH  24  25
ENDBRANCH  23  24
ENDBRANCH  22  23
ENDBRANCH   1  22
TORSDOF 18
