REMARK SMILES Cc1nonc1-c1noc(CCC(=O)OCCOCCOC(=O)c2ccc(-c3c4nc(c(-c5c(F)cccc5F)c5ccc([nH]5)c(-c5c(F)cccc5F)c5nc(c(-c6c(F)cccc6F)c6ccc3[nH]6)C=C5)C=C4)cc2)n1
REMARK SMILES IDX 17 1 16 2 15 3 13 4 14 5 12 6 11 7 10 8 7 9 8 10 78 11 9 12
REMARK SMILES IDX 6 13 1 14 2 15 3 16 4 17 5 18 18 19 19 20 20 21 21 22 22 23
REMARK SMILES IDX 23 24 24 25 25 26 77 27 26 28 76 29 27 30 28 31 29 32 70 33
REMARK SMILES IDX 30 34 75 35 69 36 71 37 31 38 74 39 68 40 67 41 32 43 58 44
REMARK SMILES IDX 41 45 57 46 42 47 45 48 56 49 72 50 43 51 44 52 55 54 73 55
REMARK SMILES IDX 46 56 33 57 34 58 39 59 35 60 36 61 38 62 40 63 37 64 59 65
REMARK SMILES IDX 60 66 65 67 61 68 62 69 64 70 66 71 63 72 47 73 48 74 53 75
REMARK SMILES IDX 49 76 50 77 52 78 54 79 51 80
REMARK H PARENT 71 42 45 53
REMARK Flexibility Score: inf
ROOT
ATOM      1  C   UNL     1      -0.481   7.869   1.878  1.00  0.00     0.202 C 
ENDROOT
BRANCH   1   2
ATOM      2  C   UNL     1      -1.380   7.779   0.641  1.00  0.00     0.261 C 
BRANCH   2   3
ATOM      3  O   UNL     1      -0.837   6.834  -0.306  1.00  0.00    -0.463 OA
BRANCH   3   4
ATOM      4  C   UNL     1      -0.461   7.305  -1.519  1.00  0.00     0.306 C 
ATOM      5  O   UNL     1      -0.593   8.460  -1.899  1.00  0.00    -0.252 OA
BRANCH   4   6
ATOM      6  C   UNL     1       0.131   6.216  -2.386  1.00  0.00     0.132 C 
BRANCH   6   7
ATOM      7  C   UNL     1       1.242   5.396  -1.736  1.00  0.00     0.112 C 
BRANCH   7   8
ATOM      8  C   UNL     1       0.738   4.250  -0.938  1.00  0.00     0.227 A 
ATOM      9  C   UNL     1       0.088   2.431  -0.143  1.00  0.00     0.226 A 
ATOM     10  N   UNL     1      -0.139   3.296   0.853  1.00  0.00    -0.055 NA
ATOM     11  N   UNL     1       0.664   2.980  -1.265  1.00  0.00    -0.190 NA
ATOM     12  O   UNL     1       0.321   4.506   0.335  1.00  0.00    -0.339 OA
BRANCH   9  13
ATOM     13  C   UNL     1      -0.184   1.006  -0.065  1.00  0.00     0.178 A 
ATOM     14  C   UNL     1       2.261   0.072  -0.110  1.00  0.00     0.073 C 
ATOM     15  C   UNL     1       0.786  -0.008  -0.067  1.00  0.00     0.113 A 
ATOM     16  N   UNL     1       0.176  -1.195   0.019  1.00  0.00    -0.054 NA
ATOM     17  O   UNL     1      -1.184  -0.898   0.083  1.00  0.00    -0.244 OA
ATOM     18  N   UNL     1      -1.404   0.477   0.040  1.00  0.00    -0.046 NA
ENDBRANCH   9  13
ENDBRANCH   7   8
ENDBRANCH   6   7
ENDBRANCH   4   6
ENDBRANCH   3   4
ENDBRANCH   2   3
ENDBRANCH   1   2
BRANCH   1  19
ATOM     19  O   UNL     1       0.661   8.716   1.729  1.00  0.00    -0.374 OA
BRANCH  19  20
ATOM     20  C   UNL     1       1.769   8.170   1.019  1.00  0.00     0.202 C 
BRANCH  20  21
ATOM     21  C   UNL     1       2.749   7.351   1.867  1.00  0.00     0.261 C 
BRANCH  21  22
ATOM     22  O   UNL     1       2.124   6.179   2.420  1.00  0.00    -0.460 OA
BRANCH  22  23
ATOM     23  C   UNL     1       1.835   6.276   3.739  1.00  0.00     0.338 C 
ATOM     24  O   UNL     1       2.150   7.186   4.495  1.00  0.00    -0.246 OA
BRANCH  23  25
ATOM     25  C   UNL     1       0.942   5.184   4.170  1.00  0.00     0.060 A 
ATOM     26  C   UNL     1      -0.129   5.532   5.002  1.00  0.00     0.016 A 
ATOM     27  C   UNL     1       1.188   3.843   3.861  1.00  0.00     0.016 A 
ATOM     28  C   UNL     1      -0.903   4.540   5.598  1.00  0.00     0.010 A 
ATOM     29  C   UNL     1       0.402   2.846   4.453  1.00  0.00     0.010 A 
ATOM     30  C   UNL     1      -0.607   3.189   5.371  1.00  0.00    -0.014 A 
BRANCH  30  31
ATOM     31  C   UNL     1      -1.214   2.172   6.266  1.00  0.00     0.031 A 
ATOM     32  C   UNL     1      -0.395   1.639   7.413  1.00  0.00     0.074 A 
ATOM     33  C   UNL     1      -2.498   1.796   6.128  1.00  0.00     0.049 A 
ATOM     34  N   UNL     1      -0.735   0.806   8.364  1.00  0.00    -0.248 NA
ATOM     35  C   UNL     1       0.996   2.112   7.501  1.00  0.00     0.031 C 
ATOM     36  C   UNL     1      -3.407   2.257   5.080  1.00  0.00     0.029 A 
ATOM     37  N   UNL     1      -3.261   0.946   6.889  1.00  0.00    -0.354 N 
ATOM     38  C   UNL     1       0.396   0.654   9.156  1.00  0.00     0.074 A 
ATOM     39  C   UNL     1       1.445   1.446   8.554  1.00  0.00     0.031 C 
ATOM     40  C   UNL     1      -4.612   1.690   5.270  1.00  0.00     0.029 A 
ATOM     41  C   UNL     1      -4.553   0.816   6.441  1.00  0.00     0.049 A 
ATOM     42  H   UNL     1      -2.916   0.475   7.681  1.00  0.00     0.167 HD
ATOM     43  C   UNL     1       0.548  -0.063  10.295  1.00  0.00     0.037 A 
ATOM     44  C   UNL     1      -5.569   0.074   6.922  1.00  0.00     0.037 A 
ATOM     45  C   UNL     1      -0.493  -0.845  10.906  1.00  0.00     0.049 A 
ATOM     46  C   UNL     1      -5.366  -0.745   8.170  1.00  0.00     0.074 A 
ATOM     47  C   UNL     1      -0.438  -1.602  12.063  1.00  0.00     0.029 A 
ATOM     48  N   UNL     1      -1.781  -0.967  10.409  1.00  0.00    -0.354 N 
ATOM     49  N   UNL     1      -4.299  -0.860   8.924  1.00  0.00    -0.248 NA
ATOM     50  C   UNL     1      -6.518  -1.528   8.642  1.00  0.00     0.031 C 
ATOM     51  C   UNL     1      -1.684  -2.213  12.246  1.00  0.00     0.029 A 
ATOM     52  C   UNL     1      -2.528  -1.797  11.229  1.00  0.00     0.049 A 
ATOM     53  H   UNL     1      -2.116  -0.529   9.593  1.00  0.00     0.167 HD
ATOM     54  C   UNL     1      -4.662  -1.695   9.974  1.00  0.00     0.074 A 
ATOM     55  C   UNL     1      -6.050  -2.050   9.766  1.00  0.00     0.031 C 
ATOM     56  C   UNL     1      -3.914  -2.127  11.020  1.00  0.00     0.037 A 
BRANCH  43  57
ATOM     57  C   UNL     1       1.901  -0.044  10.942  1.00  0.00     0.057 A 
ATOM     58  C   UNL     1       2.389   1.090  11.605  1.00  0.00     0.134 A 
ATOM     59  C   UNL     1       2.722  -1.178  10.912  1.00  0.00     0.134 A 
ATOM     60  F   UNL     1       1.659   2.215  11.653  1.00  0.00    -0.206 F 
ATOM     61  C   UNL     1       3.654   1.103  12.194  1.00  0.00     0.040 A 
ATOM     62  C   UNL     1       3.979  -1.185  11.520  1.00  0.00     0.040 A 
ATOM     63  F   UNL     1       2.316  -2.298  10.296  1.00  0.00    -0.206 F 
ATOM     64  C   UNL     1       4.451  -0.040  12.157  1.00  0.00     0.006 A 
ENDBRANCH  43  57
BRANCH  44  65
ATOM     65  C   UNL     1      -6.884   0.076   6.234  1.00  0.00     0.057 A 
ATOM     66  C   UNL     1      -8.011   0.667   6.819  1.00  0.00     0.134 A 
ATOM     67  C   UNL     1      -7.053  -0.543   4.990  1.00  0.00     0.134 A 
ATOM     68  F   UNL     1      -7.918   1.253   8.021  1.00  0.00    -0.206 F 
ATOM     69  C   UNL     1      -9.263   0.622   6.202  1.00  0.00     0.040 A 
ATOM     70  C   UNL     1      -8.293  -0.573   4.351  1.00  0.00     0.040 A 
ATOM     71  F   UNL     1      -6.013  -1.129   4.379  1.00  0.00    -0.206 F 
ATOM     72  C   UNL     1      -9.405   0.004   4.961  1.00  0.00     0.006 A 
ENDBRANCH  44  65
BRANCH  56  73
ATOM     73  C   UNL     1      -4.595  -2.985  12.046  1.00  0.00     0.057 A 
ATOM     74  C   UNL     1      -4.963  -4.310  11.783  1.00  0.00     0.134 A 
ATOM     75  C   UNL     1      -4.866  -2.481  13.325  1.00  0.00     0.134 A 
ATOM     76  F   UNL     1      -4.741  -4.851  10.575  1.00  0.00    -0.206 F 
ATOM     77  C   UNL     1      -5.604  -5.094  12.745  1.00  0.00     0.040 A 
ATOM     78  C   UNL     1      -5.482  -3.262  14.303  1.00  0.00     0.040 A 
ATOM     79  F   UNL     1      -4.529  -1.222  13.647  1.00  0.00    -0.206 F 
ATOM     80  C   UNL     1      -5.861  -4.571  14.011  1.00  0.00     0.006 A 
ENDBRANCH  56  73
ENDBRANCH  30  31
ENDBRANCH  23  25
ENDBRANCH  22  23
ENDBRANCH  21  22
ENDBRANCH  20  21
ENDBRANCH  19  20
ENDBRANCH   1  19
TORSDOF 17
