REMARK SMILES COc1ccc(CN(CC(=O)OCCOCCOC(=O)c2ccc(-c3c4nc(c(-c5c(F)cccc5F)c5ccc([nH]5)c(-c5c(F)cccc5F)c5nc(c(-c6c(F)cccc6F)c6ccc3[nH]6)C=C5)C=C4)cc2)N=O)cc1
REMARK SMILES IDX 14 1 13 2 12 3 10 4 11 5 9 6 8 7 7 8 6 9 3 10 4 11 78 12
REMARK SMILES IDX 5 13 77 14 2 15 1 16 75 17 76 18 15 19 16 20 17 21 18 22
REMARK SMILES IDX 19 23 20 24 21 25 22 26 74 27 23 28 73 29 24 30 25 31 26 32
REMARK SMILES IDX 67 33 27 34 72 35 66 36 68 37 28 38 71 39 65 40 64 41 29 43
REMARK SMILES IDX 55 44 38 45 54 46 39 47 42 48 53 49 69 50 40 51 41 52 52 54
REMARK SMILES IDX 70 55 43 56 30 57 31 58 36 59 32 60 33 61 35 62 37 63 34 64
REMARK SMILES IDX 56 65 57 66 62 67 58 68 59 69 61 70 63 71 60 72 44 73 45 74
REMARK SMILES IDX 50 75 46 76 47 77 49 78 51 79 48 80
REMARK H PARENT 68 42 42 53
REMARK Flexibility Score: inf
ROOT
ATOM      1  C   UNL     1       3.757  -5.413  10.414  1.00  0.00     0.202 C 
ENDROOT
BRANCH   1   2
ATOM      2  C   UNL     1       2.581  -6.144   9.754  1.00  0.00     0.261 C 
BRANCH   2   3
ATOM      3  O   UNL     1       2.208  -5.540   8.497  1.00  0.00    -0.462 OA
BRANCH   3   4
ATOM      4  C   UNL     1       0.897  -5.186   8.358  1.00  0.00     0.327 C 
ATOM      5  O   UNL     1       0.018  -5.457   9.170  1.00  0.00    -0.250 OA
BRANCH   4   6
ATOM      6  C   UNL     1       0.589  -4.519   7.022  1.00  0.00     0.264 C 
BRANCH   6   7
ATOM      7  N   UNL     1       1.736  -3.760   6.501  1.00  0.00    -0.245 NA
BRANCH   7   8
ATOM      8  C   UNL     1       2.121  -4.106   5.125  1.00  0.00     0.178 C 
BRANCH   8   9
ATOM      9  C   UNL     1       1.631  -3.160   4.040  1.00  0.00    -0.027 A 
ATOM     10  C   UNL     1       0.815  -1.301   2.082  1.00  0.00     0.118 A 
ATOM     11  C   UNL     1      -0.097  -1.795   3.016  1.00  0.00     0.047 A 
ATOM     12  C   UNL     1       2.134  -1.749   2.116  1.00  0.00     0.047 A 
ATOM     13  C   UNL     1       0.298  -2.733   3.973  1.00  0.00     0.009 A 
ATOM     14  C   UNL     1       2.537  -2.673   3.086  1.00  0.00     0.009 A 
BRANCH  10  15
ATOM     15  O   UNL     1       0.308  -0.368   1.222  1.00  0.00    -0.497 OA
ATOM     16  C   UNL     1       1.049  -0.142   0.029  1.00  0.00     0.278 C 
ENDBRANCH  10  15
ENDBRANCH   8   9
ENDBRANCH   7   8
BRANCH   7  17
ATOM     17  N   UNL     1       1.921  -2.497   6.828  1.00  0.00     0.053 NA
ATOM     18  O   UNL     1       1.202  -2.114   7.757  1.00  0.00    -0.125 OA
ENDBRANCH   7  17
ENDBRANCH   6   7
ENDBRANCH   4   6
ENDBRANCH   3   4
ENDBRANCH   2   3
ENDBRANCH   1   2
BRANCH   1  19
ATOM     19  O   UNL     1       3.478  -4.125  10.965  1.00  0.00    -0.374 OA
BRANCH  19  20
ATOM     20  C   UNL     1       3.272  -3.067  10.030  1.00  0.00     0.202 C 
BRANCH  20  21
ATOM     21  C   UNL     1       4.535  -2.405   9.465  1.00  0.00     0.261 C 
BRANCH  21  22
ATOM     22  O   UNL     1       5.389  -3.342   8.784  1.00  0.00    -0.460 OA
BRANCH  22  23
ATOM     23  C   UNL     1       6.540  -3.627   9.435  1.00  0.00     0.338 C 
ATOM     24  O   UNL     1       6.969  -3.104  10.456  1.00  0.00    -0.246 OA
BRANCH  23  25
ATOM     25  C   UNL     1       7.185  -4.809   8.835  1.00  0.00     0.060 A 
ATOM     26  C   UNL     1       7.542  -5.851   9.700  1.00  0.00     0.016 A 
ATOM     27  C   UNL     1       7.501  -4.875   7.476  1.00  0.00     0.016 A 
ATOM     28  C   UNL     1       8.259  -6.943   9.219  1.00  0.00     0.010 A 
ATOM     29  C   UNL     1       8.228  -5.970   6.995  1.00  0.00     0.010 A 
ATOM     30  C   UNL     1       8.638  -6.992   7.870  1.00  0.00    -0.014 A 
BRANCH  30  31
ATOM     31  C   UNL     1       9.569  -8.053   7.418  1.00  0.00     0.031 A 
ATOM     32  C   UNL     1      11.034  -7.738   7.286  1.00  0.00     0.074 A 
ATOM     33  C   UNL     1       9.120  -9.296   7.169  1.00  0.00     0.049 A 
ATOM     34  N   UNL     1      12.019  -8.514   6.912  1.00  0.00    -0.248 NA
ATOM     35  C   UNL     1      11.442  -6.365   7.621  1.00  0.00     0.031 C 
ATOM     36  C   UNL     1       7.731  -9.732   7.295  1.00  0.00     0.029 A 
ATOM     37  N   UNL     1       9.791 -10.420   6.758  1.00  0.00    -0.354 N 
ATOM     38  C   UNL     1      13.162  -7.726   6.967  1.00  0.00     0.074 A 
ATOM     39  C   UNL     1      12.744  -6.403   7.378  1.00  0.00     0.031 C 
ATOM     40  C   UNL     1       7.651 -11.031   6.962  1.00  0.00     0.029 A 
ATOM     41  C   UNL     1       8.976 -11.510   6.575  1.00  0.00     0.049 A 
ATOM     42  H   UNL     1      10.764 -10.443   6.608  1.00  0.00     0.167 HD
ATOM     43  C   UNL     1      14.444  -8.077   6.710  1.00  0.00     0.037 A 
ATOM     44  C   UNL     1       9.267 -12.748   6.131  1.00  0.00     0.037 A 
ATOM     45  C   UNL     1      14.858  -9.393   6.302  1.00  0.00     0.049 A 
ATOM     46  C   UNL     1      10.690 -13.093   5.783  1.00  0.00     0.074 A 
ATOM     47  C   UNL     1      16.137  -9.854   6.041  1.00  0.00     0.029 A 
ATOM     48  N   UNL     1      13.998 -10.459   6.086  1.00  0.00    -0.354 N 
ATOM     49  N   UNL     1      11.766 -12.349   5.869  1.00  0.00    -0.248 NA
ATOM     50  C   UNL     1      10.938 -14.451   5.278  1.00  0.00     0.031 C 
ATOM     51  C   UNL     1      16.046 -11.186   5.622  1.00  0.00     0.029 A 
ATOM     52  C   UNL     1      14.714 -11.568   5.667  1.00  0.00     0.049 A 
ATOM     53  H   UNL     1      13.022 -10.432   6.213  1.00  0.00     0.167 HD
ATOM     54  C   UNL     1      12.820 -13.152   5.450  1.00  0.00     0.074 A 
ATOM     55  C   UNL     1      12.255 -14.446   5.125  1.00  0.00     0.031 C 
ATOM     56  C   UNL     1      14.136 -12.847   5.344  1.00  0.00     0.037 A 
BRANCH  43  57
ATOM     57  C   UNL     1      15.492  -7.011   6.843  1.00  0.00     0.057 A 
ATOM     58  C   UNL     1      15.902  -6.529   8.093  1.00  0.00     0.134 A 
ATOM     59  C   UNL     1      16.120  -6.482   5.708  1.00  0.00     0.134 A 
ATOM     60  F   UNL     1      15.330  -6.984   9.218  1.00  0.00    -0.206 F 
ATOM     61  C   UNL     1      16.885  -5.544   8.208  1.00  0.00     0.040 A 
ATOM     62  C   UNL     1      17.120  -5.515   5.812  1.00  0.00     0.040 A 
ATOM     63  F   UNL     1      15.777  -6.903   4.481  1.00  0.00    -0.206 F 
ATOM     64  C   UNL     1      17.502  -5.039   7.064  1.00  0.00     0.006 A 
ENDBRANCH  43  57
BRANCH  44  65
ATOM     65  C   UNL     1       8.186 -13.753   5.977  1.00  0.00     0.057 A 
ATOM     66  C   UNL     1       8.109 -14.872   6.813  1.00  0.00     0.134 A 
ATOM     67  C   UNL     1       7.213 -13.626   4.978  1.00  0.00     0.134 A 
ATOM     68  F   UNL     1       9.026 -15.061   7.773  1.00  0.00    -0.206 F 
ATOM     69  C   UNL     1       7.112 -15.836   6.653  1.00  0.00     0.040 A 
ATOM     70  C   UNL     1       6.197 -14.570   4.821  1.00  0.00     0.040 A 
ATOM     71  F   UNL     1       7.231 -12.575   4.144  1.00  0.00    -0.206 F 
ATOM     72  C   UNL     1       6.149 -15.683   5.658  1.00  0.00     0.006 A 
ENDBRANCH  44  65
BRANCH  56  73
ATOM     73  C   UNL     1      15.058 -13.935   4.876  1.00  0.00     0.057 A 
ATOM     74  C   UNL     1      15.083 -14.354   3.540  1.00  0.00     0.134 A 
ATOM     75  C   UNL     1      15.956 -14.542   5.762  1.00  0.00     0.134 A 
ATOM     76  F   UNL     1      14.239 -13.821   2.644  1.00  0.00    -0.206 F 
ATOM     77  C   UNL     1      15.956 -15.354   3.106  1.00  0.00     0.040 A 
ATOM     78  C   UNL     1      16.851 -15.525   5.335  1.00  0.00     0.040 A 
ATOM     79  F   UNL     1      15.989 -14.181   7.054  1.00  0.00    -0.206 F 
ATOM     80  C   UNL     1      16.848 -15.937   4.005  1.00  0.00     0.006 A 
ENDBRANCH  56  73
ENDBRANCH  30  31
ENDBRANCH  23  25
ENDBRANCH  22  23
ENDBRANCH  21  22
ENDBRANCH  20  21
ENDBRANCH  19  20
ENDBRANCH   1  19
TORSDOF 19
