REMARK SMILES CCN(C(=O)c1ccc(C)cc1F)[C@@H]1COC[C@@H]1C(=O)OCCOCCOC(=O)c1ccc(-c2c3nc(c(-c4c(F)cccc4F)c4ccc([nH]4)c(-c4c(F)cccc4F)c4nc(c(-c5c(F)cccc5F)c5ccc2[nH]5)C=C4)C=C3)cc1
REMARK SMILES IDX 23 1 22 2 21 3 19 4 20 5 18 6 14 7 15 8 16 9 17 10 3 11 2 12
REMARK SMILES IDX 1 13 4 14 5 15 6 16 7 17 12 18 8 19 11 20 13 21 9 22 10 23
REMARK SMILES IDX 24 24 25 25 26 26 27 27 28 28 29 29 30 30 31 31 83 32 32 33
REMARK SMILES IDX 82 34 33 35 34 36 35 37 76 38 36 39 81 40 75 41 77 42 37 43
REMARK SMILES IDX 80 44 74 45 73 46 38 48 64 49 47 50 63 51 48 52 51 53 62 54
REMARK SMILES IDX 78 55 49 56 50 57 61 59 79 60 52 61 39 62 40 63 45 64 41 65
REMARK SMILES IDX 42 66 44 67 46 68 43 69 65 70 66 71 71 72 67 73 68 74 70 75
REMARK SMILES IDX 72 76 69 77 53 78 54 79 59 80 55 81 56 82 58 83 60 84 57 85
REMARK H PARENT 77 47 51 58
REMARK Flexibility Score: inf
ROOT
ATOM      1  C   UNL     1       0.940   3.431   1.939  1.00  0.00     0.202 C 
ENDROOT
BRANCH   1   2
ATOM      2  C   UNL     1       1.286   4.247   0.694  1.00  0.00     0.261 C 
BRANCH   2   3
ATOM      3  O   UNL     1       1.558   3.416  -0.458  1.00  0.00    -0.463 OA
BRANCH   3   4
ATOM      4  C   UNL     1       2.818   3.518  -0.944  1.00  0.00     0.313 C 
ATOM      5  O   UNL     1       3.670   4.246  -0.438  1.00  0.00    -0.252 OA
BRANCH   4   6
ATOM      6  C   UNL     1       3.083   2.781  -2.244  1.00  0.00     0.150 C 
ATOM      7  C   UNL     1       2.386   1.496  -2.697  1.00  0.00     0.127 C 
ATOM      8  C   UNL     1       3.253   0.393  -2.110  1.00  0.00     0.186 C 
ATOM      9  O   UNL     1       4.593   0.882  -2.134  1.00  0.00    -0.378 OA
ATOM     10  C   UNL     1       4.551   2.318  -2.186  1.00  0.00     0.177 C 
BRANCH   7  11
ATOM     11  N   UNL     1       0.925   1.351  -2.580  1.00  0.00    -0.333 N 
BRANCH  11  12
ATOM     12  C   UNL     1       0.353   0.709  -1.398  1.00  0.00     0.117 C 
ATOM     13  C   UNL     1       0.231  -0.804  -1.512  1.00  0.00     0.027 C 
ENDBRANCH  11  12
BRANCH  11  14
ATOM     14  C   UNL     1       0.134   1.762  -3.665  1.00  0.00     0.257 C 
ATOM     15  O   UNL     1       0.587   2.258  -4.692  1.00  0.00    -0.269 OA
BRANCH  14  16
ATOM     16  C   UNL     1      -1.332   1.657  -3.551  1.00  0.00     0.075 A 
ATOM     17  C   UNL     1      -2.035   2.687  -2.922  1.00  0.00     0.017 A 
ATOM     18  C   UNL     1      -2.015   0.558  -4.065  1.00  0.00     0.136 A 
ATOM     19  C   UNL     1      -3.421   2.592  -2.784  1.00  0.00     0.004 A 
ATOM     20  C   UNL     1      -3.398   0.455  -3.913  1.00  0.00     0.043 A 
ATOM     21  F   UNL     1      -1.358  -0.439  -4.674  1.00  0.00    -0.206 F 
ATOM     22  C   UNL     1      -4.113   1.468  -3.258  1.00  0.00    -0.048 A 
ATOM     23  C   UNL     1      -5.599   1.345  -3.070  1.00  0.00     0.044 C 
ENDBRANCH  14  16
ENDBRANCH  11  14
ENDBRANCH   7  11
ENDBRANCH   4   6
ENDBRANCH   3   4
ENDBRANCH   2   3
ENDBRANCH   1   2
BRANCH   1  24
ATOM     24  O   UNL     1       1.988   2.644   2.499  1.00  0.00    -0.374 OA
BRANCH  24  25
ATOM     25  C   UNL     1       2.262   1.391   1.877  1.00  0.00     0.202 C 
BRANCH  25  26
ATOM     26  C   UNL     1       1.254   0.262   2.166  1.00  0.00     0.261 C 
BRANCH  26  27
ATOM     27  O   UNL     1      -0.068   0.547   1.656  1.00  0.00    -0.460 OA
BRANCH  27  28
ATOM     28  C   UNL     1      -1.034   0.744   2.586  1.00  0.00     0.338 C 
ATOM     29  O   UNL     1      -0.936   0.579   3.794  1.00  0.00    -0.246 OA
BRANCH  28  30
ATOM     30  C   UNL     1      -2.212   1.393   1.966  1.00  0.00     0.060 A 
ATOM     31  C   UNL     1      -2.690   2.576   2.544  1.00  0.00     0.016 A 
ATOM     32  C   UNL     1      -2.870   0.849   0.866  1.00  0.00     0.016 A 
ATOM     33  C   UNL     1      -3.845   3.195   2.049  1.00  0.00     0.010 A 
ATOM     34  C   UNL     1      -4.025   1.477   0.374  1.00  0.00     0.010 A 
ATOM     35  C   UNL     1      -4.548   2.643   0.969  1.00  0.00    -0.014 A 
BRANCH  35  36
ATOM     36  C   UNL     1      -5.868   3.220   0.549  1.00  0.00     0.031 A 
ATOM     37  C   UNL     1      -7.132   2.399   0.685  1.00  0.00     0.074 A 
ATOM     38  C   UNL     1      -5.976   4.475   0.062  1.00  0.00     0.049 A 
ATOM     39  N   UNL     1      -8.370   2.724   0.399  1.00  0.00    -0.248 NA
ATOM     40  C   UNL     1      -6.979   1.025   1.184  1.00  0.00     0.031 C 
ATOM     41  C   UNL     1      -4.866   5.397  -0.172  1.00  0.00     0.029 A 
ATOM     42  N   UNL     1      -7.087   5.193  -0.327  1.00  0.00    -0.354 N 
ATOM     43  C   UNL     1      -9.135   1.595   0.671  1.00  0.00     0.074 A 
ATOM     44  C   UNL     1      -8.213   0.556   1.075  1.00  0.00     0.031 C 
ATOM     45  C   UNL     1      -5.351   6.560  -0.642  1.00  0.00     0.029 A 
ATOM     46  C   UNL     1      -6.806   6.469  -0.759  1.00  0.00     0.049 A 
ATOM     47  H   UNL     1      -8.000   4.825  -0.299  1.00  0.00     0.167 HD
ATOM     48  C   UNL     1     -10.481   1.434   0.633  1.00  0.00     0.037 A 
ATOM     49  C   UNL     1      -7.617   7.457  -1.192  1.00  0.00     0.037 A 
ATOM     50  C   UNL     1     -11.427   2.461   0.285  1.00  0.00     0.049 A 
ATOM     51  C   UNL     1      -9.112   7.255  -1.236  1.00  0.00     0.074 A 
ATOM     52  C   UNL     1     -12.811   2.394   0.298  1.00  0.00     0.029 A 
ATOM     53  N   UNL     1     -11.095   3.737  -0.137  1.00  0.00    -0.354 N 
ATOM     54  N   UNL     1      -9.818   6.207  -0.890  1.00  0.00    -0.248 NA
ATOM     55  C   UNL     1      -9.924   8.384  -1.723  1.00  0.00     0.031 C 
ATOM     56  C   UNL     1     -13.316   3.615  -0.162  1.00  0.00     0.029 A 
ATOM     57  C   UNL     1     -12.247   4.458  -0.410  1.00  0.00     0.049 A 
ATOM     58  H   UNL     1     -10.177   4.081  -0.228  1.00  0.00     0.167 HD
ATOM     59  C   UNL     1     -11.150   6.564  -1.080  1.00  0.00     0.074 A 
ATOM     60  C   UNL     1     -11.158   7.927  -1.562  1.00  0.00     0.031 C 
ATOM     61  C   UNL     1     -12.265   5.823  -0.870  1.00  0.00     0.037 A 
BRANCH  48  62
ATOM     62  C   UNL     1     -11.023   0.080   0.997  1.00  0.00     0.057 A 
ATOM     63  C   UNL     1     -10.975  -0.406   2.310  1.00  0.00     0.134 A 
ATOM     64  C   UNL     1     -11.633  -0.729   0.030  1.00  0.00     0.134 A 
ATOM     65  F   UNL     1     -10.397   0.317   3.282  1.00  0.00    -0.206 F 
ATOM     66  C   UNL     1     -11.481  -1.663   2.642  1.00  0.00     0.040 A 
ATOM     67  C   UNL     1     -12.173  -1.974   0.357  1.00  0.00     0.040 A 
ATOM     68  F   UNL     1     -11.725  -0.319  -1.244  1.00  0.00    -0.206 F 
ATOM     69  C   UNL     1     -12.088  -2.448   1.665  1.00  0.00     0.006 A 
ENDBRANCH  48  62
BRANCH  49  70
ATOM     70  C   UNL     1      -7.047   8.766  -1.608  1.00  0.00     0.057 A 
ATOM     71  C   UNL     1      -7.270   9.926  -0.854  1.00  0.00     0.134 A 
ATOM     72  C   UNL     1      -6.322   8.902  -2.797  1.00  0.00     0.134 A 
ATOM     73  F   UNL     1      -7.984   9.865   0.280  1.00  0.00    -0.206 F 
ATOM     74  C   UNL     1      -6.815  11.175  -1.279  1.00  0.00     0.040 A 
ATOM     75  C   UNL     1      -5.838  10.141  -3.221  1.00  0.00     0.040 A 
ATOM     76  F   UNL     1      -6.076   7.830  -3.565  1.00  0.00    -0.206 F 
ATOM     77  C   UNL     1      -6.093  11.284  -2.466  1.00  0.00     0.006 A 
ENDBRANCH  49  70
BRANCH  61  78
ATOM     78  C   UNL     1     -13.601   6.470  -1.109  1.00  0.00     0.057 A 
ATOM     79  C   UNL     1     -14.067   6.763  -2.397  1.00  0.00     0.134 A 
ATOM     80  C   UNL     1     -14.458   6.752  -0.036  1.00  0.00     0.134 A 
ATOM     81  F   UNL     1     -13.295   6.529  -3.469  1.00  0.00    -0.206 F 
ATOM     82  C   UNL     1     -15.328   7.329  -2.607  1.00  0.00     0.040 A 
ATOM     83  C   UNL     1     -15.730   7.292  -0.235  1.00  0.00     0.040 A 
ATOM     84  F   UNL     1     -14.081   6.489   1.225  1.00  0.00    -0.206 F 
ATOM     85  C   UNL     1     -16.166   7.587  -1.525  1.00  0.00     0.006 A 
ENDBRANCH  61  78
ENDBRANCH  35  36
ENDBRANCH  28  30
ENDBRANCH  27  28
ENDBRANCH  26  27
ENDBRANCH  25  26
ENDBRANCH  24  25
ENDBRANCH   1  24
TORSDOF 18
