REMARK SMILES CC[C@@H]1CCCN(S(=O)(=O)c2cc(C(=O)OCCOCCOC(=O)c3ccc(-c4c5nc(c(-c6c(F)cccc6F)c6ccc([nH]6)c(-c6c(F)cccc6F)c6nc(c(-c7c(F)cccc7F)c7ccc4[nH]7)C=C6)C=C5)cc3)ccc2F)C1
REMARK SMILES IDX 18 1 17 2 16 3 14 4 15 5 13 6 11 7 12 8 81 9 80 10 82 11
REMARK SMILES IDX 79 12 8 13 9 14 10 15 7 16 3 17 4 18 83 19 5 20 6 21 2 22
REMARK SMILES IDX 1 23 19 24 20 25 21 26 22 27 23 28 24 29 25 30 26 31 78 32
REMARK SMILES IDX 27 33 77 34 28 35 29 36 30 37 71 38 31 39 76 40 70 41 72 42
REMARK SMILES IDX 32 43 75 44 69 45 68 46 33 48 59 49 42 50 58 51 43 52 46 53
REMARK SMILES IDX 57 54 73 55 44 56 45 57 56 59 74 60 47 61 34 62 35 63 40 64
REMARK SMILES IDX 36 65 37 66 39 67 41 68 38 69 60 70 61 71 66 72 62 73 63 74
REMARK SMILES IDX 65 75 67 76 64 77 48 78 49 79 54 80 50 81 51 82 53 83 55 84
REMARK SMILES IDX 52 85
REMARK H PARENT 72 47 46 58
REMARK Flexibility Score: inf
ROOT
ATOM      1  C   UNL     1       4.343  -1.970  -8.149  1.00  0.00     0.202 C 
ENDROOT
BRANCH   1   2
ATOM      2  C   UNL     1       2.867  -1.715  -7.827  1.00  0.00     0.261 C 
BRANCH   2   3
ATOM      3  O   UNL     1       2.696  -0.492  -7.092  1.00  0.00    -0.460 OA
BRANCH   3   4
ATOM      4  C   UNL     1       2.271  -0.635  -5.812  1.00  0.00     0.338 C 
ATOM      5  O   UNL     1       1.889  -1.659  -5.273  1.00  0.00    -0.246 OA
BRANCH   4   6
ATOM      6  C   UNL     1       2.503   0.631  -5.074  1.00  0.00     0.061 A 
ATOM      7  C   UNL     1       3.174   1.711  -3.012  1.00  0.00     0.119 A 
ATOM      8  C   UNL     1       2.873   0.544  -3.724  1.00  0.00     0.040 A 
ATOM      9  C   UNL     1       3.114   2.946  -3.644  1.00  0.00     0.143 A 
ATOM     10  C   UNL     1       2.725   3.039  -4.979  1.00  0.00     0.041 A 
ATOM     11  F   UNL     1       3.381   4.083  -2.988  1.00  0.00    -0.206 F 
ATOM     12  C   UNL     1       2.426   1.881  -5.702  1.00  0.00     0.019 A 
BRANCH   7  13
ATOM     13  S   UNL     1       3.742   1.596  -1.344  1.00  0.00     0.246 S 
ATOM     14  O   UNL     1       4.635   2.698  -1.065  1.00  0.00    -0.207 OA
ATOM     15  O   UNL     1       4.192   0.232  -1.151  1.00  0.00    -0.207 OA
BRANCH  13  16
ATOM     16  N   UNL     1       2.320   1.808  -0.412  1.00  0.00    -0.197 NA
ATOM     17  C   UNL     1       1.167   1.338   1.746  1.00  0.00     0.004 C 
ATOM     18  C   UNL     1       0.398   2.660   1.595  1.00  0.00     0.006 C 
ATOM     19  C   UNL     1       2.517   1.422   1.020  1.00  0.00     0.106 C 
ATOM     20  C   UNL     1       0.300   3.115   0.147  1.00  0.00     0.017 C 
ATOM     21  C   UNL     1       1.668   3.140  -0.527  1.00  0.00     0.102 C 
BRANCH  17  22
ATOM     22  C   UNL     1       0.314   0.093   1.398  1.00  0.00     0.001 C 
ATOM     23  C   UNL     1       0.397  -0.458  -0.020  1.00  0.00     0.004 C 
ENDBRANCH  17  22
ENDBRANCH  13  16
ENDBRANCH   7  13
ENDBRANCH   4   6
ENDBRANCH   3   4
ENDBRANCH   2   3
ENDBRANCH   1   2
BRANCH   1  24
ATOM     24  O   UNL     1       5.219  -2.171  -7.042  1.00  0.00    -0.374 OA
BRANCH  24  25
ATOM     25  C   UNL     1       5.664  -1.014  -6.333  1.00  0.00     0.202 C 
BRANCH  25  26
ATOM     26  C   UNL     1       6.769  -0.173  -6.987  1.00  0.00     0.261 C 
BRANCH  26  27
ATOM     27  O   UNL     1       6.351   0.428  -8.225  1.00  0.00    -0.460 OA
BRANCH  27  28
ATOM     28  C   UNL     1       6.910  -0.110  -9.338  1.00  0.00     0.338 C 
ATOM     29  O   UNL     1       7.748  -0.993  -9.398  1.00  0.00    -0.246 OA
BRANCH  28  30
ATOM     30  C   UNL     1       6.223   0.413 -10.533  1.00  0.00     0.060 A 
ATOM     31  C   UNL     1       5.625  -0.508 -11.403  1.00  0.00     0.016 A 
ATOM     32  C   UNL     1       6.214   1.778 -10.825  1.00  0.00     0.016 A 
ATOM     33  C   UNL     1       5.030  -0.068 -12.584  1.00  0.00     0.010 A 
ATOM     34  C   UNL     1       5.625   2.216 -12.014  1.00  0.00     0.010 A 
ATOM     35  C   UNL     1       5.047   1.295 -12.908  1.00  0.00    -0.014 A 
BRANCH  35  36
ATOM     36  C   UNL     1       4.539   1.763 -14.219  1.00  0.00     0.031 A 
ATOM     37  C   UNL     1       5.515   2.123 -15.302  1.00  0.00     0.074 A 
ATOM     38  C   UNL     1       3.216   1.883 -14.434  1.00  0.00     0.049 A 
ATOM     39  N   UNL     1       5.291   2.665 -16.471  1.00  0.00    -0.248 NA
ATOM     40  C   UNL     1       6.933   1.837 -15.031  1.00  0.00     0.031 C 
ATOM     41  C   UNL     1       2.172   1.515 -13.479  1.00  0.00     0.029 A 
ATOM     42  N   UNL     1       2.528   2.363 -15.520  1.00  0.00    -0.354 N 
ATOM     43  C   UNL     1       6.536   2.794 -17.071  1.00  0.00     0.074 A 
ATOM     44  C   UNL     1       7.516   2.297 -16.129  1.00  0.00     0.031 C 
ATOM     45  C   UNL     1       0.973   1.797 -14.017  1.00  0.00     0.029 A 
ATOM     46  C   UNL     1       1.168   2.407 -15.331  1.00  0.00     0.049 A 
ATOM     47  H   UNL     1       2.966   2.648 -16.354  1.00  0.00     0.167 HD
ATOM     48  C   UNL     1       6.831   3.276 -18.301  1.00  0.00     0.037 A 
ATOM     49  C   UNL     1       0.194   2.914 -16.112  1.00  0.00     0.037 A 
ATOM     50  C   UNL     1       5.849   3.761 -19.235  1.00  0.00     0.049 A 
ATOM     51  C   UNL     1       0.555   3.538 -17.434  1.00  0.00     0.074 A 
ATOM     52  C   UNL     1       6.049   4.245 -20.516  1.00  0.00     0.029 A 
ATOM     53  N   UNL     1       4.487   3.832 -18.987  1.00  0.00    -0.354 N 
ATOM     54  N   UNL     1       1.733   3.644 -18.000  1.00  0.00    -0.248 NA
ATOM     55  C   UNL     1      -0.541   4.122 -18.222  1.00  0.00     0.031 C 
ATOM     56  C   UNL     1       4.817   4.665 -21.021  1.00  0.00     0.029 A 
ATOM     57  C   UNL     1       3.840   4.387 -20.078  1.00  0.00     0.049 A 
ATOM     58  H   UNL     1       4.046   3.532 -18.160  1.00  0.00     0.167 HD
ATOM     59  C   UNL     1       1.518   4.283 -19.215  1.00  0.00     0.074 A 
ATOM     60  C   UNL     1       0.096   4.535 -19.310  1.00  0.00     0.031 C 
ATOM     61  C   UNL     1       2.421   4.628 -20.165  1.00  0.00     0.037 A 
BRANCH  48  62
ATOM     62  C   UNL     1       8.272   3.322 -18.715  1.00  0.00     0.057 A 
ATOM     63  C   UNL     1       8.928   4.550 -18.875  1.00  0.00     0.134 A 
ATOM     64  C   UNL     1       8.985   2.162 -19.039  1.00  0.00     0.134 A 
ATOM     65  F   UNL     1       8.299   5.701 -18.589  1.00  0.00    -0.206 F 
ATOM     66  C   UNL     1      10.234   4.623 -19.360  1.00  0.00     0.040 A 
ATOM     67  C   UNL     1      10.301   2.220 -19.500  1.00  0.00     0.040 A 
ATOM     68  F   UNL     1       8.418   0.954 -18.898  1.00  0.00    -0.206 F 
ATOM     69  C   UNL     1      10.925   3.454 -19.673  1.00  0.00     0.006 A 
ENDBRANCH  48  62
BRANCH  49  70
ATOM     70  C   UNL     1      -1.217   2.864 -15.651  1.00  0.00     0.057 A 
ATOM     71  C   UNL     1      -1.658   3.624 -14.560  1.00  0.00     0.134 A 
ATOM     72  C   UNL     1      -2.153   2.035 -16.278  1.00  0.00     0.134 A 
ATOM     73  F   UNL     1      -0.810   4.438 -13.914  1.00  0.00    -0.206 F 
ATOM     74  C   UNL     1      -2.970   3.542 -14.093  1.00  0.00     0.040 A 
ATOM     75  C   UNL     1      -3.475   1.962 -15.838  1.00  0.00     0.040 A 
ATOM     76  F   UNL     1      -1.797   1.302 -17.343  1.00  0.00    -0.206 F 
ATOM     77  C   UNL     1      -3.885   2.709 -14.735  1.00  0.00     0.006 A 
ENDBRANCH  49  70
BRANCH  61  78
ATOM     78  C   UNL     1       1.919   5.303 -21.407  1.00  0.00     0.057 A 
ATOM     79  C   UNL     1       1.946   4.638 -22.641  1.00  0.00     0.134 A 
ATOM     80  C   UNL     1       1.532   6.648 -21.405  1.00  0.00     0.134 A 
ATOM     81  F   UNL     1       2.320   3.352 -22.713  1.00  0.00    -0.206 F 
ATOM     82  C   UNL     1       1.637   5.297 -23.832  1.00  0.00     0.040 A 
ATOM     83  C   UNL     1       1.196   7.311 -22.587  1.00  0.00     0.040 A 
ATOM     84  F   UNL     1       1.476   7.338 -20.256  1.00  0.00    -0.206 F 
ATOM     85  C   UNL     1       1.263   6.638 -23.806  1.00  0.00     0.006 A 
ENDBRANCH  61  78
ENDBRANCH  35  36
ENDBRANCH  28  30
ENDBRANCH  27  28
ENDBRANCH  26  27
ENDBRANCH  25  26
ENDBRANCH  24  25
ENDBRANCH   1  24
TORSDOF 17
