REMARK SMILES C[C@@H](Oc1cncc(C(=O)OCCOCCOC(=O)c2ccc(-c3c4nc(c(-c5c(F)cccc5F)c5ccc([nH]5)c(-c5c(F)cccc5F)c5nc(c(-c6c(F)cccc6F)c6ccc3[nH]6)C=C5)C=C4)cc2)n1)C(F)(F)F
REMARK SMILES IDX 13 1 12 2 11 3 9 4 10 5 8 6 4 7 5 8 74 9 6 10 7 11 3 12 2 13
REMARK SMILES IDX 1 14 75 15 76 16 77 17 78 18 14 19 15 20 16 21 17 22 18 23
REMARK SMILES IDX 19 24 20 25 21 26 73 27 22 28 72 29 23 30 24 31 25 32 66 33
REMARK SMILES IDX 26 34 71 35 65 36 67 37 27 38 70 39 64 40 63 41 28 43 54 44
REMARK SMILES IDX 37 45 53 46 38 47 41 48 52 49 68 50 39 51 40 52 51 54 69 55
REMARK SMILES IDX 42 56 29 57 30 58 35 59 31 60 32 61 34 62 36 63 33 64 55 65
REMARK SMILES IDX 56 66 61 67 57 68 58 69 60 70 62 71 59 72 43 73 44 74 49 75
REMARK SMILES IDX 45 76 46 77 48 78 50 79 47 80
REMARK H PARENT 67 42 41 53
REMARK Flexibility Score: inf
ROOT
ATOM      1  C   UNL     1       5.467   7.706  -0.670  1.00  0.00     0.202 C 
ENDROOT
BRANCH   1   2
ATOM      2  C   UNL     1       4.697   7.299  -1.931  1.00  0.00     0.261 C 
BRANCH   2   3
ATOM      3  O   UNL     1       3.983   6.065  -1.733  1.00  0.00    -0.458 OA
BRANCH   3   4
ATOM      4  C   UNL     1       4.446   5.021  -2.464  1.00  0.00     0.358 C 
ATOM      5  O   UNL     1       5.285   5.071  -3.352  1.00  0.00    -0.244 OA
BRANCH   4   6
ATOM      6  C   UNL     1       3.973   3.732  -1.917  1.00  0.00     0.170 A 
ATOM      7  C   UNL     1       2.354   2.291  -1.170  1.00  0.00     0.233 A 
ATOM      8  C   UNL     1       3.323   1.293  -1.077  1.00  0.00     0.179 A 
ATOM      9  N   UNL     1       2.664   3.545  -1.581  1.00  0.00    -0.203 NA
ATOM     10  N   UNL     1       4.635   1.497  -1.345  1.00  0.00    -0.257 NA
ATOM     11  C   UNL     1       4.933   2.735  -1.795  1.00  0.00     0.147 A 
BRANCH   7  12
ATOM     12  O   UNL     1       1.015   2.020  -1.085  1.00  0.00    -0.464 OA
BRANCH  12  13
ATOM     13  C   UNL     1       0.545   1.448   0.154  1.00  0.00     0.277 C 
ATOM     14  C   UNL     1       0.651  -0.081   0.133  1.00  0.00     0.063 C 
BRANCH  13  15
ATOM     15  C   UNL     1      -0.933   1.827   0.333  1.00  0.00     0.425 C 
ATOM     16  F   UNL     1      -1.426   1.303   1.483  1.00  0.00    -0.167 F 
ATOM     17  F   UNL     1      -1.105   3.164   0.404  1.00  0.00    -0.167 F 
ATOM     18  F   UNL     1      -1.697   1.358  -0.680  1.00  0.00    -0.167 F 
ENDBRANCH  13  15
ENDBRANCH  12  13
ENDBRANCH   7  12
ENDBRANCH   4   6
ENDBRANCH   3   4
ENDBRANCH   2   3
ENDBRANCH   1   2
BRANCH   1  19
ATOM     19  O   UNL     1       6.457   6.779  -0.223  1.00  0.00    -0.374 OA
BRANCH  19  20
ATOM     20  C   UNL     1       6.004   5.696   0.593  1.00  0.00     0.202 C 
BRANCH  20  21
ATOM     21  C   UNL     1       5.734   6.025   2.066  1.00  0.00     0.261 C 
BRANCH  21  22
ATOM     22  O   UNL     1       4.570   6.858   2.214  1.00  0.00    -0.460 OA
BRANCH  22  23
ATOM     23  C   UNL     1       4.815   8.112   2.656  1.00  0.00     0.338 C 
ATOM     24  O   UNL     1       5.884   8.566   3.041  1.00  0.00    -0.246 OA
BRANCH  23  25
ATOM     25  C   UNL     1       3.628   8.961   2.442  1.00  0.00     0.060 A 
ATOM     26  C   UNL     1       3.821  10.186   1.790  1.00  0.00     0.016 A 
ATOM     27  C   UNL     1       2.364   8.600   2.913  1.00  0.00     0.016 A 
ATOM     28  C   UNL     1       2.761  11.079   1.653  1.00  0.00     0.010 A 
ATOM     29  C   UNL     1       1.302   9.501   2.782  1.00  0.00     0.010 A 
ATOM     30  C   UNL     1       1.505  10.758   2.183  1.00  0.00    -0.014 A 
BRANCH  30  31
ATOM     31  C   UNL     1       0.447  11.795   2.235  1.00  0.00     0.031 A 
ATOM     32  C   UNL     1       0.227  12.548   3.517  1.00  0.00     0.074 A 
ATOM     33  C   UNL     1      -0.288  12.083   1.148  1.00  0.00     0.049 A 
ATOM     34  N   UNL     1      -0.651  13.478   3.794  1.00  0.00    -0.248 NA
ATOM     35  C   UNL     1       1.116  12.205   4.638  1.00  0.00     0.031 C 
ATOM     36  C   UNL     1      -0.148  11.446  -0.160  1.00  0.00     0.029 A 
ATOM     37  N   UNL     1      -1.308  12.985   0.978  1.00  0.00    -0.354 N 
ATOM     38  C   UNL     1      -0.425  13.826   5.120  1.00  0.00     0.074 A 
ATOM     39  C   UNL     1       0.652  12.988   5.601  1.00  0.00     0.031 C 
ATOM     40  C   UNL     1      -1.058  11.971  -0.999  1.00  0.00     0.029 A 
ATOM     41  C   UNL     1      -1.859  12.959  -0.279  1.00  0.00     0.049 A 
ATOM     42  H   UNL     1      -1.614  13.593   1.689  1.00  0.00     0.167 HD
ATOM     43  C   UNL     1      -1.052  14.766   5.866  1.00  0.00     0.037 A 
ATOM     44  C   UNL     1      -2.905  13.642  -0.783  1.00  0.00     0.037 A 
ATOM     45  C   UNL     1      -2.124  15.599   5.387  1.00  0.00     0.049 A 
ATOM     46  C   UNL     1      -3.629  14.636   0.084  1.00  0.00     0.074 A 
ATOM     47  C   UNL     1      -2.807  16.598   6.059  1.00  0.00     0.029 A 
ATOM     48  N   UNL     1      -2.675  15.523   4.117  1.00  0.00    -0.354 N 
ATOM     49  N   UNL     1      -3.388  14.981   1.326  1.00  0.00    -0.248 NA
ATOM     50  C   UNL     1      -4.771  15.337  -0.522  1.00  0.00     0.031 C 
ATOM     51  C   UNL     1      -3.803  17.094   5.210  1.00  0.00     0.029 A 
ATOM     52  C   UNL     1      -3.708  16.437   3.994  1.00  0.00     0.049 A 
ATOM     53  H   UNL     1      -2.376  14.909   3.408  1.00  0.00     0.167 HD
ATOM     54  C   UNL     1      -4.328  15.954   1.642  1.00  0.00     0.074 A 
ATOM     55  C   UNL     1      -5.137  16.153   0.457  1.00  0.00     0.031 C 
ATOM     56  C   UNL     1      -4.503  16.625   2.807  1.00  0.00     0.037 A 
BRANCH  43  57
ATOM     57  C   UNL     1      -0.608  14.922   7.290  1.00  0.00     0.057 A 
ATOM     58  C   UNL     1       0.624  15.499   7.623  1.00  0.00     0.134 A 
ATOM     59  C   UNL     1      -1.432  14.505   8.343  1.00  0.00     0.134 A 
ATOM     60  F   UNL     1       1.466  15.906   6.662  1.00  0.00    -0.206 F 
ATOM     61  C   UNL     1       1.032  15.633   8.952  1.00  0.00     0.040 A 
ATOM     62  C   UNL     1      -1.046  14.655   9.676  1.00  0.00     0.040 A 
ATOM     63  F   UNL     1      -2.626  13.947   8.094  1.00  0.00    -0.206 F 
ATOM     64  C   UNL     1       0.193  15.215   9.983  1.00  0.00     0.006 A 
ENDBRANCH  43  57
BRANCH  44  65
ATOM     65  C   UNL     1      -3.337  13.403  -2.183  1.00  0.00     0.057 A 
ATOM     66  C   UNL     1      -3.149  14.370  -3.176  1.00  0.00     0.134 A 
ATOM     67  C   UNL     1      -3.954  12.203  -2.557  1.00  0.00     0.134 A 
ATOM     68  F   UNL     1      -2.585  15.549  -2.872  1.00  0.00    -0.206 F 
ATOM     69  C   UNL     1      -3.569  14.159  -4.490  1.00  0.00     0.040 A 
ATOM     70  C   UNL     1      -4.358  11.969  -3.872  1.00  0.00     0.040 A 
ATOM     71  F   UNL     1      -4.163  11.237  -1.651  1.00  0.00    -0.206 F 
ATOM     72  C   UNL     1      -4.170  12.951  -4.842  1.00  0.00     0.006 A 
ENDBRANCH  44  65
BRANCH  56  73
ATOM     73  C   UNL     1      -5.591  17.659   2.849  1.00  0.00     0.057 A 
ATOM     74  C   UNL     1      -6.945  17.306   2.894  1.00  0.00     0.134 A 
ATOM     75  C   UNL     1      -5.276  19.023   2.889  1.00  0.00     0.134 A 
ATOM     76  F   UNL     1      -7.314  16.017   2.846  1.00  0.00    -0.206 F 
ATOM     77  C   UNL     1      -7.949  18.274   2.956  1.00  0.00     0.040 A 
ATOM     78  C   UNL     1      -6.269  20.000   2.976  1.00  0.00     0.040 A 
ATOM     79  F   UNL     1      -3.997  19.429   2.859  1.00  0.00    -0.206 F 
ATOM     80  C   UNL     1      -7.611  19.626   3.004  1.00  0.00     0.006 A 
ENDBRANCH  56  73
ENDBRANCH  30  31
ENDBRANCH  23  25
ENDBRANCH  22  23
ENDBRANCH  21  22
ENDBRANCH  20  21
ENDBRANCH  19  20
ENDBRANCH   1  19
TORSDOF 17
