REMARK SMILES Cc1cc(=O)n2nc(C)c(C(=O)OCCOCCOC(=O)c3ccc(-c4c5nc(c(-c6c(F)cccc6F)c6ccc([nH]6)c(-c6c(F)cccc6F)c6nc(c(-c7c(F)cccc7F)c7ccc4[nH]7)C=C6)C=C5)cc3)c2[nH]1
REMARK SMILES IDX 17 1 16 2 15 3 14 4 13 5 11 6 12 7 10 8 1 9 2 10 3 11 77 12
REMARK SMILES IDX 4 13 76 14 5 16 6 17 7 18 8 19 9 20 18 21 19 22 20 23 21 24
REMARK SMILES IDX 22 25 23 26 75 27 24 28 74 29 25 30 26 31 27 32 68 33 28 34
REMARK SMILES IDX 73 35 67 36 69 37 29 38 72 39 66 40 65 41 30 43 56 44 39 45
REMARK SMILES IDX 55 46 40 47 43 48 54 49 70 50 41 51 42 52 53 54 71 55 44 56
REMARK SMILES IDX 31 57 32 58 37 59 33 60 34 61 36 62 38 63 35 64 57 65 58 66
REMARK SMILES IDX 63 67 59 68 60 69 62 70 64 71 61 72 45 73 46 74 51 75 47 76
REMARK SMILES IDX 48 77 50 78 52 79 49 80
REMARK H PARENT 77 15 69 42 43 53
REMARK Flexibility Score: inf
ROOT
ATOM      1  C   UNL     1       0.644   3.791   3.747  1.00  0.00     0.202 C 
ENDROOT
BRANCH   1   2
ATOM      2  O   UNL     1      -0.189   4.943   3.832  1.00  0.00    -0.374 OA
BRANCH   2   3
ATOM      3  C   UNL     1      -1.069   5.133   4.940  1.00  0.00     0.202 C 
BRANCH   3   4
ATOM      4  C   UNL     1      -2.321   4.259   5.045  1.00  0.00     0.261 C 
BRANCH   4   5
ATOM      5  O   UNL     1      -2.005   2.879   5.288  1.00  0.00    -0.459 OA
BRANCH   5   6
ATOM      6  C   UNL     1      -2.087   2.081   4.185  1.00  0.00     0.343 C 
ATOM      7  O   UNL     1      -2.484   2.451   3.089  1.00  0.00    -0.246 OA
BRANCH   6   8
ATOM      8  C   UNL     1      -1.478   0.783   4.385  1.00  0.00     0.125 A 
ATOM      9  C   UNL     1       0.771  -0.065   0.013  1.00  0.00     0.064 C 
ATOM     10  C   UNL     1       0.299  -0.511   1.370  1.00  0.00     0.019 A 
ATOM     11  C   UNL     1       0.572  -1.752   1.820  1.00  0.00     0.095 A 
ATOM     12  N   UNL     1      -0.410   0.393   2.142  1.00  0.00    -0.343 N 
ATOM     13  C   UNL     1       0.183  -2.150   3.204  1.00  0.00     0.274 A 
ATOM     14  C   UNL     1      -0.792   0.097   3.408  1.00  0.00     0.152 A 
ATOM     15  H   UNL     1      -0.642   1.272   1.762  1.00  0.00     0.168 HD
ATOM     16  O   UNL     1       0.411  -3.254   3.680  1.00  0.00    -0.267 OA
ATOM     17  N   UNL     1      -0.448  -1.128   3.934  1.00  0.00    -0.179 N 
ATOM     18  N   UNL     1      -0.741  -1.207   5.260  1.00  0.00    -0.168 NA
ATOM     19  C   UNL     1      -1.327  -0.031   5.540  1.00  0.00     0.077 A 
ATOM     20  C   UNL     1      -1.713   0.278   6.941  1.00  0.00     0.070 C 
ENDBRANCH   6   8
ENDBRANCH   5   6
ENDBRANCH   4   5
ENDBRANCH   3   4
ENDBRANCH   2   3
ENDBRANCH   1   2
BRANCH   1  21
ATOM     21  C   UNL     1       1.826   3.655   4.694  1.00  0.00     0.261 C 
BRANCH  21  22
ATOM     22  O   UNL     1       1.415   3.732   6.045  1.00  0.00    -0.460 OA
BRANCH  22  23
ATOM     23  C   UNL     1       1.578   4.959   6.590  1.00  0.00     0.338 C 
ATOM     24  O   UNL     1       1.861   5.994   6.022  1.00  0.00    -0.246 OA
BRANCH  23  25
ATOM     25  C   UNL     1       1.479   4.823   8.045  1.00  0.00     0.060 A 
ATOM     26  C   UNL     1       1.657   5.998   8.779  1.00  0.00     0.016 A 
ATOM     27  C   UNL     1       1.642   3.549   8.603  1.00  0.00     0.016 A 
ATOM     28  C   UNL     1       2.313   5.904   9.981  1.00  0.00     0.010 A 
ATOM     29  C   UNL     1       2.324   3.459   9.782  1.00  0.00     0.010 A 
ATOM     30  C   UNL     1       2.746   4.641  10.387  1.00  0.00    -0.014 A 
BRANCH  30  31
ATOM     31  C   UNL     1       3.636   4.539  11.515  1.00  0.00     0.031 A 
ATOM     32  C   UNL     1       2.898   4.548  12.792  1.00  0.00     0.074 A 
ATOM     33  C   UNL     1       4.951   4.303  11.347  1.00  0.00     0.049 A 
ATOM     34  N   UNL     1       2.848   5.497  13.666  1.00  0.00    -0.248 NA
ATOM     35  C   UNL     1       1.904   3.479  13.004  1.00  0.00     0.031 C 
ATOM     36  C   UNL     1       5.678   4.007  10.108  1.00  0.00     0.029 A 
ATOM     37  N   UNL     1       5.911   4.176  12.300  1.00  0.00    -0.354 N 
ATOM     38  C   UNL     1       1.990   5.021  14.649  1.00  0.00     0.074 A 
ATOM     39  C   UNL     1       1.243   3.945  14.061  1.00  0.00     0.031 C 
ATOM     40  C   UNL     1       6.903   3.515  10.414  1.00  0.00     0.029 A 
ATOM     41  C   UNL     1       7.089   3.581  11.851  1.00  0.00     0.049 A 
ATOM     42  H   UNL     1       5.785   4.478  13.228  1.00  0.00     0.167 HD
ATOM     43  C   UNL     1       2.190   5.314  15.960  1.00  0.00     0.037 A 
ATOM     44  C   UNL     1       8.067   3.102  12.664  1.00  0.00     0.037 A 
ATOM     45  C   UNL     1       3.068   6.444  16.117  1.00  0.00     0.049 A 
ATOM     46  C   UNL     1       7.862   3.735  13.999  1.00  0.00     0.074 A 
ATOM     47  C   UNL     1       3.010   7.767  15.727  1.00  0.00     0.029 A 
ATOM     48  N   UNL     1       4.391   6.186  16.386  1.00  0.00    -0.354 N 
ATOM     49  N   UNL     1       8.020   5.011  14.225  1.00  0.00    -0.248 NA
ATOM     50  C   UNL     1       6.997   3.035  14.939  1.00  0.00     0.031 C 
ATOM     51  C   UNL     1       4.339   8.098  15.333  1.00  0.00     0.029 A 
ATOM     52  C   UNL     1       5.152   6.989  15.572  1.00  0.00     0.049 A 
ATOM     53  H   UNL     1       4.733   5.540  17.045  1.00  0.00     0.167 HD
ATOM     54  C   UNL     1       6.964   5.357  15.059  1.00  0.00     0.074 A 
ATOM     55  C   UNL     1       6.397   4.085  15.505  1.00  0.00     0.031 C 
ATOM     56  C   UNL     1       6.459   6.626  15.072  1.00  0.00     0.037 A 
BRANCH  43  57
ATOM     57  C   UNL     1       1.888   4.340  17.065  1.00  0.00     0.057 A 
ATOM     58  C   UNL     1       1.850   4.793  18.390  1.00  0.00     0.134 A 
ATOM     59  C   UNL     1       1.861   2.935  16.909  1.00  0.00     0.134 A 
ATOM     60  F   UNL     1       1.918   6.103  18.669  1.00  0.00    -0.206 F 
ATOM     61  C   UNL     1       1.809   3.913  19.478  1.00  0.00     0.040 A 
ATOM     62  C   UNL     1       1.754   2.051  17.982  1.00  0.00     0.040 A 
ATOM     63  F   UNL     1       2.038   2.336  15.725  1.00  0.00    -0.206 F 
ATOM     64  C   UNL     1       1.753   2.538  19.276  1.00  0.00     0.006 A 
ENDBRANCH  43  57
BRANCH  44  65
ATOM     65  C   UNL     1       8.882   1.872  12.503  1.00  0.00     0.057 A 
ATOM     66  C   UNL     1       9.996   1.633  13.323  1.00  0.00     0.134 A 
ATOM     67  C   UNL     1       8.421   0.772  11.758  1.00  0.00     0.134 A 
ATOM     68  F   UNL     1      10.488   2.606  14.103  1.00  0.00    -0.206 F 
ATOM     69  C   UNL     1      10.594   0.368  13.422  1.00  0.00     0.040 A 
ATOM     70  C   UNL     1       9.012  -0.494  11.845  1.00  0.00     0.040 A 
ATOM     71  F   UNL     1       7.325   0.862  10.993  1.00  0.00    -0.206 F 
ATOM     72  C   UNL     1      10.092  -0.705  12.692  1.00  0.00     0.006 A 
ENDBRANCH  44  65
BRANCH  56  73
ATOM     73  C   UNL     1       7.208   7.689  14.309  1.00  0.00     0.057 A 
ATOM     74  C   UNL     1       7.364   7.696  12.913  1.00  0.00     0.134 A 
ATOM     75  C   UNL     1       7.631   8.834  14.992  1.00  0.00     0.134 A 
ATOM     76  F   UNL     1       6.906   6.688  12.162  1.00  0.00    -0.206 F 
ATOM     77  C   UNL     1       7.940   8.777  12.236  1.00  0.00     0.040 A 
ATOM     78  C   UNL     1       8.176   9.934  14.326  1.00  0.00     0.040 A 
ATOM     79  F   UNL     1       7.466   8.925  16.321  1.00  0.00    -0.206 F 
ATOM     80  C   UNL     1       8.339   9.906  12.943  1.00  0.00     0.006 A 
ENDBRANCH  56  73
ENDBRANCH  30  31
ENDBRANCH  23  25
ENDBRANCH  22  23
ENDBRANCH  21  22
ENDBRANCH   1  21
TORSDOF 14
