REMARK SMILES COc1ccc([C@H]2CC(c3ccc(S(C)(=O)=O)cc3)=NN2c2ccc(C(=O)OCCOCCOC(=O)c3ccc(-c4c5nc(c(-c6c(F)cccc6F)c6ccc([nH]6)c(-c6c(F)cccc6F)c6nc(c(-c7c(F)cccc7F)c7ccc4[nH]7)C=C6)C=C5)cc3)cc2)cc1OC
REMARK SMILES IDX 30 1 29 2 28 3 26 4 27 5 25 6 22 7 23 8 92 9 24 10 91 11
REMARK SMILES IDX 21 12 7 13 8 14 9 15 20 16 6 17 3 18 4 19 94 20 5 21 93 22
REMARK SMILES IDX 2 23 1 24 95 25 96 26 10 27 11 28 19 29 12 30 18 31 13 32
REMARK SMILES IDX 14 33 15 34 16 35 17 36 31 37 32 38 33 39 34 40 35 41 36 42
REMARK SMILES IDX 37 43 38 44 90 45 39 46 89 47 40 48 41 49 42 50 83 51 43 52
REMARK SMILES IDX 88 53 82 54 84 55 44 56 87 57 81 58 80 59 45 61 71 62 54 63
REMARK SMILES IDX 70 64 55 65 58 66 69 67 85 68 56 69 57 70 68 72 86 73 59 74
REMARK SMILES IDX 46 75 47 76 52 77 48 78 49 79 51 80 53 81 50 82 72 83 73 84
REMARK SMILES IDX 78 85 74 86 75 87 77 88 79 89 76 90 60 91 61 92 66 93 62 94
REMARK SMILES IDX 63 95 65 96 67 97 64 98
REMARK H PARENT 84 60 58 71
REMARK Flexibility Score: inf
ROOT
ATOM      1  C   UNL     1       2.179  -2.652 -11.238  1.00  0.00     0.202 C 
ENDROOT
BRANCH   1   2
ATOM      2  C   UNL     1       1.201  -2.509 -10.067  1.00  0.00     0.261 C 
BRANCH   2   3
ATOM      3  O   UNL     1       1.326  -1.238  -9.410  1.00  0.00    -0.460 OA
BRANCH   3   4
ATOM      4  C   UNL     1       1.895  -1.294  -8.179  1.00  0.00     0.338 C 
ATOM      5  O   UNL     1       2.202  -2.301  -7.563  1.00  0.00    -0.246 OA
BRANCH   4   6
ATOM      6  C   UNL     1       2.236   0.066  -7.707  1.00  0.00     0.060 A 
ATOM      7  C   UNL     1       2.873   2.548  -6.556  1.00  0.00     0.060 A 
ATOM      8  C   UNL     1       3.737   1.456  -6.412  1.00  0.00     0.029 A 
ATOM      9  C   UNL     1       1.735   2.400  -7.364  1.00  0.00     0.029 A 
ATOM     10  C   UNL     1       3.407   0.214  -6.956  1.00  0.00     0.018 A 
ATOM     11  C   UNL     1       1.421   1.172  -7.955  1.00  0.00     0.018 A 
BRANCH   7  12
ATOM     12  N   UNL     1       3.078   3.717  -5.827  1.00  0.00    -0.257 N 
ATOM     13  C   UNL     1       2.138   4.127  -4.774  1.00  0.00     0.144 C 
ATOM     14  C   UNL     1       2.897   5.255  -4.070  1.00  0.00     0.091 C 
ATOM     15  C   UNL     1       4.222   5.170  -4.777  1.00  0.00     0.071 C 
ATOM     16  N   UNL     1       4.307   4.294  -5.730  1.00  0.00    -0.176 NA
BRANCH  13  17
ATOM     17  C   UNL     1       1.761   2.990  -3.830  1.00  0.00    -0.019 A 
ATOM     18  C   UNL     1       1.057   0.850  -2.129  1.00  0.00     0.160 A 
ATOM     19  C   UNL     1       0.086   1.485  -2.915  1.00  0.00     0.051 A 
ATOM     20  C   UNL     1       2.394   1.248  -2.211  1.00  0.00     0.161 A 
ATOM     21  C   UNL     1       0.433   2.549  -3.753  1.00  0.00     0.010 A 
ATOM     22  C   UNL     1       2.726   2.318  -3.058  1.00  0.00     0.056 A 
BRANCH  18  23
ATOM     23  O   UNL     1       0.662  -0.220  -1.372  1.00  0.00    -0.493 OA
ATOM     24  C   UNL     1      -0.059   0.185  -0.208  1.00  0.00     0.278 C 
ENDBRANCH  18  23
BRANCH  20  25
ATOM     25  O   UNL     1       3.486   0.729  -1.570  1.00  0.00    -0.493 OA
ATOM     26  C   UNL     1       3.297  -0.313  -0.627  1.00  0.00     0.278 C 
ENDBRANCH  20  25
ENDBRANCH  13  17
BRANCH  15  27
ATOM     27  C   UNL     1       5.304   6.104  -4.437  1.00  0.00    -0.002 A 
ATOM     28  C   UNL     1       5.842   6.899  -5.455  1.00  0.00     0.011 A 
ATOM     29  C   UNL     1       5.744   6.238  -3.117  1.00  0.00     0.011 A 
ATOM     30  C   UNL     1       6.809   7.857  -5.149  1.00  0.00     0.021 A 
ATOM     31  C   UNL     1       6.731   7.179  -2.812  1.00  0.00     0.021 A 
ATOM     32  C   UNL     1       7.255   7.986  -3.829  1.00  0.00     0.067 A 
BRANCH  32  33
ATOM     33  S   UNL     1       8.469   9.228  -3.442  1.00  0.00     0.175 S 
ATOM     34  C   UNL     1       9.896   8.756  -4.383  1.00  0.00     0.163 C 
ATOM     35  O   UNL     1       7.964  10.481  -3.968  1.00  0.00    -0.224 OA
ATOM     36  O   UNL     1       8.806   9.088  -2.038  1.00  0.00    -0.224 OA
ENDBRANCH  32  33
ENDBRANCH  15  27
ENDBRANCH   7  12
ENDBRANCH   4   6
ENDBRANCH   3   4
ENDBRANCH   2   3
ENDBRANCH   1   2
BRANCH   1  37
ATOM     37  O   UNL     1       3.570  -2.594 -10.930  1.00  0.00    -0.374 OA
BRANCH  37  38
ATOM     38  C   UNL     1       4.144  -1.304 -10.715  1.00  0.00     0.202 C 
BRANCH  38  39
ATOM     39  C   UNL     1       4.430  -0.460 -11.963  1.00  0.00     0.261 C 
BRANCH  39  40
ATOM     40  O   UNL     1       3.225  -0.071 -12.648  1.00  0.00    -0.460 OA
BRANCH  40  41
ATOM     41  C   UNL     1       3.048  -0.651 -13.860  1.00  0.00     0.338 C 
ATOM     42  O   UNL     1       3.815  -1.390 -14.450  1.00  0.00    -0.246 OA
BRANCH  41  43
ATOM     43  C   UNL     1       1.675  -0.399 -14.336  1.00  0.00     0.060 A 
ATOM     44  C   UNL     1       0.896  -1.510 -14.686  1.00  0.00     0.016 A 
ATOM     45  C   UNL     1       1.186   0.896 -14.514  1.00  0.00     0.016 A 
ATOM     46  C   UNL     1      -0.360  -1.329 -15.260  1.00  0.00     0.010 A 
ATOM     47  C   UNL     1      -0.072   1.076 -15.099  1.00  0.00     0.010 A 
ATOM     48  C   UNL     1      -0.837  -0.034 -15.503  1.00  0.00    -0.014 A 
BRANCH  48  49
ATOM     49  C   UNL     1      -2.073   0.158 -16.299  1.00  0.00     0.031 A 
ATOM     50  C   UNL     1      -1.958   0.508 -17.757  1.00  0.00     0.074 A 
ATOM     51  C   UNL     1      -3.283   0.004 -15.734  1.00  0.00     0.049 A 
ATOM     52  N   UNL     1      -2.902   0.767 -18.625  1.00  0.00    -0.248 NA
ATOM     53  C   UNL     1      -0.596   0.577 -18.309  1.00  0.00     0.031 C 
ATOM     54  C   UNL     1      -3.524  -0.371 -14.342  1.00  0.00     0.029 A 
ATOM     55  N   UNL     1      -4.539   0.154 -16.267  1.00  0.00    -0.354 N 
ATOM     56  C   UNL     1      -2.251   1.036 -19.822  1.00  0.00     0.074 A 
ATOM     57  C   UNL     1      -0.830   0.936 -19.563  1.00  0.00     0.031 C 
ATOM     58  C   UNL     1      -4.851  -0.408 -14.126  1.00  0.00     0.029 A 
ATOM     59  C   UNL     1      -5.548  -0.030 -15.353  1.00  0.00     0.049 A 
ATOM     60  H   UNL     1      -4.701   0.372 -17.213  1.00  0.00     0.167 HD
ATOM     61  C   UNL     1      -2.788   1.331 -21.029  1.00  0.00     0.037 A 
ATOM     62  C   UNL     1      -6.880   0.114 -15.489  1.00  0.00     0.037 A 
ATOM     63  C   UNL     1      -4.201   1.426 -21.287  1.00  0.00     0.049 A 
ATOM     64  C   UNL     1      -7.450   0.511 -16.825  1.00  0.00     0.074 A 
ATOM     65  C   UNL     1      -4.844   1.697 -22.482  1.00  0.00     0.029 A 
ATOM     66  N   UNL     1      -5.190   1.259 -20.330  1.00  0.00    -0.354 N 
ATOM     67  N   UNL     1      -6.827   0.738 -17.956  1.00  0.00    -0.248 NA
ATOM     68  C   UNL     1      -8.909   0.671 -16.903  1.00  0.00     0.031 C 
ATOM     69  C   UNL     1      -6.220   1.742 -22.238  1.00  0.00     0.029 A 
ATOM     70  C   UNL     1      -6.437   1.448 -20.902  1.00  0.00     0.049 A 
ATOM     71  H   UNL     1      -5.030   1.039 -19.384  1.00  0.00     0.167 HD
ATOM     72  C   UNL     1      -7.817   1.038 -18.884  1.00  0.00     0.074 A 
ATOM     73  C   UNL     1      -9.083   0.953 -18.186  1.00  0.00     0.031 C 
ATOM     74  C   UNL     1      -7.690   1.353 -20.196  1.00  0.00     0.037 A 
BRANCH  61  75
ATOM     75  C   UNL     1      -1.842   1.595 -22.163  1.00  0.00     0.057 A 
ATOM     76  C   UNL     1      -1.108   0.568 -22.770  1.00  0.00     0.134 A 
ATOM     77  C   UNL     1      -1.692   2.889 -22.679  1.00  0.00     0.134 A 
ATOM     78  F   UNL     1      -1.196  -0.691 -22.314  1.00  0.00    -0.206 F 
ATOM     79  C   UNL     1      -0.244   0.821 -23.837  1.00  0.00     0.040 A 
ATOM     80  C   UNL     1      -0.851   3.150 -23.762  1.00  0.00     0.040 A 
ATOM     81  F   UNL     1      -2.369   3.917 -22.147  1.00  0.00    -0.206 F 
ATOM     82  C   UNL     1      -0.120   2.114 -24.341  1.00  0.00     0.006 A 
ENDBRANCH  61  75
BRANCH  62  83
ATOM     83  C   UNL     1      -7.774  -0.100 -14.323  1.00  0.00     0.057 A 
ATOM     84  C   UNL     1      -8.653  -1.188 -14.272  1.00  0.00     0.134 A 
ATOM     85  C   UNL     1      -7.788   0.792 -13.244  1.00  0.00     0.134 A 
ATOM     86  F   UNL     1      -8.703  -2.063 -15.286  1.00  0.00    -0.206 F 
ATOM     87  C   UNL     1      -9.527  -1.371 -13.199  1.00  0.00     0.040 A 
ATOM     88  C   UNL     1      -8.639   0.608 -12.153  1.00  0.00     0.040 A 
ATOM     89  F   UNL     1      -6.970   1.854 -13.232  1.00  0.00    -0.206 F 
ATOM     90  C   UNL     1      -9.518  -0.473 -12.133  1.00  0.00     0.006 A 
ENDBRANCH  62  83
BRANCH  74  91
ATOM     91  C   UNL     1      -8.951   1.594 -20.973  1.00  0.00     0.057 A 
ATOM     92  C   UNL     1      -9.715   2.755 -20.803  1.00  0.00     0.134 A 
ATOM     93  C   UNL     1      -9.382   0.671 -21.935  1.00  0.00     0.134 A 
ATOM     94  F   UNL     1      -9.364   3.673 -19.889  1.00  0.00    -0.206 F 
ATOM     95  C   UNL     1     -10.875   2.980 -21.547  1.00  0.00     0.040 A 
ATOM     96  C   UNL     1     -10.525   0.897 -22.703  1.00  0.00     0.040 A 
ATOM     97  F   UNL     1      -8.691  -0.457 -22.155  1.00  0.00    -0.206 F 
ATOM     98  C   UNL     1     -11.278   2.053 -22.506  1.00  0.00     0.006 A 
ENDBRANCH  74  91
ENDBRANCH  48  49
ENDBRANCH  41  43
ENDBRANCH  40  41
ENDBRANCH  39  40
ENDBRANCH  38  39
ENDBRANCH  37  38
ENDBRANCH   1  37
TORSDOF 20
