REMARK SMILES O=C(CC1(CC(=O)OCCOCCOC(=O)c2ccc(-c3c4nc(c(-c5c(F)cccc5F)c5ccc([nH]5)c(-c5c(F)cccc5F)c5nc(c(-c6c(F)cccc6F)c6ccc3[nH]6)C=C5)C=C4)cc2)CCCC1)NNc1ccc([N+](=O)[O-])cc1
REMARK SMILES IDX 9 1 8 2 6 3 7 4 5 5 4 6 71 7 74 8 72 9 73 10 3 11 2 12 1 13
REMARK SMILES IDX 75 14 76 16 77 18 78 19 85 20 79 21 84 22 80 23 81 24 82 25
REMARK SMILES IDX 83 26 10 27 11 28 12 29 13 30 14 31 15 32 16 33 17 34 18 35
REMARK SMILES IDX 70 36 19 37 69 38 20 39 21 40 22 41 63 42 23 43 68 44 62 45
REMARK SMILES IDX 64 46 24 47 67 48 61 49 60 50 25 52 51 53 34 54 50 55 35 56
REMARK SMILES IDX 38 57 49 58 65 59 36 60 37 61 48 63 66 64 39 65 26 66 27 67
REMARK SMILES IDX 32 68 28 69 29 70 31 71 33 72 30 73 52 74 53 75 58 76 54 77
REMARK SMILES IDX 55 78 57 79 59 80 56 81 40 82 41 83 46 84 42 85 43 86 45 87
REMARK SMILES IDX 47 88 44 89
REMARK H PARENT 75 15 76 17 64 51 38 62
REMARK Flexibility Score: inf
ROOT
ATOM      1  C   UNL     1       1.132   2.850   2.487  1.00  0.00     0.261 C 
ENDROOT
BRANCH   1   2
ATOM      2  O   UNL     1       2.220   2.655   1.553  1.00  0.00    -0.463 OA
BRANCH   2   3
ATOM      3  C   UNL     1       3.301   1.999   2.038  1.00  0.00     0.306 C 
ATOM      4  O   UNL     1       3.414   1.614   3.196  1.00  0.00    -0.252 OA
BRANCH   3   5
ATOM      5  C   UNL     1       4.473   1.923   1.074  1.00  0.00     0.130 C 
BRANCH   5   6
ATOM      6  C   UNL     1       4.334   1.620  -0.448  1.00  0.00    -0.010 C 
ATOM      7  C   UNL     1       5.728   1.907  -1.099  1.00  0.00     0.008 C 
ATOM      8  C   UNL     1       3.523   2.709  -1.195  1.00  0.00     0.008 C 
ATOM      9  C   UNL     1       5.860   3.421  -1.183  1.00  0.00     0.001 C 
ATOM     10  C   UNL     1       4.427   3.948  -1.213  1.00  0.00     0.001 C 
BRANCH   6  11
ATOM     11  C   UNL     1       3.979   0.165  -0.898  1.00  0.00     0.109 C 
BRANCH  11  12
ATOM     12  C   UNL     1       3.246  -0.835  -0.028  1.00  0.00     0.238 C 
ATOM     13  O   UNL     1       2.293  -1.488  -0.458  1.00  0.00    -0.273 OA
ATOM     14  N   UNL     1       3.755  -1.041   1.226  1.00  0.00    -0.270 N 
ATOM     15  H   UNL     1       4.607  -0.636   1.506  1.00  0.00     0.191 HD
BRANCH  14  16
ATOM     16  N   UNL     1       3.022  -1.841   2.083  1.00  0.00    -0.299 N 
ATOM     17  H   UNL     1       2.230  -2.318   1.745  1.00  0.00     0.188 HD
BRANCH  16  18
ATOM     18  C   UNL     1       3.393  -1.978   3.420  1.00  0.00     0.055 A 
ATOM     19  C   UNL     1       2.760  -2.964   4.192  1.00  0.00     0.034 A 
ATOM     20  C   UNL     1       4.425  -1.240   4.017  1.00  0.00     0.034 A 
ATOM     21  C   UNL     1       3.177  -3.244   5.498  1.00  0.00     0.088 A 
ATOM     22  C   UNL     1       4.851  -1.501   5.320  1.00  0.00     0.088 A 
ATOM     23  C   UNL     1       4.241  -2.522   6.049  1.00  0.00     0.269 A 
BRANCH  23  24
ATOM     24  N   UNL     1       4.745  -2.859   7.383  1.00  0.00     0.062 N 
ATOM     25  O   UNL     1       4.199  -3.792   7.988  1.00  0.00    -0.258 OA
ATOM     26  O   UNL     1       5.702  -2.203   7.820  1.00  0.00    -0.258 OA
ENDBRANCH  23  24
ENDBRANCH  16  18
ENDBRANCH  14  16
ENDBRANCH  11  12
ENDBRANCH   6  11
ENDBRANCH   5   6
ENDBRANCH   3   5
ENDBRANCH   2   3
ENDBRANCH   1   2
BRANCH   1  27
ATOM     27  C   UNL     1      -0.215   2.453   1.877  1.00  0.00     0.202 C 
BRANCH  27  28
ATOM     28  O   UNL     1      -0.474   1.057   1.718  1.00  0.00    -0.374 OA
BRANCH  28  29
ATOM     29  C   UNL     1       0.364   0.343   0.816  1.00  0.00     0.202 C 
BRANCH  29  30
ATOM     30  C   UNL     1       0.047   0.436  -0.684  1.00  0.00     0.261 C 
BRANCH  30  31
ATOM     31  O   UNL     1      -0.309   1.748  -1.101  1.00  0.00    -0.460 OA
BRANCH  31  32
ATOM     32  C   UNL     1      -1.643   1.942  -1.154  1.00  0.00     0.338 C 
ATOM     33  O   UNL     1      -2.538   1.131  -0.988  1.00  0.00    -0.246 OA
BRANCH  32  34
ATOM     34  C   UNL     1      -1.866   3.382  -1.271  1.00  0.00     0.060 A 
ATOM     35  C   UNL     1      -2.691   3.975  -0.313  1.00  0.00     0.016 A 
ATOM     36  C   UNL     1      -1.264   4.128  -2.289  1.00  0.00     0.016 A 
ATOM     37  C   UNL     1      -2.969   5.327  -0.403  1.00  0.00     0.010 A 
ATOM     38  C   UNL     1      -1.546   5.486  -2.379  1.00  0.00     0.010 A 
ATOM     39  C   UNL     1      -2.429   6.073  -1.459  1.00  0.00    -0.014 A 
BRANCH  39  40
ATOM     40  C   UNL     1      -2.927   7.441  -1.680  1.00  0.00     0.031 A 
ATOM     41  C   UNL     1      -3.967   7.657  -2.737  1.00  0.00     0.074 A 
ATOM     42  C   UNL     1      -2.484   8.441  -0.902  1.00  0.00     0.049 A 
ATOM     43  N   UNL     1      -4.556   8.764  -3.102  1.00  0.00    -0.248 NA
ATOM     44  C   UNL     1      -4.402   6.466  -3.489  1.00  0.00     0.031 C 
ATOM     45  C   UNL     1      -1.496   8.303   0.169  1.00  0.00     0.029 A 
ATOM     46  N   UNL     1      -2.811   9.769  -0.891  1.00  0.00    -0.354 N 
ATOM     47  C   UNL     1      -5.424   8.405  -4.125  1.00  0.00     0.074 A 
ATOM     48  C   UNL     1      -5.263   6.988  -4.350  1.00  0.00     0.031 C 
ATOM     49  C   UNL     1      -1.294   9.505   0.732  1.00  0.00     0.029 A 
ATOM     50  C   UNL     1      -2.112  10.496   0.039  1.00  0.00     0.049 A 
ATOM     51  H   UNL     1      -3.483  10.165  -1.492  1.00  0.00     0.167 HD
ATOM     52  C   UNL     1      -6.284   9.197  -4.804  1.00  0.00     0.037 A 
ATOM     53  C   UNL     1      -2.123  11.819   0.278  1.00  0.00     0.037 A 
ATOM     54  C   UNL     1      -6.426  10.607  -4.555  1.00  0.00     0.049 A 
ATOM     55  C   UNL     1      -3.050  12.684  -0.533  1.00  0.00     0.074 A 
ATOM     56  C   UNL     1      -7.280  11.508  -5.162  1.00  0.00     0.029 A 
ATOM     57  N   UNL     1      -5.682  11.319  -3.624  1.00  0.00    -0.354 N 
ATOM     58  N   UNL     1      -3.896  12.335  -1.474  1.00  0.00    -0.248 NA
ATOM     59  C   UNL     1      -3.031  14.124  -0.247  1.00  0.00     0.031 C 
ATOM     60  C   UNL     1      -7.010  12.777  -4.643  1.00  0.00     0.029 A 
ATOM     61  C   UNL     1      -6.034  12.657  -3.664  1.00  0.00     0.049 A 
ATOM     62  H   UNL     1      -5.005  10.931  -3.025  1.00  0.00     0.167 HD
ATOM     63  C   UNL     1      -4.526  13.505  -1.875  1.00  0.00     0.074 A 
ATOM     64  C   UNL     1      -3.980  14.569  -1.058  1.00  0.00     0.031 C 
ATOM     65  C   UNL     1      -5.470  13.689  -2.832  1.00  0.00     0.037 A 
BRANCH  52  66
ATOM     66  C   UNL     1      -7.106   8.569  -5.890  1.00  0.00     0.057 A 
ATOM     67  C   UNL     1      -8.150   7.676  -5.614  1.00  0.00     0.134 A 
ATOM     68  C   UNL     1      -6.875   8.895  -7.233  1.00  0.00     0.134 A 
ATOM     69  F   UNL     1      -8.414   7.306  -4.352  1.00  0.00    -0.206 F 
ATOM     70  C   UNL     1      -8.925   7.120  -6.635  1.00  0.00     0.040 A 
ATOM     71  C   UNL     1      -7.659   8.367  -8.259  1.00  0.00     0.040 A 
ATOM     72  F   UNL     1      -5.889   9.740  -7.568  1.00  0.00    -0.206 F 
ATOM     73  C   UNL     1      -8.686   7.473  -7.962  1.00  0.00     0.006 A 
ENDBRANCH  52  66
BRANCH  53  74
ATOM     74  C   UNL     1      -1.221  12.402   1.304  1.00  0.00     0.057 A 
ATOM     75  C   UNL     1      -1.724  13.000   2.465  1.00  0.00     0.134 A 
ATOM     76  C   UNL     1       0.170  12.393   1.137  1.00  0.00     0.134 A 
ATOM     77  F   UNL     1      -3.046  13.055   2.679  1.00  0.00    -0.206 F 
ATOM     78  C   UNL     1      -0.880  13.591   3.408  1.00  0.00     0.040 A 
ATOM     79  C   UNL     1       1.027  12.952   2.086  1.00  0.00     0.040 A 
ATOM     80  F   UNL     1       0.719  11.828   0.051  1.00  0.00    -0.206 F 
ATOM     81  C   UNL     1       0.501  13.564   3.221  1.00  0.00     0.006 A 
ENDBRANCH  53  74
BRANCH  65  82
ATOM     82  C   UNL     1      -5.986  15.086  -3.017  1.00  0.00     0.057 A 
ATOM     83  C   UNL     1      -5.200  16.097  -3.585  1.00  0.00     0.134 A 
ATOM     84  C   UNL     1      -7.300  15.411  -2.657  1.00  0.00     0.134 A 
ATOM     85  F   UNL     1      -3.930  15.852  -3.940  1.00  0.00    -0.206 F 
ATOM     86  C   UNL     1      -5.694  17.390  -3.760  1.00  0.00     0.040 A 
ATOM     87  C   UNL     1      -7.816  16.690  -2.859  1.00  0.00     0.040 A 
ATOM     88  F   UNL     1      -8.110  14.485  -2.121  1.00  0.00    -0.206 F 
ATOM     89  C   UNL     1      -7.009  17.687  -3.404  1.00  0.00     0.006 A 
ENDBRANCH  65  82
ENDBRANCH  39  40
ENDBRANCH  32  34
ENDBRANCH  31  32
ENDBRANCH  30  31
ENDBRANCH  29  30
ENDBRANCH  28  29
ENDBRANCH  27  28
ENDBRANCH   1  27
TORSDOF 20
