REMARK SMILES Cc1ccc(C)c(/C=C2\SC(=S)N(CC(=O)OCCOCCOC(=O)c3ccc(-c4c5nc(c(-c6c(F)cccc6F)c6ccc([nH]6)c(-c6c(F)cccc6F)c6nc(c(-c7c(F)cccc7F)c7ccc4[nH]7)C=C6)C=C5)cc3)C2=O)c1
REMARK SMILES IDX 20 1 19 2 18 3 17 4 15 5 16 6 14 7 13 8 8 9 9 10 10 11 80 12
REMARK SMILES IDX 11 13 81 14 12 15 7 16 1 17 2 18 3 19 82 20 4 21 5 22 6 23
REMARK SMILES IDX 21 24 22 25 23 26 24 27 25 28 26 29 27 30 79 31 28 32 78 33
REMARK SMILES IDX 29 34 30 35 31 36 72 37 32 38 77 39 71 40 73 41 33 42 76 43
REMARK SMILES IDX 70 44 69 45 34 47 60 48 43 49 59 50 44 51 47 52 58 53 74 54
REMARK SMILES IDX 45 55 46 56 57 58 75 59 48 60 35 61 36 62 41 63 37 64 38 65
REMARK SMILES IDX 40 66 42 67 39 68 61 69 62 70 67 71 63 72 64 73 66 74 68 75
REMARK SMILES IDX 65 76 49 77 50 78 55 79 51 80 52 81 54 82 56 83 53 84
REMARK H PARENT 73 46 47 57
REMARK Flexibility Score: inf
ROOT
ATOM      1  O   UNL     1      -4.589   4.960  -2.098  1.00  0.00    -0.374 OA
ENDROOT
BRANCH   1   2
ATOM      2  C   UNL     1      -4.211   4.255  -3.255  1.00  0.00     0.202 C 
BRANCH   2   3
ATOM      3  C   UNL     1      -3.664   5.292  -4.239  1.00  0.00     0.261 C 
BRANCH   3   4
ATOM      4  O   UNL     1      -2.318   5.679  -3.900  1.00  0.00    -0.462 OA
BRANCH   4   5
ATOM      5  C   UNL     1      -2.089   6.353  -2.729  1.00  0.00     0.326 C 
ATOM      6  O   UNL     1      -2.900   6.760  -1.939  1.00  0.00    -0.250 OA
BRANCH   5   7
ATOM      7  C   UNL     1      -0.600   6.489  -2.487  1.00  0.00     0.250 C 
BRANCH   7   8
ATOM      8  N   UNL     1      -0.260   5.116  -2.219  1.00  0.00    -0.282 N 
ATOM      9  C   UNL     1      -0.953   2.438   0.053  1.00  0.00     0.029 C 
ATOM     10  C   UNL     1      -0.618   3.153  -1.029  1.00  0.00     0.081 C 
ATOM     11  S   UNL     1       0.002   2.600  -2.540  1.00  0.00    -0.054 SA
ATOM     12  C   UNL     1      -0.659   4.620  -0.991  1.00  0.00     0.266 C 
ATOM     13  C   UNL     1       0.163   4.221  -3.177  1.00  0.00     0.148 C 
ATOM     14  O   UNL     1      -1.024   5.267  -0.021  1.00  0.00    -0.268 OA
ATOM     15  S   UNL     1       0.714   4.534  -4.720  1.00  0.00    -0.052 S 
BRANCH   9  16
ATOM     16  C   UNL     1      -0.499   1.059   0.164  1.00  0.00    -0.021 A 
ATOM     17  C   UNL     1       3.020  -0.352   0.100  1.00  0.00     0.044 C 
ATOM     18  C   UNL     1       1.525  -0.295   0.151  1.00  0.00    -0.051 A 
ATOM     19  C   UNL     1       0.726  -1.434   0.070  1.00  0.00     0.004 A 
ATOM     20  C   UNL     1       0.899   0.937   0.247  1.00  0.00     0.011 A 
ATOM     21  C   UNL     1      -0.673  -1.326   0.053  1.00  0.00     0.004 A 
ATOM     22  C   UNL     1      -1.311  -0.075   0.084  1.00  0.00    -0.044 A 
ATOM     23  C   UNL     1      -2.810  -0.022   0.006  1.00  0.00     0.045 C 
ENDBRANCH   9  16
ENDBRANCH   7   8
ENDBRANCH   5   7
ENDBRANCH   4   5
ENDBRANCH   3   4
ENDBRANCH   2   3
ENDBRANCH   1   2
BRANCH   1  24
ATOM     24  C   UNL     1      -4.323   4.425  -0.819  1.00  0.00     0.202 C 
BRANCH  24  25
ATOM     25  C   UNL     1      -5.434   3.477  -0.385  1.00  0.00     0.261 C 
BRANCH  25  26
ATOM     26  O   UNL     1      -6.720   4.135  -0.267  1.00  0.00    -0.460 OA
BRANCH  26  27
ATOM     27  C   UNL     1      -7.305   4.505  -1.446  1.00  0.00     0.338 C 
ATOM     28  O   UNL     1      -7.805   3.724  -2.238  1.00  0.00    -0.246 OA
BRANCH  27  29
ATOM     29  C   UNL     1      -7.062   5.961  -1.710  1.00  0.00     0.060 A 
ATOM     30  C   UNL     1      -7.025   6.420  -3.038  1.00  0.00     0.016 A 
ATOM     31  C   UNL     1      -6.477   6.727  -0.701  1.00  0.00     0.016 A 
ATOM     32  C   UNL     1      -6.236   7.539  -3.366  1.00  0.00     0.010 A 
ATOM     33  C   UNL     1      -5.589   7.736  -1.055  1.00  0.00     0.010 A 
ATOM     34  C   UNL     1      -5.414   8.135  -2.394  1.00  0.00    -0.014 A 
BRANCH  34  35
ATOM     35  C   UNL     1      -4.755   9.455  -2.581  1.00  0.00     0.031 A 
ATOM     36  C   UNL     1      -5.814  10.456  -2.398  1.00  0.00     0.074 A 
ATOM     37  C   UNL     1      -3.485   9.889  -2.802  1.00  0.00     0.049 A 
ATOM     38  N   UNL     1      -6.444  10.973  -3.401  1.00  0.00    -0.248 NA
ATOM     39  C   UNL     1      -6.468  10.651  -1.097  1.00  0.00     0.031 C 
ATOM     40  C   UNL     1      -2.297   9.148  -3.170  1.00  0.00     0.029 A 
ATOM     41  N   UNL     1      -2.950  11.159  -2.679  1.00  0.00    -0.354 N 
ATOM     42  C   UNL     1      -7.383  11.791  -2.819  1.00  0.00     0.074 A 
ATOM     43  C   UNL     1      -7.562  11.319  -1.473  1.00  0.00     0.031 C 
ATOM     44  C   UNL     1      -1.161   9.827  -2.885  1.00  0.00     0.029 A 
ATOM     45  C   UNL     1      -1.547  11.186  -2.551  1.00  0.00     0.049 A 
ATOM     46  H   UNL     1      -3.502  11.974  -2.682  1.00  0.00     0.167 HD
ATOM     47  C   UNL     1      -7.582  13.024  -3.344  1.00  0.00     0.037 A 
ATOM     48  C   UNL     1      -0.684  12.239  -2.556  1.00  0.00     0.037 A 
ATOM     49  C   UNL     1      -6.998  13.133  -4.662  1.00  0.00     0.049 A 
ATOM     50  C   UNL     1      -1.348  13.307  -3.315  1.00  0.00     0.074 A 
ATOM     51  C   UNL     1      -7.198  12.522  -5.883  1.00  0.00     0.029 A 
ATOM     52  N   UNL     1      -5.730  13.657  -4.677  1.00  0.00    -0.354 N 
ATOM     53  N   UNL     1      -1.498  13.270  -4.607  1.00  0.00    -0.248 NA
ATOM     54  C   UNL     1      -2.213  14.228  -2.599  1.00  0.00     0.031 C 
ATOM     55  C   UNL     1      -5.932  12.517  -6.539  1.00  0.00     0.029 A 
ATOM     56  C   UNL     1      -5.005  13.179  -5.736  1.00  0.00     0.049 A 
ATOM     57  H   UNL     1      -5.386  14.296  -4.012  1.00  0.00     0.167 HD
ATOM     58  C   UNL     1      -2.774  13.759  -4.797  1.00  0.00     0.074 A 
ATOM     59  C   UNL     1      -3.092  14.485  -3.570  1.00  0.00     0.031 C 
ATOM     60  C   UNL     1      -3.560  13.244  -5.785  1.00  0.00     0.037 A 
BRANCH  47  61
ATOM     61  C   UNL     1      -7.822  14.221  -2.472  1.00  0.00     0.057 A 
ATOM     62  C   UNL     1      -8.331  15.386  -3.052  1.00  0.00     0.134 A 
ATOM     63  C   UNL     1      -7.337  14.359  -1.151  1.00  0.00     0.134 A 
ATOM     64  F   UNL     1      -8.753  15.387  -4.325  1.00  0.00    -0.206 F 
ATOM     65  C   UNL     1      -8.355  16.604  -2.365  1.00  0.00     0.040 A 
ATOM     66  C   UNL     1      -7.418  15.550  -0.434  1.00  0.00     0.040 A 
ATOM     67  F   UNL     1      -6.659  13.391  -0.524  1.00  0.00    -0.206 F 
ATOM     68  C   UNL     1      -7.910  16.686  -1.050  1.00  0.00     0.006 A 
ENDBRANCH  47  61
BRANCH  48  69
ATOM     69  C   UNL     1       0.570  12.495  -1.795  1.00  0.00     0.057 A 
ATOM     70  C   UNL     1       1.361  13.631  -2.058  1.00  0.00     0.134 A 
ATOM     71  C   UNL     1       0.859  11.820  -0.599  1.00  0.00     0.134 A 
ATOM     72  F   UNL     1       1.171  14.352  -3.172  1.00  0.00    -0.206 F 
ATOM     73  C   UNL     1       2.321  14.111  -1.154  1.00  0.00     0.040 A 
ATOM     74  C   UNL     1       1.816  12.290   0.315  1.00  0.00     0.040 A 
ATOM     75  F   UNL     1       0.164  10.730  -0.243  1.00  0.00    -0.206 F 
ATOM     76  C   UNL     1       2.534  13.453   0.051  1.00  0.00     0.006 A 
ENDBRANCH  48  69
BRANCH  60  77
ATOM     77  C   UNL     1      -2.869  12.579  -6.945  1.00  0.00     0.057 A 
ATOM     78  C   UNL     1      -2.132  11.388  -6.883  1.00  0.00     0.134 A 
ATOM     79  C   UNL     1      -3.045  13.146  -8.213  1.00  0.00     0.134 A 
ATOM     80  F   UNL     1      -1.956  10.735  -5.726  1.00  0.00    -0.206 F 
ATOM     81  C   UNL     1      -1.581  10.803  -8.030  1.00  0.00     0.040 A 
ATOM     82  C   UNL     1      -2.529  12.556  -9.368  1.00  0.00     0.040 A 
ATOM     83  F   UNL     1      -3.760  14.273  -8.354  1.00  0.00    -0.206 F 
ATOM     84  C   UNL     1      -1.788  11.383  -9.279  1.00  0.00     0.006 A 
ENDBRANCH  60  77
ENDBRANCH  34  35
ENDBRANCH  27  29
ENDBRANCH  26  27
ENDBRANCH  25  26
ENDBRANCH  24  25
ENDBRANCH   1  24
TORSDOF 16
