REMARK SMILES O=C(OCCOCCOC(=O)[C@@H]1CC(=O)N(CCCCc2ccccn2)C1)c1ccc(-c2c3nc(c(-c4c(F)cccc4F)c4ccc([nH]4)c(-c4c(F)cccc4F)c4nc(c(-c5c(F)cccc5F)c5ccc2[nH]5)C=C4)C=C3)cc1
REMARK SMILES IDX 7 1 6 2 5 3 4 4 3 5 2 6 1 7 28 8 29 9 81 10 30 11 80 12
REMARK SMILES IDX 31 13 32 14 33 15 74 16 34 17 79 18 73 19 75 20 35 21 78 22
REMARK SMILES IDX 72 23 71 24 36 26 62 27 45 28 61 29 46 30 49 31 60 32 76 33
REMARK SMILES IDX 47 34 48 35 59 37 77 38 50 39 37 40 38 41 43 42 39 43 40 44
REMARK SMILES IDX 42 45 44 46 41 47 63 48 64 49 69 50 65 51 66 52 68 53 70 54
REMARK SMILES IDX 67 55 51 56 52 57 57 58 53 59 54 60 56 61 58 62 55 63 8 64
REMARK SMILES IDX 9 65 10 66 11 67 12 68 13 69 27 70 14 71 16 72 15 73 17 74
REMARK SMILES IDX 18 75 19 76 20 77 21 78 22 79 26 80 23 81 25 82 24 83
REMARK H PARENT 75 25 49 36
REMARK Flexibility Score: inf
ROOT
ATOM      1  C   UNL     1       2.270  -1.176  -1.481  1.00  0.00     0.202 C 
ENDROOT
BRANCH   1   2
ATOM      2  O   UNL     1       3.660  -0.993  -1.168  1.00  0.00    -0.374 OA
BRANCH   2   3
ATOM      3  C   UNL     1       4.096  -1.501   0.096  1.00  0.00     0.202 C 
BRANCH   3   4
ATOM      4  C   UNL     1       3.774  -0.625   1.309  1.00  0.00     0.261 C 
BRANCH   4   5
ATOM      5  O   UNL     1       2.383  -0.273   1.326  1.00  0.00    -0.460 OA
BRANCH   5   6
ATOM      6  C   UNL     1       1.836   0.908   0.951  1.00  0.00     0.338 C 
ATOM      7  O   UNL     1       0.620   1.057   1.039  1.00  0.00    -0.246 OA
BRANCH   6   8
ATOM      8  C   UNL     1       2.649   2.049   0.440  1.00  0.00     0.060 A 
ATOM      9  C   UNL     1       3.802   1.918  -0.338  1.00  0.00     0.016 A 
ATOM     10  C   UNL     1       2.165   3.339   0.697  1.00  0.00     0.016 A 
ATOM     11  C   UNL     1       4.517   3.020  -0.768  1.00  0.00     0.010 A 
ATOM     12  C   UNL     1       2.851   4.460   0.224  1.00  0.00     0.010 A 
ATOM     13  C   UNL     1       4.044   4.295  -0.489  1.00  0.00    -0.014 A 
BRANCH  13  14
ATOM     14  C   UNL     1       4.893   5.435  -0.855  1.00  0.00     0.031 A 
ATOM     15  C   UNL     1       5.648   6.124   0.235  1.00  0.00     0.074 A 
ATOM     16  C   UNL     1       5.064   5.746  -2.151  1.00  0.00     0.049 A 
ATOM     17  N   UNL     1       6.370   7.208   0.184  1.00  0.00    -0.248 NA
ATOM     18  C   UNL     1       5.585   5.498   1.568  1.00  0.00     0.031 C 
ATOM     19  C   UNL     1       4.475   5.019  -3.279  1.00  0.00     0.029 A 
ATOM     20  N   UNL     1       5.800   6.736  -2.739  1.00  0.00    -0.354 N 
ATOM     21  C   UNL     1       6.811   7.419   1.482  1.00  0.00     0.074 A 
ATOM     22  C   UNL     1       6.283   6.351   2.300  1.00  0.00     0.031 C 
ATOM     23  C   UNL     1       4.885   5.584  -4.425  1.00  0.00     0.029 A 
ATOM     24  C   UNL     1       5.695   6.753  -4.107  1.00  0.00     0.049 A 
ATOM     25  H   UNL     1       6.351   7.374  -2.231  1.00  0.00     0.167 HD
ATOM     26  C   UNL     1       7.580   8.433   1.940  1.00  0.00     0.037 A 
ATOM     27  C   UNL     1       6.168   7.650  -4.990  1.00  0.00     0.037 A 
ATOM     28  C   UNL     1       8.086   9.473   1.086  1.00  0.00     0.049 A 
ATOM     29  C   UNL     1       6.939   8.821  -4.446  1.00  0.00     0.074 A 
ATOM     30  C   UNL     1       8.814  10.597   1.423  1.00  0.00     0.029 A 
ATOM     31  N   UNL     1       7.909   9.502  -0.293  1.00  0.00    -0.354 N 
ATOM     32  N   UNL     1       7.279   9.080  -3.204  1.00  0.00    -0.248 NA
ATOM     33  C   UNL     1       7.374   9.834  -5.414  1.00  0.00     0.031 C 
ATOM     34  C   UNL     1       9.043  11.327   0.250  1.00  0.00     0.029 A 
ATOM     35  C   UNL     1       8.502  10.632  -0.823  1.00  0.00     0.049 A 
ATOM     36  H   UNL     1       7.432   8.817  -0.815  1.00  0.00     0.167 HD
ATOM     37  C   UNL     1       7.981  10.275  -3.240  1.00  0.00     0.074 A 
ATOM     38  C   UNL     1       8.032  10.680  -4.633  1.00  0.00     0.031 C 
ATOM     39  C   UNL     1       8.531  10.982  -2.222  1.00  0.00     0.037 A 
BRANCH  26  40
ATOM     40  C   UNL     1       7.821   8.487   3.418  1.00  0.00     0.057 A 
ATOM     41  C   UNL     1       8.650   7.570   4.078  1.00  0.00     0.134 A 
ATOM     42  C   UNL     1       7.159   9.439   4.205  1.00  0.00     0.134 A 
ATOM     43  F   UNL     1       9.286   6.610   3.389  1.00  0.00    -0.206 F 
ATOM     44  C   UNL     1       8.786   7.577   5.469  1.00  0.00     0.040 A 
ATOM     45  C   UNL     1       7.306   9.472   5.592  1.00  0.00     0.040 A 
ATOM     46  F   UNL     1       6.341  10.339   3.639  1.00  0.00    -0.206 F 
ATOM     47  C   UNL     1       8.113   8.532   6.229  1.00  0.00     0.006 A 
ENDBRANCH  26  40
BRANCH  27  48
ATOM     48  C   UNL     1       5.874   7.507  -6.439  1.00  0.00     0.057 A 
ATOM     49  C   UNL     1       6.891   7.267  -7.370  1.00  0.00     0.134 A 
ATOM     50  C   UNL     1       4.565   7.604  -6.932  1.00  0.00     0.134 A 
ATOM     51  F   UNL     1       8.167   7.182  -6.968  1.00  0.00    -0.206 F 
ATOM     52  C   UNL     1       6.620   7.140  -8.735  1.00  0.00     0.040 A 
ATOM     53  C   UNL     1       4.276   7.452  -8.289  1.00  0.00     0.040 A 
ATOM     54  F   UNL     1       3.541   7.832  -6.096  1.00  0.00    -0.206 F 
ATOM     55  C   UNL     1       5.308   7.226  -9.197  1.00  0.00     0.006 A 
ENDBRANCH  27  48
BRANCH  39  56
ATOM     56  C   UNL     1       9.259  12.237  -2.593  1.00  0.00     0.057 A 
ATOM     57  C   UNL     1       8.579  13.400  -2.968  1.00  0.00     0.134 A 
ATOM     58  C   UNL     1      10.656  12.290  -2.519  1.00  0.00     0.134 A 
ATOM     59  F   UNL     1       7.241  13.405  -3.069  1.00  0.00    -0.206 F 
ATOM     60  C   UNL     1       9.267  14.573  -3.276  1.00  0.00     0.040 A 
ATOM     61  C   UNL     1      11.353  13.464  -2.799  1.00  0.00     0.040 A 
ATOM     62  F   UNL     1      11.361  11.207  -2.156  1.00  0.00    -0.206 F 
ATOM     63  C   UNL     1      10.658  14.609  -3.183  1.00  0.00     0.006 A 
ENDBRANCH  39  56
ENDBRANCH  13  14
ENDBRANCH   6   8
ENDBRANCH   5   6
ENDBRANCH   4   5
ENDBRANCH   3   4
ENDBRANCH   2   3
ENDBRANCH   1   2
BRANCH   1  64
ATOM     64  C   UNL     1       2.122  -1.588  -2.948  1.00  0.00     0.261 C 
BRANCH  64  65
ATOM     65  O   UNL     1       2.909  -2.769  -3.138  1.00  0.00    -0.463 OA
BRANCH  65  66
ATOM     66  C   UNL     1       4.218  -2.467  -3.378  1.00  0.00     0.311 C 
ATOM     67  O   UNL     1       4.604  -1.557  -4.097  1.00  0.00    -0.252 OA
BRANCH  66  68
ATOM     68  C   UNL     1       5.099  -3.381  -2.556  1.00  0.00     0.128 C 
ATOM     69  C   UNL     1       6.501  -2.808  -2.381  1.00  0.00     0.117 C 
ATOM     70  C   UNL     1       5.319  -4.646  -3.324  1.00  0.00     0.135 C 
ATOM     71  C   UNL     1       7.180  -3.259  -3.651  1.00  0.00     0.223 C 
ATOM     72  N   UNL     1       6.423  -4.301  -4.179  1.00  0.00    -0.342 N 
ATOM     73  O   UNL     1       8.205  -2.784  -4.111  1.00  0.00    -0.275 OA
BRANCH  72  74
ATOM     74  C   UNL     1       6.531  -4.760  -5.547  1.00  0.00     0.119 C 
BRANCH  74  75
ATOM     75  C   UNL     1       6.892  -6.233  -5.693  1.00  0.00     0.022 C 
BRANCH  75  76
ATOM     76  C   UNL     1       5.888  -7.249  -5.128  1.00  0.00     0.008 C 
BRANCH  76  77
ATOM     77  C   UNL     1       4.451  -7.149  -5.655  1.00  0.00     0.056 C 
BRANCH  77  78
ATOM     78  C   UNL     1       4.361  -7.480  -7.117  1.00  0.00     0.040 A 
ATOM     79  C   UNL     1       4.312  -6.468  -8.073  1.00  0.00     0.024 A 
ATOM     80  N   UNL     1       4.401  -8.793  -7.441  1.00  0.00    -0.261 NA
ATOM     81  C   UNL     1       4.342  -6.817  -9.417  1.00  0.00     0.003 A 
ATOM     82  C   UNL     1       4.415  -9.103  -8.754  1.00  0.00     0.111 A 
ATOM     83  C   UNL     1       4.399  -8.160  -9.767  1.00  0.00     0.020 A 
ENDBRANCH  77  78
ENDBRANCH  76  77
ENDBRANCH  75  76
ENDBRANCH  74  75
ENDBRANCH  72  74
ENDBRANCH  66  68
ENDBRANCH  65  66
ENDBRANCH  64  65
ENDBRANCH   1  64
TORSDOF 19
