REMARK SMILES CC1=C2C(=O)CC(C)(C)CC2=N[C@@H]1C(=O)OCCOCCOC(=O)c1ccc(-c2c3nc(c(-c4c(F)cccc4F)c4ccc([nH]4)c(-c4c(F)cccc4F)c4nc(c(-c5c(F)cccc5F)c5ccc2[nH]5)C=C4)C=C3)cc1
REMARK SMILES IDX 20 1 19 2 18 3 17 4 16 5 14 6 15 7 13 8 1 9 2 10 3 11 4 12
REMARK SMILES IDX 11 13 12 14 5 15 6 16 10 17 7 18 8 19 9 20 21 21 22 22 23 23
REMARK SMILES IDX 24 24 25 25 26 26 78 27 27 28 77 29 28 30 29 31 30 32 71 33
REMARK SMILES IDX 31 34 76 35 70 36 72 37 32 38 75 39 69 40 68 41 33 43 59 44
REMARK SMILES IDX 42 45 58 46 43 47 46 48 57 49 73 50 44 51 45 52 56 54 74 55
REMARK SMILES IDX 47 56 34 57 35 58 40 59 36 60 37 61 39 62 41 63 38 64 60 65
REMARK SMILES IDX 61 66 66 67 62 68 63 69 65 70 67 71 64 72 48 73 49 74 54 75
REMARK SMILES IDX 50 76 51 77 53 78 55 79 52 80
REMARK H PARENT 72 42 46 53
REMARK Flexibility Score: inf
ROOT
ATOM      1  C   UNL     1       3.719   2.263   1.777  1.00  0.00     0.202 C 
ENDROOT
BRANCH   1   2
ATOM      2  O   UNL     1       4.966   2.195   1.100  1.00  0.00    -0.374 OA
BRANCH   2   3
ATOM      3  C   UNL     1       5.284   3.104   0.050  1.00  0.00     0.202 C 
BRANCH   3   4
ATOM      4  C   UNL     1       4.499   3.013  -1.256  1.00  0.00     0.261 C 
BRANCH   4   5
ATOM      5  O   UNL     1       3.104   3.259  -1.059  1.00  0.00    -0.461 OA
BRANCH   5   6
ATOM      6  C   UNL     1       2.336   2.133  -1.044  1.00  0.00     0.335 C 
ATOM      7  O   UNL     1       2.763   0.990  -1.167  1.00  0.00    -0.249 OA
BRANCH   6   8
ATOM      8  C   UNL     1       0.841   2.499  -0.929  1.00  0.00     0.242 C 
ATOM      9  C   UNL     1       0.190   0.609   0.808  1.00  0.00     0.043 C 
ATOM     10  C   UNL     1      -0.027   1.338  -0.475  1.00  0.00    -0.025 C 
ATOM     11  C   UNL     1      -0.803   0.929  -1.483  1.00  0.00     0.040 C 
ATOM     12  C   UNL     1      -1.673  -0.232  -1.714  1.00  0.00     0.165 C 
ATOM     13  C   UNL     1      -0.082   1.550  -2.579  1.00  0.00     0.048 C 
ATOM     14  N   UNL     1       0.480   2.703  -2.365  1.00  0.00    -0.269 NA
ATOM     15  O   UNL     1      -2.681  -0.412  -1.039  1.00  0.00    -0.294 OA
ATOM     16  C   UNL     1      -1.297  -1.120  -2.896  1.00  0.00     0.088 C 
ATOM     17  C   UNL     1       0.252   0.702  -3.764  1.00  0.00     0.063 C 
ATOM     18  C   UNL     1       0.131  -0.820  -3.425  1.00  0.00    -0.023 C 
ATOM     19  C   UNL     1       1.153  -1.352  -2.381  1.00  0.00     0.012 C 
ATOM     20  C   UNL     1       0.431  -1.586  -4.723  1.00  0.00     0.012 C 
ENDBRANCH   6   8
ENDBRANCH   5   6
ENDBRANCH   4   5
ENDBRANCH   3   4
ENDBRANCH   2   3
ENDBRANCH   1   2
BRANCH   1  21
ATOM     21  C   UNL     1       3.367   3.498   2.589  1.00  0.00     0.261 C 
BRANCH  21  22
ATOM     22  O   UNL     1       3.338   4.699   1.828  1.00  0.00    -0.460 OA
BRANCH  22  23
ATOM     23  C   UNL     1       4.398   5.499   2.091  1.00  0.00     0.338 C 
ATOM     24  O   UNL     1       5.488   5.154   2.512  1.00  0.00    -0.246 OA
BRANCH  23  25
ATOM     25  C   UNL     1       3.984   6.903   2.009  1.00  0.00     0.060 A 
ATOM     26  C   UNL     1       4.959   7.842   2.347  1.00  0.00     0.016 A 
ATOM     27  C   UNL     1       2.633   7.257   1.869  1.00  0.00     0.016 A 
ATOM     28  C   UNL     1       4.554   9.104   2.712  1.00  0.00     0.010 A 
ATOM     29  C   UNL     1       2.230   8.526   2.232  1.00  0.00     0.010 A 
ATOM     30  C   UNL     1       3.187   9.414   2.712  1.00  0.00    -0.014 A 
BRANCH  30  31
ATOM     31  C   UNL     1       2.829  10.768   3.081  1.00  0.00     0.031 A 
ATOM     32  C   UNL     1       3.361  11.767   2.129  1.00  0.00     0.074 A 
ATOM     33  C   UNL     1       2.067  11.098   4.140  1.00  0.00     0.049 A 
ATOM     34  N   UNL     1       4.301  12.620   2.354  1.00  0.00    -0.248 NA
ATOM     35  C   UNL     1       2.936  11.687   0.723  1.00  0.00     0.031 C 
ATOM     36  C   UNL     1       1.293  10.219   5.014  1.00  0.00     0.029 A 
ATOM     37  N   UNL     1       1.764  12.340   4.607  1.00  0.00    -0.354 N 
ATOM     38  C   UNL     1       4.437  13.341   1.177  1.00  0.00     0.074 A 
ATOM     39  C   UNL     1       3.712  12.617   0.165  1.00  0.00     0.031 C 
ATOM     40  C   UNL     1       0.433  10.968   5.744  1.00  0.00     0.029 A 
ATOM     41  C   UNL     1       0.685  12.377   5.480  1.00  0.00     0.049 A 
ATOM     42  H   UNL     1       2.267  13.145   4.348  1.00  0.00     0.167 HD
ATOM     43  C   UNL     1       4.893  14.620   1.210  1.00  0.00     0.037 A 
ATOM     44  C   UNL     1       0.017  13.486   5.890  1.00  0.00     0.037 A 
ATOM     45  C   UNL     1       5.635  14.883   2.420  1.00  0.00     0.049 A 
ATOM     46  C   UNL     1       0.910  14.655   5.678  1.00  0.00     0.074 A 
ATOM     47  C   UNL     1       6.721  14.288   3.037  1.00  0.00     0.029 A 
ATOM     48  N   UNL     1       5.046  15.660   3.388  1.00  0.00    -0.354 N 
ATOM     49  N   UNL     1       1.977  14.889   6.389  1.00  0.00    -0.248 NA
ATOM     50  C   UNL     1       0.872  15.311   4.378  1.00  0.00     0.031 C 
ATOM     51  C   UNL     1       6.424  14.331   4.432  1.00  0.00     0.029 A 
ATOM     52  C   UNL     1       5.218  15.014   4.585  1.00  0.00     0.049 A 
ATOM     53  H   UNL     1       4.586  16.519   3.249  1.00  0.00     0.167 HD
ATOM     54  C   UNL     1       2.923  15.304   5.465  1.00  0.00     0.074 A 
ATOM     55  C   UNL     1       2.162  15.637   4.262  1.00  0.00     0.031 C 
ATOM     56  C   UNL     1       4.253  15.059   5.657  1.00  0.00     0.037 A 
BRANCH  43  57
ATOM     57  C   UNL     1       4.280  15.717   0.378  1.00  0.00     0.057 A 
ATOM     58  C   UNL     1       4.876  16.989   0.386  1.00  0.00     0.134 A 
ATOM     59  C   UNL     1       2.975  15.668  -0.158  1.00  0.00     0.134 A 
ATOM     60  F   UNL     1       6.108  17.167   0.887  1.00  0.00    -0.206 F 
ATOM     61  C   UNL     1       4.189  18.137  -0.022  1.00  0.00     0.040 A 
ATOM     62  C   UNL     1       2.302  16.800  -0.618  1.00  0.00     0.040 A 
ATOM     63  F   UNL     1       2.237  14.552  -0.167  1.00  0.00    -0.206 F 
ATOM     64  C   UNL     1       2.894  18.046  -0.517  1.00  0.00     0.006 A 
ENDBRANCH  43  57
BRANCH  44  65
ATOM     65  C   UNL     1      -1.428  13.650   6.181  1.00  0.00     0.057 A 
ATOM     66  C   UNL     1      -1.917  14.818   6.789  1.00  0.00     0.134 A 
ATOM     67  C   UNL     1      -2.398  12.803   5.618  1.00  0.00     0.134 A 
ATOM     68  F   UNL     1      -1.074  15.715   7.322  1.00  0.00    -0.206 F 
ATOM     69  C   UNL     1      -3.281  15.139   6.805  1.00  0.00     0.040 A 
ATOM     70  C   UNL     1      -3.764  13.107   5.636  1.00  0.00     0.040 A 
ATOM     71  F   UNL     1      -2.051  11.695   4.949  1.00  0.00    -0.206 F 
ATOM     72  C   UNL     1      -4.209  14.287   6.215  1.00  0.00     0.006 A 
ENDBRANCH  44  65
BRANCH  56  73
ATOM     73  C   UNL     1       4.702  14.586   7.012  1.00  0.00     0.057 A 
ATOM     74  C   UNL     1       4.241  13.420   7.644  1.00  0.00     0.134 A 
ATOM     75  C   UNL     1       5.732  15.283   7.654  1.00  0.00     0.134 A 
ATOM     76  F   UNL     1       3.338  12.620   7.061  1.00  0.00    -0.206 F 
ATOM     77  C   UNL     1       4.738  13.008   8.885  1.00  0.00     0.040 A 
ATOM     78  C   UNL     1       6.265  14.860   8.873  1.00  0.00     0.040 A 
ATOM     79  F   UNL     1       6.267  16.376   7.085  1.00  0.00    -0.206 F 
ATOM     80  C   UNL     1       5.756  13.728   9.502  1.00  0.00     0.006 A 
ENDBRANCH  56  73
ENDBRANCH  30  31
ENDBRANCH  23  25
ENDBRANCH  22  23
ENDBRANCH  21  22
ENDBRANCH   1  21
TORSDOF 14
