REMARK SMILES CCN(C(=O)[C@H]1C=C[C@@H]([NH3+])C1)[C@H](C)CC(=O)OCCOCCOC(=O)c1ccc(-c2c3nc(c(-c4c(F)cccc4F)c4ccc([nH]4)c(-c4c(F)cccc4F)c4nc(c(-c5c(F)cccc5F)c5ccc2[nH]5)C=C4)C=C3)cc1
REMARK SMILES IDX 18 1 17 2 15 3 16 4 14 5 12 6 13 7 3 8 2 9 1 10 4 11 5 12
REMARK SMILES IDX 6 13 7 14 11 15 8 16 9 17 10 18 19 22 20 23 21 24 22 25
REMARK SMILES IDX 23 26 24 27 25 28 26 29 27 30 79 31 28 32 78 33 29 34 30 35
REMARK SMILES IDX 31 36 72 37 32 38 77 39 71 40 73 41 33 42 76 43 70 44 69 45
REMARK SMILES IDX 34 47 60 48 43 49 59 50 44 51 47 52 58 53 74 54 45 55 46 56
REMARK SMILES IDX 57 58 75 59 48 60 35 61 36 62 41 63 37 64 38 65 40 66 42 67
REMARK SMILES IDX 39 68 61 69 62 70 67 71 63 72 64 73 66 74 68 75 65 76 49 77
REMARK SMILES IDX 50 78 55 79 51 80 52 81 54 82 56 83 53 84
REMARK H PARENT 10 19 10 20 10 21 73 46 47 57
REMARK Flexibility Score: inf
ROOT
ATOM      1  C   UNL     1       1.215   0.051   3.873  1.00  0.00     0.261 C 
ENDROOT
BRANCH   1   2
ATOM      2  O   UNL     1       1.467  -0.437   2.542  1.00  0.00    -0.463 OA
BRANCH   2   3
ATOM      3  C   UNL     1       2.603  -0.023   1.936  1.00  0.00     0.307 C 
ATOM      4  O   UNL     1       3.349   0.835   2.395  1.00  0.00    -0.252 OA
BRANCH   3   5
ATOM      5  C   UNL     1       2.845  -0.659   0.578  1.00  0.00     0.147 C 
BRANCH   5   6
ATOM      6  C   UNL     1       2.286  -2.078   0.264  1.00  0.00     0.093 C 
ATOM      7  C   UNL     1       0.743  -2.054   0.297  1.00  0.00     0.031 C 
BRANCH   6   8
ATOM      8  N   UNL     1       2.816  -2.597  -1.056  1.00  0.00    -0.339 N 
BRANCH   8   9
ATOM      9  C   UNL     1       2.047  -3.633  -1.760  1.00  0.00     0.116 C 
ATOM     10  C   UNL     1       2.170  -4.988  -1.068  1.00  0.00     0.027 C 
ENDBRANCH   8   9
BRANCH   8  11
ATOM     11  C   UNL     1       4.206  -2.581  -1.266  1.00  0.00     0.229 C 
ATOM     12  O   UNL     1       4.991  -2.539  -0.313  1.00  0.00    -0.274 OA
BRANCH  11  13
ATOM     13  C   UNL     1       4.776  -2.600  -2.705  1.00  0.00     0.107 C 
ATOM     14  C   UNL     1       4.755  -3.923  -3.411  1.00  0.00    -0.012 C 
ATOM     15  C   UNL     1       4.075  -1.655  -3.692  1.00  0.00     0.087 C 
ATOM     16  C   UNL     1       4.375  -3.793  -4.689  1.00  0.00     0.033 C 
ATOM     17  C   UNL     1       4.120  -2.367  -5.053  1.00  0.00     0.205 C 
BRANCH  17  18
ATOM     18  N   UNL     1       2.883  -2.189  -5.789  1.00  0.00    -0.352 N 
ATOM     19  H   UNL     1       2.103  -2.537  -5.231  1.00  0.00     0.345 HD
ATOM     20  H   UNL     1       2.932  -2.707  -6.666  1.00  0.00     0.345 HD
ATOM     21  H   UNL     1       2.745  -1.198  -5.986  1.00  0.00     0.345 HD
ENDBRANCH  17  18
ENDBRANCH  11  13
ENDBRANCH   8  11
ENDBRANCH   6   8
ENDBRANCH   5   6
ENDBRANCH   3   5
ENDBRANCH   2   3
ENDBRANCH   1   2
BRANCH   1  22
ATOM     22  C   UNL     1       0.948  -1.117   4.826  1.00  0.00     0.202 C 
BRANCH  22  23
ATOM     23  O   UNL     1       2.075  -1.944   5.117  1.00  0.00    -0.374 OA
BRANCH  23  24
ATOM     24  C   UNL     1       2.475  -2.875   4.111  1.00  0.00     0.202 C 
BRANCH  24  25
ATOM     25  C   UNL     1       1.657  -4.170   4.041  1.00  0.00     0.261 C 
BRANCH  25  26
ATOM     26  O   UNL     1       0.302  -3.931   3.615  1.00  0.00    -0.460 OA
BRANCH  26  27
ATOM     27  C   UNL     1      -0.638  -4.143   4.566  1.00  0.00     0.338 C 
ATOM     28  O   UNL     1      -0.468  -4.599   5.690  1.00  0.00    -0.246 OA
BRANCH  27  29
ATOM     29  C   UNL     1      -1.933  -3.581   4.141  1.00  0.00     0.060 A 
ATOM     30  C   UNL     1      -2.574  -2.702   5.023  1.00  0.00     0.016 A 
ATOM     31  C   UNL     1      -2.549  -3.961   2.946  1.00  0.00     0.016 A 
ATOM     32  C   UNL     1      -3.857  -2.239   4.740  1.00  0.00     0.010 A 
ATOM     33  C   UNL     1      -3.842  -3.501   2.667  1.00  0.00     0.010 A 
ATOM     34  C   UNL     1      -4.515  -2.668   3.580  1.00  0.00    -0.014 A 
BRANCH  34  35
ATOM     35  C   UNL     1      -5.957  -2.364   3.410  1.00  0.00     0.031 A 
ATOM     36  C   UNL     1      -6.973  -3.417   3.756  1.00  0.00     0.074 A 
ATOM     37  C   UNL     1      -6.362  -1.153   2.988  1.00  0.00     0.049 A 
ATOM     38  N   UNL     1      -8.278  -3.370   3.678  1.00  0.00    -0.248 NA
ATOM     39  C   UNL     1      -6.444  -4.696   4.253  1.00  0.00     0.031 C 
ATOM     40  C   UNL     1      -5.481  -0.039   2.647  1.00  0.00     0.029 A 
ATOM     41  N   UNL     1      -7.626  -0.665   2.768  1.00  0.00    -0.354 N 
ATOM     42  C   UNL     1      -8.726  -4.611   4.112  1.00  0.00     0.074 A 
ATOM     43  C   UNL     1      -7.553  -5.401   4.419  1.00  0.00     0.031 C 
ATOM     44  C   UNL     1      -6.231   1.000   2.243  1.00  0.00     0.029 A 
ATOM     45  C   UNL     1      -7.641   0.616   2.275  1.00  0.00     0.049 A 
ATOM     46  H   UNL     1      -8.443  -1.185   2.947  1.00  0.00     0.167 HD
ATOM     47  C   UNL     1     -10.000  -5.050   4.255  1.00  0.00     0.037 A 
ATOM     48  C   UNL     1      -8.674   1.383   1.877  1.00  0.00     0.037 A 
ATOM     49  C   UNL     1     -11.168  -4.266   3.951  1.00  0.00     0.049 A 
ATOM     50  C   UNL     1     -10.080   0.857   1.991  1.00  0.00     0.074 A 
ATOM     51  C   UNL     1     -12.501  -4.613   4.091  1.00  0.00     0.029 A 
ATOM     52  N   UNL     1     -11.142  -2.980   3.434  1.00  0.00    -0.354 N 
ATOM     53  N   UNL     1     -10.494  -0.304   2.440  1.00  0.00    -0.248 NA
ATOM     54  C   UNL     1     -11.162   1.750   1.551  1.00  0.00     0.031 C 
ATOM     55  C   UNL     1     -13.281  -3.554   3.613  1.00  0.00     0.029 A 
ATOM     56  C   UNL     1     -12.435  -2.529   3.221  1.00  0.00     0.049 A 
ATOM     57  H   UNL     1     -10.326  -2.463   3.246  1.00  0.00     0.167 HD
ATOM     58  C   UNL     1     -11.881  -0.273   2.355  1.00  0.00     0.074 A 
ATOM     59  C   UNL     1     -12.239   1.026   1.825  1.00  0.00     0.031 C 
ATOM     60  C   UNL     1     -12.777  -1.234   2.688  1.00  0.00     0.037 A 
BRANCH  47  61
ATOM     61  C   UNL     1     -10.188  -6.459   4.736  1.00  0.00     0.057 A 
ATOM     62  C   UNL     1      -9.914  -6.834   6.058  1.00  0.00     0.134 A 
ATOM     63  C   UNL     1     -10.659  -7.452   3.867  1.00  0.00     0.134 A 
ATOM     64  F   UNL     1      -9.446  -5.935   6.937  1.00  0.00    -0.206 F 
ATOM     65  C   UNL     1     -10.071  -8.153   6.490  1.00  0.00     0.040 A 
ATOM     66  C   UNL     1     -10.845  -8.767   4.294  1.00  0.00     0.040 A 
ATOM     67  F   UNL     1     -10.945  -7.159   2.590  1.00  0.00    -0.206 F 
ATOM     68  C   UNL     1     -10.542  -9.123   5.607  1.00  0.00     0.006 A 
ENDBRANCH  47  61
BRANCH  48  69
ATOM     69  C   UNL     1      -8.412   2.730   1.313  1.00  0.00     0.057 A 
ATOM     70  C   UNL     1      -8.746   3.893   2.014  1.00  0.00     0.134 A 
ATOM     71  C   UNL     1      -7.816   2.883   0.054  1.00  0.00     0.134 A 
ATOM     72  F   UNL     1      -9.340   3.811   3.214  1.00  0.00    -0.206 F 
ATOM     73  C   UNL     1      -8.506   5.161   1.482  1.00  0.00     0.040 A 
ATOM     74  C   UNL     1      -7.550   4.143  -0.480  1.00  0.00     0.040 A 
ATOM     75  F   UNL     1      -7.472   1.805  -0.666  1.00  0.00    -0.206 F 
ATOM     76  C   UNL     1      -7.899   5.288   0.233  1.00  0.00     0.006 A 
ENDBRANCH  48  69
BRANCH  60  77
ATOM     77  C   UNL     1     -14.233  -0.912   2.510  1.00  0.00     0.057 A 
ATOM     78  C   UNL     1     -14.825  -0.847   1.243  1.00  0.00     0.134 A 
ATOM     79  C   UNL     1     -15.060  -0.707   3.622  1.00  0.00     0.134 A 
ATOM     80  F   UNL     1     -14.087  -1.022   0.137  1.00  0.00    -0.206 F 
ATOM     81  C   UNL     1     -16.185  -0.569   1.087  1.00  0.00     0.040 A 
ATOM     82  C   UNL     1     -16.425  -0.453   3.480  1.00  0.00     0.040 A 
ATOM     83  F   UNL     1     -14.558  -0.764   4.865  1.00  0.00    -0.206 F 
ATOM     84  C   UNL     1     -16.990  -0.378   2.208  1.00  0.00     0.006 A 
ENDBRANCH  60  77
ENDBRANCH  34  35
ENDBRANCH  27  29
ENDBRANCH  26  27
ENDBRANCH  25  26
ENDBRANCH  24  25
ENDBRANCH  23  24
ENDBRANCH  22  23
ENDBRANCH   1  22
TORSDOF 20
