REMARK SMILES CCOc1cc2c(cc1OCC)[C@@H](C(=O)OCCOCCOC(=O)c1ccc(-c3c4nc(c(-c5c(F)cccc5F)c5ccc([nH]5)c(-c5c(F)cccc5F)c5nc(c(-c6c(F)cccc6F)c6ccc3[nH]6)C=C5)C=C4)cc1)[C@H](c1ccc(F)cc1Cl)N(C)C2=O
REMARK SMILES IDX 19 1 18 2 17 3 16 4 14 5 15 6 13 7 4 8 5 9 9 10 6 11 8 12
REMARK SMILES IDX 7 13 90 14 88 15 91 16 79 17 89 18 3 19 2 20 1 21 10 22
REMARK SMILES IDX 11 23 12 24 80 25 81 26 86 27 82 28 85 29 87 30 83 31 84 32
REMARK SMILES IDX 20 33 21 34 22 35 23 36 24 37 25 38 26 39 78 40 27 41 77 42
REMARK SMILES IDX 28 43 29 44 30 45 71 46 31 47 76 48 70 49 72 50 32 51 75 52
REMARK SMILES IDX 69 53 68 54 33 56 59 57 42 58 58 59 43 60 46 61 57 62 73 63
REMARK SMILES IDX 44 64 45 65 56 67 74 68 47 69 34 70 35 71 40 72 36 73 37 74
REMARK SMILES IDX 39 75 41 76 38 77 60 78 61 79 66 80 62 81 63 82 65 83 67 84
REMARK SMILES IDX 64 85 48 86 49 87 54 88 50 89 51 90 53 91 55 92 52 93
REMARK H PARENT 72 55 46 66
REMARK Flexibility Score: inf
ROOT
ATOM      1  O   UNL     1       9.981  -3.151   1.450  1.00  0.00    -0.374 OA
ENDROOT
BRANCH   1   2
ATOM      2  C   UNL     1       9.159  -3.153   0.286  1.00  0.00     0.202 C 
BRANCH   2   3
ATOM      3  C   UNL     1       7.654  -3.309   0.514  1.00  0.00     0.261 C 
BRANCH   3   4
ATOM      4  O   UNL     1       7.085  -2.176   1.190  1.00  0.00    -0.463 OA
BRANCH   4   5
ATOM      5  C   UNL     1       6.825  -2.347   2.511  1.00  0.00     0.316 C 
ATOM      6  O   UNL     1       7.098  -3.358   3.151  1.00  0.00    -0.251 OA
BRANCH   5   7
ATOM      7  C   UNL     1       6.091  -1.177   3.138  1.00  0.00     0.157 C 
ATOM      8  C   UNL     1       1.974  -1.066   1.936  1.00  0.00     0.161 A 
ATOM      9  C   UNL     1       2.937  -0.293   1.268  1.00  0.00     0.064 A 
ATOM     10  C   UNL     1       2.359  -1.905   2.992  1.00  0.00     0.161 A 
ATOM     11  C   UNL     1       4.277  -0.370   1.623  1.00  0.00     0.048 A 
ATOM     12  C   UNL     1       3.706  -1.947   3.359  1.00  0.00     0.056 A 
ATOM     13  C   UNL     1       4.657  -1.170   2.697  1.00  0.00    -0.015 A 
ATOM     14  C   UNL     1       5.294   0.420   0.874  1.00  0.00     0.254 C 
ATOM     15  N   UNL     1       6.489   0.683   1.544  1.00  0.00    -0.333 N 
ATOM     16  O   UNL     1       5.053   0.799  -0.267  1.00  0.00    -0.269 OA
ATOM     17  C   UNL     1       6.707   0.240   2.923  1.00  0.00     0.135 C 
ATOM     18  C   UNL     1       7.503   1.470   0.864  1.00  0.00     0.147 C 
BRANCH   8  19
ATOM     19  O   UNL     1       0.657  -0.890   1.608  1.00  0.00    -0.490 OA
BRANCH  19  20
ATOM     20  C   UNL     1       0.347  -1.222   0.248  1.00  0.00     0.226 C 
ATOM     21  C   UNL     1       0.314   0.011  -0.642  1.00  0.00     0.049 C 
ENDBRANCH  19  20
ENDBRANCH   8  19
BRANCH  10  22
ATOM     22  O   UNL     1       1.615  -2.736   3.778  1.00  0.00    -0.490 OA
BRANCH  22  23
ATOM     23  C   UNL     1       0.209  -2.832   3.618  1.00  0.00     0.226 C 
ATOM     24  C   UNL     1      -0.492  -1.746   4.411  1.00  0.00     0.049 C 
ENDBRANCH  22  23
ENDBRANCH  10  22
BRANCH  17  25
ATOM     25  C   UNL     1       6.207   1.199   4.037  1.00  0.00    -0.005 A 
ATOM     26  C   UNL     1       6.579   0.831   5.359  1.00  0.00     0.010 A 
ATOM     27  C   UNL     1       5.355   2.321   3.914  1.00  0.00     0.049 A 
ATOM     28  C   UNL     1       6.045   1.461   6.485  1.00  0.00     0.040 A 
ATOM     29  C   UNL     1       4.828   2.953   5.052  1.00  0.00     0.060 A 
ATOM     30  Cl  UNL     1       4.873   3.069   2.437  1.00  0.00    -0.084 Cl
ATOM     31  C   UNL     1       5.155   2.505   6.319  1.00  0.00     0.124 A 
ATOM     32  F   UNL     1       4.613   3.094   7.391  1.00  0.00    -0.207 F 
ENDBRANCH  17  25
ENDBRANCH   5   7
ENDBRANCH   4   5
ENDBRANCH   3   4
ENDBRANCH   2   3
ENDBRANCH   1   2
BRANCH   1  33
ATOM     33  C   UNL     1      10.064  -1.939   2.197  1.00  0.00     0.202 C 
BRANCH  33  34
ATOM     34  C   UNL     1      10.962  -0.840   1.621  1.00  0.00     0.261 C 
BRANCH  34  35
ATOM     35  O   UNL     1      10.409  -0.274   0.418  1.00  0.00    -0.460 OA
BRANCH  35  36
ATOM     36  C   UNL     1      11.106  -0.541  -0.711  1.00  0.00     0.338 C 
ATOM     37  O   UNL     1      12.180  -1.127  -0.796  1.00  0.00    -0.246 OA
BRANCH  36  38
ATOM     38  C   UNL     1      10.306  -0.190  -1.897  1.00  0.00     0.060 A 
ATOM     39  C   UNL     1      10.101  -1.187  -2.860  1.00  0.00     0.016 A 
ATOM     40  C   UNL     1       9.823   1.104  -2.101  1.00  0.00     0.016 A 
ATOM     41  C   UNL     1       9.448  -0.883  -4.052  1.00  0.00     0.010 A 
ATOM     42  C   UNL     1       9.167   1.407  -3.299  1.00  0.00     0.010 A 
ATOM     43  C   UNL     1       9.009   0.425  -4.294  1.00  0.00    -0.014 A 
BRANCH  43  44
ATOM     44  C   UNL     1       8.524   0.801  -5.644  1.00  0.00     0.031 A 
ATOM     45  C   UNL     1       9.453   1.532  -6.574  1.00  0.00     0.074 A 
ATOM     46  C   UNL     1       7.283   0.479  -6.048  1.00  0.00     0.049 A 
ATOM     47  N   UNL     1       9.224   2.016  -7.768  1.00  0.00    -0.248 NA
ATOM     48  C   UNL     1      10.826   1.750  -6.089  1.00  0.00     0.031 C 
ATOM     49  C   UNL     1       6.303  -0.263  -5.258  1.00  0.00     0.029 A 
ATOM     50  N   UNL     1       6.633   0.749  -7.227  1.00  0.00    -0.354 N 
ATOM     51  C   UNL     1      10.415   2.605  -8.171  1.00  0.00     0.074 A 
ATOM     52  C   UNL     1      11.359   2.441  -7.087  1.00  0.00     0.031 C 
ATOM     53  C   UNL     1       5.169  -0.379  -5.970  1.00  0.00     0.029 A 
ATOM     54  C   UNL     1       5.330   0.314  -7.247  1.00  0.00     0.049 A 
ATOM     55  H   UNL     1       7.059   1.210  -7.985  1.00  0.00     0.167 HD
ATOM     56  C   UNL     1      10.700   3.220  -9.343  1.00  0.00     0.037 A 
ATOM     57  C   UNL     1       4.370   0.487  -8.176  1.00  0.00     0.037 A 
ATOM     58  C   UNL     1       9.763   3.376 -10.424  1.00  0.00     0.049 A 
ATOM     59  C   UNL     1       4.685   1.250  -9.435  1.00  0.00     0.074 A 
ATOM     60  C   UNL     1       9.967   3.957 -11.664  1.00  0.00     0.029 A 
ATOM     61  N   UNL     1       8.442   2.958 -10.389  1.00  0.00    -0.354 N 
ATOM     62  N   UNL     1       5.821   1.779  -9.820  1.00  0.00    -0.248 NA
ATOM     63  C   UNL     1       3.581   1.447 -10.387  1.00  0.00     0.031 C 
ATOM     64  C   UNL     1       8.754   3.937 -12.359  1.00  0.00     0.029 A 
ATOM     65  C   UNL     1       7.808   3.298 -11.573  1.00  0.00     0.049 A 
ATOM     66  H   UNL     1       8.017   2.488  -9.635  1.00  0.00     0.167 HD
ATOM     67  C   UNL     1       5.575   2.351 -11.063  1.00  0.00     0.074 A 
ATOM     68  C   UNL     1       4.186   2.092 -11.375  1.00  0.00     0.031 C 
ATOM     69  C   UNL     1       6.425   3.030 -11.872  1.00  0.00     0.037 A 
BRANCH  56  70
ATOM     70  C   UNL     1      12.075   3.797  -9.507  1.00  0.00     0.057 A 
ATOM     71  C   UNL     1      13.202   2.986  -9.689  1.00  0.00     0.134 A 
ATOM     72  C   UNL     1      12.267   5.184  -9.520  1.00  0.00     0.134 A 
ATOM     73  F   UNL     1      13.088   1.649  -9.672  1.00  0.00    -0.206 F 
ATOM     74  C   UNL     1      14.475   3.534  -9.857  1.00  0.00     0.040 A 
ATOM     75  C   UNL     1      13.531   5.744  -9.713  1.00  0.00     0.040 A 
ATOM     76  F   UNL     1      11.229   6.018  -9.356  1.00  0.00    -0.206 F 
ATOM     77  C   UNL     1      14.640   4.918  -9.877  1.00  0.00     0.006 A 
ENDBRANCH  56  70
BRANCH  57  78
ATOM     78  C   UNL     1       3.004  -0.044  -7.939  1.00  0.00     0.057 A 
ATOM     79  C   UNL     1       2.494  -1.102  -8.700  1.00  0.00     0.134 A 
ATOM     80  C   UNL     1       2.167   0.508  -6.961  1.00  0.00     0.134 A 
ATOM     81  F   UNL     1       3.236  -1.654  -9.670  1.00  0.00    -0.206 F 
ATOM     82  C   UNL     1       1.197  -1.583  -8.507  1.00  0.00     0.040 A 
ATOM     83  C   UNL     1       0.879   0.021  -6.739  1.00  0.00     0.040 A 
ATOM     84  F   UNL     1       2.594   1.528  -6.202  1.00  0.00    -0.206 F 
ATOM     85  C   UNL     1       0.388  -1.024  -7.519  1.00  0.00     0.006 A 
ENDBRANCH  57  78
BRANCH  69  86
ATOM     86  C   UNL     1       5.888   3.521 -13.185  1.00  0.00     0.057 A 
ATOM     87  C   UNL     1       5.018   4.615 -13.262  1.00  0.00     0.134 A 
ATOM     88  C   UNL     1       6.296   2.932 -14.388  1.00  0.00     0.134 A 
ATOM     89  F   UNL     1       4.580   5.216 -12.146  1.00  0.00    -0.206 F 
ATOM     90  C   UNL     1       4.562   5.098 -14.490  1.00  0.00     0.040 A 
ATOM     91  C   UNL     1       5.867   3.421 -15.623  1.00  0.00     0.040 A 
ATOM     92  F   UNL     1       7.137   1.886 -14.384  1.00  0.00    -0.206 F 
ATOM     93  C   UNL     1       4.994   4.505 -15.676  1.00  0.00     0.006 A 
ENDBRANCH  69  86
ENDBRANCH  43  44
ENDBRANCH  36  38
ENDBRANCH  35  36
ENDBRANCH  34  35
ENDBRANCH  33  34
ENDBRANCH   1  33
TORSDOF 19
