REMARK SMILES C[C@@H]1C[C@@]([NH2+]Cc2cccs2)(C(=O)OCCOCCOC(=O)c2ccc(-c3c4nc(c(-c5c(F)cccc5F)c5ccc([nH]5)c(-c5c(F)cccc5F)c5nc(c(-c6c(F)cccc6F)c6ccc3[nH]6)C=C5)C=C4)cc2)CS1
REMARK SMILES IDX 16 1 15 2 14 3 12 4 13 5 4 6 1 7 2 8 3 9 78 10 77 11 5 12
REMARK SMILES IDX 6 15 7 16 8 17 11 18 9 19 10 20 17 21 18 22 19 23 20 24
REMARK SMILES IDX 21 25 22 26 23 27 24 28 76 29 25 30 75 31 26 32 27 33 28 34
REMARK SMILES IDX 69 35 29 36 74 37 68 38 70 39 30 40 73 41 67 42 66 43 31 45
REMARK SMILES IDX 57 46 40 47 56 48 41 49 44 50 55 51 71 52 42 53 43 54 54 56
REMARK SMILES IDX 72 57 45 58 32 59 33 60 38 61 34 62 35 63 37 64 39 65 36 66
REMARK SMILES IDX 58 67 59 68 64 69 60 70 61 71 63 72 65 73 62 74 46 75 47 76
REMARK SMILES IDX 52 77 48 78 49 79 51 80 53 81 50 82
REMARK H PARENT 5 13 5 14 70 44 44 55
REMARK Flexibility Score: inf
ROOT
ATOM      1  C   UNL     1       0.041   3.606  -6.074  1.00  0.00     0.202 C 
ENDROOT
BRANCH   1   2
ATOM      2  C   UNL     1      -1.298   3.701  -5.333  1.00  0.00     0.261 C 
BRANCH   2   3
ATOM      3  O   UNL     1      -1.256   3.094  -4.032  1.00  0.00    -0.459 OA
BRANCH   3   4
ATOM      4  C   UNL     1      -1.817   1.855  -3.975  1.00  0.00     0.369 C 
ATOM      5  O   UNL     1      -2.396   1.327  -4.920  1.00  0.00    -0.245 OA
BRANCH   4   6
ATOM      6  C   UNL     1      -1.630   1.151  -2.611  1.00  0.00     0.204 C 
ATOM      7  C   UNL     1       0.982   0.641   0.160  1.00  0.00     0.019 C 
ATOM      8  C   UNL     1       0.465   0.494  -1.260  1.00  0.00     0.050 C 
ATOM      9  C   UNL     1      -0.406   1.666  -1.762  1.00  0.00     0.096 C 
ATOM     10  S   UNL     1      -0.568  -0.971  -1.441  1.00  0.00    -0.151 SA
ATOM     11  C   UNL     1      -1.282  -0.317  -2.956  1.00  0.00     0.150 C 
BRANCH   6  12
ATOM     12  N   UNL     1      -2.832   1.345  -1.737  1.00  0.00    -0.327 N 
ATOM     13  H   UNL     1      -2.798   2.300  -1.380  1.00  0.00     0.347 HD
ATOM     14  H   UNL     1      -2.760   0.608  -1.035  1.00  0.00     0.347 HD
BRANCH  12  15
ATOM     15  C   UNL     1      -4.160   1.151  -2.341  1.00  0.00     0.309 C 
BRANCH  15  16
ATOM     16  C   UNL     1      -4.469  -0.281  -2.656  1.00  0.00     0.059 A 
ATOM     17  C   UNL     1      -4.374  -1.388  -1.832  1.00  0.00     0.021 A 
ATOM     18  S   UNL     1      -4.991  -0.725  -4.231  1.00  0.00    -0.143 S 
ATOM     19  C   UNL     1      -4.552  -2.608  -2.546  1.00  0.00     0.012 A 
ATOM     20  C   UNL     1      -4.865  -2.390  -3.869  1.00  0.00     0.065 A 
ENDBRANCH  15  16
ENDBRANCH  12  15
ENDBRANCH   6  12
ENDBRANCH   4   6
ENDBRANCH   3   4
ENDBRANCH   2   3
ENDBRANCH   1   2
BRANCH   1  21
ATOM     21  O   UNL     1       0.584   2.308  -6.301  1.00  0.00    -0.374 OA
BRANCH  21  22
ATOM     22  C   UNL     1       1.247   1.658  -5.219  1.00  0.00     0.202 C 
BRANCH  22  23
ATOM     23  C   UNL     1       2.628   2.183  -4.812  1.00  0.00     0.261 C 
BRANCH  23  24
ATOM     24  O   UNL     1       2.548   3.507  -4.253  1.00  0.00    -0.460 OA
BRANCH  24  25
ATOM     25  C   UNL     1       3.178   4.459  -4.980  1.00  0.00     0.338 C 
ATOM     26  O   UNL     1       3.890   4.291  -5.962  1.00  0.00    -0.246 OA
BRANCH  25  27
ATOM     27  C   UNL     1       2.738   5.800  -4.557  1.00  0.00     0.060 A 
ATOM     28  C   UNL     1       2.253   6.654  -5.556  1.00  0.00     0.016 A 
ATOM     29  C   UNL     1       2.873   6.247  -3.241  1.00  0.00     0.016 A 
ATOM     30  C   UNL     1       1.971   7.983  -5.260  1.00  0.00     0.010 A 
ATOM     31  C   UNL     1       2.599   7.587  -2.947  1.00  0.00     0.010 A 
ATOM     32  C   UNL     1       2.194   8.469  -3.966  1.00  0.00    -0.014 A 
BRANCH  32  33
ATOM     33  C   UNL     1       2.190   9.935  -3.748  1.00  0.00     0.031 A 
ATOM     34  C   UNL     1       3.503  10.670  -3.763  1.00  0.00     0.074 A 
ATOM     35  C   UNL     1       1.036  10.611  -3.615  1.00  0.00     0.049 A 
ATOM     36  N   UNL     1       3.741  11.949  -3.626  1.00  0.00    -0.248 NA
ATOM     37  C   UNL     1       4.710   9.851  -3.963  1.00  0.00     0.031 C 
ATOM     38  C   UNL     1      -0.298  10.015  -3.631  1.00  0.00     0.029 A 
ATOM     39  N   UNL     1       0.807  11.952  -3.446  1.00  0.00    -0.354 N 
ATOM     40  C   UNL     1       5.120  12.088  -3.722  1.00  0.00     0.074 A 
ATOM     41  C   UNL     1       5.670  10.761  -3.894  1.00  0.00     0.031 C 
ATOM     42  C   UNL     1      -1.211  10.990  -3.474  1.00  0.00     0.029 A 
ATOM     43  C   UNL     1      -0.523  12.271  -3.324  1.00  0.00     0.049 A 
ATOM     44  H   UNL     1       1.527  12.623  -3.416  1.00  0.00     0.167 HD
ATOM     45  C   UNL     1       5.861  13.220  -3.683  1.00  0.00     0.037 A 
ATOM     46  C   UNL     1      -1.113  13.461  -3.103  1.00  0.00     0.037 A 
ATOM     47  C   UNL     1       5.313  14.539  -3.515  1.00  0.00     0.049 A 
ATOM     48  C   UNL     1      -0.262  14.699  -2.995  1.00  0.00     0.074 A 
ATOM     49  C   UNL     1       5.978  15.752  -3.477  1.00  0.00     0.029 A 
ATOM     50  N   UNL     1       3.964  14.816  -3.351  1.00  0.00    -0.354 N 
ATOM     51  N   UNL     1       1.039  14.822  -3.111  1.00  0.00    -0.248 NA
ATOM     52  C   UNL     1      -0.962  15.964  -2.729  1.00  0.00     0.031 C 
ATOM     53  C   UNL     1       5.036  16.759  -3.245  1.00  0.00     0.029 A 
ATOM     54  C   UNL     1       3.779  16.179  -3.186  1.00  0.00     0.049 A 
ATOM     55  H   UNL     1       3.245  14.144  -3.352  1.00  0.00     0.167 HD
ATOM     56  C   UNL     1       1.309  16.176  -2.960  1.00  0.00     0.074 A 
ATOM     57  C   UNL     1       0.036  16.836  -2.756  1.00  0.00     0.031 C 
ATOM     58  C   UNL     1       2.503  16.818  -2.989  1.00  0.00     0.037 A 
BRANCH  45  59
ATOM     59  C   UNL     1       7.349  13.074  -3.800  1.00  0.00     0.057 A 
ATOM     60  C   UNL     1       7.967  12.741  -5.013  1.00  0.00     0.134 A 
ATOM     61  C   UNL     1       8.177  13.294  -2.692  1.00  0.00     0.134 A 
ATOM     62  F   UNL     1       7.230  12.501  -6.108  1.00  0.00    -0.206 F 
ATOM     63  C   UNL     1       9.354  12.610  -5.113  1.00  0.00     0.040 A 
ATOM     64  C   UNL     1       9.565  13.190  -2.786  1.00  0.00     0.040 A 
ATOM     65  F   UNL     1       7.649  13.618  -1.502  1.00  0.00    -0.206 F 
ATOM     66  C   UNL     1      10.157  12.842  -3.998  1.00  0.00     0.006 A 
ENDBRANCH  45  59
BRANCH  46  67
ATOM     67  C   UNL     1      -2.588  13.544  -2.960  1.00  0.00     0.057 A 
ATOM     68  C   UNL     1      -3.379  14.169  -3.930  1.00  0.00     0.134 A 
ATOM     69  C   UNL     1      -3.239  13.015  -1.839  1.00  0.00     0.134 A 
ATOM     70  F   UNL     1      -2.812  14.715  -5.015  1.00  0.00    -0.206 F 
ATOM     71  C   UNL     1      -4.763  14.280  -3.783  1.00  0.00     0.040 A 
ATOM     72  C   UNL     1      -4.623  13.098  -1.690  1.00  0.00     0.040 A 
ATOM     73  F   UNL     1      -2.536  12.404  -0.874  1.00  0.00    -0.206 F 
ATOM     74  C   UNL     1      -5.389  13.739  -2.662  1.00  0.00     0.006 A 
ENDBRANCH  46  67
BRANCH  58  75
ATOM     75  C   UNL     1       2.487  18.309  -2.826  1.00  0.00     0.057 A 
ATOM     76  C   UNL     1       2.231  18.915  -1.590  1.00  0.00     0.134 A 
ATOM     77  C   UNL     1       2.774  19.148  -3.911  1.00  0.00     0.134 A 
ATOM     78  F   UNL     1       1.939  18.168  -0.514  1.00  0.00    -0.206 F 
ATOM     79  C   UNL     1       2.240  20.303  -1.443  1.00  0.00     0.040 A 
ATOM     80  C   UNL     1       2.810  20.535  -3.772  1.00  0.00     0.040 A 
ATOM     81  F   UNL     1       3.038  18.631  -5.121  1.00  0.00    -0.206 F 
ATOM     82  C   UNL     1       2.536  21.117  -2.535  1.00  0.00     0.006 A 
ENDBRANCH  58  75
ENDBRANCH  32  33
ENDBRANCH  25  27
ENDBRANCH  24  25
ENDBRANCH  23  24
ENDBRANCH  22  23
ENDBRANCH  21  22
ENDBRANCH   1  21
TORSDOF 17
