REMARK SMILES Cc1ccc(C)c(CC(=O)N(CC(=O)OCCOCCOC(=O)c2ccc(-c3c4nc(c(-c5c(F)cccc5F)c5ccc([nH]5)c(-c5c(F)cccc5F)c5nc(c(-c6c(F)cccc6F)c6ccc3[nH]6)C=C5)C=C4)cc2)CC(F)(F)F)c1
REMARK SMILES IDX 17 1 16 2 15 3 13 4 14 5 12 6 11 7 9 8 10 9 8 10 7 11 1 12
REMARK SMILES IDX 2 13 3 14 83 15 4 16 5 17 6 18 78 19 79 20 80 21 81 22 82 23
REMARK SMILES IDX 18 24 19 25 20 26 21 27 22 28 23 29 24 30 25 31 77 32 26 33
REMARK SMILES IDX 76 34 27 35 28 36 29 37 70 38 30 39 75 40 69 41 71 42 31 43
REMARK SMILES IDX 74 44 68 45 67 46 32 48 58 49 41 50 57 51 42 52 45 53 56 54
REMARK SMILES IDX 72 55 43 56 44 57 55 59 73 60 46 61 33 62 34 63 39 64 35 65
REMARK SMILES IDX 36 66 38 67 40 68 37 69 59 70 60 71 65 72 61 73 62 74 64 75
REMARK SMILES IDX 66 76 63 77 47 78 48 79 53 80 49 81 50 82 52 83 54 84 51 85
REMARK H PARENT 71 47 45 58
REMARK Flexibility Score: inf
ROOT
ATOM      1  C   UNL     1      -2.154  -0.547  -3.853  1.00  0.00     0.202 C 
ENDROOT
BRANCH   1   2
ATOM      2  C   UNL     1      -1.273  -0.166  -2.679  1.00  0.00     0.261 C 
BRANCH   2   3
ATOM      3  O   UNL     1      -1.593   1.154  -2.219  1.00  0.00    -0.462 OA
BRANCH   3   4
ATOM      4  C   UNL     1      -1.181   2.253  -2.919  1.00  0.00     0.325 C 
ATOM      5  O   UNL     1      -0.598   2.302  -3.966  1.00  0.00    -0.250 OA
BRANCH   4   6
ATOM      6  C   UNL     1      -1.421   3.491  -2.070  1.00  0.00     0.242 C 
BRANCH   6   7
ATOM      7  N   UNL     1      -2.733   3.386  -1.460  1.00  0.00    -0.322 N 
BRANCH   7   8
ATOM      8  C   UNL     1      -2.969   2.877  -0.193  1.00  0.00     0.227 C 
ATOM      9  O   UNL     1      -4.138   2.743   0.180  1.00  0.00    -0.275 OA
BRANCH   8  10
ATOM     10  C   UNL     1      -1.804   2.572   0.765  1.00  0.00     0.136 C 
BRANCH  10  11
ATOM     11  C   UNL     1      -1.082   1.228   0.664  1.00  0.00    -0.035 A 
ATOM     12  C   UNL     1       2.548   0.022   0.194  1.00  0.00     0.044 C 
ATOM     13  C   UNL     1       1.065   0.026   0.432  1.00  0.00    -0.051 A 
ATOM     14  C   UNL     1       0.405  -1.189   0.592  1.00  0.00     0.004 A 
ATOM     15  C   UNL     1       0.327   1.222   0.513  1.00  0.00     0.008 A 
ATOM     16  C   UNL     1      -0.975  -1.210   0.767  1.00  0.00     0.004 A 
ATOM     17  C   UNL     1      -1.733  -0.020   0.786  1.00  0.00    -0.047 A 
ATOM     18  C   UNL     1      -3.228  -0.175   0.811  1.00  0.00     0.044 C 
ENDBRANCH  10  11
ENDBRANCH   8  10
ENDBRANCH   7   8
BRANCH   7  19
ATOM     19  C   UNL     1      -3.870   3.578  -2.390  1.00  0.00     0.235 C 
BRANCH  19  20
ATOM     20  C   UNL     1      -4.790   2.375  -2.667  1.00  0.00     0.406 C 
ATOM     21  F   UNL     1      -5.993   2.508  -2.073  1.00  0.00    -0.169 F 
ATOM     22  F   UNL     1      -5.024   2.285  -4.005  1.00  0.00    -0.169 F 
ATOM     23  F   UNL     1      -4.262   1.193  -2.295  1.00  0.00    -0.169 F 
ENDBRANCH  19  20
ENDBRANCH   7  19
ENDBRANCH   6   7
ENDBRANCH   4   6
ENDBRANCH   3   4
ENDBRANCH   2   3
ENDBRANCH   1   2
BRANCH   1  24
ATOM     24  O   UNL     1      -1.714   0.248  -4.929  1.00  0.00    -0.374 OA
BRANCH  24  25
ATOM     25  C   UNL     1      -2.633   0.590  -5.940  1.00  0.00     0.202 C 
BRANCH  25  26
ATOM     26  C   UNL     1      -2.941  -0.597  -6.849  1.00  0.00     0.261 C 
BRANCH  26  27
ATOM     27  O   UNL     1      -1.747  -1.061  -7.519  1.00  0.00    -0.460 OA
BRANCH  27  28
ATOM     28  C   UNL     1      -0.977  -1.908  -6.778  1.00  0.00     0.338 C 
ATOM     29  O   UNL     1      -1.323  -3.019  -6.410  1.00  0.00    -0.246 OA
BRANCH  28  30
ATOM     30  C   UNL     1       0.240  -1.195  -6.287  1.00  0.00     0.060 A 
ATOM     31  C   UNL     1       0.909  -1.687  -5.155  1.00  0.00     0.016 A 
ATOM     32  C   UNL     1       0.499   0.101  -6.743  1.00  0.00     0.016 A 
ATOM     33  C   UNL     1       1.754  -0.841  -4.426  1.00  0.00     0.010 A 
ATOM     34  C   UNL     1       1.230   0.969  -5.946  1.00  0.00     0.010 A 
ATOM     35  C   UNL     1       1.863   0.511  -4.780  1.00  0.00    -0.014 A 
BRANCH  35  36
ATOM     36  C   UNL     1       2.962   1.346  -4.271  1.00  0.00     0.031 A 
ATOM     37  C   UNL     1       4.200   1.018  -4.993  1.00  0.00     0.074 A 
ATOM     38  C   UNL     1       2.965   2.410  -3.437  1.00  0.00     0.049 A 
ATOM     39  N   UNL     1       5.226   0.440  -4.464  1.00  0.00    -0.248 NA
ATOM     40  C   UNL     1       4.256   1.155  -6.457  1.00  0.00     0.031 C 
ATOM     41  C   UNL     1       1.863   2.929  -2.660  1.00  0.00     0.029 A 
ATOM     42  N   UNL     1       3.943   3.341  -3.184  1.00  0.00    -0.354 N 
ATOM     43  C   UNL     1       6.152   0.402  -5.483  1.00  0.00     0.074 A 
ATOM     44  C   UNL     1       5.436   0.596  -6.717  1.00  0.00     0.031 C 
ATOM     45  C   UNL     1       2.083   4.213  -2.304  1.00  0.00     0.029 A 
ATOM     46  C   UNL     1       3.456   4.535  -2.641  1.00  0.00     0.049 A 
ATOM     47  H   UNL     1       4.897   3.183  -3.367  1.00  0.00     0.167 HD
ATOM     48  C   UNL     1       7.459   0.626  -5.209  1.00  0.00     0.037 A 
ATOM     49  C   UNL     1       4.119   5.696  -2.405  1.00  0.00     0.037 A 
ATOM     50  C   UNL     1       7.778   0.433  -3.818  1.00  0.00     0.049 A 
ATOM     51  C   UNL     1       5.535   5.333  -2.208  1.00  0.00     0.074 A 
ATOM     52  C   UNL     1       7.517  -0.568  -2.900  1.00  0.00     0.029 A 
ATOM     53  N   UNL     1       8.140   1.532  -3.081  1.00  0.00    -0.354 N 
ATOM     54  N   UNL     1       5.985   4.729  -1.146  1.00  0.00    -0.248 NA
ATOM     55  C   UNL     1       6.426   5.331  -3.356  1.00  0.00     0.031 C 
ATOM     56  C   UNL     1       7.312   0.096  -1.658  1.00  0.00     0.029 A 
ATOM     57  C   UNL     1       7.518   1.460  -1.859  1.00  0.00     0.049 A 
ATOM     58  H   UNL     1       8.744   2.250  -3.378  1.00  0.00     0.167 HD
ATOM     59  C   UNL     1       6.933   3.856  -1.644  1.00  0.00     0.074 A 
ATOM     60  C   UNL     1       7.290   4.398  -2.951  1.00  0.00     0.031 C 
ATOM     61  C   UNL     1       7.092   2.617  -1.095  1.00  0.00     0.037 A 
BRANCH  48  62
ATOM     62  C   UNL     1       8.288   1.420  -6.166  1.00  0.00     0.057 A 
ATOM     63  C   UNL     1       9.668   1.233  -6.214  1.00  0.00     0.134 A 
ATOM     64  C   UNL     1       7.781   2.507  -6.915  1.00  0.00     0.134 A 
ATOM     65  F   UNL     1      10.253   0.287  -5.466  1.00  0.00    -0.206 F 
ATOM     66  C   UNL     1      10.491   2.053  -6.991  1.00  0.00     0.040 A 
ATOM     67  C   UNL     1       8.578   3.284  -7.750  1.00  0.00     0.040 A 
ATOM     68  F   UNL     1       6.507   2.912  -6.805  1.00  0.00    -0.206 F 
ATOM     69  C   UNL     1       9.945   3.065  -7.779  1.00  0.00     0.006 A 
ENDBRANCH  48  62
BRANCH  49  70
ATOM     70  C   UNL     1       3.667   7.108  -2.357  1.00  0.00     0.057 A 
ATOM     71  C   UNL     1       4.494   8.117  -1.832  1.00  0.00     0.134 A 
ATOM     72  C   UNL     1       2.557   7.553  -3.094  1.00  0.00     0.134 A 
ATOM     73  F   UNL     1       5.588   7.807  -1.122  1.00  0.00    -0.206 F 
ATOM     74  C   UNL     1       4.269   9.479  -2.077  1.00  0.00     0.040 A 
ATOM     75  C   UNL     1       2.318   8.912  -3.343  1.00  0.00     0.040 A 
ATOM     76  F   UNL     1       1.715   6.681  -3.667  1.00  0.00    -0.206 F 
ATOM     77  C   UNL     1       3.190   9.879  -2.854  1.00  0.00     0.006 A 
ENDBRANCH  49  70
BRANCH  61  78
ATOM     78  C   UNL     1       6.568   2.371   0.302  1.00  0.00     0.057 A 
ATOM     79  C   UNL     1       5.242   2.560   0.726  1.00  0.00     0.134 A 
ATOM     80  C   UNL     1       7.441   1.799   1.240  1.00  0.00     0.134 A 
ATOM     81  F   UNL     1       4.293   3.009  -0.105  1.00  0.00    -0.206 F 
ATOM     82  C   UNL     1       4.823   2.229   2.022  1.00  0.00     0.040 A 
ATOM     83  C   UNL     1       7.025   1.426   2.521  1.00  0.00     0.040 A 
ATOM     84  F   UNL     1       8.720   1.554   0.910  1.00  0.00    -0.206 F 
ATOM     85  C   UNL     1       5.712   1.649   2.920  1.00  0.00     0.006 A 
ENDBRANCH  61  78
ENDBRANCH  35  36
ENDBRANCH  28  30
ENDBRANCH  27  28
ENDBRANCH  26  27
ENDBRANCH  25  26
ENDBRANCH  24  25
ENDBRANCH   1  24
TORSDOF 20
