REMARK SMILES Nc1ccc(Cl)c(SC[C@H]2CC[C@@H](C(=O)OCCOCCOC(=O)c3ccc(-c4c5nc(c(-c6c(F)cccc6F)c6ccc([nH]6)c(-c6c(F)cccc6F)c6nc(c(-c7c(F)cccc7F)c7ccc4[nH]7)C=C6)C=C5)cc3)O2)c1
REMARK SMILES IDX 18 1 17 2 16 3 14 4 15 5 13 6 10 7 11 8 79 9 12 10 9 11 8 12
REMARK SMILES IDX 7 13 2 14 3 15 80 16 4 17 5 18 6 19 1 20 19 23 20 24 21 25
REMARK SMILES IDX 22 26 23 27 24 28 25 29 26 30 78 31 27 32 77 33 28 34 29 35
REMARK SMILES IDX 30 36 71 37 31 38 76 39 70 40 72 41 32 42 75 43 69 44 68 45
REMARK SMILES IDX 33 47 59 48 42 49 58 50 43 51 46 52 57 53 73 54 44 55 45 56
REMARK SMILES IDX 56 58 74 59 47 60 34 61 35 62 40 63 36 64 37 65 39 66 41 67
REMARK SMILES IDX 38 68 60 69 61 70 66 71 62 72 63 73 65 74 67 75 64 76 48 77
REMARK SMILES IDX 49 78 54 79 50 80 51 81 53 82 55 83 52 84
REMARK H PARENT 1 21 1 22 72 46 46 57
REMARK Flexibility Score: inf
ROOT
ATOM      1  C   UNL     1      -4.684  -0.967   5.084  1.00  0.00     0.202 C 
ENDROOT
BRANCH   1   2
ATOM      2  C   UNL     1      -5.365  -1.755   3.960  1.00  0.00     0.261 C 
BRANCH   2   3
ATOM      3  O   UNL     1      -4.460  -2.668   3.311  1.00  0.00    -0.461 OA
BRANCH   3   4
ATOM      4  C   UNL     1      -4.421  -2.585   1.951  1.00  0.00     0.335 C 
ATOM      5  O   UNL     1      -5.212  -1.942   1.268  1.00  0.00    -0.249 OA
BRANCH   4   6
ATOM      6  C   UNL     1      -3.229  -3.341   1.345  1.00  0.00     0.228 C 
ATOM      7  C   UNL     1      -0.982  -3.914   1.229  1.00  0.00     0.129 C 
ATOM      8  C   UNL     1      -1.847  -5.189   1.096  1.00  0.00     0.036 C 
ATOM      9  O   UNL     1      -1.899  -2.883   1.643  1.00  0.00    -0.362 OA
ATOM     10  C   UNL     1      -3.171  -4.801   1.724  1.00  0.00     0.047 C 
BRANCH   7  11
ATOM     11  C   UNL     1       0.206  -4.190   2.176  1.00  0.00     0.107 C 
BRANCH  11  12
ATOM     12  S   UNL     1       1.425  -3.024   2.935  1.00  0.00    -0.122 SA
BRANCH  12  13
ATOM     13  C   UNL     1       1.014  -1.347   2.488  1.00  0.00     0.028 A 
ATOM     14  C   UNL     1       0.521   0.291   0.746  1.00  0.00     0.033 A 
ATOM     15  C   UNL     1       0.419   1.292   1.711  1.00  0.00     0.027 A 
ATOM     16  C   UNL     1       0.765  -1.026   1.151  1.00  0.00     0.042 A 
ATOM     17  C   UNL     1       0.727   1.015   3.040  1.00  0.00     0.024 A 
ATOM     18  C   UNL     1       1.080  -0.285   3.416  1.00  0.00     0.054 A 
ATOM     19  Cl  UNL     1       1.622  -0.486   5.053  1.00  0.00    -0.083 Cl
BRANCH  14  20
ATOM     20  N   UNL     1       0.273   0.575  -0.587  1.00  0.00    -0.399 N 
ATOM     21  H   UNL     1       0.102   1.503  -0.869  1.00  0.00     0.156 HD
ATOM     22  H   UNL     1       0.269  -0.150  -1.252  1.00  0.00     0.156 HD
ENDBRANCH  14  20
ENDBRANCH  12  13
ENDBRANCH  11  12
ENDBRANCH   7  11
ENDBRANCH   4   6
ENDBRANCH   3   4
ENDBRANCH   2   3
ENDBRANCH   1   2
BRANCH   1  23
ATOM     23  O   UNL     1      -3.547  -0.172   4.768  1.00  0.00    -0.374 OA
BRANCH  23  24
ATOM     24  C   UNL     1      -2.481  -0.779   4.054  1.00  0.00     0.202 C 
BRANCH  24  25
ATOM     25  C   UNL     1      -1.732  -1.966   4.679  1.00  0.00     0.261 C 
BRANCH  25  26
ATOM     26  O   UNL     1      -2.448  -2.756   5.614  1.00  0.00    -0.460 OA
BRANCH  26  27
ATOM     27  C   UNL     1      -2.119  -2.515   6.902  1.00  0.00     0.338 C 
ATOM     28  O   UNL     1      -1.351  -1.693   7.368  1.00  0.00    -0.246 OA
BRANCH  27  29
ATOM     29  C   UNL     1      -2.940  -3.417   7.698  1.00  0.00     0.060 A 
ATOM     30  C   UNL     1      -4.076  -2.900   8.322  1.00  0.00     0.016 A 
ATOM     31  C   UNL     1      -2.601  -4.769   7.770  1.00  0.00     0.016 A 
ATOM     32  C   UNL     1      -4.907  -3.757   9.024  1.00  0.00     0.010 A 
ATOM     33  C   UNL     1      -3.432  -5.625   8.478  1.00  0.00     0.010 A 
ATOM     34  C   UNL     1      -4.582  -5.118   9.105  1.00  0.00    -0.014 A 
BRANCH  34  35
ATOM     35  C   UNL     1      -5.428  -6.022   9.899  1.00  0.00     0.031 A 
ATOM     36  C   UNL     1      -4.960  -6.440  11.256  1.00  0.00     0.074 A 
ATOM     37  C   UNL     1      -6.584  -6.462   9.377  1.00  0.00     0.049 A 
ATOM     38  N   UNL     1      -5.498  -7.290  12.087  1.00  0.00    -0.248 NA
ATOM     39  C   UNL     1      -3.712  -5.824  11.737  1.00  0.00     0.031 C 
ATOM     40  C   UNL     1      -7.116  -6.080   8.067  1.00  0.00     0.029 A 
ATOM     41  N   UNL     1      -7.509  -7.338   9.875  1.00  0.00    -0.354 N 
ATOM     42  C   UNL     1      -4.653  -7.318  13.188  1.00  0.00     0.074 A 
ATOM     43  C   UNL     1      -3.550  -6.426  12.906  1.00  0.00     0.031 C 
ATOM     44  C   UNL     1      -8.273  -6.730   7.861  1.00  0.00     0.029 A 
ATOM     45  C   UNL     1      -8.534  -7.602   9.002  1.00  0.00     0.049 A 
ATOM     46  H   UNL     1      -7.445  -7.739  10.772  1.00  0.00     0.167 HD
ATOM     47  C   UNL     1      -4.800  -8.026  14.330  1.00  0.00     0.037 A 
ATOM     48  C   UNL     1      -9.549  -8.479   9.109  1.00  0.00     0.037 A 
ATOM     49  C   UNL     1      -5.905  -8.914  14.574  1.00  0.00     0.049 A 
ATOM     50  C   UNL     1      -9.645  -9.312  10.357  1.00  0.00     0.074 A 
ATOM     51  C   UNL     1      -6.177  -9.665  15.702  1.00  0.00     0.029 A 
ATOM     52  N   UNL     1      -6.917  -9.179  13.660  1.00  0.00    -0.354 N 
ATOM     53  N   UNL     1      -8.868  -9.305  11.416  1.00  0.00    -0.248 NA
ATOM     54  C   UNL     1     -10.749 -10.276  10.427  1.00  0.00     0.031 C 
ATOM     55  C   UNL     1      -7.319 -10.430  15.448  1.00  0.00     0.029 A 
ATOM     56  C   UNL     1      -7.794 -10.113  14.183  1.00  0.00     0.049 A 
ATOM     57  H   UNL     1      -6.998  -8.764  12.771  1.00  0.00     0.167 HD
ATOM     58  C   UNL     1      -9.399 -10.248  12.285  1.00  0.00     0.074 A 
ATOM     59  C   UNL     1     -10.576 -10.793  11.636  1.00  0.00     0.031 C 
ATOM     60  C   UNL     1      -8.956 -10.635  13.507  1.00  0.00     0.037 A 
BRANCH  47  61
ATOM     61  C   UNL     1      -3.730  -7.891  15.373  1.00  0.00     0.057 A 
ATOM     62  C   UNL     1      -3.549  -6.709  16.104  1.00  0.00     0.134 A 
ATOM     63  C   UNL     1      -2.879  -8.965  15.663  1.00  0.00     0.134 A 
ATOM     64  F   UNL     1      -4.319  -5.636  15.864  1.00  0.00    -0.206 F 
ATOM     65  C   UNL     1      -2.546  -6.592  17.068  1.00  0.00     0.040 A 
ATOM     66  C   UNL     1      -1.891  -8.870  16.645  1.00  0.00     0.040 A 
ATOM     67  F   UNL     1      -2.996 -10.126  15.001  1.00  0.00    -0.206 F 
ATOM     68  C   UNL     1      -1.718  -7.678  17.346  1.00  0.00     0.006 A 
ENDBRANCH  47  61
BRANCH  48  69
ATOM     69  C   UNL     1     -10.527  -8.624   8.003  1.00  0.00     0.057 A 
ATOM     70  C   UNL     1     -11.862  -8.234   8.160  1.00  0.00     0.134 A 
ATOM     71  C   UNL     1     -10.154  -9.152   6.760  1.00  0.00     0.134 A 
ATOM     72  F   UNL     1     -12.285  -7.734   9.330  1.00  0.00    -0.206 F 
ATOM     73  C   UNL     1     -12.793  -8.379   7.130  1.00  0.00     0.040 A 
ATOM     74  C   UNL     1     -11.068  -9.278   5.712  1.00  0.00     0.040 A 
ATOM     75  F   UNL     1      -8.888  -9.538   6.540  1.00  0.00    -0.206 F 
ATOM     76  C   UNL     1     -12.395  -8.898   5.899  1.00  0.00     0.006 A 
ENDBRANCH  48  69
BRANCH  60  77
ATOM     77  C   UNL     1      -9.756 -11.683  14.222  1.00  0.00     0.057 A 
ATOM     78  C   UNL     1      -9.743 -13.023  13.815  1.00  0.00     0.134 A 
ATOM     79  C   UNL     1     -10.498 -11.357  15.364  1.00  0.00     0.134 A 
ATOM     80  F   UNL     1      -9.063 -13.395  12.720  1.00  0.00    -0.206 F 
ATOM     81  C   UNL     1     -10.454 -14.000  14.512  1.00  0.00     0.040 A 
ATOM     82  C   UNL     1     -11.188 -12.330  16.085  1.00  0.00     0.040 A 
ATOM     83  F   UNL     1     -10.543 -10.092  15.810  1.00  0.00    -0.206 F 
ATOM     84  C   UNL     1     -11.171 -13.656  15.657  1.00  0.00     0.006 A 
ENDBRANCH  60  77
ENDBRANCH  34  35
ENDBRANCH  27  29
ENDBRANCH  26  27
ENDBRANCH  25  26
ENDBRANCH  24  25
ENDBRANCH  23  24
ENDBRANCH   1  23
TORSDOF 18
