REMARK SMILES COCc1cccc(O[C@@H](C)c2ccc(C(=O)OCCOCCOC(=O)c3ccc(-c4c5nc(c(-c6c(F)cccc6F)c6ccc([nH]6)c(-c6c(F)cccc6F)c6nc(c(-c7c(F)cccc7F)c7ccc4[nH]7)C=C6)C=C5)cc3)o2)c1
REMARK SMILES IDX 19 1 18 2 16 3 17 4 15 5 12 6 13 7 81 8 14 9 10 10 11 11
REMARK SMILES IDX 9 12 8 13 4 14 5 15 82 16 6 17 7 18 3 19 2 20 1 21 20 22
REMARK SMILES IDX 21 23 22 24 23 25 24 26 25 27 26 28 27 29 28 30 80 31 29 32
REMARK SMILES IDX 79 33 30 34 31 35 32 36 73 37 33 38 78 39 72 40 74 41 34 42
REMARK SMILES IDX 77 43 71 44 70 45 35 47 61 48 44 49 60 50 45 51 48 52 59 53
REMARK SMILES IDX 75 54 46 55 47 56 58 58 76 59 49 60 36 61 37 62 42 63 38 64
REMARK SMILES IDX 39 65 41 66 43 67 40 68 62 69 63 70 68 71 64 72 65 73 67 74
REMARK SMILES IDX 69 75 66 76 50 77 51 78 56 79 52 80 53 81 55 82 57 83 54 84
REMARK H PARENT 74 46 48 57
REMARK Flexibility Score: inf
ROOT
ATOM      1  C   UNL     1      -5.643  -2.749   0.954  1.00  0.00     0.261 C 
ENDROOT
BRANCH   1   2
ATOM      2  O   UNL     1      -5.078  -3.842   0.209  1.00  0.00    -0.457 OA
BRANCH   2   3
ATOM      3  C   UNL     1      -4.907  -3.624  -1.128  1.00  0.00     0.374 C 
ATOM      4  O   UNL     1      -5.415  -2.702  -1.753  1.00  0.00    -0.242 OA
BRANCH   3   5
ATOM      5  C   UNL     1      -3.951  -4.576  -1.645  1.00  0.00     0.211 A 
ATOM      6  C   UNL     1      -2.345  -5.195  -3.033  1.00  0.00     0.145 A 
ATOM      7  C   UNL     1      -2.439  -6.186  -2.077  1.00  0.00     0.050 A 
ATOM      8  O   UNL     1      -3.297  -4.248  -2.798  1.00  0.00    -0.450 OA
ATOM      9  C   UNL     1      -3.456  -5.780  -1.175  1.00  0.00     0.058 A 
BRANCH   6  10
ATOM     10  C   UNL     1      -1.489  -4.989  -4.242  1.00  0.00     0.236 C 
ATOM     11  C   UNL     1      -0.133  -5.688  -4.218  1.00  0.00     0.062 C 
BRANCH  10  12
ATOM     12  O   UNL     1      -1.413  -3.599  -4.598  1.00  0.00    -0.483 OA
BRANCH  12  13
ATOM     13  C   UNL     1      -0.686  -2.674  -3.910  1.00  0.00     0.120 A 
ATOM     14  C   UNL     1       0.698  -1.786  -2.111  1.00  0.00    -0.019 A 
ATOM     15  C   UNL     1       0.834  -0.585  -2.821  1.00  0.00     0.006 A 
ATOM     16  C   UNL     1      -0.093  -2.819  -2.655  1.00  0.00     0.052 A 
ATOM     17  C   UNL     1       0.193  -0.413  -4.044  1.00  0.00     0.004 A 
ATOM     18  C   UNL     1      -0.556  -1.456  -4.584  1.00  0.00     0.046 A 
BRANCH  14  19
ATOM     19  C   UNL     1       1.425  -1.973  -0.800  1.00  0.00     0.195 C 
BRANCH  19  20
ATOM     20  O   UNL     1       0.745  -1.393   0.308  1.00  0.00    -0.380 OA
ATOM     21  C   UNL     1       0.976   0.001   0.467  1.00  0.00     0.195 C 
ENDBRANCH  19  20
ENDBRANCH  14  19
ENDBRANCH  12  13
ENDBRANCH  10  12
ENDBRANCH   6  10
ENDBRANCH   3   5
ENDBRANCH   2   3
ENDBRANCH   1   2
BRANCH   1  22
ATOM     22  C   UNL     1      -4.640  -2.259   2.003  1.00  0.00     0.202 C 
BRANCH  22  23
ATOM     23  O   UNL     1      -3.546  -1.506   1.477  1.00  0.00    -0.374 OA
BRANCH  23  24
ATOM     24  C   UNL     1      -2.455  -2.251   0.930  1.00  0.00     0.202 C 
BRANCH  24  25
ATOM     25  C   UNL     1      -1.413  -2.724   1.948  1.00  0.00     0.261 C 
BRANCH  25  26
ATOM     26  O   UNL     1      -1.976  -3.658   2.885  1.00  0.00    -0.460 OA
BRANCH  26  27
ATOM     27  C   UNL     1      -2.142  -3.163   4.133  1.00  0.00     0.338 C 
ATOM     28  O   UNL     1      -1.787  -2.078   4.560  1.00  0.00    -0.246 OA
BRANCH  27  29
ATOM     29  C   UNL     1      -2.970  -4.086   4.931  1.00  0.00     0.060 A 
ATOM     30  C   UNL     1      -4.003  -3.518   5.685  1.00  0.00     0.016 A 
ATOM     31  C   UNL     1      -2.695  -5.454   5.016  1.00  0.00     0.016 A 
ATOM     32  C   UNL     1      -4.712  -4.300   6.590  1.00  0.00     0.010 A 
ATOM     33  C   UNL     1      -3.409  -6.240   5.926  1.00  0.00     0.010 A 
ATOM     34  C   UNL     1      -4.383  -5.653   6.753  1.00  0.00    -0.014 A 
BRANCH  34  35
ATOM     35  C   UNL     1      -4.937  -6.379   7.920  1.00  0.00     0.031 A 
ATOM     36  C   UNL     1      -4.093  -6.512   9.159  1.00  0.00     0.074 A 
ATOM     37  C   UNL     1      -6.200  -6.840   7.907  1.00  0.00     0.049 A 
ATOM     38  N   UNL     1      -4.398  -7.035  10.319  1.00  0.00    -0.248 NA
ATOM     39  C   UNL     1      -2.722  -5.982   9.079  1.00  0.00     0.031 C 
ATOM     40  C   UNL     1      -7.122  -6.748   6.777  1.00  0.00     0.029 A 
ATOM     41  N   UNL     1      -6.925  -7.468   8.887  1.00  0.00    -0.354 N 
ATOM     42  C   UNL     1      -3.261  -6.895  11.105  1.00  0.00     0.074 A 
ATOM     43  C   UNL     1      -2.248  -6.276  10.280  1.00  0.00     0.031 C 
ATOM     44  C   UNL     1      -8.298  -7.296   7.131  1.00  0.00     0.029 A 
ATOM     45  C   UNL     1      -8.204  -7.787   8.505  1.00  0.00     0.049 A 
ATOM     46  H   UNL     1      -6.563  -7.670   9.780  1.00  0.00     0.167 HD
ATOM     47  C   UNL     1      -3.082  -7.235  12.404  1.00  0.00     0.037 A 
ATOM     48  C   UNL     1      -9.185  -8.404   9.189  1.00  0.00     0.037 A 
ATOM     49  C   UNL     1      -4.090  -7.847  13.228  1.00  0.00     0.049 A 
ATOM     50  C   UNL     1      -8.950  -8.805  10.621  1.00  0.00     0.074 A 
ATOM     51  C   UNL     1      -4.010  -8.221  14.558  1.00  0.00     0.029 A 
ATOM     52  N   UNL     1      -5.366  -8.175  12.796  1.00  0.00    -0.354 N 
ATOM     53  N   UNL     1      -7.882  -8.639  11.363  1.00  0.00    -0.248 NA
ATOM     54  C   UNL     1     -10.065  -9.467  11.313  1.00  0.00     0.031 C 
ATOM     55  C   UNL     1      -5.226  -8.810  14.921  1.00  0.00     0.029 A 
ATOM     56  C   UNL     1      -6.078  -8.761  13.829  1.00  0.00     0.049 A 
ATOM     57  H   UNL     1      -5.715  -8.015  11.889  1.00  0.00     0.167 HD
ATOM     58  C   UNL     1      -8.206  -9.146  12.616  1.00  0.00     0.074 A 
ATOM     59  C   UNL     1      -9.574  -9.615  12.535  1.00  0.00     0.031 C 
ATOM     60  C   UNL     1      -7.442  -9.214  13.734  1.00  0.00     0.037 A 
BRANCH  47  61
ATOM     61  C   UNL     1      -1.734  -6.965  13.004  1.00  0.00     0.057 A 
ATOM     62  C   UNL     1      -1.309  -5.665  13.307  1.00  0.00     0.134 A 
ATOM     63  C   UNL     1      -0.858  -8.017  13.296  1.00  0.00     0.134 A 
ATOM     64  F   UNL     1      -2.095  -4.612  13.037  1.00  0.00    -0.206 F 
ATOM     65  C   UNL     1      -0.050  -5.419  13.859  1.00  0.00     0.040 A 
ATOM     66  C   UNL     1       0.394  -7.786  13.869  1.00  0.00     0.040 A 
ATOM     67  F   UNL     1      -1.205  -9.286  13.031  1.00  0.00    -0.206 F 
ATOM     68  C   UNL     1       0.803  -6.483  14.146  1.00  0.00     0.006 A 
ENDBRANCH  47  61
BRANCH  48  69
ATOM     69  C   UNL     1     -10.491  -8.669   8.536  1.00  0.00     0.057 A 
ATOM     70  C   UNL     1     -11.646  -7.974   8.913  1.00  0.00     0.134 A 
ATOM     71  C   UNL     1     -10.617  -9.637   7.533  1.00  0.00     0.134 A 
ATOM     72  F   UNL     1     -11.592  -7.051   9.883  1.00  0.00    -0.206 F 
ATOM     73  C   UNL     1     -12.884  -8.246   8.329  1.00  0.00     0.040 A 
ATOM     74  C   UNL     1     -11.844  -9.903   6.925  1.00  0.00     0.040 A 
ATOM     75  F   UNL     1      -9.546 -10.335   7.127  1.00  0.00    -0.206 F 
ATOM     76  C   UNL     1     -12.985  -9.211   7.328  1.00  0.00     0.006 A 
ENDBRANCH  48  69
BRANCH  60  77
ATOM     77  C   UNL     1      -8.082  -9.780  14.967  1.00  0.00     0.057 A 
ATOM     78  C   UNL     1      -8.351 -11.148  15.101  1.00  0.00     0.134 A 
ATOM     79  C   UNL     1      -8.410  -8.947  16.044  1.00  0.00     0.134 A 
ATOM     80  F   UNL     1      -8.072 -11.997  14.101  1.00  0.00    -0.206 F 
ATOM     81  C   UNL     1      -8.950 -11.663  16.252  1.00  0.00     0.040 A 
ATOM     82  C   UNL     1      -8.986  -9.453  17.210  1.00  0.00     0.040 A 
ATOM     83  F   UNL     1      -8.169  -7.628  15.984  1.00  0.00    -0.206 F 
ATOM     84  C   UNL     1      -9.265 -10.815  17.313  1.00  0.00     0.006 A 
ENDBRANCH  60  77
ENDBRANCH  34  35
ENDBRANCH  27  29
ENDBRANCH  26  27
ENDBRANCH  25  26
ENDBRANCH  24  25
ENDBRANCH  23  24
ENDBRANCH  22  23
ENDBRANCH   1  22
TORSDOF 19
