REMARK SMILES O=C(OCCOCCOC(=O)c1nc2cc3c(cc2[nH]1)OCO3)c1ccc(-c2c3nc(c(-c4c(F)cccc4F)c4ccc([nH]4)c(-c4c(F)cccc4F)c4nc(c(-c5c(F)cccc5F)c5ccc2[nH]5)C=C4)C=C3)cc1
REMARK SMILES IDX 5 1 4 2 3 3 2 4 1 5 24 6 25 7 77 8 26 9 76 10 27 11 28 12
REMARK SMILES IDX 29 13 70 14 30 15 75 16 69 17 71 18 31 19 74 20 68 21 67 22
REMARK SMILES IDX 32 24 58 25 41 26 57 27 42 28 45 29 56 30 72 31 43 32 44 33
REMARK SMILES IDX 55 35 73 36 46 37 33 38 34 39 39 40 35 41 36 42 38 43 40 44
REMARK SMILES IDX 37 45 59 46 60 47 65 48 61 49 62 50 64 51 66 52 63 53 47 54
REMARK SMILES IDX 48 55 53 56 49 57 50 58 52 59 54 60 51 61 6 62 7 63 8 64
REMARK SMILES IDX 9 65 10 66 11 67 12 68 13 69 20 70 14 71 19 72 15 74 18 75
REMARK SMILES IDX 16 76 17 77 23 78 21 79 22 80
REMARK H PARENT 71 23 45 34 20 73
REMARK Flexibility Score: inf
ROOT
ATOM      1  C   UNL     1       3.843   1.088   1.352  1.00  0.00     0.202 C 
ENDROOT
BRANCH   1   2
ATOM      2  C   UNL     1       3.996   1.722  -0.029  1.00  0.00     0.261 C 
BRANCH   2   3
ATOM      3  O   UNL     1       3.038   1.314  -1.044  1.00  0.00    -0.460 OA
BRANCH   3   4
ATOM      4  C   UNL     1       2.869   0.100  -1.646  1.00  0.00     0.338 C 
ATOM      5  O   UNL     1       2.000  -0.045  -2.502  1.00  0.00    -0.246 OA
BRANCH   4   6
ATOM      6  C   UNL     1       3.612  -1.100  -1.177  1.00  0.00     0.060 A 
ATOM      7  C   UNL     1       2.877  -2.272  -0.909  1.00  0.00     0.016 A 
ATOM      8  C   UNL     1       4.951  -1.036  -0.811  1.00  0.00     0.016 A 
ATOM      9  C   UNL     1       3.420  -3.279  -0.100  1.00  0.00     0.010 A 
ATOM     10  C   UNL     1       5.445  -1.983   0.079  1.00  0.00     0.010 A 
ATOM     11  C   UNL     1       4.674  -3.089   0.490  1.00  0.00    -0.014 A 
BRANCH  11  12
ATOM     12  C   UNL     1       5.377  -4.182   1.199  1.00  0.00     0.031 A 
ATOM     13  C   UNL     1       6.074  -4.993   0.184  1.00  0.00     0.074 A 
ATOM     14  C   UNL     1       5.525  -4.504   2.510  1.00  0.00     0.049 A 
ATOM     15  N   UNL     1       5.620  -6.118  -0.258  1.00  0.00    -0.248 NA
ATOM     16  C   UNL     1       7.179  -4.430  -0.605  1.00  0.00     0.031 C 
ATOM     17  C   UNL     1       4.940  -3.895   3.694  1.00  0.00     0.029 A 
ATOM     18  N   UNL     1       6.334  -5.454   3.093  1.00  0.00    -0.354 N 
ATOM     19  C   UNL     1       6.539  -6.514  -1.207  1.00  0.00     0.074 A 
ATOM     20  C   UNL     1       7.289  -5.343  -1.571  1.00  0.00     0.031 C 
ATOM     21  C   UNL     1       5.637  -4.200   4.811  1.00  0.00     0.029 A 
ATOM     22  C   UNL     1       6.562  -5.258   4.459  1.00  0.00     0.049 A 
ATOM     23  H   UNL     1       6.719  -6.208   2.591  1.00  0.00     0.167 HD
ATOM     24  C   UNL     1       6.858  -7.827  -1.312  1.00  0.00     0.037 A 
ATOM     25  C   UNL     1       7.264  -6.023   5.331  1.00  0.00     0.037 A 
ATOM     26  C   UNL     1       5.901  -8.655  -0.620  1.00  0.00     0.049 A 
ATOM     27  C   UNL     1       7.193  -7.397   4.812  1.00  0.00     0.074 A 
ATOM     28  C   UNL     1       4.580  -9.007  -0.801  1.00  0.00     0.029 A 
ATOM     29  N   UNL     1       6.203  -8.877   0.698  1.00  0.00    -0.354 N 
ATOM     30  N   UNL     1       6.095  -8.099   4.801  1.00  0.00    -0.248 NA
ATOM     31  C   UNL     1       8.273  -7.894   3.972  1.00  0.00     0.031 C 
ATOM     32  C   UNL     1       4.061  -9.305   0.493  1.00  0.00     0.029 A 
ATOM     33  C   UNL     1       5.081  -9.162   1.431  1.00  0.00     0.049 A 
ATOM     34  H   UNL     1       7.113  -8.836   1.073  1.00  0.00     0.167 HD
ATOM     35  C   UNL     1       6.180  -8.812   3.624  1.00  0.00     0.074 A 
ATOM     36  C   UNL     1       7.594  -8.802   3.268  1.00  0.00     0.031 C 
ATOM     37  C   UNL     1       5.068  -9.046   2.873  1.00  0.00     0.037 A 
BRANCH  24  38
ATOM     38  C   UNL     1       8.260  -8.294  -1.589  1.00  0.00     0.057 A 
ATOM     39  C   UNL     1       8.473  -9.632  -1.940  1.00  0.00     0.134 A 
ATOM     40  C   UNL     1       9.424  -7.560  -1.268  1.00  0.00     0.134 A 
ATOM     41  F   UNL     1       7.438 -10.445  -2.203  1.00  0.00    -0.206 F 
ATOM     42  C   UNL     1       9.751 -10.200  -1.962  1.00  0.00     0.040 A 
ATOM     43  C   UNL     1      10.707  -8.096  -1.349  1.00  0.00     0.040 A 
ATOM     44  F   UNL     1       9.380  -6.325  -0.753  1.00  0.00    -0.206 F 
ATOM     45  C   UNL     1      10.874  -9.430  -1.677  1.00  0.00     0.006 A 
ENDBRANCH  24  38
BRANCH  25  46
ATOM     46  C   UNL     1       8.104  -5.666   6.500  1.00  0.00     0.057 A 
ATOM     47  C   UNL     1       8.561  -6.654   7.390  1.00  0.00     0.134 A 
ATOM     48  C   UNL     1       8.749  -4.422   6.583  1.00  0.00     0.134 A 
ATOM     49  F   UNL     1       8.011  -7.878   7.391  1.00  0.00    -0.206 F 
ATOM     50  C   UNL     1       9.648  -6.447   8.250  1.00  0.00     0.040 A 
ATOM     51  C   UNL     1       9.837  -4.201   7.441  1.00  0.00     0.040 A 
ATOM     52  F   UNL     1       8.402  -3.414   5.772  1.00  0.00    -0.206 F 
ATOM     53  C   UNL     1      10.307  -5.224   8.259  1.00  0.00     0.006 A 
ENDBRANCH  25  46
BRANCH  37  54
ATOM     54  C   UNL     1       3.741  -9.033   3.571  1.00  0.00     0.057 A 
ATOM     55  C   UNL     1       3.123  -7.897   4.112  1.00  0.00     0.134 A 
ATOM     56  C   UNL     1       3.013 -10.228   3.611  1.00  0.00     0.134 A 
ATOM     57  F   UNL     1       3.715  -6.697   4.074  1.00  0.00    -0.206 F 
ATOM     58  C   UNL     1       1.845  -7.956   4.679  1.00  0.00     0.040 A 
ATOM     59  C   UNL     1       1.725 -10.294   4.145  1.00  0.00     0.040 A 
ATOM     60  F   UNL     1       3.532 -11.351   3.090  1.00  0.00    -0.206 F 
ATOM     61  C   UNL     1       1.138  -9.155   4.687  1.00  0.00     0.006 A 
ENDBRANCH  37  54
ENDBRANCH  11  12
ENDBRANCH   4   6
ENDBRANCH   3   4
ENDBRANCH   2   3
ENDBRANCH   1   2
BRANCH   1  62
ATOM     62  O   UNL     1       3.187  -0.155   1.256  1.00  0.00    -0.374 OA
BRANCH  62  63
ATOM     63  C   UNL     1       1.991  -0.373   1.968  1.00  0.00     0.202 C 
BRANCH  63  64
ATOM     64  C   UNL     1       2.201  -1.571   2.890  1.00  0.00     0.261 C 
BRANCH  64  65
ATOM     65  O   UNL     1       3.017  -1.183   4.013  1.00  0.00    -0.457 OA
BRANCH  65  66
ATOM     66  C   UNL     1       4.341  -0.976   3.744  1.00  0.00     0.374 C 
ATOM     67  O   UNL     1       4.958  -1.338   2.757  1.00  0.00    -0.243 OA
BRANCH  66  68
ATOM     68  C   UNL     1       4.901  -0.156   4.759  1.00  0.00     0.218 A 
ATOM     69  N   UNL     1       5.879   0.690   4.514  1.00  0.00    -0.222 NA
ATOM     70  N   UNL     1       4.455  -0.065   6.045  1.00  0.00    -0.332 N 
ATOM     71  C   UNL     1       5.986   1.437   5.641  1.00  0.00     0.093 A 
ATOM     72  C   UNL     1       5.106   0.984   6.628  1.00  0.00     0.070 A 
ATOM     73  H   UNL     1       3.786  -0.647   6.473  1.00  0.00     0.168 HD
ATOM     74  C   UNL     1       6.805   2.546   5.858  1.00  0.00     0.081 A 
ATOM     75  C   UNL     1       4.984   1.566   7.885  1.00  0.00     0.079 A 
ATOM     76  C   UNL     1       6.674   3.130   7.098  1.00  0.00     0.168 A 
ATOM     77  C   UNL     1       5.809   2.659   8.065  1.00  0.00     0.168 A 
ATOM     78  O   UNL     1       7.365   4.227   7.507  1.00  0.00    -0.454 OA
ATOM     79  O   UNL     1       5.861   3.402   9.203  1.00  0.00    -0.454 OA
ATOM     80  C   UNL     1       6.888   4.353   8.858  1.00  0.00     0.468 C 
ENDBRANCH  66  68
ENDBRANCH  65  66
ENDBRANCH  64  65
ENDBRANCH  63  64
ENDBRANCH  62  63
ENDBRANCH   1  62
TORSDOF 14
