REMARK SMILES Cc1cc([N+](=O)[O-])ccc1-c1ccc(/C=C/C(=O)Nc2ccc(O)c(C(=O)OCCOCCOC(=O)c3ccc(-c4c5nc(c(-c6c(F)cccc6F)c6ccc([nH]6)c(-c6c(F)cccc6F)c6nc(c(-c7c(F)cccc7F)c7ccc4[nH]7)C=C6)C=C5)cc3)c2)o1
REMARK SMILES IDX 29 1 28 2 26 3 27 4 25 5 20 6 21 7 91 8 22 9 23 10 19 11
REMARK SMILES IDX 17 12 18 13 16 15 15 16 14 17 11 18 12 19 92 20 13 21 10 22
REMARK SMILES IDX 1 23 2 24 3 25 4 26 9 27 8 28 5 29 6 30 7 31 24 32 30 34
REMARK SMILES IDX 31 35 32 36 33 37 34 38 35 39 36 40 37 41 38 42 90 43 39 44
REMARK SMILES IDX 89 45 40 46 41 47 42 48 83 49 43 50 88 51 82 52 84 53 44 54
REMARK SMILES IDX 87 55 81 56 80 57 45 59 71 60 54 61 70 62 55 63 58 64 69 65
REMARK SMILES IDX 85 66 56 67 57 68 68 70 86 71 59 72 46 73 47 74 52 75 48 76
REMARK SMILES IDX 49 77 51 78 53 79 50 80 72 81 73 82 78 83 74 84 75 85 77 86
REMARK SMILES IDX 79 87 76 88 60 89 61 90 66 91 62 92 63 93 65 94 67 95 64 96
REMARK H PARENT 19 14 24 33 84 58 58 69
REMARK Flexibility Score: inf
ROOT
ATOM      1  C   UNL     1       7.245   8.265  -1.990  1.00  0.00     0.261 C 
ENDROOT
BRANCH   1   2
ATOM      2  O   UNL     1       6.278   7.361  -1.419  1.00  0.00    -0.460 OA
BRANCH   2   3
ATOM      3  C   UNL     1       5.986   7.539  -0.100  1.00  0.00     0.342 C 
ATOM      4  O   UNL     1       6.768   7.603   0.822  1.00  0.00    -0.246 OA
BRANCH   3   5
ATOM      5  C   UNL     1       4.525   7.737   0.042  1.00  0.00     0.103 A 
ATOM      6  C   UNL     1       2.681   8.109   1.544  1.00  0.00     0.042 A 
ATOM      7  C   UNL     1       1.789   8.058   0.468  1.00  0.00     0.030 A 
ATOM      8  C   UNL     1       4.055   8.047   1.326  1.00  0.00     0.045 A 
ATOM      9  C   UNL     1       2.261   7.831  -0.820  1.00  0.00     0.049 A 
ATOM     10  C   UNL     1       3.617   7.619  -1.023  1.00  0.00     0.130 A 
BRANCH   6  11
ATOM     11  N   UNL     1       2.223   8.007   2.865  1.00  0.00    -0.322 N 
ATOM     12  C   UNL     1       1.391   7.023   3.359  1.00  0.00     0.248 C 
ATOM     13  O   UNL     1       0.936   7.093   4.497  1.00  0.00    -0.270 OA
ATOM     14  H   UNL     1       2.521   8.700   3.498  1.00  0.00     0.170 HD
BRANCH  12  15
ATOM     15  C   UNL     1       1.084   5.839   2.505  1.00  0.00     0.075 C 
ATOM     16  C   UNL     1       2.064   5.193   1.854  1.00  0.00     0.053 C 
BRANCH  16  17
ATOM     17  C   UNL     1       1.794   4.205   0.877  1.00  0.00     0.127 A 
ATOM     18  C   UNL     1       0.993   2.375  -0.066  1.00  0.00     0.135 A 
ATOM     19  C   UNL     1       1.847   2.924  -0.992  1.00  0.00     0.051 A 
ATOM     20  O   UNL     1       0.901   3.174   1.031  1.00  0.00    -0.457 OA
ATOM     21  C   UNL     1       2.384   4.073  -0.377  1.00  0.00     0.051 A 
BRANCH  18  22
ATOM     22  C   UNL     1       0.272   1.121  -0.001  1.00  0.00     0.021 A 
ATOM     23  C   UNL     1       2.459  -0.228   0.046  1.00  0.00     0.045 C 
ATOM     24  C   UNL     1       0.956  -0.115   0.030  1.00  0.00    -0.033 A 
ATOM     25  C   UNL     1       0.212  -1.307   0.037  1.00  0.00     0.089 A 
ATOM     26  C   UNL     1      -1.189  -1.266   0.040  1.00  0.00     0.269 A 
ATOM     27  C   UNL     1      -1.132   1.145   0.023  1.00  0.00     0.019 A 
ATOM     28  C   UNL     1      -1.866  -0.042   0.042  1.00  0.00     0.086 A 
BRANCH  26  29
ATOM     29  N   UNL     1      -1.950  -2.521   0.036  1.00  0.00     0.062 N 
ATOM     30  O   UNL     1      -1.311  -3.583   0.035  1.00  0.00    -0.258 OA
ATOM     31  O   UNL     1      -3.186  -2.445   0.027  1.00  0.00    -0.258 OA
ENDBRANCH  26  29
ENDBRANCH  18  22
ENDBRANCH  16  17
ENDBRANCH  12  15
ENDBRANCH   6  11
BRANCH  10  32
ATOM     32  O   UNL     1       3.957   7.247  -2.296  1.00  0.00    -0.507 OA
ATOM     33  H   UNL     1       3.297   7.189  -2.959  1.00  0.00     0.293 HD
ENDBRANCH  10  32
ENDBRANCH   3   5
ENDBRANCH   2   3
ENDBRANCH   1   2
BRANCH   1  34
ATOM     34  C   UNL     1       6.846   9.715  -1.816  1.00  0.00     0.202 C 
BRANCH  34  35
ATOM     35  O   UNL     1       7.049  10.025  -0.446  1.00  0.00    -0.374 OA
BRANCH  35  36
ATOM     36  C   UNL     1       6.633  11.306  -0.011  1.00  0.00     0.202 C 
BRANCH  36  37
ATOM     37  C   UNL     1       7.378  12.444  -0.717  1.00  0.00     0.261 C 
BRANCH  37  38
ATOM     38  O   UNL     1       8.787  12.389  -0.399  1.00  0.00    -0.460 OA
BRANCH  38  39
ATOM     39  C   UNL     1       9.584  11.764  -1.311  1.00  0.00     0.338 C 
ATOM     40  O   UNL     1       9.627  12.020  -2.503  1.00  0.00    -0.246 OA
BRANCH  39  41
ATOM     41  C   UNL     1      10.175  10.531  -0.708  1.00  0.00     0.060 A 
ATOM     42  C   UNL     1      10.814   9.576  -1.524  1.00  0.00     0.016 A 
ATOM     43  C   UNL     1       9.774  10.182   0.575  1.00  0.00     0.016 A 
ATOM     44  C   UNL     1      10.889   8.231  -1.118  1.00  0.00     0.010 A 
ATOM     45  C   UNL     1       9.719   8.845   0.899  1.00  0.00     0.010 A 
ATOM     46  C   UNL     1      10.254   7.849   0.059  1.00  0.00    -0.014 A 
BRANCH  46  47
ATOM     47  C   UNL     1      10.004   6.487   0.554  1.00  0.00     0.031 A 
ATOM     48  C   UNL     1      10.468   6.179   1.936  1.00  0.00     0.074 A 
ATOM     49  C   UNL     1       9.025   5.712   0.016  1.00  0.00     0.049 A 
ATOM     50  N   UNL     1      10.194   5.090   2.562  1.00  0.00    -0.248 NA
ATOM     51  C   UNL     1      11.308   7.076   2.734  1.00  0.00     0.031 C 
ATOM     52  C   UNL     1       8.097   4.845   0.752  1.00  0.00     0.029 A 
ATOM     53  N   UNL     1       8.618   5.530  -1.314  1.00  0.00    -0.354 N 
ATOM     54  C   UNL     1      10.462   5.291   3.893  1.00  0.00     0.074 A 
ATOM     55  C   UNL     1      11.286   6.471   3.927  1.00  0.00     0.031 C 
ATOM     56  C   UNL     1       7.431   4.056  -0.103  1.00  0.00     0.029 A 
ATOM     57  C   UNL     1       8.042   4.237  -1.399  1.00  0.00     0.049 A 
ATOM     58  H   UNL     1       8.715   6.177  -2.049  1.00  0.00     0.167 HD
ATOM     59  C   UNL     1       9.843   4.482   4.798  1.00  0.00     0.037 A 
ATOM     60  C   UNL     1       8.573   3.268  -2.199  1.00  0.00     0.037 A 
ATOM     61  C   UNL     1       9.128   3.394   4.120  1.00  0.00     0.049 A 
ATOM     62  C   UNL     1       9.045   2.074  -1.407  1.00  0.00     0.074 A 
ATOM     63  C   UNL     1       7.806   3.060   3.887  1.00  0.00     0.029 A 
ATOM     64  N   UNL     1       9.874   2.545   3.328  1.00  0.00    -0.354 N 
ATOM     65  N   UNL     1       8.884   1.973  -0.117  1.00  0.00    -0.248 NA
ATOM     66  C   UNL     1       9.801   0.948  -1.949  1.00  0.00     0.031 C 
ATOM     67  C   UNL     1       7.789   2.001   2.921  1.00  0.00     0.029 A 
ATOM     68  C   UNL     1       9.097   1.670   2.606  1.00  0.00     0.049 A 
ATOM     69  H   UNL     1      10.857   2.563   3.285  1.00  0.00     0.167 HD
ATOM     70  C   UNL     1       9.614   0.932   0.367  1.00  0.00     0.074 A 
ATOM     71  C   UNL     1      10.143   0.290  -0.824  1.00  0.00     0.031 C 
ATOM     72  C   UNL     1       9.772   0.737   1.709  1.00  0.00     0.037 A 
BRANCH  59  73
ATOM     73  C   UNL     1       9.783   4.665   6.297  1.00  0.00     0.057 A 
ATOM     74  C   UNL     1       9.209   3.653   7.095  1.00  0.00     0.134 A 
ATOM     75  C   UNL     1      10.182   5.808   7.015  1.00  0.00     0.134 A 
ATOM     76  F   UNL     1       8.795   2.492   6.566  1.00  0.00    -0.206 F 
ATOM     77  C   UNL     1       9.023   3.778   8.477  1.00  0.00     0.040 A 
ATOM     78  C   UNL     1      10.044   5.925   8.407  1.00  0.00     0.040 A 
ATOM     79  F   UNL     1      10.684   6.893   6.421  1.00  0.00    -0.206 F 
ATOM     80  C   UNL     1       9.447   4.916   9.142  1.00  0.00     0.006 A 
ENDBRANCH  59  73
BRANCH  60  81
ATOM     81  C   UNL     1       9.200   3.874  -3.410  1.00  0.00     0.057 A 
ATOM     82  C   UNL     1       8.322   4.469  -4.339  1.00  0.00     0.134 A 
ATOM     83  C   UNL     1      10.489   4.413  -3.315  1.00  0.00     0.134 A 
ATOM     84  F   UNL     1       7.075   3.991  -4.489  1.00  0.00    -0.206 F 
ATOM     85  C   UNL     1       8.636   5.672  -4.978  1.00  0.00     0.040 A 
ATOM     86  C   UNL     1      10.811   5.619  -3.951  1.00  0.00     0.040 A 
ATOM     87  F   UNL     1      11.378   3.897  -2.454  1.00  0.00    -0.206 F 
ATOM     88  C   UNL     1       9.864   6.280  -4.735  1.00  0.00     0.006 A 
ENDBRANCH  60  81
BRANCH  72  89
ATOM     89  C   UNL     1      10.650  -0.341   2.274  1.00  0.00     0.057 A 
ATOM     90  C   UNL     1      10.594  -1.659   1.810  1.00  0.00     0.134 A 
ATOM     91  C   UNL     1      11.514  -0.114   3.366  1.00  0.00     0.134 A 
ATOM     92  F   UNL     1       9.752  -2.007   0.825  1.00  0.00    -0.206 F 
ATOM     93  C   UNL     1      11.392  -2.671   2.353  1.00  0.00     0.040 A 
ATOM     94  C   UNL     1      12.264  -1.129   3.960  1.00  0.00     0.040 A 
ATOM     95  F   UNL     1      11.702   1.106   3.888  1.00  0.00    -0.206 F 
ATOM     96  C   UNL     1      12.222  -2.411   3.438  1.00  0.00     0.006 A 
ENDBRANCH  72  89
ENDBRANCH  46  47
ENDBRANCH  39  41
ENDBRANCH  38  39
ENDBRANCH  37  38
ENDBRANCH  36  37
ENDBRANCH  35  36
ENDBRANCH  34  35
ENDBRANCH   1  34
TORSDOF 20
