REMARK SMILES O=C(N[C@@H](CS)C(=O)N[C@@H](CO)C(=O)OCCOCCOC(=O)c1ccc(-c2c3nc(c(-c4c(F)cccc4F)c4ccc([nH]4)c(-c4c(F)cccc4F)c4nc(c(-c5c(F)cccc5F)c5ccc2[nH]5)C=C4)C=C3)cc1)c1ccc(F)cc1
REMARK SMILES IDX 17 1 16 2 15 3 13 4 14 5 10 6 9 7 7 8 8 9 4 11 3 12 1 13
REMARK SMILES IDX 2 14 78 16 79 17 84 18 80 19 83 20 81 21 82 22 5 23 6 24
REMARK SMILES IDX 11 26 12 27 18 29 19 30 20 31 21 32 22 33 23 34 24 35 25 36
REMARK SMILES IDX 77 37 26 38 76 39 27 40 28 41 29 42 70 43 30 44 75 45 69 46
REMARK SMILES IDX 71 47 31 48 74 49 68 50 67 51 32 53 58 54 41 55 57 56 42 57
REMARK SMILES IDX 45 58 56 59 72 60 43 61 44 62 55 64 73 65 46 66 33 67 34 68
REMARK SMILES IDX 39 69 35 70 36 71 38 72 40 73 37 74 59 75 60 76 65 77 61 78
REMARK SMILES IDX 62 79 64 80 66 81 63 82 47 83 48 84 53 85 49 86 50 87 52 88
REMARK SMILES IDX 54 89 51 90
REMARK H PARENT 9 10 3 15 6 25 12 28 71 52 45 63
REMARK Flexibility Score: inf
ROOT
ATOM      1  C   UNL     1       6.494   4.929  -5.537  1.00  0.00     0.202 C 
ENDROOT
BRANCH   1   2
ATOM      2  C   UNL     1       5.015   5.244  -5.301  1.00  0.00     0.261 C 
BRANCH   2   3
ATOM      3  O   UNL     1       4.615   4.846  -3.979  1.00  0.00    -0.462 OA
BRANCH   3   4
ATOM      4  C   UNL     1       3.346   4.358  -3.876  1.00  0.00     0.331 C 
ATOM      5  O   UNL     1       2.505   4.404  -4.766  1.00  0.00    -0.250 OA
BRANCH   4   6
ATOM      6  C   UNL     1       3.069   3.752  -2.490  1.00  0.00     0.218 C 
BRANCH   6   7
ATOM      7  N   UNL     1       4.268   3.614  -1.647  1.00  0.00    -0.339 N 
ATOM      8  C   UNL     1       4.886   2.553  -1.073  1.00  0.00     0.244 C 
ATOM      9  O   UNL     1       6.004   2.774  -0.590  1.00  0.00    -0.273 OA
ATOM     10  H   UNL     1       4.715   4.471  -1.462  1.00  0.00     0.164 HD
BRANCH   8  11
ATOM     11  C   UNL     1       4.356   1.103  -1.082  1.00  0.00     0.181 C 
BRANCH  11  12
ATOM     12  N   UNL     1       2.948   0.945  -0.714  1.00  0.00    -0.339 N 
ATOM     13  O   UNL     1       1.128  -0.072   0.111  1.00  0.00    -0.269 OA
ATOM     14  C   UNL     1       2.353  -0.013   0.070  1.00  0.00     0.251 C 
ATOM     15  H   UNL     1       2.338   1.624  -1.083  1.00  0.00     0.164 HD
BRANCH  14  16
ATOM     16  C   UNL     1       3.158  -1.001   0.823  1.00  0.00     0.040 A 
ATOM     17  C   UNL     1       4.180  -0.609   1.697  1.00  0.00     0.017 A 
ATOM     18  C   UNL     1       2.835  -2.358   0.688  1.00  0.00     0.017 A 
ATOM     19  C   UNL     1       4.935  -1.577   2.362  1.00  0.00     0.040 A 
ATOM     20  C   UNL     1       3.579  -3.322   1.371  1.00  0.00     0.040 A 
ATOM     21  C   UNL     1       4.632  -2.924   2.188  1.00  0.00     0.123 A 
ATOM     22  F   UNL     1       5.360  -3.850   2.825  1.00  0.00    -0.207 F 
ENDBRANCH  14  16
ENDBRANCH  11  12
BRANCH  11  23
ATOM     23  C   UNL     1       4.782   0.304  -2.326  1.00  0.00     0.101 C 
BRANCH  23  24
ATOM     24  S   UNL     1       3.758   0.514  -3.814  1.00  0.00    -0.177 SA
ATOM     25  H   UNL     1       2.502   0.055  -3.569  1.00  0.00     0.102 HD
ENDBRANCH  23  24
ENDBRANCH  11  23
ENDBRANCH   8  11
ENDBRANCH   6   7
BRANCH   6  26
ATOM     26  C   UNL     1       2.020   4.623  -1.795  1.00  0.00     0.193 C 
BRANCH  26  27
ATOM     27  O   UNL     1       2.581   5.866  -1.371  1.00  0.00    -0.394 OA
ATOM     28  H   UNL     1       3.298   5.698  -0.739  1.00  0.00     0.210 HD
ENDBRANCH  26  27
ENDBRANCH   6  26
ENDBRANCH   4   6
ENDBRANCH   3   4
ENDBRANCH   2   3
ENDBRANCH   1   2
BRANCH   1  29
ATOM     29  O   UNL     1       6.845   3.545  -5.550  1.00  0.00    -0.374 OA
BRANCH  29  30
ATOM     30  C   UNL     1       6.817   2.847  -4.306  1.00  0.00     0.202 C 
BRANCH  30  31
ATOM     31  C   UNL     1       7.990   3.100  -3.352  1.00  0.00     0.261 C 
BRANCH  31  32
ATOM     32  O   UNL     1       8.076   4.474  -2.938  1.00  0.00    -0.460 OA
BRANCH  32  33
ATOM     33  C   UNL     1       9.187   5.116  -3.361  1.00  0.00     0.338 C 
ATOM     34  O   UNL     1      10.140   4.638  -3.971  1.00  0.00    -0.246 OA
BRANCH  33  35
ATOM     35  C   UNL     1       9.056   6.564  -3.146  1.00  0.00     0.060 A 
ATOM     36  C   UNL     1       9.181   7.393  -4.268  1.00  0.00     0.016 A 
ATOM     37  C   UNL     1       8.926   7.107  -1.866  1.00  0.00     0.016 A 
ATOM     38  C   UNL     1       9.236   8.774  -4.109  1.00  0.00     0.010 A 
ATOM     39  C   UNL     1       8.994   8.495  -1.707  1.00  0.00     0.010 A 
ATOM     40  C   UNL     1       9.192   9.329  -2.824  1.00  0.00    -0.014 A 
BRANCH  40  41
ATOM     41  C   UNL     1       9.538  10.759  -2.648  1.00  0.00     0.031 A 
ATOM     42  C   UNL     1      10.945  11.121  -2.262  1.00  0.00     0.074 A 
ATOM     43  C   UNL     1       8.629  11.721  -2.883  1.00  0.00     0.049 A 
ATOM     44  N   UNL     1      11.474  12.301  -2.057  1.00  0.00    -0.248 NA
ATOM     45  C   UNL     1      11.885  10.002  -2.085  1.00  0.00     0.031 C 
ATOM     46  C   UNL     1       7.249  11.495  -3.305  1.00  0.00     0.029 A 
ATOM     47  N   UNL     1       8.739  13.086  -2.799  1.00  0.00    -0.354 N 
ATOM     48  C   UNL     1      12.802  12.066  -1.726  1.00  0.00     0.074 A 
ATOM     49  C   UNL     1      12.994  10.632  -1.727  1.00  0.00     0.031 C 
ATOM     50  C   UNL     1       6.635  12.684  -3.437  1.00  0.00     0.029 A 
ATOM     51  C   UNL     1       7.572  13.749  -3.085  1.00  0.00     0.049 A 
ATOM     52  H   UNL     1       9.575  13.546  -2.556  1.00  0.00     0.167 HD
ATOM     53  C   UNL     1      13.778  12.965  -1.456  1.00  0.00     0.037 A 
ATOM     54  C   UNL     1       7.292  15.066  -3.051  1.00  0.00     0.037 A 
ATOM     55  C   UNL     1      13.587  14.390  -1.457  1.00  0.00     0.049 A 
ATOM     56  C   UNL     1       8.376  16.042  -2.682  1.00  0.00     0.074 A 
ATOM     57  C   UNL     1      14.515  15.386  -1.206  1.00  0.00     0.029 A 
ATOM     58  N   UNL     1      12.381  15.022  -1.717  1.00  0.00    -0.354 N 
ATOM     59  N   UNL     1       9.634  15.812  -2.390  1.00  0.00    -0.248 NA
ATOM     60  C   UNL     1       8.003  17.464  -2.641  1.00  0.00     0.031 C 
ATOM     61  C   UNL     1      13.859  16.620  -1.273  1.00  0.00     0.029 A 
ATOM     62  C   UNL     1      12.534  16.394  -1.611  1.00  0.00     0.049 A 
ATOM     63  H   UNL     1      11.540  14.563  -1.944  1.00  0.00     0.167 HD
ATOM     64  C   UNL     1      10.207  17.056  -2.159  1.00  0.00     0.074 A 
ATOM     65  C   UNL     1       9.162  18.040  -2.354  1.00  0.00     0.031 C 
ATOM     66  C   UNL     1      11.483  17.358  -1.817  1.00  0.00     0.037 A 
BRANCH  53  67
ATOM     67  C   UNL     1      15.135  12.425  -1.115  1.00  0.00     0.057 A 
ATOM     68  C   UNL     1      15.969  11.851  -2.083  1.00  0.00     0.134 A 
ATOM     69  C   UNL     1      15.622  12.498   0.197  1.00  0.00     0.134 A 
ATOM     70  F   UNL     1      15.555  11.737  -3.354  1.00  0.00    -0.206 F 
ATOM     71  C   UNL     1      17.230  11.349  -1.756  1.00  0.00     0.040 A 
ATOM     72  C   UNL     1      16.890  12.021   0.532  1.00  0.00     0.040 A 
ATOM     73  F   UNL     1      14.875  13.037   1.171  1.00  0.00    -0.206 F 
ATOM     74  C   UNL     1      17.695  11.438  -0.445  1.00  0.00     0.006 A 
ENDBRANCH  53  67
BRANCH  54  75
ATOM     75  C   UNL     1       5.922  15.542  -3.367  1.00  0.00     0.057 A 
ATOM     76  C   UNL     1       5.655  16.264  -4.535  1.00  0.00     0.134 A 
ATOM     77  C   UNL     1       4.851  15.301  -2.498  1.00  0.00     0.134 A 
ATOM     78  F   UNL     1       6.645  16.547  -5.395  1.00  0.00    -0.206 F 
ATOM     79  C   UNL     1       4.376  16.744  -4.822  1.00  0.00     0.040 A 
ATOM     80  C   UNL     1       3.562  15.754  -2.783  1.00  0.00     0.040 A 
ATOM     81  F   UNL     1       5.042  14.615  -1.362  1.00  0.00    -0.206 F 
ATOM     82  C   UNL     1       3.324  16.484  -3.946  1.00  0.00     0.006 A 
ENDBRANCH  54  75
BRANCH  66  83
ATOM     83  C   UNL     1      11.830  18.810  -1.668  1.00  0.00     0.057 A 
ATOM     84  C   UNL     1      11.405  19.562  -0.567  1.00  0.00     0.134 A 
ATOM     85  C   UNL     1      12.636  19.451  -2.619  1.00  0.00     0.134 A 
ATOM     86  F   UNL     1      10.622  19.011   0.372  1.00  0.00    -0.206 F 
ATOM     87  C   UNL     1      11.753  20.907  -0.425  1.00  0.00     0.040 A 
ATOM     88  C   UNL     1      13.010  20.787  -2.476  1.00  0.00     0.040 A 
ATOM     89  F   UNL     1      13.084  18.783  -3.693  1.00  0.00    -0.206 F 
ATOM     90  C   UNL     1      12.563  21.521  -1.379  1.00  0.00     0.006 A 
ENDBRANCH  66  83
ENDBRANCH  40  41
ENDBRANCH  33  35
ENDBRANCH  32  33
ENDBRANCH  31  32
ENDBRANCH  30  31
ENDBRANCH  29  30
ENDBRANCH   1  29
TORSDOF 22
