REMARK SMILES CC[C@@H]([NH3+])C(=O)NCCOCC(=O)OCCOCCOC(=O)c1ccc(-c2c3nc(c(-c4c(F)cccc4F)c4ccc([nH]4)c(-c4c(F)cccc4F)c4nc(c(-c5c(F)cccc5F)c5ccc2[nH]5)C=C4)C=C3)cc1
REMARK SMILES IDX 15 1 14 2 12 3 13 4 11 5 10 6 9 7 8 8 7 9 5 10 6 11 3 13
REMARK SMILES IDX 2 14 1 15 4 16 16 20 17 21 18 22 19 23 20 24 21 25 22 26
REMARK SMILES IDX 23 27 24 28 76 29 25 30 75 31 26 32 27 33 28 34 69 35 29 36
REMARK SMILES IDX 74 37 68 38 70 39 30 40 73 41 67 42 66 43 31 45 57 46 40 47
REMARK SMILES IDX 56 48 41 49 44 50 55 51 71 52 42 53 43 54 54 56 72 57 45 58
REMARK SMILES IDX 32 59 33 60 38 61 34 62 35 63 37 64 39 65 36 66 58 67 59 68
REMARK SMILES IDX 64 69 60 70 61 71 63 72 65 73 62 74 46 75 47 76 52 77 48 78
REMARK SMILES IDX 49 79 51 80 53 81 50 82
REMARK H PARENT 7 12 4 17 4 18 4 19 70 44 44 55
REMARK Flexibility Score: inf
ROOT
ATOM      1  C   UNL     1      -1.446   6.697   0.750  1.00  0.00     0.261 C 
ENDROOT
BRANCH   1   2
ATOM      2  O   UNL     1      -2.387   6.075  -0.163  1.00  0.00    -0.462 OA
BRANCH   2   3
ATOM      3  C   UNL     1      -1.949   5.890  -1.440  1.00  0.00     0.332 C 
ATOM      4  O   UNL     1      -0.830   6.181  -1.847  1.00  0.00    -0.250 OA
BRANCH   3   5
ATOM      5  C   UNL     1      -3.025   5.301  -2.370  1.00  0.00     0.282 C 
BRANCH   5   6
ATOM      6  O   UNL     1      -3.783   4.135  -2.151  1.00  0.00    -0.368 OA
BRANCH   6   7
ATOM      7  C   UNL     1      -3.135   2.936  -1.740  1.00  0.00     0.182 C 
BRANCH   7   8
ATOM      8  C   UNL     1      -2.063   2.306  -2.656  1.00  0.00     0.144 C 
BRANCH   8   9
ATOM      9  N   UNL     1      -0.787   3.011  -2.702  1.00  0.00    -0.349 N 
ATOM     10  C   UNL     1       0.493   2.538  -2.758  1.00  0.00     0.278 C 
ATOM     11  O   UNL     1       1.367   3.346  -3.092  1.00  0.00    -0.268 OA
ATOM     12  H   UNL     1      -0.861   3.992  -2.690  1.00  0.00     0.163 HD
BRANCH  10  13
ATOM     13  C   UNL     1       0.898   1.086  -2.400  1.00  0.00     0.270 C 
BRANCH  13  14
ATOM     14  C   UNL     1       0.683   0.776  -0.919  1.00  0.00     0.072 C 
ATOM     15  C   UNL     1       1.288  -0.530  -0.427  1.00  0.00     0.011 C 
ENDBRANCH  13  14
BRANCH  13  16
ATOM     16  N   UNL     1       0.232   0.117  -3.287  1.00  0.00    -0.347 N 
ATOM     17  H   UNL     1      -0.778   0.176  -3.157  1.00  0.00     0.345 HD
ATOM     18  H   UNL     1       0.550  -0.825  -3.061  1.00  0.00     0.345 HD
ATOM     19  H   UNL     1       0.462   0.330  -4.257  1.00  0.00     0.345 HD
ENDBRANCH  13  16
ENDBRANCH  10  13
ENDBRANCH   8   9
ENDBRANCH   7   8
ENDBRANCH   6   7
ENDBRANCH   5   6
ENDBRANCH   3   5
ENDBRANCH   2   3
ENDBRANCH   1   2
BRANCH   1  20
ATOM     20  C   UNL     1      -0.996   5.753   1.875  1.00  0.00     0.202 C 
BRANCH  20  21
ATOM     21  O   UNL     1      -0.031   4.766   1.507  1.00  0.00    -0.374 OA
BRANCH  21  22
ATOM     22  C   UNL     1      -0.532   3.709   0.701  1.00  0.00     0.202 C 
BRANCH  22  23
ATOM     23  C   UNL     1      -1.012   2.478   1.469  1.00  0.00     0.261 C 
BRANCH  23  24
ATOM     24  O   UNL     1      -2.076   2.829   2.358  1.00  0.00    -0.460 OA
BRANCH  24  25
ATOM     25  C   UNL     1      -1.726   2.794   3.661  1.00  0.00     0.338 C 
ATOM     26  O   UNL     1      -0.715   2.331   4.155  1.00  0.00    -0.246 OA
BRANCH  25  27
ATOM     27  C   UNL     1      -2.696   3.594   4.417  1.00  0.00     0.060 A 
ATOM     28  C   UNL     1      -2.168   4.574   5.260  1.00  0.00     0.016 A 
ATOM     29  C   UNL     1      -4.074   3.374   4.327  1.00  0.00     0.016 A 
ATOM     30  C   UNL     1      -3.017   5.290   6.088  1.00  0.00     0.010 A 
ATOM     31  C   UNL     1      -4.928   4.098   5.160  1.00  0.00     0.010 A 
ATOM     32  C   UNL     1      -4.392   5.018   6.077  1.00  0.00    -0.014 A 
BRANCH  32  33
ATOM     33  C   UNL     1      -5.219   5.587   7.160  1.00  0.00     0.031 A 
ATOM     34  C   UNL     1      -5.550   4.721   8.342  1.00  0.00     0.074 A 
ATOM     35  C   UNL     1      -5.571   6.883   7.128  1.00  0.00     0.049 A 
ATOM     36  N   UNL     1      -6.172   5.033   9.449  1.00  0.00    -0.248 NA
ATOM     37  C   UNL     1      -5.116   3.316   8.271  1.00  0.00     0.031 C 
ATOM     38  C   UNL     1      -5.263   7.813   6.042  1.00  0.00     0.029 A 
ATOM     39  N   UNL     1      -6.243   7.643   8.046  1.00  0.00    -0.354 N 
ATOM     40  C   UNL     1      -6.205   3.867  10.203  1.00  0.00     0.074 A 
ATOM     41  C   UNL     1      -5.575   2.831   9.415  1.00  0.00     0.031 C 
ATOM     42  C   UNL     1      -5.734   9.029   6.366  1.00  0.00     0.029 A 
ATOM     43  C   UNL     1      -6.394   8.953   7.667  1.00  0.00     0.049 A 
ATOM     44  H   UNL     1      -6.586   7.284   8.897  1.00  0.00     0.167 HD
ATOM     45  C   UNL     1      -6.705   3.683  11.446  1.00  0.00     0.037 A 
ATOM     46  C   UNL     1      -7.000   9.971   8.304  1.00  0.00     0.037 A 
ATOM     47  C   UNL     1      -7.324   4.724  12.222  1.00  0.00     0.049 A 
ATOM     48  C   UNL     1      -7.596   9.725   9.663  1.00  0.00     0.074 A 
ATOM     49  C   UNL     1      -7.846   4.655  13.501  1.00  0.00     0.029 A 
ATOM     50  N   UNL     1      -7.510   6.027  11.783  1.00  0.00    -0.354 N 
ATOM     51  N   UNL     1      -7.596   8.627  10.382  1.00  0.00    -0.248 NA
ATOM     52  C   UNL     1      -8.271  10.862  10.303  1.00  0.00     0.031 C 
ATOM     53  C   UNL     1      -8.396   5.903  13.815  1.00  0.00     0.029 A 
ATOM     54  C   UNL     1      -8.166   6.765  12.754  1.00  0.00     0.049 A 
ATOM     55  H   UNL     1      -7.218   6.376  10.910  1.00  0.00     0.167 HD
ATOM     56  C   UNL     1      -8.245   8.947  11.567  1.00  0.00     0.074 A 
ATOM     57  C   UNL     1      -8.607  10.347  11.476  1.00  0.00     0.031 C 
ATOM     58  C   UNL     1      -8.519   8.157  12.636  1.00  0.00     0.037 A 
BRANCH  45  59
ATOM     59  C   UNL     1      -6.632   2.299  12.024  1.00  0.00     0.057 A 
ATOM     60  C   UNL     1      -5.421   1.724  12.431  1.00  0.00     0.134 A 
ATOM     61  C   UNL     1      -7.795   1.537  12.191  1.00  0.00     0.134 A 
ATOM     62  F   UNL     1      -4.266   2.391  12.281  1.00  0.00    -0.206 F 
ATOM     63  C   UNL     1      -5.367   0.433  12.961  1.00  0.00     0.040 A 
ATOM     64  C   UNL     1      -7.758   0.257  12.744  1.00  0.00     0.040 A 
ATOM     65  F   UNL     1      -8.989   2.027  11.822  1.00  0.00    -0.206 F 
ATOM     66  C   UNL     1      -6.540  -0.302  13.125  1.00  0.00     0.006 A 
ENDBRANCH  45  59
BRANCH  46  67
ATOM     67  C   UNL     1      -7.070  11.310   7.668  1.00  0.00     0.057 A 
ATOM     68  C   UNL     1      -6.368  12.402   8.191  1.00  0.00     0.134 A 
ATOM     69  C   UNL     1      -7.851  11.532   6.527  1.00  0.00     0.134 A 
ATOM     70  F   UNL     1      -5.618  12.257   9.294  1.00  0.00    -0.206 F 
ATOM     71  C   UNL     1      -6.454  13.670   7.614  1.00  0.00     0.040 A 
ATOM     72  C   UNL     1      -7.925  12.788   5.924  1.00  0.00     0.040 A 
ATOM     73  F   UNL     1      -8.544  10.526   5.974  1.00  0.00    -0.206 F 
ATOM     74  C   UNL     1      -7.231  13.864   6.473  1.00  0.00     0.006 A 
ENDBRANCH  46  67
BRANCH  58  75
ATOM     75  C   UNL     1      -9.220   8.804  13.795  1.00  0.00     0.057 A 
ATOM     76  C   UNL     1     -10.564   9.192  13.725  1.00  0.00     0.134 A 
ATOM     77  C   UNL     1      -8.544   9.027  15.002  1.00  0.00     0.134 A 
ATOM     78  F   UNL     1     -11.264   9.018  12.594  1.00  0.00    -0.206 F 
ATOM     79  C   UNL     1     -11.201   9.811  14.802  1.00  0.00     0.040 A 
ATOM     80  C   UNL     1      -9.179   9.616  16.095  1.00  0.00     0.040 A 
ATOM     81  F   UNL     1      -7.259   8.667  15.140  1.00  0.00    -0.206 F 
ATOM     82  C   UNL     1     -10.508  10.020  15.993  1.00  0.00     0.006 A 
ENDBRANCH  58  75
ENDBRANCH  32  33
ENDBRANCH  25  27
ENDBRANCH  24  25
ENDBRANCH  23  24
ENDBRANCH  22  23
ENDBRANCH  21  22
ENDBRANCH  20  21
ENDBRANCH   1  20
TORSDOF 21
