REMARK SMILES Cc1ccccc1NC(=O)NC[C@@H]1CC[C@@H](C(=O)OCCOCCOC(=O)c2ccc(-c3c4nc(c(-c5c(F)cccc5F)c5ccc([nH]5)c(-c5c(F)cccc5F)c5nc(c(-c6c(F)cccc6F)c6ccc3[nH]6)C=C5)C=C4)cc2)O1
REMARK SMILES IDX 21 1 20 2 19 3 17 4 18 5 16 6 13 7 14 8 82 9 15 10 12 11
REMARK SMILES IDX 11 12 8 13 9 14 10 16 7 18 1 19 2 20 3 21 4 22 6 23 5 24
REMARK SMILES IDX 22 25 23 26 24 27 25 28 26 29 27 30 28 31 29 32 81 33 30 34
REMARK SMILES IDX 80 35 31 36 32 37 33 38 74 39 34 40 79 41 73 42 75 43 35 44
REMARK SMILES IDX 78 45 72 46 71 47 36 49 62 50 45 51 61 52 46 53 49 54 60 55
REMARK SMILES IDX 76 56 47 57 48 58 59 60 77 61 50 62 37 63 38 64 43 65 39 66
REMARK SMILES IDX 40 67 42 68 44 69 41 70 63 71 64 72 69 73 65 74 66 75 68 76
REMARK SMILES IDX 70 77 67 78 51 79 52 80 57 81 53 82 54 83 56 84 58 85 55 86
REMARK H PARENT 8 15 11 17 75 48 49 59
REMARK Flexibility Score: inf
ROOT
ATOM      1  C   UNL     1      -4.848   2.577   4.578  1.00  0.00     0.202 C 
ENDROOT
BRANCH   1   2
ATOM      2  C   UNL     1      -6.285   2.642   4.135  1.00  0.00     0.261 C 
BRANCH   2   3
ATOM      3  O   UNL     1      -6.447   2.542   2.709  1.00  0.00    -0.461 OA
BRANCH   3   4
ATOM      4  C   UNL     1      -5.921   3.527   1.911  1.00  0.00     0.335 C 
ATOM      5  O   UNL     1      -5.860   4.721   2.187  1.00  0.00    -0.249 OA
BRANCH   4   6
ATOM      6  C   UNL     1      -5.371   2.898   0.636  1.00  0.00     0.228 C 
ATOM      7  C   UNL     1      -3.067   2.644   0.355  1.00  0.00     0.138 C 
ATOM      8  C   UNL     1      -3.693   1.269   0.240  1.00  0.00     0.037 C 
ATOM      9  O   UNL     1      -4.169   3.549   0.174  1.00  0.00    -0.361 OA
ATOM     10  C   UNL     1      -5.017   1.442   0.895  1.00  0.00     0.047 C 
BRANCH   7  11
ATOM     11  C   UNL     1      -1.954   2.897  -0.680  1.00  0.00     0.149 C 
BRANCH  11  12
ATOM     12  N   UNL     1      -0.810   3.585  -0.086  1.00  0.00    -0.335 N 
ATOM     13  N   UNL     1       1.061   2.088   0.134  1.00  0.00    -0.308 N 
ATOM     14  C   UNL     1       0.468   3.294   0.176  1.00  0.00     0.319 C 
ATOM     15  H   UNL     1       2.041   2.177   0.112  1.00  0.00     0.171 HD
ATOM     16  O   UNL     1       1.201   4.257   0.434  1.00  0.00    -0.249 OA
ATOM     17  H   UNL     1      -1.040   4.500   0.194  1.00  0.00     0.165 HD
BRANCH  13  18
ATOM     18  C   UNL     1       0.677   0.735   0.113  1.00  0.00     0.045 A 
ATOM     19  C   UNL     1       3.083  -0.091  -0.274  1.00  0.00     0.046 C 
ATOM     20  C   UNL     1       1.594  -0.284  -0.206  1.00  0.00    -0.027 A 
ATOM     21  C   UNL     1       1.134  -1.612  -0.368  1.00  0.00     0.005 A 
ATOM     22  C   UNL     1      -0.200  -1.943  -0.176  1.00  0.00     0.000 A 
ATOM     23  C   UNL     1      -0.594   0.337   0.484  1.00  0.00     0.026 A 
ATOM     24  C   UNL     1      -1.057  -0.970   0.296  1.00  0.00     0.002 A 
ENDBRANCH  13  18
ENDBRANCH  11  12
ENDBRANCH   7  11
ENDBRANCH   4   6
ENDBRANCH   3   4
ENDBRANCH   2   3
ENDBRANCH   1   2
BRANCH   1  25
ATOM     25  O   UNL     1      -4.257   3.809   4.208  1.00  0.00    -0.374 OA
BRANCH  25  26
ATOM     26  C   UNL     1      -2.907   4.004   4.580  1.00  0.00     0.202 C 
BRANCH  26  27
ATOM     27  C   UNL     1      -2.666   3.884   6.092  1.00  0.00     0.261 C 
BRANCH  27  28
ATOM     28  O   UNL     1      -3.400   4.911   6.794  1.00  0.00    -0.460 OA
BRANCH  28  29
ATOM     29  C   UNL     1      -4.565   4.530   7.392  1.00  0.00     0.338 C 
ATOM     30  O   UNL     1      -4.707   3.558   8.113  1.00  0.00    -0.246 OA
BRANCH  29  31
ATOM     31  C   UNL     1      -5.704   5.291   6.797  1.00  0.00     0.060 A 
ATOM     32  C   UNL     1      -7.035   4.908   7.066  1.00  0.00     0.016 A 
ATOM     33  C   UNL     1      -5.432   6.123   5.718  1.00  0.00     0.016 A 
ATOM     34  C   UNL     1      -8.059   5.212   6.151  1.00  0.00     0.010 A 
ATOM     35  C   UNL     1      -6.411   6.307   4.770  1.00  0.00     0.010 A 
ATOM     36  C   UNL     1      -7.722   5.827   4.950  1.00  0.00    -0.014 A 
BRANCH  36  37
ATOM     37  C   UNL     1      -8.557   5.957   3.747  1.00  0.00     0.031 A 
ATOM     38  C   UNL     1      -8.708   7.320   3.182  1.00  0.00     0.074 A 
ATOM     39  C   UNL     1      -8.826   4.881   2.961  1.00  0.00     0.049 A 
ATOM     40  N   UNL     1      -9.321   7.577   2.085  1.00  0.00    -0.248 NA
ATOM     41  C   UNL     1      -8.188   8.531   3.817  1.00  0.00     0.031 C 
ATOM     42  C   UNL     1      -8.984   4.846   1.501  1.00  0.00     0.029 A 
ATOM     43  N   UNL     1      -9.002   3.538   3.309  1.00  0.00    -0.354 N 
ATOM     44  C   UNL     1      -8.977   8.845   1.689  1.00  0.00     0.074 A 
ATOM     45  C   UNL     1      -8.380   9.439   2.855  1.00  0.00     0.031 C 
ATOM     46  C   UNL     1      -9.500   3.664   1.121  1.00  0.00     0.029 A 
ATOM     47  C   UNL     1      -9.822   2.941   2.334  1.00  0.00     0.049 A 
ATOM     48  H   UNL     1      -8.620   3.090   4.098  1.00  0.00     0.167 HD
ATOM     49  C   UNL     1      -9.156   9.159   0.375  1.00  0.00     0.037 A 
ATOM     50  C   UNL     1     -11.015   2.393   2.683  1.00  0.00     0.037 A 
ATOM     51  C   UNL     1      -9.933   8.097  -0.290  1.00  0.00     0.049 A 
ATOM     52  C   UNL     1     -12.096   3.199   2.021  1.00  0.00     0.074 A 
ATOM     53  C   UNL     1      -9.638   7.120  -1.225  1.00  0.00     0.029 A 
ATOM     54  N   UNL     1     -11.173   7.747   0.253  1.00  0.00    -0.354 N 
ATOM     55  N   UNL     1     -11.918   4.442   1.654  1.00  0.00    -0.248 NA
ATOM     56  C   UNL     1     -13.368   2.656   1.566  1.00  0.00     0.031 C 
ATOM     57  C   UNL     1     -10.680   6.142  -1.178  1.00  0.00     0.029 A 
ATOM     58  C   UNL     1     -11.625   6.539  -0.240  1.00  0.00     0.049 A 
ATOM     59  H   UNL     1     -11.665   8.295   0.906  1.00  0.00     0.167 HD
ATOM     60  C   UNL     1     -12.934   4.823   0.833  1.00  0.00     0.074 A 
ATOM     61  C   UNL     1     -13.847   3.691   0.850  1.00  0.00     0.031 C 
ATOM     62  C   UNL     1     -12.931   6.010   0.159  1.00  0.00     0.037 A 
BRANCH  49  63
ATOM     63  C   UNL     1      -8.535  10.334  -0.361  1.00  0.00     0.057 A 
ATOM     64  C   UNL     1      -8.792  10.524  -1.735  1.00  0.00     0.134 A 
ATOM     65  C   UNL     1      -7.626  11.271   0.176  1.00  0.00     0.134 A 
ATOM     66  F   UNL     1      -9.621   9.715  -2.411  1.00  0.00    -0.206 F 
ATOM     67  C   UNL     1      -8.203  11.546  -2.497  1.00  0.00     0.040 A 
ATOM     68  C   UNL     1      -7.059  12.319  -0.566  1.00  0.00     0.040 A 
ATOM     69  F   UNL     1      -7.192  11.217   1.436  1.00  0.00    -0.206 F 
ATOM     70  C   UNL     1      -7.340  12.457  -1.912  1.00  0.00     0.006 A 
ENDBRANCH  49  63
BRANCH  50  71
ATOM     71  C   UNL     1     -10.927   1.777   4.043  1.00  0.00     0.057 A 
ATOM     72  C   UNL     1     -10.099   0.634   4.149  1.00  0.00     0.134 A 
ATOM     73  C   UNL     1     -11.075   2.546   5.204  1.00  0.00     0.134 A 
ATOM     74  F   UNL     1      -9.896  -0.148   3.075  1.00  0.00    -0.206 F 
ATOM     75  C   UNL     1      -9.319   0.377   5.283  1.00  0.00     0.040 A 
ATOM     76  C   UNL     1     -10.301   2.289   6.350  1.00  0.00     0.040 A 
ATOM     77  F   UNL     1     -11.825   3.656   5.193  1.00  0.00    -0.206 F 
ATOM     78  C   UNL     1      -9.382   1.239   6.371  1.00  0.00     0.006 A 
ENDBRANCH  50  71
BRANCH  62  79
ATOM     79  C   UNL     1     -14.185   6.752  -0.234  1.00  0.00     0.057 A 
ATOM     80  C   UNL     1     -15.457   6.471   0.291  1.00  0.00     0.134 A 
ATOM     81  C   UNL     1     -14.116   7.926  -1.018  1.00  0.00     0.134 A 
ATOM     82  F   UNL     1     -15.668   5.471   1.156  1.00  0.00    -0.206 F 
ATOM     83  C   UNL     1     -16.581   7.250   0.002  1.00  0.00     0.040 A 
ATOM     84  C   UNL     1     -15.217   8.752  -1.249  1.00  0.00     0.040 A 
ATOM     85  F   UNL     1     -12.971   8.356  -1.565  1.00  0.00    -0.206 F 
ATOM     86  C   UNL     1     -16.462   8.405  -0.756  1.00  0.00     0.006 A 
ENDBRANCH  62  79
ENDBRANCH  36  37
ENDBRANCH  29  31
ENDBRANCH  28  29
ENDBRANCH  27  28
ENDBRANCH  26  27
ENDBRANCH  25  26
ENDBRANCH   1  25
TORSDOF 17
