REMARK SMILES O=C(OCCOCCOC(=O)[C@@H]1CC[C@@H](CNC(=O)c2ccc(O)nn2)O1)c1ccc(-c2c3nc(c(-c4c(F)cccc4F)c4ccc([nH]4)c(-c4c(F)cccc4F)c4nc(c(-c5c(F)cccc5F)c5ccc2[nH]5)C=C4)C=C3)cc1
REMARK SMILES IDX 7 1 6 2 5 3 4 4 3 5 2 6 1 7 28 8 29 9 81 10 30 11 80 12
REMARK SMILES IDX 31 13 32 14 33 15 74 16 34 17 79 18 73 19 75 20 35 21 78 22
REMARK SMILES IDX 72 23 71 24 36 26 62 27 45 28 61 29 46 30 49 31 60 32 76 33
REMARK SMILES IDX 47 34 48 35 59 37 77 38 50 39 37 40 38 41 43 42 39 43 40 44
REMARK SMILES IDX 42 45 44 46 41 47 63 48 64 49 69 50 65 51 66 52 68 53 70 54
REMARK SMILES IDX 67 55 51 56 52 57 57 58 53 59 54 60 56 61 58 62 55 63 8 64
REMARK SMILES IDX 9 65 10 66 11 67 12 68 13 69 27 70 14 71 15 72 16 73 17 74
REMARK SMILES IDX 18 75 19 77 20 78 21 79 26 80 22 81 25 82 23 83 24 84
REMARK H PARENT 75 25 49 36 17 76 24 85
REMARK Flexibility Score: inf
ROOT
ATOM      1  C   UNL     1       2.636  -0.199   2.023  1.00  0.00     0.202 C 
ENDROOT
BRANCH   1   2
ATOM      2  O   UNL     1       3.970  -0.187   1.510  1.00  0.00    -0.374 OA
BRANCH   2   3
ATOM      3  C   UNL     1       4.416   1.069   1.008  1.00  0.00     0.202 C 
BRANCH   3   4
ATOM      4  C   UNL     1       4.311   1.265  -0.507  1.00  0.00     0.261 C 
BRANCH   4   5
ATOM      5  O   UNL     1       2.972   1.053  -0.975  1.00  0.00    -0.460 OA
BRANCH   5   6
ATOM      6  C   UNL     1       2.413  -0.083  -1.452  1.00  0.00     0.338 C 
ATOM      7  O   UNL     1       1.294   0.003  -1.959  1.00  0.00    -0.246 OA
BRANCH   6   8
ATOM      8  C   UNL     1       3.038  -1.445  -1.368  1.00  0.00     0.060 A 
ATOM      9  C   UNL     1       4.272  -1.753  -0.792  1.00  0.00     0.016 A 
ATOM     10  C   UNL     1       2.288  -2.516  -1.895  1.00  0.00     0.016 A 
ATOM     11  C   UNL     1       4.740  -3.053  -0.706  1.00  0.00     0.010 A 
ATOM     12  C   UNL     1       2.771  -3.829  -1.862  1.00  0.00     0.010 A 
ATOM     13  C   UNL     1       4.011  -4.085  -1.279  1.00  0.00    -0.014 A 
BRANCH  13  14
ATOM     14  C   UNL     1       4.705  -5.370  -1.409  1.00  0.00     0.031 A 
ATOM     15  C   UNL     1       5.679  -5.511  -2.538  1.00  0.00     0.074 A 
ATOM     16  C   UNL     1       4.598  -6.285  -0.435  1.00  0.00     0.049 A 
ATOM     17  N   UNL     1       6.504  -6.486  -2.802  1.00  0.00    -0.248 NA
ATOM     18  C   UNL     1       5.773  -4.371  -3.471  1.00  0.00     0.031 C 
ATOM     19  C   UNL     1       3.782  -6.147   0.773  1.00  0.00     0.029 A 
ATOM     20  N   UNL     1       5.201  -7.503  -0.299  1.00  0.00    -0.354 N 
ATOM     21  C   UNL     1       7.234  -6.064  -3.904  1.00  0.00     0.074 A 
ATOM     22  C   UNL     1       6.755  -4.752  -4.271  1.00  0.00     0.031 C 
ATOM     23  C   UNL     1       3.918  -7.258   1.517  1.00  0.00     0.029 A 
ATOM     24  C   UNL     1       4.804  -8.187   0.822  1.00  0.00     0.049 A 
ATOM     25  H   UNL     1       5.857  -7.856  -0.943  1.00  0.00     0.167 HD
ATOM     26  C   UNL     1       8.213  -6.729  -4.557  1.00  0.00     0.037 A 
ATOM     27  C   UNL     1       5.108  -9.439   1.205  1.00  0.00     0.037 A 
ATOM     28  C   UNL     1       8.612  -8.066  -4.221  1.00  0.00     0.049 A 
ATOM     29  C   UNL     1       6.055 -10.231   0.342  1.00  0.00     0.074 A 
ATOM     30  C   UNL     1       9.518  -8.887  -4.862  1.00  0.00     0.029 A 
ATOM     31  N   UNL     1       8.095  -8.786  -3.152  1.00  0.00    -0.354 N 
ATOM     32  N   UNL     1       6.725  -9.847  -0.720  1.00  0.00    -0.248 NA
ATOM     33  C   UNL     1       6.279 -11.631   0.721  1.00  0.00     0.031 C 
ATOM     34  C   UNL     1       9.506 -10.128  -4.214  1.00  0.00     0.029 A 
ATOM     35  C   UNL     1       8.633 -10.059  -3.138  1.00  0.00     0.049 A 
ATOM     36  H   UNL     1       7.442  -8.441  -2.501  1.00  0.00     0.167 HD
ATOM     37  C   UNL     1       7.467 -10.949  -1.123  1.00  0.00     0.074 A 
ATOM     38  C   UNL     1       7.176 -12.010  -0.178  1.00  0.00     0.031 C 
ATOM     39  C   UNL     1       8.310 -11.082  -2.176  1.00  0.00     0.037 A 
BRANCH  26  40
ATOM     40  C   UNL     1       8.833  -6.043  -5.734  1.00  0.00     0.057 A 
ATOM     41  C   UNL     1       8.489  -6.421  -7.037  1.00  0.00     0.134 A 
ATOM     42  C   UNL     1       9.749  -4.994  -5.583  1.00  0.00     0.134 A 
ATOM     43  F   UNL     1       7.603  -7.406  -7.247  1.00  0.00    -0.206 F 
ATOM     44  C   UNL     1       9.039  -5.785  -8.150  1.00  0.00     0.040 A 
ATOM     45  C   UNL     1      10.294  -4.338  -6.689  1.00  0.00     0.040 A 
ATOM     46  F   UNL     1      10.092  -4.560  -4.361  1.00  0.00    -0.206 F 
ATOM     47  C   UNL     1       9.942  -4.738  -7.978  1.00  0.00     0.006 A 
ENDBRANCH  26  40
BRANCH  27  48
ATOM     48  C   UNL     1       4.465 -10.046   2.398  1.00  0.00     0.057 A 
ATOM     49  C   UNL     1       3.088 -10.304   2.421  1.00  0.00     0.134 A 
ATOM     50  C   UNL     1       5.210 -10.444   3.513  1.00  0.00     0.134 A 
ATOM     51  F   UNL     1       2.314  -9.953   1.383  1.00  0.00    -0.206 F 
ATOM     52  C   UNL     1       2.477 -10.936   3.505  1.00  0.00     0.040 A 
ATOM     53  C   UNL     1       4.617 -11.101   4.594  1.00  0.00     0.040 A 
ATOM     54  F   UNL     1       6.537 -10.247   3.544  1.00  0.00    -0.206 F 
ATOM     55  C   UNL     1       3.245 -11.348   4.591  1.00  0.00     0.006 A 
ENDBRANCH  27  48
BRANCH  39  56
ATOM     56  C   UNL     1       8.984 -12.410  -2.333  1.00  0.00     0.057 A 
ATOM     57  C   UNL     1      10.351 -12.549  -2.064  1.00  0.00     0.134 A 
ATOM     58  C   UNL     1       8.287 -13.541  -2.777  1.00  0.00     0.134 A 
ATOM     59  F   UNL     1      11.074 -11.499  -1.646  1.00  0.00    -0.206 F 
ATOM     60  C   UNL     1      11.004 -13.769  -2.234  1.00  0.00     0.040 A 
ATOM     61  C   UNL     1       8.924 -14.773  -2.923  1.00  0.00     0.040 A 
ATOM     62  F   UNL     1       6.973 -13.472  -3.037  1.00  0.00    -0.206 F 
ATOM     63  C   UNL     1      10.287 -14.887  -2.657  1.00  0.00     0.006 A 
ENDBRANCH  39  56
ENDBRANCH  13  14
ENDBRANCH   6   8
ENDBRANCH   5   6
ENDBRANCH   4   5
ENDBRANCH   3   4
ENDBRANCH   2   3
ENDBRANCH   1   2
BRANCH   1  64
ATOM     64  C   UNL     1       2.583   0.139   3.517  1.00  0.00     0.261 C 
BRANCH  64  65
ATOM     65  O   UNL     1       3.057   1.482   3.744  1.00  0.00    -0.461 OA
BRANCH  65  66
ATOM     66  C   UNL     1       4.338   1.581   4.202  1.00  0.00     0.335 C 
ATOM     67  O   UNL     1       4.988   0.642   4.646  1.00  0.00    -0.249 OA
BRANCH  66  68
ATOM     68  C   UNL     1       4.914   2.997   4.042  1.00  0.00     0.228 C 
ATOM     69  C   UNL     1       4.065   4.063   3.355  1.00  0.00     0.047 C 
ATOM     70  O   UNL     1       6.140   2.919   3.282  1.00  0.00    -0.361 OA
ATOM     71  C   UNL     1       5.104   4.913   2.641  1.00  0.00     0.037 C 
ATOM     72  C   UNL     1       6.082   3.854   2.186  1.00  0.00     0.138 C 
BRANCH  72  73
ATOM     73  C   UNL     1       7.500   4.301   1.819  1.00  0.00     0.148 C 
BRANCH  73  74
ATOM     74  N   UNL     1       8.336   3.108   1.676  1.00  0.00    -0.348 N 
ATOM     75  C   UNL     1       8.958   2.551   0.589  1.00  0.00     0.271 C 
ATOM     76  H   UNL     1       8.478   2.614   2.515  1.00  0.00     0.163 HD
ATOM     77  O   UNL     1       9.344   1.384   0.657  1.00  0.00    -0.267 OA
BRANCH  75  78
ATOM     78  C   UNL     1       9.155   3.297  -0.677  1.00  0.00     0.151 A 
ATOM     79  C   UNL     1       9.208   2.597  -1.877  1.00  0.00     0.042 A 
ATOM     80  N   UNL     1       9.356   4.635  -0.611  1.00  0.00    -0.142 NA
ATOM     81  C   UNL     1       9.467   3.305  -3.043  1.00  0.00     0.072 A 
ATOM     82  N   UNL     1       9.621   5.328  -1.758  1.00  0.00    -0.112 NA
ATOM     83  C   UNL     1       9.675   4.660  -2.926  1.00  0.00     0.230 A 
BRANCH  83  84
ATOM     84  O   UNL     1       9.967   5.406  -4.022  1.00  0.00    -0.492 OA
ATOM     85  H   UNL     1      10.019   5.000  -4.865  1.00  0.00     0.295 HD
ENDBRANCH  83  84
ENDBRANCH  75  78
ENDBRANCH  73  74
ENDBRANCH  72  73
ENDBRANCH  66  68
ENDBRANCH  65  66
ENDBRANCH  64  65
ENDBRANCH   1  64
TORSDOF 18
