REMARK SMILES Cc1ccc2cc(C[N@H+]3CC[NH2+][C@H](C(=O)OCCOCCOC(=O)c4ccc(-c5c6nc(c(-c7c(F)cccc7F)c7ccc([nH]7)c(-c7c(F)cccc7F)c7nc(c(-c8c(F)cccc8F)c8ccc5[nH]8)C=C7)C=C6)cc4)C3)c(N3CCOCC3)nc2c1
REMARK SMILES IDX 18 1 17 2 16 3 14 4 15 5 13 6 9 7 10 8 79 9 11 11 12 12 8 15
REMARK SMILES IDX 7 16 1 17 2 18 3 19 89 20 4 21 88 22 5 23 87 24 6 25 80 26
REMARK SMILES IDX 81 27 82 28 86 29 83 30 85 31 84 32 19 33 20 34 21 35 22 36
REMARK SMILES IDX 23 37 24 38 25 39 26 40 78 41 27 42 77 43 28 44 29 45 30 46
REMARK SMILES IDX 71 47 31 48 76 49 70 50 72 51 32 52 75 53 69 54 68 55 33 57
REMARK SMILES IDX 59 58 42 59 58 60 43 61 46 62 57 63 73 64 44 65 45 66 56 68
REMARK SMILES IDX 74 69 47 70 34 71 35 72 40 73 36 74 37 75 39 76 41 77 38 78
REMARK SMILES IDX 60 79 61 80 66 81 62 82 63 83 65 84 67 85 64 86 48 87 49 88
REMARK SMILES IDX 54 89 50 90 51 91 53 92 55 93 52 94
REMARK H PARENT 9 10 12 13 12 14 72 56 46 67
REMARK Flexibility Score: inf
ROOT
ATOM      1  C   UNL     1       5.021  -6.205  -0.293  1.00  0.00     0.202 C 
ENDROOT
BRANCH   1   2
ATOM      2  C   UNL     1       4.396  -6.659  -1.620  1.00  0.00     0.261 C 
BRANCH   2   3
ATOM      3  O   UNL     1       3.062  -6.155  -1.808  1.00  0.00    -0.459 OA
BRANCH   3   4
ATOM      4  C   UNL     1       2.110  -7.087  -2.108  1.00  0.00     0.371 C 
ATOM      5  O   UNL     1       2.342  -8.271  -2.324  1.00  0.00    -0.245 OA
BRANCH   4   6
ATOM      6  C   UNL     1       0.702  -6.469  -2.115  1.00  0.00     0.348 C 
ATOM      7  N   UNL     1      -1.732  -7.293  -1.942  1.00  0.00    -0.321 N 
ATOM      8  C   UNL     1      -1.955  -6.609  -3.220  1.00  0.00     0.324 C 
ATOM      9  C   UNL     1      -0.313  -7.578  -1.713  1.00  0.00     0.341 C 
ATOM     10  H   UNL     1      -2.169  -8.208  -2.050  1.00  0.00     0.348 HD
ATOM     11  C   UNL     1      -0.971  -5.452  -3.518  1.00  0.00     0.323 C 
ATOM     12  N   UNL     1       0.438  -5.878  -3.454  1.00  0.00    -0.325 N 
ATOM     13  H   UNL     1       1.047  -5.072  -3.598  1.00  0.00     0.347 HD
ATOM     14  H   UNL     1       0.624  -6.571  -4.179  1.00  0.00     0.347 HD
BRANCH   7  15
ATOM     15  C   UNL     1      -2.525  -6.840  -0.791  1.00  0.00     0.303 C 
BRANCH  15  16
ATOM     16  C   UNL     1      -2.516  -5.361  -0.471  1.00  0.00     0.049 A 
ATOM     17  C   UNL     1      -0.012   0.567  -0.130  1.00  0.00     0.044 C 
ATOM     18  C   UNL     1      -0.533  -0.814   0.133  1.00  0.00    -0.049 A 
ATOM     19  C   UNL     1       0.069  -1.602   1.111  1.00  0.00     0.004 A 
ATOM     20  C   UNL     1      -1.630  -1.334  -0.579  1.00  0.00     0.032 A 
ATOM     21  C   UNL     1      -0.347  -2.917   1.285  1.00  0.00     0.010 A 
ATOM     22  C   UNL     1      -2.052  -2.655  -0.435  1.00  0.00     0.073 A 
ATOM     23  C   UNL     1      -1.326  -3.469   0.446  1.00  0.00     0.001 A 
ATOM     24  N   UNL     1      -3.096  -3.132  -1.145  1.00  0.00    -0.230 NA
ATOM     25  C   UNL     1      -1.552  -4.845   0.398  1.00  0.00     0.023 A 
ATOM     26  C   UNL     1      -3.380  -4.454  -1.104  1.00  0.00     0.138 A 
BRANCH  26  27
ATOM     27  N   UNL     1      -4.521  -4.911  -1.738  1.00  0.00    -0.352 N 
ATOM     28  C   UNL     1      -5.575  -5.505  -0.901  1.00  0.00     0.146 C 
ATOM     29  C   UNL     1      -5.055  -4.182  -2.890  1.00  0.00     0.146 C 
ATOM     30  C   UNL     1      -6.405  -6.455  -1.779  1.00  0.00     0.181 C 
ATOM     31  C   UNL     1      -5.927  -5.161  -3.705  1.00  0.00     0.181 C 
ATOM     32  O   UNL     1      -6.967  -5.759  -2.906  1.00  0.00    -0.378 OA
ENDBRANCH  26  27
ENDBRANCH  15  16
ENDBRANCH   7  15
ENDBRANCH   4   6
ENDBRANCH   3   4
ENDBRANCH   2   3
ENDBRANCH   1   2
BRANCH   1  33
ATOM     33  O   UNL     1       4.346  -6.565   0.911  1.00  0.00    -0.374 OA
BRANCH  33  34
ATOM     34  C   UNL     1       3.013  -6.105   1.083  1.00  0.00     0.202 C 
BRANCH  34  35
ATOM     35  C   UNL     1       2.769  -4.592   1.086  1.00  0.00     0.261 C 
BRANCH  35  36
ATOM     36  O   UNL     1       3.312  -3.890  -0.038  1.00  0.00    -0.460 OA
BRANCH  36  37
ATOM     37  C   UNL     1       3.988  -2.753   0.255  1.00  0.00     0.338 C 
ATOM     38  O   UNL     1       4.154  -2.239   1.345  1.00  0.00    -0.246 OA
BRANCH  37  39
ATOM     39  C   UNL     1       4.566  -2.217  -0.987  1.00  0.00     0.060 A 
ATOM     40  C   UNL     1       3.804  -1.366  -1.788  1.00  0.00     0.016 A 
ATOM     41  C   UNL     1       5.896  -2.506  -1.310  1.00  0.00     0.016 A 
ATOM     42  C   UNL     1       4.377  -0.807  -2.933  1.00  0.00     0.010 A 
ATOM     43  C   UNL     1       6.466  -1.944  -2.454  1.00  0.00     0.010 A 
ATOM     44  C   UNL     1       5.712  -1.087  -3.272  1.00  0.00    -0.014 A 
BRANCH  44  45
ATOM     45  C   UNL     1       6.341  -0.440  -4.451  1.00  0.00     0.031 A 
ATOM     46  C   UNL     1       6.587  -1.216  -5.713  1.00  0.00     0.074 A 
ATOM     47  C   UNL     1       6.725   0.848  -4.364  1.00  0.00     0.049 A 
ATOM     48  N   UNL     1       7.128  -0.816  -6.836  1.00  0.00    -0.248 NA
ATOM     49  C   UNL     1       6.182  -2.629  -5.709  1.00  0.00     0.031 C 
ATOM     50  C   UNL     1       6.569   1.696  -3.181  1.00  0.00     0.029 A 
ATOM     51  N   UNL     1       7.333   1.666  -5.282  1.00  0.00    -0.354 N 
ATOM     52  C   UNL     1       7.128  -1.923  -7.674  1.00  0.00     0.074 A 
ATOM     53  C   UNL     1       6.565  -3.022  -6.917  1.00  0.00     0.031 C 
ATOM     54  C   UNL     1       7.065   2.915  -3.447  1.00  0.00     0.029 A 
ATOM     55  C   UNL     1       7.596   2.928  -4.807  1.00  0.00     0.049 A 
ATOM     56  H   UNL     1       7.561   1.376  -6.195  1.00  0.00     0.167 HD
ATOM     57  C   UNL     1       7.549  -2.010  -8.959  1.00  0.00     0.037 A 
ATOM     58  C   UNL     1       8.205   3.972  -5.399  1.00  0.00     0.037 A 
ATOM     59  C   UNL     1       8.107  -0.913  -9.709  1.00  0.00     0.049 A 
ATOM     60  C   UNL     1       8.694   3.833  -6.815  1.00  0.00     0.074 A 
ATOM     61  C   UNL     1       8.501  -0.888 -11.037  1.00  0.00     0.029 A 
ATOM     62  N   UNL     1       8.364   0.348  -9.194  1.00  0.00    -0.354 N 
ATOM     63  N   UNL     1       8.604   2.806  -7.625  1.00  0.00    -0.248 NA
ATOM     64  C   UNL     1       9.365   5.002  -7.400  1.00  0.00     0.031 C 
ATOM     65  C   UNL     1       9.043   0.373 -11.310  1.00  0.00     0.029 A 
ATOM     66  C   UNL     1       8.943   1.148 -10.166  1.00  0.00     0.049 A 
ATOM     67  H   UNL     1       8.164   0.633  -8.273  1.00  0.00     0.167 HD
ATOM     68  C   UNL     1       9.180   3.215  -8.821  1.00  0.00     0.074 A 
ATOM     69  C   UNL     1       9.599   4.588  -8.636  1.00  0.00     0.031 C 
ATOM     70  C   UNL     1       9.351   2.515  -9.969  1.00  0.00     0.037 A 
BRANCH  57  71
ATOM     71  C   UNL     1       7.433  -3.342  -9.642  1.00  0.00     0.057 A 
ATOM     72  C   UNL     1       8.578  -4.087  -9.955  1.00  0.00     0.134 A 
ATOM     73  C   UNL     1       6.196  -3.862 -10.041  1.00  0.00     0.134 A 
ATOM     74  F   UNL     1       9.796  -3.642  -9.609  1.00  0.00    -0.206 F 
ATOM     75  C   UNL     1       8.496  -5.298 -10.645  1.00  0.00     0.040 A 
ATOM     76  C   UNL     1       6.099  -5.083 -10.712  1.00  0.00     0.040 A 
ATOM     77  F   UNL     1       5.060  -3.202  -9.767  1.00  0.00    -0.206 F 
ATOM     78  C   UNL     1       7.252  -5.801 -11.021  1.00  0.00     0.006 A 
ENDBRANCH  57  71
BRANCH  58  79
ATOM     79  C   UNL     1       8.399   5.248  -4.663  1.00  0.00     0.057 A 
ATOM     80  C   UNL     1       9.304   5.346  -3.600  1.00  0.00     0.134 A 
ATOM     81  C   UNL     1       7.721   6.412  -5.043  1.00  0.00     0.134 A 
ATOM     82  F   UNL     1       9.982   4.266  -3.186  1.00  0.00    -0.206 F 
ATOM     83  C   UNL     1       9.532   6.557  -2.945  1.00  0.00     0.040 A 
ATOM     84  C   UNL     1       7.959   7.635  -4.415  1.00  0.00     0.040 A 
ATOM     85  F   UNL     1       6.857   6.386  -6.069  1.00  0.00    -0.206 F 
ATOM     86  C   UNL     1       8.868   7.709  -3.361  1.00  0.00     0.006 A 
ENDBRANCH  58  79
BRANCH  70  87
ATOM     87  C   UNL     1       9.989   3.239 -11.118  1.00  0.00     0.057 A 
ATOM     88  C   UNL     1       9.232   3.609 -12.238  1.00  0.00     0.134 A 
ATOM     89  C   UNL     1      11.351   3.565 -11.122  1.00  0.00     0.134 A 
ATOM     90  F   UNL     1       7.924   3.321 -12.301  1.00  0.00    -0.206 F 
ATOM     91  C   UNL     1       9.808   4.278 -13.319  1.00  0.00     0.040 A 
ATOM     92  C   UNL     1      11.932   4.259 -12.185  1.00  0.00     0.040 A 
ATOM     93  F   UNL     1      12.127   3.255 -10.073  1.00  0.00    -0.206 F 
ATOM     94  C   UNL     1      11.160   4.612 -13.290  1.00  0.00     0.006 A 
ENDBRANCH  70  87
ENDBRANCH  44  45
ENDBRANCH  37  39
ENDBRANCH  36  37
ENDBRANCH  35  36
ENDBRANCH  34  35
ENDBRANCH  33  34
ENDBRANCH   1  33
TORSDOF 17
