REMARK SMILES O=C(CSc1ccc2ccccc2c1)OCCOCCOC(=O)c1ccc(-c2c3nc(c(-c4c(F)cccc4F)c4ccc([nH]4)c(-c4c(F)cccc4F)c4nc(c(-c5c(F)cccc5F)c5ccc2[nH]5)C=C4)C=C3)cc1
REMARK SMILES IDX 18 1 17 2 16 3 15 4 2 5 1 6 3 7 4 8 5 9 6 10 14 11 7 12
REMARK SMILES IDX 13 13 8 14 12 15 9 16 11 17 10 18 19 19 20 20 21 21 22 22
REMARK SMILES IDX 23 23 24 24 25 25 77 26 26 27 76 28 27 29 28 30 29 31 70 32
REMARK SMILES IDX 30 33 75 34 69 35 71 36 31 37 74 38 68 39 67 40 32 42 58 43
REMARK SMILES IDX 41 44 57 45 42 46 45 47 56 48 72 49 43 50 44 51 55 53 73 54
REMARK SMILES IDX 46 55 33 56 34 57 39 58 35 59 36 60 38 61 40 62 37 63 59 64
REMARK SMILES IDX 60 65 65 66 61 67 62 68 64 69 66 70 63 71 47 72 48 73 53 74
REMARK SMILES IDX 49 75 50 76 52 77 54 78 51 79
REMARK H PARENT 71 41 45 52
REMARK Flexibility Score: inf
ROOT
ATOM      1  O   UNL     1       4.143  -1.712   0.540  1.00  0.00    -0.374 OA
ENDROOT
BRANCH   1   2
ATOM      2  C   UNL     1       4.636  -0.486   1.075  1.00  0.00     0.202 C 
BRANCH   2   3
ATOM      3  C   UNL     1       4.348   0.761   0.248  1.00  0.00     0.261 C 
BRANCH   3   4
ATOM      4  O   UNL     1       2.947   0.963   0.005  1.00  0.00    -0.463 OA
BRANCH   4   5
ATOM      5  C   UNL     1       2.236   0.382  -0.989  1.00  0.00     0.316 C 
ATOM      6  O   UNL     1       1.009   0.498  -0.989  1.00  0.00    -0.251 OA
BRANCH   5   7
ATOM      7  C   UNL     1       2.924  -0.469  -2.036  1.00  0.00     0.197 C 
BRANCH   7   8
ATOM      8  S   UNL     1       4.126   0.418  -3.066  1.00  0.00    -0.114 SA
BRANCH   8   9
ATOM      9  C   UNL     1       3.083   1.742  -3.607  1.00  0.00     0.008 A 
ATOM     10  C   UNL     1       3.357   3.059  -3.240  1.00  0.00     0.016 A 
ATOM     11  C   UNL     1       1.976   1.448  -4.401  1.00  0.00     0.023 A 
ATOM     12  C   UNL     1       2.534   4.089  -3.696  1.00  0.00     0.010 A 
ATOM     13  C   UNL     1       1.143   2.466  -4.859  1.00  0.00    -0.017 A 
ATOM     14  C   UNL     1       1.434   3.808  -4.524  1.00  0.00    -0.018 A 
ATOM     15  C   UNL     1       0.037   2.162  -5.659  1.00  0.00     0.009 A 
ATOM     16  C   UNL     1       0.617   4.822  -5.043  1.00  0.00     0.009 A 
ATOM     17  C   UNL     1      -0.762   3.181  -6.167  1.00  0.00     0.001 A 
ATOM     18  C   UNL     1      -0.465   4.509  -5.869  1.00  0.00     0.001 A 
ENDBRANCH   8   9
ENDBRANCH   7   8
ENDBRANCH   5   7
ENDBRANCH   4   5
ENDBRANCH   3   4
ENDBRANCH   2   3
ENDBRANCH   1   2
BRANCH   1  19
ATOM     19  C   UNL     1       2.836  -2.100   0.982  1.00  0.00     0.202 C 
BRANCH  19  20
ATOM     20  C   UNL     1       2.805  -2.903   2.284  1.00  0.00     0.261 C 
BRANCH  20  21
ATOM     21  O   UNL     1       3.204  -2.086   3.393  1.00  0.00    -0.460 OA
BRANCH  21  22
ATOM     22  C   UNL     1       4.509  -2.195   3.726  1.00  0.00     0.338 C 
ATOM     23  O   UNL     1       5.321  -3.001   3.292  1.00  0.00    -0.246 OA
BRANCH  22  24
ATOM     24  C   UNL     1       4.897  -1.046   4.564  1.00  0.00     0.060 A 
ATOM     25  C   UNL     1       6.149  -0.468   4.321  1.00  0.00     0.016 A 
ATOM     26  C   UNL     1       4.074  -0.566   5.587  1.00  0.00     0.016 A 
ATOM     27  C   UNL     1       6.634   0.516   5.171  1.00  0.00     0.010 A 
ATOM     28  C   UNL     1       4.561   0.422   6.442  1.00  0.00     0.010 A 
ATOM     29  C   UNL     1       5.870   0.908   6.276  1.00  0.00    -0.014 A 
BRANCH  29  30
ATOM     30  C   UNL     1       6.545   1.621   7.381  1.00  0.00     0.031 A 
ATOM     31  C   UNL     1       6.982   0.818   8.577  1.00  0.00     0.074 A 
ATOM     32  C   UNL     1       6.825   2.930   7.287  1.00  0.00     0.049 A 
ATOM     33  N   UNL     1       7.610   1.207   9.655  1.00  0.00    -0.248 NA
ATOM     34  C   UNL     1       6.664  -0.621   8.554  1.00  0.00     0.031 C 
ATOM     35  C   UNL     1       6.486   3.789   6.154  1.00  0.00     0.029 A 
ATOM     36  N   UNL     1       7.469   3.762   8.164  1.00  0.00    -0.354 N 
ATOM     37  C   UNL     1       7.747   0.068  10.441  1.00  0.00     0.074 A 
ATOM     38  C   UNL     1       7.105  -1.018   9.736  1.00  0.00     0.031 C 
ATOM     39  C   UNL     1       6.932   5.032   6.404  1.00  0.00     0.029 A 
ATOM     40  C   UNL     1       7.559   5.058   7.723  1.00  0.00     0.049 A 
ATOM     41  H   UNL     1       7.833   3.459   9.027  1.00  0.00     0.167 HD
ATOM     42  C   UNL     1       8.364  -0.062  11.638  1.00  0.00     0.037 A 
ATOM     43  C   UNL     1       8.082   6.140   8.329  1.00  0.00     0.037 A 
ATOM     44  C   UNL     1       9.009   1.025  12.325  1.00  0.00     0.049 A 
ATOM     45  C   UNL     1       8.714   5.980   9.687  1.00  0.00     0.074 A 
ATOM     46  C   UNL     1       9.686   1.004  13.530  1.00  0.00     0.029 A 
ATOM     47  N   UNL     1       9.048   2.333  11.864  1.00  0.00    -0.354 N 
ATOM     48  N   UNL     1       8.865   4.896  10.411  1.00  0.00    -0.248 NA
ATOM     49  C   UNL     1       9.259   7.195  10.306  1.00  0.00     0.031 C 
ATOM     50  C   UNL     1      10.083   2.312  13.828  1.00  0.00     0.029 A 
ATOM     51  C   UNL     1       9.715   3.135  12.775  1.00  0.00     0.049 A 
ATOM     52  H   UNL     1       8.660   2.645  11.015  1.00  0.00     0.167 HD
ATOM     53  C   UNL     1       9.557   5.290  11.550  1.00  0.00     0.074 A 
ATOM     54  C   UNL     1       9.804   6.711  11.412  1.00  0.00     0.031 C 
ATOM     55  C   UNL     1       9.958   4.546  12.611  1.00  0.00     0.037 A 
BRANCH  42  56
ATOM     56  C   UNL     1       8.335  -1.414  12.291  1.00  0.00     0.057 A 
ATOM     57  C   UNL     1       9.048  -2.508  11.781  1.00  0.00     0.134 A 
ATOM     58  C   UNL     1       7.591  -1.621  13.460  1.00  0.00     0.134 A 
ATOM     59  F   UNL     1       9.765  -2.387  10.653  1.00  0.00    -0.206 F 
ATOM     60  C   UNL     1       8.999  -3.763  12.393  1.00  0.00     0.040 A 
ATOM     61  C   UNL     1       7.560  -2.862  14.099  1.00  0.00     0.040 A 
ATOM     62  F   UNL     1       6.885  -0.618  14.004  1.00  0.00    -0.206 F 
ATOM     63  C   UNL     1       8.259  -3.940  13.560  1.00  0.00     0.006 A 
ENDBRANCH  42  56
BRANCH  43  64
ATOM     64  C   UNL     1       8.041   7.463   7.658  1.00  0.00     0.057 A 
ATOM     65  C   UNL     1       9.213   8.092   7.221  1.00  0.00     0.134 A 
ATOM     66  C   UNL     1       6.833   8.140   7.453  1.00  0.00     0.134 A 
ATOM     67  F   UNL     1      10.404   7.503   7.405  1.00  0.00    -0.206 F 
ATOM     68  C   UNL     1       9.188   9.355   6.627  1.00  0.00     0.040 A 
ATOM     69  C   UNL     1       6.790   9.390   6.835  1.00  0.00     0.040 A 
ATOM     70  F   UNL     1       5.673   7.590   7.843  1.00  0.00    -0.206 F 
ATOM     71  C   UNL     1       7.972  10.005   6.428  1.00  0.00     0.006 A 
ENDBRANCH  43  64
BRANCH  55  72
ATOM     72  C   UNL     1      10.754   5.246  13.676  1.00  0.00     0.057 A 
ATOM     73  C   UNL     1      10.185   6.197  14.532  1.00  0.00     0.134 A 
ATOM     74  C   UNL     1      12.111   4.942  13.858  1.00  0.00     0.134 A 
ATOM     75  F   UNL     1       8.895   6.541  14.405  1.00  0.00    -0.206 F 
ATOM     76  C   UNL     1      10.946   6.850  15.504  1.00  0.00     0.040 A 
ATOM     77  C   UNL     1      12.872   5.562  14.849  1.00  0.00     0.040 A 
ATOM     78  F   UNL     1      12.716   4.030  13.083  1.00  0.00    -0.206 F 
ATOM     79  C   UNL     1      12.292   6.529  15.668  1.00  0.00     0.006 A 
ENDBRANCH  55  72
ENDBRANCH  29  30
ENDBRANCH  22  24
ENDBRANCH  21  22
ENDBRANCH  20  21
ENDBRANCH  19  20
ENDBRANCH   1  19
TORSDOF 16
