REMARK SMILES C[C@@H](C(=O)OCCOCCOC(=O)c1ccc(-c2c3nc(c(-c4c(F)cccc4F)c4ccc([nH]4)c(-c4c(F)cccc4F)c4nc(c(-c5c(F)cccc5F)c5ccc2[nH]5)C=C4)C=C3)cc1)c1cc(/C=C/S(C)(=O)=O)cc(C(=O)c2ccccc2)c1
REMARK SMILES IDX 7 1 6 2 5 3 3 4 4 5 2 6 1 7 68 8 69 9 87 10 70 11 78 12
REMARK SMILES IDX 77 13 71 14 72 15 73 16 74 17 75 18 76 19 79 20 80 21 81 22
REMARK SMILES IDX 82 23 86 24 83 25 85 26 84 27 8 28 9 29 10 30 11 31 12 32
REMARK SMILES IDX 13 33 14 34 15 35 67 36 16 37 66 38 17 39 18 40 19 41 60 42
REMARK SMILES IDX 20 43 65 44 59 45 61 46 21 47 64 48 58 49 57 50 22 52 48 53
REMARK SMILES IDX 31 54 47 55 32 56 35 57 46 58 62 59 33 60 34 61 45 63 63 64
REMARK SMILES IDX 36 65 23 66 24 67 29 68 25 69 26 70 28 71 30 72 27 73 49 74
REMARK SMILES IDX 50 75 55 76 51 77 52 78 54 79 56 80 53 81 37 82 38 83 43 84
REMARK SMILES IDX 39 85 40 86 42 87 44 88 41 89
REMARK H PARENT 61 51 35 62
REMARK Flexibility Score: inf
ROOT
ATOM      1  C   UNL     1       2.150  -0.433  -4.731  1.00  0.00     0.202 C 
ENDROOT
BRANCH   1   2
ATOM      2  C   UNL     1       2.113   1.001  -4.197  1.00  0.00     0.261 C 
BRANCH   2   3
ATOM      3  O   UNL     1       1.902   0.992  -2.773  1.00  0.00    -0.463 OA
BRANCH   3   4
ATOM      4  C   UNL     1       0.941   1.837  -2.313  1.00  0.00     0.313 C 
ATOM      5  O   UNL     1       0.414   2.716  -2.986  1.00  0.00    -0.252 OA
BRANCH   4   6
ATOM      6  C   UNL     1       0.566   1.564  -0.853  1.00  0.00     0.126 C 
ATOM      7  C   UNL     1       1.379   0.470  -0.156  1.00  0.00     0.025 C 
BRANCH   6   8
ATOM      8  C   UNL     1      -0.945   1.381  -0.713  1.00  0.00    -0.033 A 
ATOM      9  C   UNL     1      -1.735   2.533  -0.577  1.00  0.00     0.012 A 
ATOM     10  C   UNL     1      -1.590   0.137  -0.775  1.00  0.00     0.016 A 
ATOM     11  C   UNL     1      -3.132   2.477  -0.484  1.00  0.00    -0.024 A 
ATOM     12  C   UNL     1      -2.987   0.046  -0.675  1.00  0.00     0.023 A 
ATOM     13  C   UNL     1      -3.747   1.220  -0.534  1.00  0.00     0.020 A 
BRANCH  11  14
ATOM     14  C   UNL     1      -3.955   3.684  -0.277  1.00  0.00     0.020 C 
ATOM     15  C   UNL     1      -3.483   4.940  -0.319  1.00  0.00     0.106 C 
BRANCH  15  16
ATOM     16  S   UNL     1      -4.492   6.289   0.091  1.00  0.00     0.168 S 
ATOM     17  C   UNL     1      -3.650   6.900   1.534  1.00  0.00     0.163 C 
ATOM     18  O   UNL     1      -4.353   7.294  -0.941  1.00  0.00    -0.225 OA
ATOM     19  O   UNL     1      -5.804   5.836   0.520  1.00  0.00    -0.225 OA
ENDBRANCH  15  16
ENDBRANCH  11  14
BRANCH  12  20
ATOM     20  C   UNL     1      -3.717  -1.256  -0.769  1.00  0.00     0.193 C 
ATOM     21  O   UNL     1      -4.931  -1.265  -0.955  1.00  0.00    -0.289 OA
BRANCH  20  22
ATOM     22  C   UNL     1      -3.020  -2.562  -0.688  1.00  0.00     0.022 A 
ATOM     23  C   UNL     1      -3.306  -3.529  -1.658  1.00  0.00     0.012 A 
ATOM     24  C   UNL     1      -2.127  -2.854   0.349  1.00  0.00     0.012 A 
ATOM     25  C   UNL     1      -2.662  -4.766  -1.621  1.00  0.00     0.001 A 
ATOM     26  C   UNL     1      -1.482  -4.092   0.380  1.00  0.00     0.001 A 
ATOM     27  C   UNL     1      -1.744  -5.043  -0.608  1.00  0.00     0.000 A 
ENDBRANCH  20  22
ENDBRANCH  12  20
ENDBRANCH   6   8
ENDBRANCH   4   6
ENDBRANCH   3   4
ENDBRANCH   2   3
ENDBRANCH   1   2
BRANCH   1  28
ATOM     28  O   UNL     1       0.907  -1.139  -4.713  1.00  0.00    -0.374 OA
BRANCH  28  29
ATOM     29  C   UNL     1       0.410  -1.564  -3.446  1.00  0.00     0.202 C 
BRANCH  29  30
ATOM     30  C   UNL     1       1.045  -2.829  -2.856  1.00  0.00     0.261 C 
BRANCH  30  31
ATOM     31  O   UNL     1       2.448  -2.656  -2.585  1.00  0.00    -0.460 OA
BRANCH  31  32
ATOM     32  C   UNL     1       3.266  -3.401  -3.367  1.00  0.00     0.338 C 
ATOM     33  O   UNL     1       2.942  -4.255  -4.178  1.00  0.00    -0.246 OA
BRANCH  32  34
ATOM     34  C   UNL     1       4.657  -2.930  -3.244  1.00  0.00     0.060 A 
ATOM     35  C   UNL     1       5.324  -2.588  -4.428  1.00  0.00     0.016 A 
ATOM     36  C   UNL     1       5.327  -2.905  -2.019  1.00  0.00     0.016 A 
ATOM     37  C   UNL     1       6.679  -2.271  -4.398  1.00  0.00     0.010 A 
ATOM     38  C   UNL     1       6.692  -2.597  -1.993  1.00  0.00     0.010 A 
ATOM     39  C   UNL     1       7.381  -2.315  -3.187  1.00  0.00    -0.014 A 
BRANCH  39  40
ATOM     40  C   UNL     1       8.861  -2.224  -3.206  1.00  0.00     0.031 A 
ATOM     41  C   UNL     1       9.669  -3.493  -3.179  1.00  0.00     0.074 A 
ATOM     42  C   UNL     1       9.477  -1.034  -3.302  1.00  0.00     0.049 A 
ATOM     43  N   UNL     1      10.968  -3.650  -3.183  1.00  0.00    -0.248 NA
ATOM     44  C   UNL     1       8.909  -4.753  -3.145  1.00  0.00     0.031 C 
ATOM     45  C   UNL     1       8.805   0.262  -3.378  1.00  0.00     0.029 A 
ATOM     46  N   UNL     1      10.813  -0.725  -3.349  1.00  0.00    -0.354 N 
ATOM     47  C   UNL     1      11.181  -5.022  -3.157  1.00  0.00     0.074 A 
ATOM     48  C   UNL     1       9.880  -5.653  -3.103  1.00  0.00     0.031 C 
ATOM     49  C   UNL     1       9.735   1.230  -3.453  1.00  0.00     0.029 A 
ATOM     50  C   UNL     1      11.064   0.623  -3.405  1.00  0.00     0.049 A 
ATOM     51  H   UNL     1      11.524  -1.406  -3.344  1.00  0.00     0.167 HD
ATOM     52  C   UNL     1      12.355  -5.696  -3.188  1.00  0.00     0.037 A 
ATOM     53  C   UNL     1      12.234   1.291  -3.401  1.00  0.00     0.037 A 
ATOM     54  C   UNL     1      13.650  -5.071  -3.237  1.00  0.00     0.049 A 
ATOM     55  C   UNL     1      13.527   0.521  -3.369  1.00  0.00     0.074 A 
ATOM     56  C   UNL     1      14.897  -5.670  -3.267  1.00  0.00     0.029 A 
ATOM     57  N   UNL     1      13.862  -3.701  -3.262  1.00  0.00    -0.354 N 
ATOM     58  N   UNL     1      13.717  -0.776  -3.350  1.00  0.00    -0.248 NA
ATOM     59  C   UNL     1      14.769   1.309  -3.362  1.00  0.00     0.031 C 
ATOM     60  C   UNL     1      15.866  -4.661  -3.272  1.00  0.00     0.029 A 
ATOM     61  C   UNL     1      15.221  -3.435  -3.290  1.00  0.00     0.049 A 
ATOM     62  H   UNL     1      13.153  -3.019  -3.261  1.00  0.00     0.167 HD
ATOM     63  C   UNL     1      15.094  -0.960  -3.352  1.00  0.00     0.074 A 
ATOM     64  C   UNL     1      15.693   0.358  -3.386  1.00  0.00     0.031 C 
ATOM     65  C   UNL     1      15.800  -2.117  -3.327  1.00  0.00     0.037 A 
BRANCH  52  66
ATOM     66  C   UNL     1      12.289  -7.194  -3.152  1.00  0.00     0.057 A 
ATOM     67  C   UNL     1      11.878  -7.939  -4.265  1.00  0.00     0.134 A 
ATOM     68  C   UNL     1      12.672  -7.900  -2.005  1.00  0.00     0.134 A 
ATOM     69  F   UNL     1      11.484  -7.321  -5.388  1.00  0.00    -0.206 F 
ATOM     70  C   UNL     1      11.833  -9.334  -4.232  1.00  0.00     0.040 A 
ATOM     71  C   UNL     1      12.652  -9.295  -1.967  1.00  0.00     0.040 A 
ATOM     72  F   UNL     1      13.077  -7.246  -0.906  1.00  0.00    -0.206 F 
ATOM     73  C   UNL     1      12.228 -10.015  -3.082  1.00  0.00     0.006 A 
ENDBRANCH  52  66
BRANCH  53  74
ATOM     74  C   UNL     1      12.238   2.775  -3.412  1.00  0.00     0.057 A 
ATOM     75  C   UNL     1      12.661   3.494  -4.535  1.00  0.00     0.134 A 
ATOM     76  C   UNL     1      11.828   3.508  -2.291  1.00  0.00     0.134 A 
ATOM     77  F   UNL     1      13.087   2.847  -5.629  1.00  0.00    -0.206 F 
ATOM     78  C   UNL     1      12.690   4.889  -4.539  1.00  0.00     0.040 A 
ATOM     79  C   UNL     1      11.831   4.903  -2.290  1.00  0.00     0.040 A 
ATOM     80  F   UNL     1      11.411   2.876  -1.185  1.00  0.00    -0.206 F 
ATOM     81  C   UNL     1      12.269   5.598  -3.415  1.00  0.00     0.006 A 
ENDBRANCH  53  74
BRANCH  65  82
ATOM     82  C   UNL     1      17.296  -2.012  -3.364  1.00  0.00     0.057 A 
ATOM     83  C   UNL     1      18.034  -1.599  -2.248  1.00  0.00     0.134 A 
ATOM     84  C   UNL     1      18.008  -2.374  -4.515  1.00  0.00     0.134 A 
ATOM     85  F   UNL     1      17.410  -1.229  -1.120  1.00  0.00    -0.206 F 
ATOM     86  C   UNL     1      19.428  -1.531  -2.282  1.00  0.00     0.040 A 
ATOM     87  C   UNL     1      19.402  -2.332  -4.553  1.00  0.00     0.040 A 
ATOM     88  F   UNL     1      17.361  -2.788  -5.615  1.00  0.00    -0.206 F 
ATOM     89  C   UNL     1      20.116  -1.905  -3.435  1.00  0.00     0.006 A 
ENDBRANCH  65  82
ENDBRANCH  39  40
ENDBRANCH  32  34
ENDBRANCH  31  32
ENDBRANCH  30  31
ENDBRANCH  29  30
ENDBRANCH  28  29
ENDBRANCH   1  28
TORSDOF 19
