REMARK SMILES Cc1cnc2nc(-c3cc(F)c(F)cc3C(=O)OCCOCCOC(=O)c3ccc(-c4c5nc(c(-c6c(F)cccc6F)c6ccc([nH]6)c(-c6c(F)cccc6F)c6nc(c(-c7c(F)cccc7F)c7ccc4[nH]7)C=C6)C=C5)cc3)[nH]c2c1
REMARK SMILES IDX 22 1 21 2 20 3 19 4 18 5 16 6 17 7 15 8 8 9 9 10 10 11 14 12
REMARK SMILES IDX 11 13 12 14 13 15 7 16 1 17 2 18 3 19 83 20 4 21 82 22 5 23
REMARK SMILES IDX 81 24 6 25 23 27 24 28 25 29 26 30 27 31 28 32 80 33 29 34
REMARK SMILES IDX 79 35 30 36 31 37 32 38 73 39 33 40 78 41 72 42 74 43 34 44
REMARK SMILES IDX 77 45 71 46 70 47 35 49 61 50 44 51 60 52 45 53 48 54 59 55
REMARK SMILES IDX 75 56 46 57 47 58 58 60 76 61 49 62 36 63 37 64 42 65 38 66
REMARK SMILES IDX 39 67 41 68 43 69 40 70 62 71 63 72 68 73 64 74 65 75 67 76
REMARK SMILES IDX 69 77 66 78 50 79 51 80 56 81 52 82 53 83 55 84 57 85 54 86
REMARK H PARENT 81 26 74 48 48 59
REMARK Flexibility Score: inf
ROOT
ATOM      1  C   UNL     1       3.366   3.380   8.551  1.00  0.00     0.202 C 
ENDROOT
BRANCH   1   2
ATOM      2  O   UNL     1       3.927   2.075   8.621  1.00  0.00    -0.374 OA
BRANCH   2   3
ATOM      3  C   UNL     1       3.601   1.104   7.625  1.00  0.00     0.202 C 
BRANCH   3   4
ATOM      4  C   UNL     1       2.139   0.682   7.486  1.00  0.00     0.261 C 
BRANCH   4   5
ATOM      5  O   UNL     1       1.305   1.780   7.082  1.00  0.00    -0.460 OA
BRANCH   5   6
ATOM      6  C   UNL     1       0.260   2.033   7.908  1.00  0.00     0.339 C 
ATOM      7  O   UNL     1       0.005   1.479   8.964  1.00  0.00    -0.246 OA
BRANCH   6   8
ATOM      8  C   UNL     1      -0.424   3.283   7.505  1.00  0.00     0.074 A 
ATOM      9  C   UNL     1      -0.868   3.553   6.196  1.00  0.00     0.035 A 
ATOM     10  C   UNL     1      -1.562   4.753   5.958  1.00  0.00     0.055 A 
ATOM     11  C   UNL     1      -1.769   5.665   6.990  1.00  0.00     0.159 A 
ATOM     12  C   UNL     1      -0.625   4.221   8.534  1.00  0.00     0.058 A 
ATOM     13  F   UNL     1      -2.435   6.799   6.737  1.00  0.00    -0.204 F 
ATOM     14  C   UNL     1      -1.288   5.409   8.266  1.00  0.00     0.159 A 
ATOM     15  F   UNL     1      -1.458   6.305   9.246  1.00  0.00    -0.204 F 
BRANCH   9  16
ATOM     16  C   UNL     1      -0.644   2.624   5.093  1.00  0.00     0.141 A 
ATOM     17  C   UNL     1       1.125  -0.029   0.070  1.00  0.00     0.046 C 
ATOM     18  C   UNL     1       0.581   0.340   1.416  1.00  0.00    -0.031 A 
ATOM     19  C   UNL     1       0.098  -0.642   2.285  1.00  0.00     0.117 A 
ATOM     20  C   UNL     1       0.589   1.673   1.842  1.00  0.00     0.035 A 
ATOM     21  N   UNL     1      -0.404  -0.434   3.523  1.00  0.00    -0.235 NA
ATOM     22  C   UNL     1       0.068   1.891   3.115  1.00  0.00     0.085 A 
ATOM     23  C   UNL     1      -0.409   0.858   3.909  1.00  0.00     0.178 A 
ATOM     24  N   UNL     1      -0.108   3.008   3.883  1.00  0.00    -0.337 N 
ATOM     25  N   UNL     1      -0.855   1.324   5.114  1.00  0.00    -0.209 NA
ATOM     26  H   UNL     1       0.111   3.930   3.617  1.00  0.00     0.168 HD
ENDBRANCH   9  16
ENDBRANCH   6   8
ENDBRANCH   5   6
ENDBRANCH   4   5
ENDBRANCH   3   4
ENDBRANCH   2   3
ENDBRANCH   1   2
BRANCH   1  27
ATOM     27  C   UNL     1       3.863   4.320   7.460  1.00  0.00     0.261 C 
BRANCH  27  28
ATOM     28  O   UNL     1       3.718   3.787   6.152  1.00  0.00    -0.460 OA
BRANCH  28  29
ATOM     29  C   UNL     1       4.868   3.259   5.668  1.00  0.00     0.338 C 
ATOM     30  O   UNL     1       5.868   2.963   6.296  1.00  0.00    -0.246 OA
BRANCH  29  31
ATOM     31  C   UNL     1       4.816   3.269   4.204  1.00  0.00     0.060 A 
ATOM     32  C   UNL     1       5.968   2.821   3.556  1.00  0.00     0.016 A 
ATOM     33  C   UNL     1       3.835   4.029   3.549  1.00  0.00     0.016 A 
ATOM     34  C   UNL     1       6.260   3.350   2.323  1.00  0.00     0.010 A 
ATOM     35  C   UNL     1       4.131   4.562   2.319  1.00  0.00     0.010 A 
ATOM     36  C   UNL     1       5.381   4.291   1.774  1.00  0.00    -0.014 A 
BRANCH  36  37
ATOM     37  C   UNL     1       5.786   4.931   0.545  1.00  0.00     0.031 A 
ATOM     38  C   UNL     1       5.724   4.013  -0.610  1.00  0.00     0.074 A 
ATOM     39  C   UNL     1       6.116   6.233   0.477  1.00  0.00     0.049 A 
ATOM     40  N   UNL     1       6.712   3.524  -1.279  1.00  0.00    -0.248 NA
ATOM     41  C   UNL     1       4.418   3.414  -0.926  1.00  0.00     0.031 C 
ATOM     42  C   UNL     1       5.954   7.274   1.494  1.00  0.00     0.029 A 
ATOM     43  N   UNL     1       6.602   6.920  -0.588  1.00  0.00    -0.354 N 
ATOM     44  C   UNL     1       6.132   2.713  -2.246  1.00  0.00     0.074 A 
ATOM     45  C   UNL     1       4.761   2.523  -1.855  1.00  0.00     0.031 C 
ATOM     46  C   UNL     1       6.120   8.488   0.918  1.00  0.00     0.029 A 
ATOM     47  C   UNL     1       6.532   8.301  -0.463  1.00  0.00     0.049 A 
ATOM     48  H   UNL     1       6.975   6.476  -1.384  1.00  0.00     0.167 HD
ATOM     49  C   UNL     1       6.756   2.492  -3.432  1.00  0.00     0.037 A 
ATOM     50  C   UNL     1       6.721   9.191  -1.470  1.00  0.00     0.037 A 
ATOM     51  C   UNL     1       8.168   2.764  -3.335  1.00  0.00     0.049 A 
ATOM     52  C   UNL     1       7.470   8.488  -2.545  1.00  0.00     0.074 A 
ATOM     53  C   UNL     1       9.202   2.253  -2.572  1.00  0.00     0.029 A 
ATOM     54  N   UNL     1       8.628   3.957  -3.835  1.00  0.00    -0.354 N 
ATOM     55  N   UNL     1       8.709   8.097  -2.431  1.00  0.00    -0.248 NA
ATOM     56  C   UNL     1       6.694   7.808  -3.573  1.00  0.00     0.031 C 
ATOM     57  C   UNL     1      10.030   3.373  -2.272  1.00  0.00     0.029 A 
ATOM     58  C   UNL     1       9.492   4.489  -2.913  1.00  0.00     0.049 A 
ATOM     59  H   UNL     1       8.381   4.358  -4.700  1.00  0.00     0.167 HD
ATOM     60  C   UNL     1       8.751   6.859  -3.059  1.00  0.00     0.074 A 
ATOM     61  C   UNL     1       7.501   6.770  -3.809  1.00  0.00     0.031 C 
ATOM     62  C   UNL     1       9.652   5.906  -2.681  1.00  0.00     0.037 A 
BRANCH  49  63
ATOM     63  C   UNL     1       6.024   2.425  -4.748  1.00  0.00     0.057 A 
ATOM     64  C   UNL     1       6.742   2.097  -5.909  1.00  0.00     0.134 A 
ATOM     65  C   UNL     1       4.728   2.941  -4.972  1.00  0.00     0.134 A 
ATOM     66  F   UNL     1       7.991   1.614  -5.833  1.00  0.00    -0.206 F 
ATOM     67  C   UNL     1       6.239   2.334  -7.194  1.00  0.00     0.040 A 
ATOM     68  C   UNL     1       4.196   3.130  -6.248  1.00  0.00     0.040 A 
ATOM     69  F   UNL     1       3.942   3.385  -3.985  1.00  0.00    -0.206 F 
ATOM     70  C   UNL     1       4.964   2.858  -7.366  1.00  0.00     0.006 A 
ENDBRANCH  49  63
BRANCH  50  71
ATOM     71  C   UNL     1       5.987  10.454  -1.727  1.00  0.00     0.057 A 
ATOM     72  C   UNL     1       6.441  11.365  -2.693  1.00  0.00     0.134 A 
ATOM     73  C   UNL     1       4.678  10.662  -1.256  1.00  0.00     0.134 A 
ATOM     74  F   UNL     1       7.661  11.230  -3.234  1.00  0.00    -0.206 F 
ATOM     75  C   UNL     1       5.631  12.396  -3.189  1.00  0.00     0.040 A 
ATOM     76  C   UNL     1       3.862  11.691  -1.736  1.00  0.00     0.040 A 
ATOM     77  F   UNL     1       4.110   9.817  -0.384  1.00  0.00    -0.206 F 
ATOM     78  C   UNL     1       4.331  12.553  -2.720  1.00  0.00     0.006 A 
ENDBRANCH  50  71
BRANCH  62  79
ATOM     79  C   UNL     1      10.762   6.310  -1.748  1.00  0.00     0.057 A 
ATOM     80  C   UNL     1      10.561   6.741  -0.428  1.00  0.00     0.134 A 
ATOM     81  C   UNL     1      12.085   6.079  -2.143  1.00  0.00     0.134 A 
ATOM     82  F   UNL     1       9.328   6.900   0.070  1.00  0.00    -0.206 F 
ATOM     83  C   UNL     1      11.631   6.958   0.448  1.00  0.00     0.040 A 
ATOM     84  C   UNL     1      13.159   6.258  -1.269  1.00  0.00     0.040 A 
ATOM     85  F   UNL     1      12.350   5.616  -3.375  1.00  0.00    -0.206 F 
ATOM     86  C   UNL     1      12.934   6.705   0.031  1.00  0.00     0.006 A 
ENDBRANCH  62  79
ENDBRANCH  36  37
ENDBRANCH  29  31
ENDBRANCH  28  29
ENDBRANCH  27  28
ENDBRANCH   1  27
TORSDOF 15
