REMARK SMILES COc1ccc(-n2c(SCc3cn(-c4ccc(C(=O)OCCOCCOC(=O)c5ccc(-c6c7nc(c(-c8c(F)cccc8F)c8ccc([nH]8)c(-c8c(F)cccc8F)c8nc(c(-c9c(F)cccc9F)c9ccc6[nH]9)C=C8)C=C7)cc5)cc4)nn3)nc3ccccc3c2=O)cc1
REMARK SMILES IDX 21 1 20 2 18 3 19 4 17 5 14 6 15 7 84 8 16 9 83 10 13 11
REMARK SMILES IDX 11 12 12 13 86 14 85 15 10 16 9 17 8 18 7 19 94 20 87 21
REMARK SMILES IDX 93 22 95 23 88 24 92 25 89 26 91 27 90 28 6 29 3 30 4 31
REMARK SMILES IDX 97 32 5 33 96 34 2 35 1 36 22 37 23 38 24 39 25 40 26 41
REMARK SMILES IDX 27 42 28 43 29 44 30 45 82 46 31 47 81 48 32 49 33 50 34 51
REMARK SMILES IDX 75 52 35 53 80 54 74 55 76 56 36 57 79 58 73 59 72 60 37 62
REMARK SMILES IDX 63 63 46 64 62 65 47 66 50 67 61 68 77 69 48 70 49 71 60 73
REMARK SMILES IDX 78 74 51 75 38 76 39 77 44 78 40 79 41 80 43 81 45 82 42 83
REMARK SMILES IDX 64 84 65 85 70 86 66 87 67 88 69 89 71 90 68 91 52 92 53 93
REMARK SMILES IDX 58 94 54 95 55 96 57 97 59 98 56 99
REMARK H PARENT 76 61 50 72
REMARK Flexibility Score: inf
ROOT
ATOM      1  C   UNL     1      -6.919   1.577  -1.504  1.00  0.00     0.261 C 
ENDROOT
BRANCH   1   2
ATOM      2  O   UNL     1      -5.487   1.557  -1.579  1.00  0.00    -0.460 OA
BRANCH   2   3
ATOM      3  C   UNL     1      -4.989   1.413  -2.829  1.00  0.00     0.338 C 
ATOM      4  O   UNL     1      -5.616   1.204  -3.862  1.00  0.00    -0.246 OA
BRANCH   3   5
ATOM      5  C   UNL     1      -3.561   1.769  -2.823  1.00  0.00     0.060 A 
ATOM      6  C   UNL     1      -0.881   2.463  -2.927  1.00  0.00     0.066 A 
ATOM      7  C   UNL     1      -1.759   3.027  -3.852  1.00  0.00     0.029 A 
ATOM      8  C   UNL     1      -1.347   1.603  -1.916  1.00  0.00     0.029 A 
ATOM      9  C   UNL     1      -3.097   2.645  -3.818  1.00  0.00     0.018 A 
ATOM     10  C   UNL     1      -2.697   1.272  -1.848  1.00  0.00     0.018 A 
BRANCH   6  11
ATOM     11  N   UNL     1       0.502   2.647  -3.099  1.00  0.00    -0.220 N 
ATOM     12  C   UNL     1       2.607   2.198  -3.384  1.00  0.00     0.093 A 
ATOM     13  C   UNL     1       1.450   1.697  -2.859  1.00  0.00     0.141 A 
ATOM     14  N   UNL     1       2.372   3.470  -3.825  1.00  0.00    -0.134 NA
ATOM     15  N   UNL     1       1.070   3.715  -3.696  1.00  0.00    -0.062 NA
BRANCH  12  16
ATOM     16  C   UNL     1       3.889   1.498  -3.521  1.00  0.00     0.138 C 
BRANCH  16  17
ATOM     17  S   UNL     1       4.460   1.347  -5.198  1.00  0.00    -0.081 SA
BRANCH  17  18
ATOM     18  C   UNL     1       3.081   0.712  -6.165  1.00  0.00     0.176 A 
ATOM     19  N   UNL     1       2.961  -0.669  -6.108  1.00  0.00    -0.255 N 
ATOM     20  C   UNL     1       3.574  -1.407  -7.114  1.00  0.00     0.266 A 
ATOM     21  N   UNL     1       2.942   1.298  -7.318  1.00  0.00    -0.223 NA
ATOM     22  C   UNL     1       4.300  -0.567  -8.108  1.00  0.00     0.066 A 
ATOM     23  O   UNL     1       3.606  -2.630  -7.203  1.00  0.00    -0.268 OA
ATOM     24  C   UNL     1       3.878   0.768  -8.237  1.00  0.00     0.079 A 
ATOM     25  C   UNL     1       5.489  -1.000  -8.692  1.00  0.00     0.016 A 
ATOM     26  C   UNL     1       4.601   1.646  -9.041  1.00  0.00     0.029 A 
ATOM     27  C   UNL     1       6.256  -0.085  -9.416  1.00  0.00     0.001 A 
ATOM     28  C   UNL     1       5.801   1.224  -9.613  1.00  0.00     0.002 A 
BRANCH  19  29
ATOM     29  C   UNL     1       2.269  -1.288  -5.044  1.00  0.00     0.052 A 
ATOM     30  C   UNL     1       1.026  -1.907  -2.628  1.00  0.00     0.119 A 
ATOM     31  C   UNL     1       0.251  -1.498  -3.716  1.00  0.00     0.048 A 
ATOM     32  C   UNL     1       2.383  -2.178  -2.804  1.00  0.00     0.048 A 
ATOM     33  C   UNL     1       0.880  -1.147  -4.917  1.00  0.00     0.030 A 
ATOM     34  C   UNL     1       3.000  -1.896  -4.023  1.00  0.00     0.030 A 
BRANCH  30  35
ATOM     35  O   UNL     1       0.410  -1.985  -1.407  1.00  0.00    -0.497 OA
ATOM     36  C   UNL     1       1.086  -1.233  -0.392  1.00  0.00     0.278 C 
ENDBRANCH  30  35
ENDBRANCH  19  29
ENDBRANCH  17  18
ENDBRANCH  16  17
ENDBRANCH  12  16
ENDBRANCH   6  11
ENDBRANCH   3   5
ENDBRANCH   2   3
ENDBRANCH   1   2
BRANCH   1  37
ATOM     37  C   UNL     1      -7.464   2.956  -1.126  1.00  0.00     0.202 C 
BRANCH  37  38
ATOM     38  O   UNL     1      -7.223   4.061  -1.998  1.00  0.00    -0.374 OA
BRANCH  38  39
ATOM     39  C   UNL     1      -5.904   4.565  -2.179  1.00  0.00     0.202 C 
BRANCH  39  40
ATOM     40  C   UNL     1      -5.246   5.335  -1.043  1.00  0.00     0.261 C 
BRANCH  40  41
ATOM     41  O   UNL     1      -5.191   4.568   0.146  1.00  0.00    -0.460 OA
BRANCH  41  42
ATOM     42  C   UNL     1      -6.182   4.842   1.018  1.00  0.00     0.338 C 
ATOM     43  O   UNL     1      -7.179   5.533   0.820  1.00  0.00    -0.246 OA
BRANCH  42  44
ATOM     44  C   UNL     1      -5.801   4.319   2.329  1.00  0.00     0.060 A 
ATOM     45  C   UNL     1      -6.545   4.827   3.393  1.00  0.00     0.016 A 
ATOM     46  C   UNL     1      -4.524   3.759   2.497  1.00  0.00     0.016 A 
ATOM     47  C   UNL     1      -5.872   5.098   4.554  1.00  0.00     0.010 A 
ATOM     48  C   UNL     1      -3.851   4.040   3.656  1.00  0.00     0.010 A 
ATOM     49  C   UNL     1      -4.503   4.809   4.613  1.00  0.00    -0.014 A 
BRANCH  49  50
ATOM     50  C   UNL     1      -3.785   5.262   5.777  1.00  0.00     0.031 A 
ATOM     51  C   UNL     1      -4.134   4.465   6.966  1.00  0.00     0.074 A 
ATOM     52  C   UNL     1      -2.874   6.250   5.731  1.00  0.00     0.049 A 
ATOM     53  N   UNL     1      -4.857   4.830   7.969  1.00  0.00    -0.248 NA
ATOM     54  C   UNL     1      -3.849   3.022   6.913  1.00  0.00     0.031 C 
ATOM     55  C   UNL     1      -2.291   6.911   4.562  1.00  0.00     0.029 A 
ATOM     56  N   UNL     1      -2.201   6.812   6.769  1.00  0.00    -0.354 N 
ATOM     57  C   UNL     1      -4.920   3.713   8.792  1.00  0.00     0.074 A 
ATOM     58  C   UNL     1      -4.499   2.594   7.995  1.00  0.00     0.031 C 
ATOM     59  C   UNL     1      -1.194   7.607   4.947  1.00  0.00     0.029 A 
ATOM     60  C   UNL     1      -1.084   7.548   6.394  1.00  0.00     0.049 A 
ATOM     61  H   UNL     1      -2.482   6.707   7.707  1.00  0.00     0.167 HD
ATOM     62  C   UNL     1      -5.007   3.857  10.140  1.00  0.00     0.037 A 
ATOM     63  C   UNL     1      -0.111   7.967   7.243  1.00  0.00     0.037 A 
ATOM     64  C   UNL     1      -5.486   5.172  10.491  1.00  0.00     0.049 A 
ATOM     65  C   UNL     1      -0.682   7.933   8.618  1.00  0.00     0.074 A 
ATOM     66  C   UNL     1      -6.635   5.891  10.224  1.00  0.00     0.029 A 
ATOM     67  N   UNL     1      -4.558   6.095  10.911  1.00  0.00    -0.354 N 
ATOM     68  N   UNL     1      -1.626   8.737   9.026  1.00  0.00    -0.248 NA
ATOM     69  C   UNL     1      -0.556   6.690   9.368  1.00  0.00     0.031 C 
ATOM     70  C   UNL     1      -6.199   7.237  10.041  1.00  0.00     0.029 A 
ATOM     71  C   UNL     1      -4.823   7.276  10.267  1.00  0.00     0.049 A 
ATOM     72  H   UNL     1      -3.834   5.937  11.559  1.00  0.00     0.167 HD
ATOM     73  C   UNL     1      -2.474   7.937   9.780  1.00  0.00     0.074 A 
ATOM     74  C   UNL     1      -1.729   6.701  10.009  1.00  0.00     0.031 C 
ATOM     75  C   UNL     1      -3.803   8.229   9.895  1.00  0.00     0.037 A 
BRANCH  62  76
ATOM     76  C   UNL     1      -4.242   2.987  11.107  1.00  0.00     0.057 A 
ATOM     77  C   UNL     1      -4.454   3.171  12.483  1.00  0.00     0.134 A 
ATOM     78  C   UNL     1      -3.106   2.215  10.775  1.00  0.00     0.134 A 
ATOM     79  F   UNL     1      -5.499   3.885  12.929  1.00  0.00    -0.206 F 
ATOM     80  C   UNL     1      -3.550   2.712  13.447  1.00  0.00     0.040 A 
ATOM     81  C   UNL     1      -2.227   1.709  11.733  1.00  0.00     0.040 A 
ATOM     82  F   UNL     1      -2.717   1.988   9.517  1.00  0.00    -0.206 F 
ATOM     83  C   UNL     1      -2.425   1.990  13.072  1.00  0.00     0.006 A 
ENDBRANCH  62  76
BRANCH  63  84
ATOM     84  C   UNL     1       1.349   8.019   6.997  1.00  0.00     0.057 A 
ATOM     85  C   UNL     1       2.205   8.725   7.855  1.00  0.00     0.134 A 
ATOM     86  C   UNL     1       1.973   7.150   6.084  1.00  0.00     0.134 A 
ATOM     87  F   UNL     1       1.704   9.541   8.794  1.00  0.00    -0.206 F 
ATOM     88  C   UNL     1       3.597   8.564   7.819  1.00  0.00     0.040 A 
ATOM     89  C   UNL     1       3.361   6.984   6.033  1.00  0.00     0.040 A 
ATOM     90  F   UNL     1       1.253   6.363   5.272  1.00  0.00    -0.206 F 
ATOM     91  C   UNL     1       4.179   7.682   6.912  1.00  0.00     0.006 A 
ENDBRANCH  63  84
BRANCH  75  92
ATOM     92  C   UNL     1      -4.277   9.559   9.379  1.00  0.00     0.057 A 
ATOM     93  C   UNL     1      -4.233   9.940   8.029  1.00  0.00     0.134 A 
ATOM     94  C   UNL     1      -4.942  10.420  10.258  1.00  0.00     0.134 A 
ATOM     95  F   UNL     1      -3.705   9.133   7.099  1.00  0.00    -0.206 F 
ATOM     96  C   UNL     1      -4.790  11.143   7.584  1.00  0.00     0.040 A 
ATOM     97  C   UNL     1      -5.531  11.608   9.821  1.00  0.00     0.040 A 
ATOM     98  F   UNL     1      -5.073  10.093  11.553  1.00  0.00    -0.206 F 
ATOM     99  C   UNL     1      -5.448  11.979   8.481  1.00  0.00     0.006 A 
ENDBRANCH  75  92
ENDBRANCH  49  50
ENDBRANCH  42  44
ENDBRANCH  41  42
ENDBRANCH  40  41
ENDBRANCH  39  40
ENDBRANCH  38  39
ENDBRANCH  37  38
ENDBRANCH   1  37
TORSDOF 20
