REMARK SMILES CC(C)Cc1ccc(S(=O)(=O)Nc2cnc(N3CCCC3)c(C(=O)OCCOCCOC(=O)c3ccc(-c4c5nc(c(-c6c(F)cccc6F)c6ccc([nH]6)c(-c6c(F)cccc6F)c6nc(c(-c7c(F)cccc7F)c7ccc4[nH]7)C=C6)C=C5)cc3)c2)cc1
REMARK SMILES IDX 26 1 25 2 23 3 24 4 22 5 13 6 14 7 88 8 15 9 16 10 12 11
REMARK SMILES IDX 9 13 10 14 11 15 8 16 5 17 6 18 90 19 7 20 89 21 4 22 2 23
REMARK SMILES IDX 1 24 3 25 17 26 18 27 21 28 19 29 20 30 27 31 28 32 29 33
REMARK SMILES IDX 30 34 31 35 32 36 33 37 34 38 35 39 87 40 36 41 86 42 37 43
REMARK SMILES IDX 38 44 39 45 80 46 40 47 85 48 79 49 81 50 41 51 84 52 78 53
REMARK SMILES IDX 77 54 42 56 68 57 51 58 67 59 52 60 55 61 66 62 82 63 53 64
REMARK SMILES IDX 54 65 65 67 83 68 56 69 43 70 44 71 49 72 45 73 46 74 48 75
REMARK SMILES IDX 50 76 47 77 69 78 70 79 75 80 71 81 72 82 74 83 76 84 73 85
REMARK SMILES IDX 57 86 58 87 63 88 59 89 60 90 62 91 64 92 61 93
REMARK H PARENT 12 12 81 55 55 66
REMARK Flexibility Score: inf
ROOT
ATOM      1  C   UNL     1       0.998  -2.736   1.341  1.00  0.00     0.261 C 
ENDROOT
BRANCH   1   2
ATOM      2  O   UNL     1       0.118  -2.334   2.402  1.00  0.00    -0.460 OA
BRANCH   2   3
ATOM      3  C   UNL     1      -1.205  -2.429   2.106  1.00  0.00     0.342 C 
ATOM      4  O   UNL     1      -1.675  -2.714   1.018  1.00  0.00    -0.246 OA
BRANCH   3   5
ATOM      5  C   UNL     1      -2.017  -2.083   3.287  1.00  0.00     0.104 A 
ATOM      6  C   UNL     1      -2.628  -0.349   4.842  1.00  0.00     0.068 A 
ATOM      7  C   UNL     1      -3.778  -1.080   5.101  1.00  0.00     0.140 A 
ATOM      8  C   UNL     1      -1.723  -0.876   3.935  1.00  0.00     0.048 A 
ATOM      9  N   UNL     1      -4.031  -2.298   4.557  1.00  0.00    -0.236 NA
ATOM     10  C   UNL     1      -3.161  -2.811   3.650  1.00  0.00     0.143 A 
BRANCH   6  11
ATOM     11  N   UNL     1      -2.398   0.973   5.344  1.00  0.00    -0.278 N 
ATOM     12  H   UNL     1      -1.881   1.121   6.168  1.00  0.00     0.180 HD
BRANCH  11  13
ATOM     13  S   UNL     1      -3.054   2.288   4.462  1.00  0.00     0.261 S 
ATOM     14  O   UNL     1      -2.404   3.465   4.991  1.00  0.00    -0.201 OA
ATOM     15  O   UNL     1      -4.497   2.154   4.516  1.00  0.00    -0.201 OA
BRANCH  13  16
ATOM     16  C   UNL     1      -2.546   2.082   2.771  1.00  0.00     0.087 A 
ATOM     17  C   UNL     1      -1.675   1.661   0.135  1.00  0.00    -0.048 A 
ATOM     18  C   UNL     1      -1.181   2.738   0.887  1.00  0.00     0.005 A 
ATOM     19  C   UNL     1      -2.682   0.859   0.689  1.00  0.00     0.005 A 
ATOM     20  C   UNL     1      -1.593   2.935   2.210  1.00  0.00     0.022 A 
ATOM     21  C   UNL     1      -3.145   1.094   1.984  1.00  0.00     0.022 A 
BRANCH  17  22
ATOM     22  C   UNL     1      -1.162   1.360  -1.259  1.00  0.00     0.038 C 
BRANCH  22  23
ATOM     23  C   UNL     1       0.376   1.363  -1.409  1.00  0.00    -0.013 C 
ATOM     24  C   UNL     1       1.045   0.393  -0.439  1.00  0.00     0.008 C 
ATOM     25  C   UNL     1       0.769   0.977  -2.838  1.00  0.00     0.008 C 
ENDBRANCH  22  23
ENDBRANCH  17  22
ENDBRANCH  13  16
ENDBRANCH  11  13
ENDBRANCH   6  11
BRANCH  10  26
ATOM     26  N   UNL     1      -3.461  -4.071   3.207  1.00  0.00    -0.356 N 
ATOM     27  C   UNL     1      -2.666  -5.225   3.587  1.00  0.00     0.118 C 
ATOM     28  C   UNL     1      -4.142  -4.285   1.936  1.00  0.00     0.118 C 
ATOM     29  C   UNL     1      -2.351  -5.881   2.249  1.00  0.00     0.023 C 
ATOM     30  C   UNL     1      -3.640  -5.658   1.466  1.00  0.00     0.023 C 
ENDBRANCH  10  26
ENDBRANCH   3   5
ENDBRANCH   2   3
ENDBRANCH   1   2
BRANCH   1  31
ATOM     31  C   UNL     1       2.131  -3.645   1.813  1.00  0.00     0.202 C 
BRANCH  31  32
ATOM     32  O   UNL     1       1.794  -4.883   2.428  1.00  0.00    -0.374 OA
BRANCH  32  33
ATOM     33  C   UNL     1       0.997  -4.844   3.604  1.00  0.00     0.202 C 
BRANCH  33  34
ATOM     34  C   UNL     1       1.617  -4.332   4.912  1.00  0.00     0.261 C 
BRANCH  34  35
ATOM     35  O   UNL     1       2.340  -3.101   4.788  1.00  0.00    -0.460 OA
BRANCH  35  36
ATOM     36  C   UNL     1       3.686  -3.259   4.749  1.00  0.00     0.338 C 
ATOM     37  O   UNL     1       4.316  -4.300   4.827  1.00  0.00    -0.246 OA
BRANCH  36  38
ATOM     38  C   UNL     1       4.329  -1.973   4.434  1.00  0.00     0.060 A 
ATOM     39  C   UNL     1       5.144  -1.913   3.296  1.00  0.00     0.016 A 
ATOM     40  C   UNL     1       4.216  -0.879   5.293  1.00  0.00     0.016 A 
ATOM     41  C   UNL     1       5.888  -0.768   3.035  1.00  0.00     0.010 A 
ATOM     42  C   UNL     1       4.978   0.264   5.040  1.00  0.00     0.010 A 
ATOM     43  C   UNL     1       5.844   0.306   3.933  1.00  0.00    -0.014 A 
BRANCH  43  44
ATOM     44  C   UNL     1       6.843   1.389   3.807  1.00  0.00     0.031 A 
ATOM     45  C   UNL     1       8.107   1.298   4.615  1.00  0.00     0.074 A 
ATOM     46  C   UNL     1       6.647   2.409   2.956  1.00  0.00     0.049 A 
ATOM     47  N   UNL     1       9.118   2.125   4.671  1.00  0.00    -0.248 NA
ATOM     48  C   UNL     1       8.248   0.111   5.474  1.00  0.00     0.031 C 
ATOM     49  C   UNL     1       5.485   2.571   2.085  1.00  0.00     0.029 A 
ATOM     50  N   UNL     1       7.430   3.501   2.686  1.00  0.00    -0.354 N 
ATOM     51  C   UNL     1      10.016   1.558   5.567  1.00  0.00     0.074 A 
ATOM     52  C   UNL     1       9.416   0.336   6.056  1.00  0.00     0.031 C 
ATOM     53  C   UNL     1       5.630   3.704   1.376  1.00  0.00     0.029 A 
ATOM     54  C   UNL     1       6.879   4.356   1.765  1.00  0.00     0.049 A 
ATOM     55  H   UNL     1       8.304   3.657   3.112  1.00  0.00     0.167 HD
ATOM     56  C   UNL     1      11.235   2.012   5.942  1.00  0.00     0.037 A 
ATOM     57  C   UNL     1       7.331   5.537   1.303  1.00  0.00     0.037 A 
ATOM     58  C   UNL     1      11.820   3.237   5.466  1.00  0.00     0.049 A 
ATOM     59  C   UNL     1       8.646   6.069   1.805  1.00  0.00     0.074 A 
ATOM     60  C   UNL     1      13.049   3.789   5.781  1.00  0.00     0.029 A 
ATOM     61  N   UNL     1      11.205   4.107   4.577  1.00  0.00    -0.354 N 
ATOM     62  N   UNL     1       9.496   5.521   2.641  1.00  0.00    -0.248 NA
ATOM     63  C   UNL     1       9.063   7.384   1.301  1.00  0.00     0.031 C 
ATOM     64  C   UNL     1      13.158   5.016   5.116  1.00  0.00     0.029 A 
ATOM     65  C   UNL     1      12.018   5.205   4.351  1.00  0.00     0.049 A 
ATOM     66  H   UNL     1      10.322   3.964   4.167  1.00  0.00     0.167 HD
ATOM     67  C   UNL     1      10.558   6.410   2.743  1.00  0.00     0.074 A 
ATOM     68  C   UNL     1      10.249   7.529   1.877  1.00  0.00     0.031 C 
ATOM     69  C   UNL     1      11.690   6.309   3.484  1.00  0.00     0.037 A 
BRANCH  56  70
ATOM     70  C   UNL     1      11.992   1.187   6.941  1.00  0.00     0.057 A 
ATOM     71  C   UNL     1      12.557  -0.050   6.602  1.00  0.00     0.134 A 
ATOM     72  C   UNL     1      12.151   1.630   8.260  1.00  0.00     0.134 A 
ATOM     73  F   UNL     1      12.425  -0.540   5.360  1.00  0.00    -0.206 F 
ATOM     74  C   UNL     1      13.226  -0.830   7.547  1.00  0.00     0.040 A 
ATOM     75  C   UNL     1      12.839   0.870   9.207  1.00  0.00     0.040 A 
ATOM     76  F   UNL     1      11.635   2.805   8.650  1.00  0.00    -0.206 F 
ATOM     77  C   UNL     1      13.371  -0.368   8.854  1.00  0.00     0.006 A 
ENDBRANCH  56  70
BRANCH  57  78
ATOM     78  C   UNL     1       6.532   6.296   0.310  1.00  0.00     0.057 A 
ATOM     79  C   UNL     1       6.961   6.424  -1.015  1.00  0.00     0.134 A 
ATOM     80  C   UNL     1       5.324   6.910   0.661  1.00  0.00     0.134 A 
ATOM     81  F   UNL     1       8.121   5.876  -1.405  1.00  0.00    -0.206 F 
ATOM     82  C   UNL     1       6.221   7.142  -1.956  1.00  0.00     0.040 A 
ATOM     83  C   UNL     1       4.563   7.613  -0.274  1.00  0.00     0.040 A 
ATOM     84  F   UNL     1       4.859   6.822   1.916  1.00  0.00    -0.206 F 
ATOM     85  C   UNL     1       5.015   7.734  -1.587  1.00  0.00     0.006 A 
ENDBRANCH  57  78
BRANCH  69  86
ATOM     86  C   UNL     1      12.688   7.423   3.365  1.00  0.00     0.057 A 
ATOM     87  C   UNL     1      12.469   8.676   3.949  1.00  0.00     0.134 A 
ATOM     88  C   UNL     1      13.900   7.224   2.691  1.00  0.00     0.134 A 
ATOM     89  F   UNL     1      11.323   8.933   4.597  1.00  0.00    -0.206 F 
ATOM     90  C   UNL     1      13.412   9.700   3.850  1.00  0.00     0.040 A 
ATOM     91  C   UNL     1      14.861   8.232   2.607  1.00  0.00     0.040 A 
ATOM     92  F   UNL     1      14.174   6.043   2.116  1.00  0.00    -0.206 F 
ATOM     93  C   UNL     1      14.616   9.476   3.183  1.00  0.00     0.006 A 
ENDBRANCH  69  86
ENDBRANCH  43  44
ENDBRANCH  36  38
ENDBRANCH  35  36
ENDBRANCH  34  35
ENDBRANCH  33  34
ENDBRANCH  32  33
ENDBRANCH  31  32
ENDBRANCH   1  31
TORSDOF 20
