REMARK SMILES O=C(OCCOCCOC(=O)c1ccc(-c2c3nc(c(-c4c(F)cccc4F)c4ccc([nH]4)c(-c4c(F)cccc4F)c4nc(c(-c5c(F)cccc5F)c5ccc2[nH]5)C=C4)C=C3)cc1)c1ccc(/C=C/c2ccc3cccc(O)c3n2)cc1
REMARK SMILES IDX 5 1 4 2 3 3 2 4 1 5 66 6 67 7 84 8 68 9 83 10 69 11 70 12
REMARK SMILES IDX 71 13 72 14 73 15 82 16 74 17 81 18 75 19 79 20 76 21 78 22
REMARK SMILES IDX 77 23 80 24 6 26 7 27 8 28 9 29 10 30 11 31 12 32 13 33
REMARK SMILES IDX 65 34 14 35 64 36 15 37 16 38 17 39 58 40 18 41 63 42 57 43
REMARK SMILES IDX 59 44 19 45 62 46 56 47 55 48 20 50 46 51 29 52 45 53 30 54
REMARK SMILES IDX 33 55 44 56 60 57 31 58 32 59 43 61 61 62 34 63 21 64 22 65
REMARK SMILES IDX 27 66 23 67 24 68 26 69 28 70 25 71 47 72 48 73 53 74 49 75
REMARK SMILES IDX 50 76 52 77 54 78 51 79 35 80 36 81 41 82 37 83 38 84 40 85
REMARK SMILES IDX 42 86 39 87
REMARK H PARENT 80 25 59 49 33 60
REMARK Flexibility Score: inf
ROOT
ATOM      1  C   UNL     1       4.581  -1.434   0.388  1.00  0.00     0.202 C 
ENDROOT
BRANCH   1   2
ATOM      2  C   UNL     1       4.451  -0.057   1.037  1.00  0.00     0.261 C 
BRANCH   2   3
ATOM      3  O   UNL     1       3.076   0.342   1.059  1.00  0.00    -0.460 OA
BRANCH   3   4
ATOM      4  C   UNL     1       2.451   1.137   0.167  1.00  0.00     0.338 C 
ATOM      5  O   UNL     1       1.226   1.239   0.225  1.00  0.00    -0.246 OA
BRANCH   4   6
ATOM      6  C   UNL     1       3.153   1.945  -0.874  1.00  0.00     0.060 A 
ATOM      7  C   UNL     1       4.148   1.485  -1.746  1.00  0.00     0.016 A 
ATOM      8  C   UNL     1       2.612   3.211  -1.109  1.00  0.00     0.016 A 
ATOM      9  C   UNL     1       4.545   2.229  -2.866  1.00  0.00     0.009 A 
ATOM     10  C   UNL     1       3.009   3.955  -2.220  1.00  0.00     0.009 A 
ATOM     11  C   UNL     1       3.953   3.456  -3.134  1.00  0.00    -0.026 A 
BRANCH  11  12
ATOM     12  C   UNL     1       4.299   4.310  -4.275  1.00  0.00     0.010 C 
ATOM     13  C   UNL     1       5.368   4.240  -5.098  1.00  0.00     0.029 C 
BRANCH  13  14
ATOM     14  C   UNL     1       5.865   5.571  -5.576  1.00  0.00     0.064 A 
ATOM     15  C   UNL     1       6.744   6.084  -4.628  1.00  0.00     0.029 A 
ATOM     16  N   UNL     1       4.950   6.355  -6.199  1.00  0.00    -0.245 NA
ATOM     17  C   UNL     1       6.288   7.175  -3.900  1.00  0.00     0.013 A 
ATOM     18  C   UNL     1       4.596   7.498  -5.567  1.00  0.00     0.113 A 
ATOM     19  C   UNL     1       5.134   7.848  -4.317  1.00  0.00     0.004 A 
ATOM     20  C   UNL     1       3.615   8.331  -6.097  1.00  0.00     0.141 A 
ATOM     21  C   UNL     1       4.507   8.825  -3.528  1.00  0.00     0.010 A 
ATOM     22  C   UNL     1       3.042   9.365  -5.361  1.00  0.00     0.048 A 
ATOM     23  C   UNL     1       3.445   9.566  -4.043  1.00  0.00     0.005 A 
BRANCH  20  24
ATOM     24  O   UNL     1       3.183   8.136  -7.385  1.00  0.00    -0.506 OA
ATOM     25  H   UNL     1       2.523   8.694  -7.748  1.00  0.00     0.293 HD
ENDBRANCH  20  24
ENDBRANCH  13  14
ENDBRANCH  11  12
ENDBRANCH   4   6
ENDBRANCH   3   4
ENDBRANCH   2   3
ENDBRANCH   1   2
BRANCH   1  26
ATOM     26  O   UNL     1       4.138  -1.463  -0.968  1.00  0.00    -0.374 OA
BRANCH  26  27
ATOM     27  C   UNL     1       2.753  -1.773  -1.174  1.00  0.00     0.202 C 
BRANCH  27  28
ATOM     28  C   UNL     1       2.639  -2.931  -2.167  1.00  0.00     0.261 C 
BRANCH  28  29
ATOM     29  O   UNL     1       3.211  -4.094  -1.556  1.00  0.00    -0.460 OA
BRANCH  29  30
ATOM     30  C   UNL     1       4.559  -4.185  -1.695  1.00  0.00     0.338 C 
ATOM     31  O   UNL     1       5.253  -3.677  -2.551  1.00  0.00    -0.246 OA
BRANCH  30  32
ATOM     32  C   UNL     1       5.094  -4.853  -0.488  1.00  0.00     0.060 A 
ATOM     33  C   UNL     1       6.368  -4.476  -0.046  1.00  0.00     0.016 A 
ATOM     34  C   UNL     1       4.351  -5.807   0.214  1.00  0.00     0.016 A 
ATOM     35  C   UNL     1       6.928  -5.100   1.063  1.00  0.00     0.010 A 
ATOM     36  C   UNL     1       4.908  -6.429   1.328  1.00  0.00     0.010 A 
ATOM     37  C   UNL     1       6.217  -6.112   1.722  1.00  0.00    -0.014 A 
BRANCH  37  38
ATOM     38  C   UNL     1       6.923  -6.971   2.692  1.00  0.00     0.031 A 
ATOM     39  C   UNL     1       7.410  -8.315   2.226  1.00  0.00     0.074 A 
ATOM     40  C   UNL     1       7.162  -6.538   3.940  1.00  0.00     0.049 A 
ATOM     41  N   UNL     1       8.073  -9.230   2.881  1.00  0.00    -0.248 NA
ATOM     42  C   UNL     1       7.103  -8.677   0.831  1.00  0.00     0.031 C 
ATOM     43  C   UNL     1       6.738  -5.248   4.483  1.00  0.00     0.029 A 
ATOM     44  N   UNL     1       7.823  -7.142   4.976  1.00  0.00    -0.354 N 
ATOM     45  C   UNL     1       8.272 -10.267   1.978  1.00  0.00     0.074 A 
ATOM     46  C   UNL     1       7.612  -9.896   0.747  1.00  0.00     0.031 C 
ATOM     47  C   UNL     1       7.148  -5.158   5.759  1.00  0.00     0.029 A 
ATOM     48  C   UNL     1       7.841  -6.391   6.125  1.00  0.00     0.049 A 
ATOM     49  H   UNL     1       8.244  -8.028   4.904  1.00  0.00     0.167 HD
ATOM     50  C   UNL     1       8.964 -11.416   2.155  1.00  0.00     0.037 A 
ATOM     51  C   UNL     1       8.352  -6.682   7.335  1.00  0.00     0.037 A 
ATOM     52  C   UNL     1       9.603 -11.779   3.391  1.00  0.00     0.049 A 
ATOM     53  C   UNL     1       9.072  -7.991   7.521  1.00  0.00     0.074 A 
ATOM     54  C   UNL     1      10.327 -12.919   3.687  1.00  0.00     0.029 A 
ATOM     55  N   UNL     1       9.587 -11.003   4.541  1.00  0.00    -0.354 N 
ATOM     56  N   UNL     1       9.284  -8.952   6.653  1.00  0.00    -0.248 NA
ATOM     57  C   UNL     1       9.638  -8.250   8.852  1.00  0.00     0.031 C 
ATOM     58  C   UNL     1      10.708 -12.855   5.032  1.00  0.00     0.029 A 
ATOM     59  C   UNL     1      10.273 -11.647   5.556  1.00  0.00     0.049 A 
ATOM     60  H   UNL     1       9.151 -10.124   4.623  1.00  0.00     0.167 HD
ATOM     61  C   UNL     1      10.024  -9.918   7.324  1.00  0.00     0.074 A 
ATOM     62  C   UNL     1      10.250  -9.409   8.662  1.00  0.00     0.031 C 
ATOM     63  C   UNL     1      10.474 -11.119   6.882  1.00  0.00     0.037 A 
BRANCH  50  64
ATOM     64  C   UNL     1       9.051 -12.357   0.988  1.00  0.00     0.057 A 
ATOM     65  C   UNL     1       9.804 -12.050  -0.154  1.00  0.00     0.134 A 
ATOM     66  C   UNL     1       8.395 -13.594   1.013  1.00  0.00     0.134 A 
ATOM     67  F   UNL     1      10.441 -10.873  -0.253  1.00  0.00    -0.206 F 
ATOM     68  C   UNL     1       9.886 -12.930  -1.235  1.00  0.00     0.040 A 
ATOM     69  C   UNL     1       8.492 -14.494  -0.050  1.00  0.00     0.040 A 
ATOM     70  F   UNL     1       7.654 -13.951   2.073  1.00  0.00    -0.206 F 
ATOM     71  C   UNL     1       9.235 -14.161  -1.180  1.00  0.00     0.006 A 
ENDBRANCH  50  64
BRANCH  51  72
ATOM     72  C   UNL     1       8.198  -5.725   8.461  1.00  0.00     0.057 A 
ATOM     73  C   UNL     1       9.300  -5.068   9.021  1.00  0.00     0.134 A 
ATOM     74  C   UNL     1       6.941  -5.462   9.020  1.00  0.00     0.134 A 
ATOM     75  F   UNL     1      10.533  -5.290   8.543  1.00  0.00    -0.206 F 
ATOM     76  C   UNL     1       9.162  -4.208  10.113  1.00  0.00     0.040 A 
ATOM     77  C   UNL     1       6.785  -4.581  10.091  1.00  0.00     0.040 A 
ATOM     78  F   UNL     1       5.843  -6.052   8.526  1.00  0.00    -0.206 F 
ATOM     79  C   UNL     1       7.900  -3.959  10.648  1.00  0.00     0.006 A 
ENDBRANCH  51  72
BRANCH  63  80
ATOM     80  C   UNL     1      11.272 -11.942   7.854  1.00  0.00     0.057 A 
ATOM     81  C   UNL     1      10.685 -12.530   8.982  1.00  0.00     0.134 A 
ATOM     82  C   UNL     1      12.643 -12.149   7.655  1.00  0.00     0.134 A 
ATOM     83  F   UNL     1       9.378 -12.363   9.235  1.00  0.00    -0.206 F 
ATOM     84  C   UNL     1      11.443 -13.256   9.902  1.00  0.00     0.040 A 
ATOM     85  C   UNL     1      13.404 -12.901   8.550  1.00  0.00     0.040 A 
ATOM     86  F   UNL     1      13.265 -11.626   6.588  1.00  0.00    -0.206 F 
ATOM     87  C   UNL     1      12.806 -13.446   9.685  1.00  0.00     0.006 A 
ENDBRANCH  63  80
ENDBRANCH  37  38
ENDBRANCH  30  32
ENDBRANCH  29  30
ENDBRANCH  28  29
ENDBRANCH  27  28
ENDBRANCH  26  27
ENDBRANCH   1  26
TORSDOF 17
