REMARK SMILES CN1C(=O)/C(=C\c2ccc(OCC(=O)OCCOCCOC(=O)c3ccc(-c4c5nc(c(-c6c(F)cccc6F)c6ccc([nH]6)c(-c6c(F)cccc6F)c6nc(c(-c7c(F)cccc7F)c7ccc4[nH]7)C=C6)C=C5)cc3)cc2)C(O)=NC1=S
REMARK SMILES IDX 17 1 16 2 15 3 13 4 14 5 12 6 11 7 10 8 7 9 8 10 79 11 9 12
REMARK SMILES IDX 78 13 6 14 1 15 2 16 3 17 83 18 4 19 5 20 82 21 84 22 80 23
REMARK SMILES IDX 81 24 18 26 19 27 20 28 21 29 22 30 23 31 24 32 25 33 77 34
REMARK SMILES IDX 26 35 76 36 27 37 28 38 29 39 70 40 30 41 75 42 69 43 71 44
REMARK SMILES IDX 31 45 74 46 68 47 67 48 32 50 58 51 41 52 57 53 42 54 45 55
REMARK SMILES IDX 56 56 72 57 43 58 44 59 55 61 73 62 46 63 33 64 34 65 39 66
REMARK SMILES IDX 35 67 36 68 38 69 40 70 37 71 59 72 60 73 65 74 61 75 62 76
REMARK SMILES IDX 64 77 66 78 63 79 47 80 48 81 53 82 49 83 50 84 52 85 54 86
REMARK SMILES IDX 51 87
REMARK H PARENT 81 25 71 49 45 60
REMARK Flexibility Score: inf
ROOT
ATOM      1  C   UNL     1      -0.195  -5.350   1.695  1.00  0.00     0.202 C 
ENDROOT
BRANCH   1   2
ATOM      2  C   UNL     1      -0.689  -6.638   1.028  1.00  0.00     0.261 C 
BRANCH   2   3
ATOM      3  O   UNL     1      -0.866  -6.533  -0.404  1.00  0.00    -0.461 OA
BRANCH   3   4
ATOM      4  C   UNL     1      -2.071  -6.960  -0.878  1.00  0.00     0.344 C 
ATOM      5  O   UNL     1      -3.001  -7.339  -0.170  1.00  0.00    -0.248 OA
BRANCH   4   6
ATOM      6  C   UNL     1      -2.170  -6.996  -2.406  1.00  0.00     0.351 C 
BRANCH   6   7
ATOM      7  O   UNL     1      -1.202  -6.355  -3.211  1.00  0.00    -0.482 OA
BRANCH   7   8
ATOM      8  C   UNL     1      -1.374  -5.060  -3.604  1.00  0.00     0.120 A 
ATOM      9  C   UNL     1      -1.271  -2.312  -4.265  1.00  0.00    -0.024 A 
ATOM     10  C   UNL     1      -0.205  -3.156  -4.582  1.00  0.00     0.012 A 
ATOM     11  C   UNL     1      -2.427  -2.872  -3.703  1.00  0.00     0.012 A 
ATOM     12  C   UNL     1      -0.261  -4.516  -4.255  1.00  0.00     0.047 A 
ATOM     13  C   UNL     1      -2.482  -4.242  -3.377  1.00  0.00     0.047 A 
BRANCH   9  14
ATOM     14  C   UNL     1      -1.198  -0.870  -4.552  1.00  0.00     0.027 C 
ATOM     15  C   UNL     1       0.775   0.609  -0.436  1.00  0.00     0.156 C 
ATOM     16  N   UNL     1       0.358   0.936  -1.798  1.00  0.00    -0.286 N 
ATOM     17  C   UNL     1       0.310  -0.160  -2.666  1.00  0.00     0.265 C 
ATOM     18  C   UNL     1       0.089   2.250  -2.207  1.00  0.00     0.205 C 
ATOM     19  O   UNL     1       0.889  -1.224  -2.465  1.00  0.00    -0.268 OA
ATOM     20  C   UNL     1      -0.489   0.075  -3.895  1.00  0.00     0.103 C 
ATOM     21  N   UNL     1      -0.277   2.473  -3.511  1.00  0.00    -0.184 NA
ATOM     22  S   UNL     1       0.229   3.603  -1.194  1.00  0.00    -0.038 S 
ATOM     23  C   UNL     1      -0.550   1.486  -4.278  1.00  0.00     0.226 C 
BRANCH  23  24
ATOM     24  O   UNL     1      -0.862   1.766  -5.555  1.00  0.00    -0.493 OA
ATOM     25  H   UNL     1      -1.068   1.072  -6.150  1.00  0.00     0.295 HD
ENDBRANCH  23  24
ENDBRANCH   9  14
ENDBRANCH   7   8
ENDBRANCH   6   7
ENDBRANCH   4   6
ENDBRANCH   3   4
ENDBRANCH   2   3
ENDBRANCH   1   2
BRANCH   1  26
ATOM     26  O   UNL     1      -1.062  -4.220   1.678  1.00  0.00    -0.374 OA
BRANCH  26  27
ATOM     27  C   UNL     1      -1.535  -3.769   0.421  1.00  0.00     0.202 C 
BRANCH  27  28
ATOM     28  C   UNL     1      -0.527  -3.215  -0.587  1.00  0.00     0.261 C 
BRANCH  28  29
ATOM     29  O   UNL     1       0.813  -3.682  -0.511  1.00  0.00    -0.460 OA
BRANCH  29  30
ATOM     30  C   UNL     1       1.600  -2.913   0.274  1.00  0.00     0.338 C 
ATOM     31  O   UNL     1       1.255  -1.984   0.983  1.00  0.00    -0.246 OA
BRANCH  30  32
ATOM     32  C   UNL     1       2.968  -3.451   0.282  1.00  0.00     0.060 A 
ATOM     33  C   UNL     1       3.629  -3.433   1.512  1.00  0.00     0.016 A 
ATOM     34  C   UNL     1       3.601  -3.933  -0.870  1.00  0.00     0.016 A 
ATOM     35  C   UNL     1       4.937  -3.883   1.594  1.00  0.00     0.010 A 
ATOM     36  C   UNL     1       4.918  -4.393  -0.785  1.00  0.00     0.010 A 
ATOM     37  C   UNL     1       5.590  -4.355   0.446  1.00  0.00    -0.014 A 
BRANCH  37  38
ATOM     38  C   UNL     1       7.000  -4.770   0.584  1.00  0.00     0.031 A 
ATOM     39  C   UNL     1       8.093  -3.808   0.236  1.00  0.00     0.074 A 
ATOM     40  C   UNL     1       7.270  -5.964   1.139  1.00  0.00     0.049 A 
ATOM     41  N   UNL     1       9.379  -3.913   0.444  1.00  0.00    -0.248 NA
ATOM     42  C   UNL     1       7.685  -2.558  -0.423  1.00  0.00     0.031 C 
ATOM     43  C   UNL     1       6.265  -6.955   1.528  1.00  0.00     0.029 A 
ATOM     44  N   UNL     1       8.462  -6.532   1.501  1.00  0.00    -0.354 N 
ATOM     45  C   UNL     1       9.934  -2.738  -0.041  1.00  0.00     0.074 A 
ATOM     46  C   UNL     1       8.851  -1.950  -0.591  1.00  0.00     0.031 C 
ATOM     47  C   UNL     1       6.883  -8.001   2.099  1.00  0.00     0.029 A 
ATOM     48  C   UNL     1       8.322  -7.759   2.099  1.00  0.00     0.049 A 
ATOM     49  H   UNL     1       9.334  -6.101   1.347  1.00  0.00     0.167 HD
ATOM     50  C   UNL     1      11.231  -2.351  -0.015  1.00  0.00     0.037 A 
ATOM     51  C   UNL     1       9.257  -8.588   2.599  1.00  0.00     0.037 A 
ATOM     52  C   UNL     1      12.297  -3.154   0.524  1.00  0.00     0.049 A 
ATOM     53  C   UNL     1      10.694  -8.151   2.577  1.00  0.00     0.074 A 
ATOM     54  C   UNL     1      13.647  -2.862   0.601  1.00  0.00     0.029 A 
ATOM     55  N   UNL     1      12.127  -4.417   1.073  1.00  0.00    -0.354 N 
ATOM     56  N   UNL     1      11.206  -7.023   2.146  1.00  0.00    -0.248 NA
ATOM     57  C   UNL     1      11.681  -9.095   3.115  1.00  0.00     0.031 C 
ATOM     58  C   UNL     1      14.299  -3.967   1.162  1.00  0.00     0.029 A 
ATOM     59  C   UNL     1      13.350  -4.930   1.470  1.00  0.00     0.049 A 
ATOM     60  H   UNL     1      11.264  -4.881   1.167  1.00  0.00     0.167 HD
ATOM     61  C   UNL     1      12.572  -7.115   2.370  1.00  0.00     0.074 A 
ATOM     62  C   UNL     1      12.805  -8.402   2.996  1.00  0.00     0.031 C 
ATOM     63  C   UNL     1      13.549  -6.219   2.082  1.00  0.00     0.037 A 
BRANCH  50  64
ATOM     64  C   UNL     1      11.560  -1.013  -0.608  1.00  0.00     0.057 A 
ATOM     65  C   UNL     1      11.223   0.183   0.038  1.00  0.00     0.134 A 
ATOM     66  C   UNL     1      12.231  -0.919  -1.833  1.00  0.00     0.134 A 
ATOM     67  F   UNL     1      10.565   0.163   1.207  1.00  0.00    -0.206 F 
ATOM     68  C   UNL     1      11.523   1.426  -0.524  1.00  0.00     0.040 A 
ATOM     69  C   UNL     1      12.555   0.317  -2.396  1.00  0.00     0.040 A 
ATOM     70  F   UNL     1      12.583  -2.027  -2.504  1.00  0.00    -0.206 F 
ATOM     71  C   UNL     1      12.195   1.494  -1.743  1.00  0.00     0.006 A 
ENDBRANCH  50  64
BRANCH  51  72
ATOM     72  C   UNL     1       8.854  -9.900   3.162  1.00  0.00     0.057 A 
ATOM     73  C   UNL     1       8.928 -10.161   4.534  1.00  0.00     0.134 A 
ATOM     74  C   UNL     1       8.369 -10.922   2.335  1.00  0.00     0.134 A 
ATOM     75  F   UNL     1       9.399  -9.229   5.375  1.00  0.00    -0.206 F 
ATOM     76  C   UNL     1       8.544 -11.395   5.064  1.00  0.00     0.040 A 
ATOM     77  C   UNL     1       7.960 -12.151   2.854  1.00  0.00     0.040 A 
ATOM     78  F   UNL     1       8.268 -10.731   1.012  1.00  0.00    -0.206 F 
ATOM     79  C   UNL     1       8.052 -12.392   4.223  1.00  0.00     0.006 A 
ENDBRANCH  51  72
BRANCH  63  80
ATOM     80  C   UNL     1      14.949  -6.609   2.446  1.00  0.00     0.057 A 
ATOM     81  C   UNL     1      15.662  -7.558   1.704  1.00  0.00     0.134 A 
ATOM     82  C   UNL     1      15.601  -6.005   3.529  1.00  0.00     0.134 A 
ATOM     83  F   UNL     1      15.086  -8.181   0.664  1.00  0.00    -0.206 F 
ATOM     84  C   UNL     1      16.970  -7.910   2.039  1.00  0.00     0.040 A 
ATOM     85  C   UNL     1      16.916  -6.332   3.860  1.00  0.00     0.040 A 
ATOM     86  F   UNL     1      14.973  -5.082   4.274  1.00  0.00    -0.206 F 
ATOM     87  C   UNL     1      17.602  -7.291   3.117  1.00  0.00     0.006 A 
ENDBRANCH  63  80
ENDBRANCH  37  38
ENDBRANCH  30  32
ENDBRANCH  29  30
ENDBRANCH  28  29
ENDBRANCH  27  28
ENDBRANCH  26  27
ENDBRANCH   1  26
TORSDOF 18
