REMARK SMILES C#CCN(CC(=O)OCCOCCOC(=O)c1ccc(-c2c3nc(c(-c4c(F)cccc4F)c4ccc([nH]4)c(-c4c(F)cccc4F)c4nc(c(-c5c(F)cccc5F)c5ccc2[nH]5)C=C4)C=C3)cc1)C(=O)NCc1ccnc(C)n1
REMARK SMILES IDX 10 1 9 2 8 3 6 4 7 5 5 6 4 7 3 8 2 9 1 10 71 11 72 12 73 13
REMARK SMILES IDX 74 15 75 16 76 17 81 18 77 19 79 20 78 21 80 22 11 23 12 24
REMARK SMILES IDX 13 25 14 26 15 27 16 28 17 29 18 30 70 31 19 32 69 33 20 34
REMARK SMILES IDX 21 35 22 36 63 37 23 38 68 39 62 40 64 41 24 42 67 43 61 44
REMARK SMILES IDX 60 45 25 47 51 48 34 49 50 50 35 51 38 52 49 53 65 54 36 55
REMARK SMILES IDX 37 56 48 58 66 59 39 60 26 61 27 62 32 63 28 64 29 65 31 66
REMARK SMILES IDX 33 67 30 68 52 69 53 70 58 71 54 72 55 73 57 74 59 75 56 76
REMARK SMILES IDX 40 77 41 78 46 79 42 80 43 81 45 82 47 83 44 84
REMARK H PARENT 73 14 64 46 38 57
REMARK Flexibility Score: inf
ROOT
ATOM      1  C   UNL     1      -6.743   1.579  -1.079  1.00  0.00     0.202 C 
ENDROOT
BRANCH   1   2
ATOM      2  C   UNL     1      -6.386   0.125  -1.431  1.00  0.00     0.261 C 
BRANCH   2   3
ATOM      3  O   UNL     1      -4.981  -0.137  -1.233  1.00  0.00    -0.462 OA
BRANCH   3   4
ATOM      4  C   UNL     1      -4.402  -0.945  -2.163  1.00  0.00     0.325 C 
ATOM      5  O   UNL     1      -5.028  -1.667  -2.933  1.00  0.00    -0.250 OA
BRANCH   4   6
ATOM      6  C   UNL     1      -2.871  -0.983  -2.066  1.00  0.00     0.245 C 
BRANCH   6   7
ATOM      7  N   UNL     1      -2.165   0.146  -1.450  1.00  0.00    -0.303 N 
BRANCH   7   8
ATOM      8  C   UNL     1      -1.728  -0.024  -0.016  1.00  0.00     0.211 C 
BRANCH   8   9
ATOM      9  C   UNL     1      -0.208  -0.024  -0.016  1.00  0.00    -0.085 C 
ATOM     10  C   UNL     1       1.096  -0.024  -0.016  1.00  0.00     0.006 C 
ENDBRANCH   8   9
ENDBRANCH   7   8
BRANCH   7  11
ATOM     11  C   UNL     1      -1.739   1.273  -2.104  1.00  0.00     0.319 C 
ATOM     12  O   UNL     1      -1.072   2.139  -1.524  1.00  0.00    -0.249 OA
ATOM     13  N   UNL     1      -2.002   1.595  -3.383  1.00  0.00    -0.332 N 
ATOM     14  H   UNL     1      -1.494   2.404  -3.622  1.00  0.00     0.165 HD
BRANCH  13  15
ATOM     15  C   UNL     1      -2.785   1.159  -4.546  1.00  0.00     0.174 C 
BRANCH  15  16
ATOM     16  C   UNL     1      -4.026   1.994  -4.831  1.00  0.00     0.063 A 
ATOM     17  C   UNL     1      -3.962   3.365  -5.017  1.00  0.00     0.046 A 
ATOM     18  N   UNL     1      -5.203   1.330  -4.896  1.00  0.00    -0.236 NA
ATOM     19  C   UNL     1      -5.162   4.017  -5.222  1.00  0.00     0.115 A 
ATOM     20  C   UNL     1      -6.319   2.057  -5.127  1.00  0.00     0.125 A 
ATOM     21  N   UNL     1      -6.344   3.387  -5.303  1.00  0.00    -0.242 NA
ATOM     22  C   UNL     1      -7.623   1.327  -5.204  1.00  0.00     0.089 C 
ENDBRANCH  15  16
ENDBRANCH  13  15
ENDBRANCH   7  11
ENDBRANCH   6   7
ENDBRANCH   4   6
ENDBRANCH   3   4
ENDBRANCH   2   3
ENDBRANCH   1   2
BRANCH   1  23
ATOM     23  O   UNL     1      -6.000   2.596  -1.758  1.00  0.00    -0.374 OA
BRANCH  23  24
ATOM     24  C   UNL     1      -4.599   2.558  -1.482  1.00  0.00     0.202 C 
BRANCH  24  25
ATOM     25  C   UNL     1      -3.902   3.905  -1.691  1.00  0.00     0.261 C 
BRANCH  25  26
ATOM     26  O   UNL     1      -4.198   4.758  -0.593  1.00  0.00    -0.460 OA
BRANCH  26  27
ATOM     27  C   UNL     1      -5.457   5.235  -0.671  1.00  0.00     0.338 C 
ATOM     28  O   UNL     1      -6.001   5.708  -1.654  1.00  0.00    -0.246 OA
BRANCH  27  29
ATOM     29  C   UNL     1      -6.124   4.890   0.596  1.00  0.00     0.060 A 
ATOM     30  C   UNL     1      -7.511   4.724   0.575  1.00  0.00     0.016 A 
ATOM     31  C   UNL     1      -5.388   4.687   1.773  1.00  0.00     0.016 A 
ATOM     32  C   UNL     1      -8.182   4.470   1.760  1.00  0.00     0.010 A 
ATOM     33  C   UNL     1      -6.055   4.408   2.954  1.00  0.00     0.010 A 
ATOM     34  C   UNL     1      -7.455   4.376   2.954  1.00  0.00    -0.014 A 
BRANCH  34  35
ATOM     35  C   UNL     1      -8.161   4.493   4.238  1.00  0.00     0.031 A 
ATOM     36  C   UNL     1      -8.162   5.835   4.910  1.00  0.00     0.074 A 
ATOM     37  C   UNL     1      -8.785   3.428   4.761  1.00  0.00     0.049 A 
ATOM     38  N   UNL     1      -8.694   6.191   6.047  1.00  0.00    -0.248 NA
ATOM     39  C   UNL     1      -7.455   6.923   4.209  1.00  0.00     0.031 C 
ATOM     40  C   UNL     1      -8.835   2.097   4.157  1.00  0.00     0.029 A 
ATOM     41  N   UNL     1      -9.493   3.304   5.922  1.00  0.00    -0.354 N 
ATOM     42  C   UNL     1      -8.386   7.538   6.195  1.00  0.00     0.074 A 
ATOM     43  C   UNL     1      -7.576   7.925   5.065  1.00  0.00     0.031 C 
ATOM     44  C   UNL     1      -9.546   1.286   4.958  1.00  0.00     0.029 A 
ATOM     45  C   UNL     1      -9.971   2.037   6.136  1.00  0.00     0.049 A 
ATOM     46  H   UNL     1      -9.645   4.052   6.545  1.00  0.00     0.167 HD
ATOM     47  C   UNL     1      -8.767   8.379   7.183  1.00  0.00     0.037 A 
ATOM     48  C   UNL     1     -10.665   1.553   7.180  1.00  0.00     0.037 A 
ATOM     49  C   UNL     1      -9.569   7.964   8.301  1.00  0.00     0.049 A 
ATOM     50  C   UNL     1     -11.031   2.496   8.294  1.00  0.00     0.074 A 
ATOM     51  C   UNL     1     -10.031   8.718   9.362  1.00  0.00     0.029 A 
ATOM     52  N   UNL     1     -10.023   6.666   8.498  1.00  0.00    -0.354 N 
ATOM     53  N   UNL     1     -10.769   3.777   8.415  1.00  0.00    -0.248 NA
ATOM     54  C   UNL     1     -11.796   1.931   9.411  1.00  0.00     0.031 C 
ATOM     55  C   UNL     1     -10.721   7.864  10.229  1.00  0.00     0.029 A 
ATOM     56  C   UNL     1     -10.742   6.591   9.677  1.00  0.00     0.049 A 
ATOM     57  H   UNL     1      -9.858   5.911   7.888  1.00  0.00     0.167 HD
ATOM     58  C   UNL     1     -11.361   4.179   9.604  1.00  0.00     0.074 A 
ATOM     59  C   UNL     1     -12.009   3.006  10.158  1.00  0.00     0.031 C 
ATOM     60  C   UNL     1     -11.374   5.402  10.191  1.00  0.00     0.037 A 
BRANCH  47  61
ATOM     61  C   UNL     1      -8.302   9.804   7.098  1.00  0.00     0.057 A 
ATOM     62  C   UNL     1      -8.777  10.683   6.115  1.00  0.00     0.134 A 
ATOM     63  C   UNL     1      -7.369  10.307   8.013  1.00  0.00     0.134 A 
ATOM     64  F   UNL     1      -9.656  10.261   5.192  1.00  0.00    -0.206 F 
ATOM     65  C   UNL     1      -8.323  12.001   6.029  1.00  0.00     0.040 A 
ATOM     66  C   UNL     1      -6.929  11.631   7.956  1.00  0.00     0.040 A 
ATOM     67  F   UNL     1      -6.868   9.521   8.978  1.00  0.00    -0.206 F 
ATOM     68  C   UNL     1      -7.402  12.480   6.957  1.00  0.00     0.006 A 
ENDBRANCH  47  61
BRANCH  48  69
ATOM     69  C   UNL     1     -11.067   0.125   7.207  1.00  0.00     0.057 A 
ATOM     70  C   UNL     1     -12.411  -0.252   7.101  1.00  0.00     0.134 A 
ATOM     71  C   UNL     1     -10.120  -0.898   7.335  1.00  0.00     0.134 A 
ATOM     72  F   UNL     1     -13.367   0.682   6.989  1.00  0.00    -0.206 F 
ATOM     73  C   UNL     1     -12.800  -1.591   7.142  1.00  0.00     0.040 A 
ATOM     74  C   UNL     1     -10.492  -2.243   7.350  1.00  0.00     0.040 A 
ATOM     75  F   UNL     1      -8.814  -0.606   7.428  1.00  0.00    -0.206 F 
ATOM     76  C   UNL     1     -11.838  -2.592   7.262  1.00  0.00     0.006 A 
ENDBRANCH  48  69
BRANCH  60  77
ATOM     77  C   UNL     1     -12.143   5.532  11.473  1.00  0.00     0.057 A 
ATOM     78  C   UNL     1     -11.690   4.962  12.669  1.00  0.00     0.134 A 
ATOM     79  C   UNL     1     -13.332   6.271  11.514  1.00  0.00     0.134 A 
ATOM     80  F   UNL     1     -10.564   4.234  12.693  1.00  0.00    -0.206 F 
ATOM     81  C   UNL     1     -12.411   5.097  13.856  1.00  0.00     0.040 A 
ATOM     82  C   UNL     1     -14.043   6.440  12.701  1.00  0.00     0.040 A 
ATOM     83  F   UNL     1     -13.813   6.853  10.405  1.00  0.00    -0.206 F 
ATOM     84  C   UNL     1     -13.587   5.844  13.875  1.00  0.00     0.006 A 
ENDBRANCH  60  77
ENDBRANCH  34  35
ENDBRANCH  27  29
ENDBRANCH  26  27
ENDBRANCH  25  26
ENDBRANCH  24  25
ENDBRANCH  23  24
ENDBRANCH   1  23
TORSDOF 20
