REMARK SMILES CCc1ccc(S(=O)(=O)c2nnn(-c3ccc(C(=O)OCCOCCOC(=O)c4ccc(-c5c6nc(c(-c7c(F)cccc7F)c7ccc([nH]7)c(-c7c(F)cccc7F)c7nc(c(-c8c(F)cccc8F)c8ccc5[nH]8)C=C7)C=C6)cc4)cc3)c2C)cc1
REMARK SMILES IDX 22 1 21 2 20 3 18 4 19 5 17 6 14 7 15 8 84 9 16 10 83 11
REMARK SMILES IDX 13 12 10 13 11 14 85 15 12 16 86 17 7 18 8 19 9 20 6 21 3 22
REMARK SMILES IDX 4 23 88 24 5 25 87 26 2 27 1 28 23 29 24 30 25 31 26 32
REMARK SMILES IDX 27 33 28 34 29 35 30 36 82 37 31 38 81 39 32 40 33 41 34 42
REMARK SMILES IDX 75 43 35 44 80 45 74 46 76 47 36 48 79 49 73 50 72 51 37 53
REMARK SMILES IDX 63 54 46 55 62 56 47 57 50 58 61 59 77 60 48 61 49 62 60 64
REMARK SMILES IDX 78 65 51 66 38 67 39 68 44 69 40 70 41 71 43 72 45 73 42 74
REMARK SMILES IDX 64 75 65 76 70 77 66 78 67 79 69 80 71 81 68 82 52 83 53 84
REMARK SMILES IDX 58 85 54 86 55 87 57 88 59 89 56 90
REMARK H PARENT 76 52 50 63
REMARK Flexibility Score: inf
ROOT
ATOM      1  C   UNL     1      -3.771  12.477   7.954  1.00  0.00     0.202 C 
ENDROOT
BRANCH   1   2
ATOM      2  C   UNL     1      -2.862  11.247   7.964  1.00  0.00     0.261 C 
BRANCH   2   3
ATOM      3  O   UNL     1      -2.195  11.047   6.709  1.00  0.00    -0.460 OA
BRANCH   3   4
ATOM      4  C   UNL     1      -2.651   9.988   6.000  1.00  0.00     0.338 C 
ATOM      5  O   UNL     1      -3.510   9.190   6.334  1.00  0.00    -0.246 OA
BRANCH   4   6
ATOM      6  C   UNL     1      -2.059   9.986   4.649  1.00  0.00     0.060 A 
ATOM      7  C   UNL     1      -0.942   9.512   2.164  1.00  0.00     0.067 A 
ATOM      8  C   UNL     1      -2.325   9.383   2.315  1.00  0.00     0.029 A 
ATOM      9  C   UNL     1      -0.146  10.027   3.199  1.00  0.00     0.029 A 
ATOM     10  C   UNL     1      -2.876   9.591   3.577  1.00  0.00     0.018 A 
ATOM     11  C   UNL     1      -0.709  10.275   4.447  1.00  0.00     0.018 A 
BRANCH   7  12
ATOM     12  N   UNL     1      -0.325   8.939   1.032  1.00  0.00    -0.216 N 
ATOM     13  C   UNL     1       0.895   7.731  -0.304  1.00  0.00     0.205 A 
ATOM     14  N   UNL     1      -0.103   8.318  -1.035  1.00  0.00    -0.117 NA
ATOM     15  C   UNL     1       0.740   8.052   1.034  1.00  0.00     0.081 A 
ATOM     16  N   UNL     1      -0.886   8.985  -0.197  1.00  0.00    -0.061 NA
ATOM     17  C   UNL     1       1.360   7.480   2.257  1.00  0.00     0.070 C 
BRANCH  13  18
ATOM     18  S   UNL     1       2.010   6.605  -0.993  1.00  0.00     0.227 S 
ATOM     19  O   UNL     1       3.270   6.924  -0.340  1.00  0.00    -0.217 OA
ATOM     20  O   UNL     1       1.836   6.689  -2.425  1.00  0.00    -0.217 OA
BRANCH  18  21
ATOM     21  C   UNL     1       1.531   4.980  -0.471  1.00  0.00     0.073 A 
ATOM     22  C   UNL     1       0.897   2.379   0.379  1.00  0.00    -0.048 A 
ATOM     23  C   UNL     1       2.139   2.654  -0.209  1.00  0.00     0.005 A 
ATOM     24  C   UNL     1      -0.010   3.435   0.561  1.00  0.00     0.005 A 
ATOM     25  C   UNL     1       2.458   3.947  -0.633  1.00  0.00     0.021 A 
ATOM     26  C   UNL     1       0.294   4.727   0.126  1.00  0.00     0.021 A 
BRANCH  22  27
ATOM     27  C   UNL     1       0.525   0.998   0.870  1.00  0.00     0.032 C 
ATOM     28  C   UNL     1       0.957  -0.144  -0.042  1.00  0.00     0.009 C 
ENDBRANCH  22  27
ENDBRANCH  18  21
ENDBRANCH  13  18
ENDBRANCH   7  12
ENDBRANCH   4   6
ENDBRANCH   3   4
ENDBRANCH   2   3
ENDBRANCH   1   2
BRANCH   1  29
ATOM     29  O   UNL     1      -4.891  12.494   7.071  1.00  0.00    -0.374 OA
BRANCH  29  30
ATOM     30  C   UNL     1      -4.702  12.542   5.662  1.00  0.00     0.202 C 
BRANCH  30  31
ATOM     31  C   UNL     1      -4.151  13.815   5.040  1.00  0.00     0.261 C 
BRANCH  31  32
ATOM     32  O   UNL     1      -2.884  14.166   5.571  1.00  0.00    -0.460 OA
BRANCH  32  33
ATOM     33  C   UNL     1      -2.936  15.163   6.483  1.00  0.00     0.338 C 
ATOM     34  O   UNL     1      -3.921  15.590   7.060  1.00  0.00    -0.246 OA
BRANCH  33  35
ATOM     35  C   UNL     1      -1.617  15.797   6.546  1.00  0.00     0.060 A 
ATOM     36  C   UNL     1      -1.553  16.974   7.292  1.00  0.00     0.016 A 
ATOM     37  C   UNL     1      -0.633  15.444   5.610  1.00  0.00     0.016 A 
ATOM     38  C   UNL     1      -0.654  17.932   6.896  1.00  0.00     0.010 A 
ATOM     39  C   UNL     1       0.256  16.407   5.208  1.00  0.00     0.010 A 
ATOM     40  C   UNL     1       0.157  17.667   5.787  1.00  0.00    -0.014 A 
BRANCH  40  41
ATOM     41  C   UNL     1       0.989  18.738   5.298  1.00  0.00     0.031 A 
ATOM     42  C   UNL     1       2.114  19.020   6.210  1.00  0.00     0.074 A 
ATOM     43  C   UNL     1       0.786  19.326   4.106  1.00  0.00     0.049 A 
ATOM     44  N   UNL     1       2.273  20.057   6.959  1.00  0.00    -0.248 NA
ATOM     45  C   UNL     1       3.058  17.923   6.483  1.00  0.00     0.031 C 
ATOM     46  C   UNL     1      -0.135  18.943   3.034  1.00  0.00     0.029 A 
ATOM     47  N   UNL     1       1.463  20.372   3.565  1.00  0.00    -0.354 N 
ATOM     48  C   UNL     1       3.469  19.840   7.631  1.00  0.00     0.074 A 
ATOM     49  C   UNL     1       3.783  18.445   7.471  1.00  0.00     0.031 C 
ATOM     50  C   UNL     1       0.211  19.592   1.897  1.00  0.00     0.029 A 
ATOM     51  C   UNL     1       1.283  20.526   2.196  1.00  0.00     0.049 A 
ATOM     52  H   UNL     1       2.034  20.971   4.099  1.00  0.00     0.167 HD
ATOM     53  C   UNL     1       4.250  20.885   8.007  1.00  0.00     0.037 A 
ATOM     54  C   UNL     1       2.054  21.305   1.395  1.00  0.00     0.037 A 
ATOM     55  C   UNL     1       3.496  22.114   8.050  1.00  0.00     0.049 A 
ATOM     56  C   UNL     1       2.749  22.285   2.275  1.00  0.00     0.074 A 
ATOM     57  C   UNL     1       2.370  22.532   8.735  1.00  0.00     0.029 A 
ATOM     58  N   UNL     1       3.643  22.995   7.005  1.00  0.00    -0.354 N 
ATOM     59  N   UNL     1       2.134  23.247   2.907  1.00  0.00    -0.248 NA
ATOM     60  C   UNL     1       4.032  21.887   2.841  1.00  0.00     0.031 C 
ATOM     61  C   UNL     1       1.636  23.314   7.795  1.00  0.00     0.029 A 
ATOM     62  C   UNL     1       2.386  23.387   6.622  1.00  0.00     0.049 A 
ATOM     63  H   UNL     1       4.494  23.290   6.606  1.00  0.00     0.167 HD
ATOM     64  C   UNL     1       2.722  23.279   4.164  1.00  0.00     0.074 A 
ATOM     65  C   UNL     1       3.926  22.457   4.045  1.00  0.00     0.031 C 
ATOM     66  C   UNL     1       2.032  23.710   5.261  1.00  0.00     0.037 A 
BRANCH  53  67
ATOM     67  C   UNL     1       5.753  20.856   7.912  1.00  0.00     0.057 A 
ATOM     68  C   UNL     1       6.486  21.930   8.444  1.00  0.00     0.134 A 
ATOM     69  C   UNL     1       6.484  19.988   7.071  1.00  0.00     0.134 A 
ATOM     70  F   UNL     1       5.899  22.832   9.244  1.00  0.00    -0.206 F 
ATOM     71  C   UNL     1       7.821  22.166   8.098  1.00  0.00     0.040 A 
ATOM     72  C   UNL     1       7.830  20.184   6.765  1.00  0.00     0.040 A 
ATOM     73  F   UNL     1       5.921  18.967   6.415  1.00  0.00    -0.206 F 
ATOM     74  C   UNL     1       8.495  21.297   7.250  1.00  0.00     0.006 A 
ENDBRANCH  53  67
BRANCH  54  75
ATOM     75  C   UNL     1       2.512  21.029   0.011  1.00  0.00     0.057 A 
ATOM     76  C   UNL     1       3.118  22.031  -0.762  1.00  0.00     0.134 A 
ATOM     77  C   UNL     1       2.630  19.718  -0.483  1.00  0.00     0.134 A 
ATOM     78  F   UNL     1       3.098  23.309  -0.355  1.00  0.00    -0.206 F 
ATOM     79  C   UNL     1       3.824  21.744  -1.939  1.00  0.00     0.040 A 
ATOM     80  C   UNL     1       3.325  19.418  -1.659  1.00  0.00     0.040 A 
ATOM     81  F   UNL     1       2.155  18.670   0.205  1.00  0.00    -0.206 F 
ATOM     82  C   UNL     1       3.940  20.431  -2.384  1.00  0.00     0.006 A 
ENDBRANCH  54  75
BRANCH  66  83
ATOM     83  C   UNL     1       0.691  24.357   5.046  1.00  0.00     0.057 A 
ATOM     84  C   UNL     1      -0.421  23.699   4.496  1.00  0.00     0.134 A 
ATOM     85  C   UNL     1       0.473  25.636   5.567  1.00  0.00     0.134 A 
ATOM     86  F   UNL     1      -0.336  22.434   4.065  1.00  0.00    -0.206 F 
ATOM     87  C   UNL     1      -1.680  24.306   4.431  1.00  0.00     0.040 A 
ATOM     88  C   UNL     1      -0.786  26.240   5.539  1.00  0.00     0.040 A 
ATOM     89  F   UNL     1       1.475  26.303   6.161  1.00  0.00    -0.206 F 
ATOM     90  C   UNL     1      -1.866  25.579   4.962  1.00  0.00     0.006 A 
ENDBRANCH  66  83
ENDBRANCH  40  41
ENDBRANCH  33  35
ENDBRANCH  32  33
ENDBRANCH  31  32
ENDBRANCH  30  31
ENDBRANCH  29  30
ENDBRANCH   1  29
TORSDOF 18
