REMARK SMILES Cc1ccc(N2C(=O)C[C@H](Sc3ccccc3C(=O)OCCOCCOC(=O)c3ccc(-c4c5nc(c(-c6c(F)cccc6F)c6ccc([nH]6)c(-c6c(F)cccc6F)c6nc(c(-c7c(F)cccc7F)c7ccc4[nH]7)C=C6)C=C5)cc3)C2=O)cc1
REMARK SMILES IDX 22 1 21 2 20 3 18 4 19 5 17 6 12 7 13 8 14 9 16 10 15 11
REMARK SMILES IDX 11 12 10 13 6 14 7 15 83 16 8 17 9 18 84 19 5 20 1 21 2 22
REMARK SMILES IDX 3 23 86 24 4 25 85 26 23 27 24 28 25 29 26 30 27 31 28 32
REMARK SMILES IDX 29 33 30 34 82 35 31 36 81 37 32 38 33 39 34 40 75 41 35 42
REMARK SMILES IDX 80 43 74 44 76 45 36 46 79 47 73 48 72 49 37 51 63 52 46 53
REMARK SMILES IDX 62 54 47 55 50 56 61 57 77 58 48 59 49 60 60 62 78 63 51 64
REMARK SMILES IDX 38 65 39 66 44 67 40 68 41 69 43 70 45 71 42 72 64 73 65 74
REMARK SMILES IDX 70 75 66 76 67 77 69 78 71 79 68 80 52 81 53 82 58 83 54 84
REMARK SMILES IDX 55 85 57 86 59 87 56 88
REMARK H PARENT 76 50 50 61
REMARK Flexibility Score: inf
ROOT
ATOM      1  C   UNL     1      -4.285   3.992  -2.185  1.00  0.00     0.202 C 
ENDROOT
BRANCH   1   2
ATOM      2  C   UNL     1      -5.422   4.471  -1.371  1.00  0.00     0.261 C 
BRANCH   2   3
ATOM      3  O   UNL     1      -5.347   4.054   0.011  1.00  0.00    -0.460 OA
BRANCH   3   4
ATOM      4  C   UNL     1      -6.020   2.974   0.517  1.00  0.00     0.339 C 
ATOM      5  O   UNL     1      -6.747   2.214  -0.060  1.00  0.00    -0.246 OA
BRANCH   4   6
ATOM      6  C   UNL     1      -5.655   2.871   1.947  1.00  0.00     0.073 A 
ATOM      7  C   UNL     1      -5.646   1.655   2.656  1.00  0.00     0.023 A 
ATOM      8  C   UNL     1      -5.090   1.674   3.947  1.00  0.00     0.016 A 
ATOM      9  C   UNL     1      -4.571   2.848   4.508  1.00  0.00     0.001 A 
ATOM     10  C   UNL     1      -5.238   4.067   2.569  1.00  0.00     0.017 A 
ATOM     11  C   UNL     1      -4.676   4.054   3.832  1.00  0.00     0.001 A 
BRANCH   7  12
ATOM     12  S   UNL     1      -6.509   0.148   2.181  1.00  0.00    -0.111 SA
BRANCH  12  13
ATOM     13  C   UNL     1      -5.277  -0.958   1.418  1.00  0.00     0.151 C 
ATOM     14  N   UNL     1      -3.139  -0.880   0.517  1.00  0.00    -0.250 N 
ATOM     15  C   UNL     1      -3.958  -1.242  -0.525  1.00  0.00     0.235 C 
ATOM     16  C   UNL     1      -3.828  -0.658   1.686  1.00  0.00     0.247 C 
ATOM     17  O   UNL     1      -3.639  -1.531  -1.670  1.00  0.00    -0.274 OA
ATOM     18  C   UNL     1      -5.378  -1.010  -0.095  1.00  0.00     0.126 C 
ATOM     19  O   UNL     1      -3.342  -0.415   2.782  1.00  0.00    -0.273 OA
BRANCH  14  20
ATOM     20  C   UNL     1      -1.750  -0.689   0.391  1.00  0.00     0.052 A 
ATOM     21  C   UNL     1       2.490  -0.053  -0.031  1.00  0.00     0.044 C 
ATOM     22  C   UNL     1       1.008  -0.255   0.082  1.00  0.00    -0.051 A 
ATOM     23  C   UNL     1       0.449  -1.514  -0.174  1.00  0.00     0.005 A 
ATOM     24  C   UNL     1       0.175   0.786   0.502  1.00  0.00     0.005 A 
ATOM     25  C   UNL     1      -0.928  -1.720  -0.062  1.00  0.00     0.027 A 
ATOM     26  C   UNL     1      -1.189   0.559   0.694  1.00  0.00     0.027 A 
ENDBRANCH  14  20
ENDBRANCH  12  13
ENDBRANCH   7  12
ENDBRANCH   4   6
ENDBRANCH   3   4
ENDBRANCH   2   3
ENDBRANCH   1   2
BRANCH   1  27
ATOM     27  O   UNL     1      -4.450   2.612  -2.009  1.00  0.00    -0.374 OA
BRANCH  27  28
ATOM     28  C   UNL     1      -3.325   1.954  -1.559  1.00  0.00     0.202 C 
BRANCH  28  29
ATOM     29  C   UNL     1      -2.489   1.600  -2.760  1.00  0.00     0.261 C 
BRANCH  29  30
ATOM     30  O   UNL     1      -3.118   1.232  -4.050  1.00  0.00    -0.460 OA
BRANCH  30  31
ATOM     31  C   UNL     1      -4.146   1.676  -4.825  1.00  0.00     0.338 C 
ATOM     32  O   UNL     1      -3.969   1.896  -6.023  1.00  0.00    -0.246 OA
BRANCH  31  33
ATOM     33  C   UNL     1      -5.550   1.774  -4.336  1.00  0.00     0.060 A 
ATOM     34  C   UNL     1      -6.398   2.789  -4.839  1.00  0.00     0.016 A 
ATOM     35  C   UNL     1      -6.036   0.919  -3.361  1.00  0.00     0.016 A 
ATOM     36  C   UNL     1      -7.604   3.113  -4.192  1.00  0.00     0.010 A 
ATOM     37  C   UNL     1      -7.213   1.267  -2.703  1.00  0.00     0.010 A 
ATOM     38  C   UNL     1      -7.953   2.420  -3.042  1.00  0.00    -0.014 A 
BRANCH  38  39
ATOM     39  C   UNL     1      -9.040   2.800  -2.115  1.00  0.00     0.031 A 
ATOM     40  C   UNL     1     -10.201   1.897  -2.031  1.00  0.00     0.074 A 
ATOM     41  C   UNL     1      -8.934   3.797  -1.192  1.00  0.00     0.049 A 
ATOM     42  N   UNL     1     -11.294   2.207  -1.432  1.00  0.00    -0.248 NA
ATOM     43  C   UNL     1     -10.270   0.588  -2.677  1.00  0.00     0.031 C 
ATOM     44  C   UNL     1      -9.637   3.986   0.086  1.00  0.00     0.029 A 
ATOM     45  N   UNL     1      -8.061   4.887  -1.157  1.00  0.00    -0.354 N 
ATOM     46  C   UNL     1     -12.006   1.048  -1.259  1.00  0.00     0.074 A 
ATOM     47  C   UNL     1     -11.443   0.139  -2.221  1.00  0.00     0.031 C 
ATOM     48  C   UNL     1      -9.400   5.232   0.557  1.00  0.00     0.029 A 
ATOM     49  C   UNL     1      -8.654   5.946  -0.472  1.00  0.00     0.049 A 
ATOM     50  H   UNL     1      -7.161   4.904  -1.556  1.00  0.00     0.167 HD
ATOM     51  C   UNL     1     -12.863   0.986  -0.200  1.00  0.00     0.037 A 
ATOM     52  C   UNL     1      -8.957   7.091  -1.143  1.00  0.00     0.037 A 
ATOM     53  C   UNL     1     -12.978   2.311   0.451  1.00  0.00     0.049 A 
ATOM     54  C   UNL     1     -10.453   7.226  -1.195  1.00  0.00     0.074 A 
ATOM     55  C   UNL     1     -12.603   2.851   1.670  1.00  0.00     0.029 A 
ATOM     56  N   UNL     1     -13.304   3.405  -0.343  1.00  0.00    -0.354 N 
ATOM     57  N   UNL     1     -11.242   6.285  -0.759  1.00  0.00    -0.248 NA
ATOM     58  C   UNL     1     -11.193   8.352  -1.740  1.00  0.00     0.031 C 
ATOM     59  C   UNL     1     -12.704   4.281   1.577  1.00  0.00     0.029 A 
ATOM     60  C   UNL     1     -13.171   4.611   0.314  1.00  0.00     0.049 A 
ATOM     61  H   UNL     1     -13.599   3.328  -1.279  1.00  0.00     0.167 HD
ATOM     62  C   UNL     1     -12.536   6.639  -0.887  1.00  0.00     0.074 A 
ATOM     63  C   UNL     1     -12.461   7.921  -1.581  1.00  0.00     0.031 C 
ATOM     64  C   UNL     1     -13.530   5.839  -0.400  1.00  0.00     0.037 A 
BRANCH  51  65
ATOM     65  C   UNL     1     -13.481  -0.283   0.366  1.00  0.00     0.057 A 
ATOM     66  C   UNL     1     -14.321  -0.210   1.496  1.00  0.00     0.134 A 
ATOM     67  C   UNL     1     -13.266  -1.602  -0.089  1.00  0.00     0.134 A 
ATOM     68  F   UNL     1     -14.642   0.963   2.058  1.00  0.00    -0.206 F 
ATOM     69  C   UNL     1     -14.877  -1.340   2.119  1.00  0.00     0.040 A 
ATOM     70  C   UNL     1     -13.843  -2.736   0.504  1.00  0.00     0.040 A 
ATOM     71  F   UNL     1     -12.464  -1.900  -1.111  1.00  0.00    -0.206 F 
ATOM     72  C   UNL     1     -14.645  -2.611   1.620  1.00  0.00     0.006 A 
ENDBRANCH  51  65
BRANCH  52  73
ATOM     73  C   UNL     1      -7.963   7.415  -2.222  1.00  0.00     0.057 A 
ATOM     74  C   UNL     1      -6.666   7.838  -1.861  1.00  0.00     0.134 A 
ATOM     75  C   UNL     1      -8.099   6.888  -3.513  1.00  0.00     0.134 A 
ATOM     76  F   UNL     1      -6.427   8.299  -0.622  1.00  0.00    -0.206 F 
ATOM     77  C   UNL     1      -5.548   7.641  -2.693  1.00  0.00     0.040 A 
ATOM     78  C   UNL     1      -6.985   6.659  -4.339  1.00  0.00     0.040 A 
ATOM     79  F   UNL     1      -9.292   6.456  -3.945  1.00  0.00    -0.206 F 
ATOM     80  C   UNL     1      -5.701   6.996  -3.916  1.00  0.00     0.006 A 
ENDBRANCH  52  73
BRANCH  64  81
ATOM     81  C   UNL     1     -14.969   6.154  -0.634  1.00  0.00     0.057 A 
ATOM     82  C   UNL     1     -15.476   7.454  -0.571  1.00  0.00     0.134 A 
ATOM     83  C   UNL     1     -15.905   5.142  -0.922  1.00  0.00     0.134 A 
ATOM     84  F   UNL     1     -14.721   8.476  -0.141  1.00  0.00    -0.206 F 
ATOM     85  C   UNL     1     -16.789   7.750  -0.940  1.00  0.00     0.040 A 
ATOM     86  C   UNL     1     -17.234   5.416  -1.223  1.00  0.00     0.040 A 
ATOM     87  F   UNL     1     -15.579   3.844  -0.961  1.00  0.00    -0.206 F 
ATOM     88  C   UNL     1     -17.669   6.729  -1.279  1.00  0.00     0.006 A 
ENDBRANCH  64  81
ENDBRANCH  38  39
ENDBRANCH  31  33
ENDBRANCH  30  31
ENDBRANCH  29  30
ENDBRANCH  28  29
ENDBRANCH  27  28
ENDBRANCH   1  27
TORSDOF 17
