REMARK SMILES Cc1nc(-c2ccccc2)sc1C(=O)N[C@@H](CC1=c2ccccc2=NC1)C(=O)OCCOCCOC(=O)c1ccc(-c2c3nc(c(-c4c(F)cccc4F)c4ccc([nH]4)c(-c4c(F)cccc4F)c4nc(c(-c5c(F)cccc5F)c5ccc2[nH]5)C=C4)C=C3)cc1
REMARK SMILES IDX 31 1 30 2 29 3 27 4 28 5 16 6 15 7 13 8 14 9 12 11 1 12 2 13
REMARK SMILES IDX 3 14 4 15 11 16 5 17 6 18 10 19 7 20 9 21 8 22 17 23 18 24
REMARK SMILES IDX 19 25 26 26 20 27 24 28 25 29 21 30 23 31 22 32 32 33 33 34
REMARK SMILES IDX 34 35 35 36 36 37 37 38 38 39 39 40 91 41 40 42 90 43 41 44
REMARK SMILES IDX 42 45 43 46 84 47 44 48 89 49 83 50 85 51 45 52 88 53 82 54
REMARK SMILES IDX 81 55 46 57 72 58 55 59 71 60 56 61 59 62 70 63 86 64 57 65
REMARK SMILES IDX 58 66 69 68 87 69 60 70 47 71 48 72 53 73 49 74 50 75 52 76
REMARK SMILES IDX 54 77 51 78 73 79 74 80 79 81 75 82 76 83 78 84 80 85 77 86
REMARK SMILES IDX 61 87 62 88 67 89 63 90 64 91 66 92 68 93 65 94
REMARK H PARENT 15 10 85 56 59 67
REMARK Flexibility Score: inf
ROOT
ATOM      1  C   UNL     1      -4.658  -2.937   4.340  1.00  0.00     0.202 C 
ENDROOT
BRANCH   1   2
ATOM      2  C   UNL     1      -5.305  -3.225   2.979  1.00  0.00     0.261 C 
BRANCH   2   3
ATOM      3  O   UNL     1      -4.347  -3.231   1.909  1.00  0.00    -0.462 OA
BRANCH   3   4
ATOM      4  C   UNL     1      -4.741  -2.571   0.789  1.00  0.00     0.329 C 
ATOM      5  O   UNL     1      -5.890  -2.207   0.557  1.00  0.00    -0.250 OA
BRANCH   4   6
ATOM      6  C   UNL     1      -3.584  -2.276  -0.174  1.00  0.00     0.196 C 
BRANCH   6   7
ATOM      7  N   UNL     1      -2.238  -2.651   0.245  1.00  0.00    -0.338 N 
ATOM      8  C   UNL     1      -1.015  -2.028   0.244  1.00  0.00     0.264 C 
ATOM      9  O   UNL     1      -0.104  -2.818   0.530  1.00  0.00    -0.268 OA
ATOM     10  H   UNL     1      -2.198  -3.563   0.613  1.00  0.00     0.164 HD
BRANCH   8  11
ATOM     11  C   UNL     1      -0.752  -0.604  -0.005  1.00  0.00     0.115 A 
ATOM     12  C   UNL     1      -2.859   0.855  -0.683  1.00  0.00     0.068 C 
ATOM     13  C   UNL     1      -1.445   0.563  -0.340  1.00  0.00     0.062 A 
ATOM     14  N   UNL     1      -0.686   1.723  -0.340  1.00  0.00    -0.241 NA
ATOM     15  C   UNL     1       0.573   1.489  -0.087  1.00  0.00     0.124 A 
ATOM     16  S   UNL     1       0.950  -0.144   0.178  1.00  0.00    -0.108 S 
BRANCH  15  17
ATOM     17  C   UNL     1       1.558   2.563  -0.012  1.00  0.00     0.010 A 
ATOM     18  C   UNL     1       1.415   3.543   0.982  1.00  0.00     0.011 A 
ATOM     19  C   UNL     1       2.526   2.738  -1.008  1.00  0.00     0.011 A 
ATOM     20  C   UNL     1       2.213   4.687   0.973  1.00  0.00     0.001 A 
ATOM     21  C   UNL     1       3.320   3.889  -1.020  1.00  0.00     0.001 A 
ATOM     22  C   UNL     1       3.158   4.864  -0.035  1.00  0.00     0.000 A 
ENDBRANCH  15  17
ENDBRANCH   8  11
ENDBRANCH   6   7
BRANCH   6  23
ATOM     23  C   UNL     1      -3.894  -2.813  -1.581  1.00  0.00     0.070 C 
BRANCH  23  24
ATOM     24  C   UNL     1      -4.054  -4.302  -1.613  1.00  0.00    -0.037 C 
ATOM     25  C   UNL     1      -3.109  -5.230  -1.740  1.00  0.00     0.001 A 
ATOM     26  C   UNL     1      -5.403  -4.942  -1.457  1.00  0.00     0.174 C 
ATOM     27  C   UNL     1      -1.694  -5.220  -1.919  1.00  0.00     0.010 A 
ATOM     28  C   UNL     1      -3.861  -6.483  -1.559  1.00  0.00     0.065 A 
ATOM     29  N   UNL     1      -5.146  -6.399  -1.403  1.00  0.00    -0.280 NA
ATOM     30  C   UNL     1      -1.035  -6.390  -1.896  1.00  0.00     0.001 A 
ATOM     31  C   UNL     1      -3.065  -7.728  -1.535  1.00  0.00     0.028 A 
ATOM     32  C   UNL     1      -1.732  -7.649  -1.688  1.00  0.00     0.002 A 
ENDBRANCH  23  24
ENDBRANCH   6  23
ENDBRANCH   4   6
ENDBRANCH   3   4
ENDBRANCH   2   3
ENDBRANCH   1   2
BRANCH   1  33
ATOM     33  O   UNL     1      -3.768  -1.826   4.401  1.00  0.00    -0.374 OA
BRANCH  33  34
ATOM     34  C   UNL     1      -2.518  -1.934   3.714  1.00  0.00     0.202 C 
BRANCH  34  35
ATOM     35  C   UNL     1      -1.613  -3.125   4.067  1.00  0.00     0.261 C 
BRANCH  35  36
ATOM     36  O   UNL     1      -2.176  -4.395   3.674  1.00  0.00    -0.460 OA
BRANCH  36  37
ATOM     37  C   UNL     1      -2.123  -5.353   4.628  1.00  0.00     0.338 C 
ATOM     38  O   UNL     1      -1.605  -5.271   5.737  1.00  0.00    -0.246 OA
BRANCH  37  39
ATOM     39  C   UNL     1      -2.917  -6.529   4.243  1.00  0.00     0.060 A 
ATOM     40  C   UNL     1      -4.128  -6.759   4.909  1.00  0.00     0.016 A 
ATOM     41  C   UNL     1      -2.388  -7.492   3.382  1.00  0.00     0.016 A 
ATOM     42  C   UNL     1      -4.796  -7.972   4.743  1.00  0.00     0.010 A 
ATOM     43  C   UNL     1      -3.055  -8.713   3.225  1.00  0.00     0.010 A 
ATOM     44  C   UNL     1      -4.242  -8.973   3.933  1.00  0.00    -0.014 A 
BRANCH  44  45
ATOM     45  C   UNL     1      -4.837 -10.333   3.941  1.00  0.00     0.031 A 
ATOM     46  C   UNL     1      -4.247 -11.394   4.831  1.00  0.00     0.074 A 
ATOM     47  C   UNL     1      -5.917 -10.613   3.192  1.00  0.00     0.049 A 
ATOM     48  N   UNL     1      -4.604 -12.645   4.981  1.00  0.00    -0.248 NA
ATOM     49  C   UNL     1      -3.102 -10.991   5.662  1.00  0.00     0.031 C 
ATOM     50  C   UNL     1      -6.606  -9.666   2.318  1.00  0.00     0.029 A 
ATOM     51  N   UNL     1      -6.622 -11.782   3.049  1.00  0.00    -0.354 N 
ATOM     52  C   UNL     1      -3.731 -13.178   5.921  1.00  0.00     0.074 A 
ATOM     53  C   UNL     1      -2.810 -12.123   6.288  1.00  0.00     0.031 C 
ATOM     54  C   UNL     1      -7.635 -10.293   1.724  1.00  0.00     0.029 A 
ATOM     55  C   UNL     1      -7.660 -11.690   2.155  1.00  0.00     0.049 A 
ATOM     56  H   UNL     1      -6.404 -12.607   3.539  1.00  0.00     0.167 HD
ATOM     57  C   UNL     1      -3.702 -14.430   6.438  1.00  0.00     0.037 A 
ATOM     58  C   UNL     1      -8.520 -12.632   1.721  1.00  0.00     0.037 A 
ATOM     59  C   UNL     1      -4.614 -15.483   6.076  1.00  0.00     0.049 A 
ATOM     60  C   UNL     1      -8.422 -14.034   2.255  1.00  0.00     0.074 A 
ATOM     61  C   UNL     1      -4.672 -16.779   6.560  1.00  0.00     0.029 A 
ATOM     62  N   UNL     1      -5.623 -15.363   5.134  1.00  0.00    -0.354 N 
ATOM     63  N   UNL     1      -7.604 -14.522   3.156  1.00  0.00    -0.248 NA
ATOM     64  C   UNL     1      -9.367 -15.020   1.708  1.00  0.00     0.031 C 
ATOM     65  C   UNL     1      -5.692 -17.455   5.880  1.00  0.00     0.029 A 
ATOM     66  C   UNL     1      -6.293 -16.568   5.002  1.00  0.00     0.049 A 
ATOM     67  H   UNL     1      -5.833 -14.542   4.632  1.00  0.00     0.167 HD
ATOM     68  C   UNL     1      -7.947 -15.861   3.298  1.00  0.00     0.074 A 
ATOM     69  C   UNL     1      -9.055 -16.107   2.399  1.00  0.00     0.031 C 
ATOM     70  C   UNL     1      -7.394 -16.801   4.102  1.00  0.00     0.037 A 
BRANCH  57  71
ATOM     71  C   UNL     1      -2.629 -14.735   7.440  1.00  0.00     0.057 A 
ATOM     72  C   UNL     1      -2.686 -14.250   8.753  1.00  0.00     0.134 A 
ATOM     73  C   UNL     1      -1.540 -15.545   7.096  1.00  0.00     0.134 A 
ATOM     74  F   UNL     1      -3.697 -13.458   9.142  1.00  0.00    -0.206 F 
ATOM     75  C   UNL     1      -1.686 -14.543   9.682  1.00  0.00     0.040 A 
ATOM     76  C   UNL     1      -0.545 -15.862   8.022  1.00  0.00     0.040 A 
ATOM     77  F   UNL     1      -1.429 -16.045   5.856  1.00  0.00    -0.206 F 
ATOM     78  C   UNL     1      -0.614 -15.356   9.318  1.00  0.00     0.006 A 
ENDBRANCH  57  71
BRANCH  58  79
ATOM     79  C   UNL     1      -9.546 -12.281   0.710  1.00  0.00     0.057 A 
ATOM     80  C   UNL     1     -10.902 -12.207   1.049  1.00  0.00     0.134 A 
ATOM     81  C   UNL     1      -9.197 -12.023  -0.621  1.00  0.00     0.134 A 
ATOM     82  F   UNL     1     -11.299 -12.471   2.302  1.00  0.00    -0.206 F 
ATOM     83  C   UNL     1     -11.875 -11.896   0.099  1.00  0.00     0.040 A 
ATOM     84  C   UNL     1     -10.157 -11.689  -1.576  1.00  0.00     0.040 A 
ATOM     85  F   UNL     1      -7.914 -12.085  -1.008  1.00  0.00    -0.206 F 
ATOM     86  C   UNL     1     -11.502 -11.629  -1.218  1.00  0.00     0.006 A 
ENDBRANCH  58  79
BRANCH  70  87
ATOM     87  C   UNL     1      -7.990 -18.177   4.062  1.00  0.00     0.057 A 
ATOM     88  C   UNL     1      -7.760 -19.047   2.990  1.00  0.00     0.134 A 
ATOM     89  C   UNL     1      -8.771 -18.648   5.124  1.00  0.00     0.134 A 
ATOM     90  F   UNL     1      -7.030 -18.650   1.936  1.00  0.00    -0.206 F 
ATOM     91  C   UNL     1      -8.302 -20.333   2.966  1.00  0.00     0.040 A 
ATOM     92  C   UNL     1      -9.301 -19.940   5.122  1.00  0.00     0.040 A 
ATOM     93  F   UNL     1      -9.023 -17.867   6.185  1.00  0.00    -0.206 F 
ATOM     94  C   UNL     1      -9.070 -20.785   4.038  1.00  0.00     0.006 A 
ENDBRANCH  70  87
ENDBRANCH  44  45
ENDBRANCH  37  39
ENDBRANCH  36  37
ENDBRANCH  35  36
ENDBRANCH  34  35
ENDBRANCH  33  34
ENDBRANCH   1  33
TORSDOF 19
