REMARK SMILES C[C@@H](C(=O)OCCOCCOC(=O)c1ccc(-c2c3nc(c(-c4c(F)cccc4F)c4ccc([nH]4)c(-c4c(F)cccc4F)c4nc(c(-c5c(F)cccc5F)c5ccc2[nH]5)C=C4)C=C3)cc1)N1C(=O)/C(=C/c2ccc(-c3ccc([N+](=O)[O-])cc3Cl)o2)SC1=S
REMARK SMILES IDX 7 1 6 2 5 3 3 4 4 5 2 6 1 7 68 8 69 9 89 10 70 11 71 12
REMARK SMILES IDX 88 13 90 14 72 15 73 16 74 17 87 18 75 19 76 20 77 21 78 22
REMARK SMILES IDX 85 23 79 24 84 25 86 26 80 27 81 28 82 29 83 30 8 31 9 32
REMARK SMILES IDX 10 33 11 34 12 35 13 36 14 37 15 38 67 39 16 40 66 41 17 42
REMARK SMILES IDX 18 43 19 44 60 45 20 46 65 47 59 48 61 49 21 50 64 51 58 52
REMARK SMILES IDX 57 53 22 55 48 56 31 57 47 58 32 59 35 60 46 61 62 62 33 63
REMARK SMILES IDX 34 64 45 66 63 67 36 68 23 69 24 70 29 71 25 72 26 73 28 74
REMARK SMILES IDX 30 75 27 76 49 77 50 78 55 79 51 80 52 81 54 82 56 83 53 84
REMARK SMILES IDX 37 85 38 86 43 87 39 88 40 89 42 90 44 91 41 92
REMARK H PARENT 61 54 35 65
REMARK Flexibility Score: inf
ROOT
ATOM      1  C   UNL     1       2.050   0.478  -4.534  1.00  0.00     0.202 C 
ENDROOT
BRANCH   1   2
ATOM      2  C   UNL     1       2.062   1.808  -3.775  1.00  0.00     0.261 C 
BRANCH   2   3
ATOM      3  O   UNL     1       1.775   1.642  -2.373  1.00  0.00    -0.462 OA
BRANCH   3   4
ATOM      4  C   UNL     1       0.529   2.030  -1.986  1.00  0.00     0.329 C 
ATOM      5  O   UNL     1      -0.293   2.554  -2.732  1.00  0.00    -0.250 OA
BRANCH   4   6
ATOM      6  C   UNL     1       0.271   1.794  -0.487  1.00  0.00     0.199 C 
ATOM      7  C   UNL     1       1.067   0.644   0.132  1.00  0.00     0.044 C 
BRANCH   6   8
ATOM      8  N   UNL     1      -1.203   1.678  -0.344  1.00  0.00    -0.279 N 
ATOM      9  C   UNL     1      -1.853   0.477  -0.585  1.00  0.00     0.267 C 
ATOM     10  C   UNL     1      -2.022   2.788  -0.203  1.00  0.00     0.149 C 
ATOM     11  O   UNL     1      -1.326  -0.604  -0.814  1.00  0.00    -0.268 OA
ATOM     12  C   UNL     1      -3.328   0.666  -0.600  1.00  0.00     0.084 C 
ATOM     13  S   UNL     1      -3.706   2.327  -0.397  1.00  0.00    -0.054 SA
ATOM     14  S   UNL     1      -1.586   4.370   0.111  1.00  0.00    -0.052 S 
ATOM     15  C   UNL     1      -4.174  -0.360  -0.769  1.00  0.00     0.068 C 
BRANCH  15  16
ATOM     16  C   UNL     1      -5.574  -0.177  -0.918  1.00  0.00     0.128 A 
ATOM     17  C   UNL     1      -6.262   0.384  -1.988  1.00  0.00     0.051 A 
ATOM     18  O   UNL     1      -6.505  -0.564   0.021  1.00  0.00    -0.457 OA
ATOM     19  C   UNL     1      -7.637   0.374  -1.672  1.00  0.00     0.051 A 
ATOM     20  C   UNL     1      -7.738  -0.185  -0.418  1.00  0.00     0.136 A 
BRANCH  20  21
ATOM     21  C   UNL     1      -8.873  -0.440   0.460  1.00  0.00     0.036 A 
ATOM     22  C   UNL     1     -10.007  -1.070  -0.090  1.00  0.00     0.020 A 
ATOM     23  C   UNL     1      -8.928  -0.007   1.798  1.00  0.00     0.058 A 
ATOM     24  C   UNL     1     -11.171  -1.248   0.662  1.00  0.00     0.086 A 
ATOM     25  C   UNL     1     -10.092  -0.181   2.559  1.00  0.00     0.106 A 
ATOM     26  Cl  UNL     1      -7.616   0.825   2.562  1.00  0.00    -0.083 Cl
ATOM     27  C   UNL     1     -11.212  -0.791   1.983  1.00  0.00     0.270 A 
BRANCH  27  28
ATOM     28  N   UNL     1     -12.450  -0.925   2.761  1.00  0.00     0.062 N 
ATOM     29  O   UNL     1     -13.425  -1.450   2.204  1.00  0.00    -0.258 OA
ATOM     30  O   UNL     1     -12.449  -0.497   3.923  1.00  0.00    -0.258 OA
ENDBRANCH  27  28
ENDBRANCH  20  21
ENDBRANCH  15  16
ENDBRANCH   6   8
ENDBRANCH   4   6
ENDBRANCH   3   4
ENDBRANCH   2   3
ENDBRANCH   1   2
BRANCH   1  31
ATOM     31  O   UNL     1       0.795  -0.194  -4.626  1.00  0.00    -0.374 OA
BRANCH  31  32
ATOM     32  C   UNL     1       0.373  -0.941  -3.484  1.00  0.00     0.202 C 
BRANCH  32  33
ATOM     33  C   UNL     1       1.008  -2.322  -3.294  1.00  0.00     0.261 C 
BRANCH  33  34
ATOM     34  O   UNL     1       2.420  -2.226  -3.023  1.00  0.00    -0.460 OA
BRANCH  34  35
ATOM     35  C   UNL     1       3.218  -2.689  -4.010  1.00  0.00     0.338 C 
ATOM     36  O   UNL     1       2.873  -3.262  -5.037  1.00  0.00    -0.246 OA
BRANCH  35  37
ATOM     37  C   UNL     1       4.610  -2.256  -3.789  1.00  0.00     0.060 A 
ATOM     38  C   UNL     1       5.269  -1.647  -4.865  1.00  0.00     0.016 A 
ATOM     39  C   UNL     1       5.285  -2.501  -2.590  1.00  0.00     0.016 A 
ATOM     40  C   UNL     1       6.624  -1.340  -4.770  1.00  0.00     0.010 A 
ATOM     41  C   UNL     1       6.648  -2.198  -2.500  1.00  0.00     0.010 A 
ATOM     42  C   UNL     1       7.332  -1.655  -3.603  1.00  0.00    -0.014 A 
BRANCH  42  43
ATOM     43  C   UNL     1       8.812  -1.564  -3.609  1.00  0.00     0.031 A 
ATOM     44  C   UNL     1       9.617  -2.813  -3.843  1.00  0.00     0.074 A 
ATOM     45  C   UNL     1       9.431  -0.380  -3.458  1.00  0.00     0.049 A 
ATOM     46  N   UNL     1      10.915  -2.969  -3.884  1.00  0.00    -0.248 NA
ATOM     47  C   UNL     1       8.854  -4.053  -4.062  1.00  0.00     0.031 C 
ATOM     48  C   UNL     1       8.763   0.905  -3.266  1.00  0.00     0.029 A 
ATOM     49  N   UNL     1      10.768  -0.072  -3.442  1.00  0.00    -0.354 N 
ATOM     50  C   UNL     1      11.125  -4.320  -4.131  1.00  0.00     0.074 A 
ATOM     51  C   UNL     1       9.823  -4.946  -4.199  1.00  0.00     0.031 C 
ATOM     52  C   UNL     1       9.695   1.865  -3.142  1.00  0.00     0.029 A 
ATOM     53  C   UNL     1      11.023   1.258  -3.220  1.00  0.00     0.049 A 
ATOM     54  H   UNL     1      11.477  -0.741  -3.578  1.00  0.00     0.167 HD
ATOM     55  C   UNL     1      12.297  -4.978  -4.298  1.00  0.00     0.037 A 
ATOM     56  C   UNL     1      12.194   1.907  -3.079  1.00  0.00     0.037 A 
ATOM     57  C   UNL     1      13.593  -4.356  -4.232  1.00  0.00     0.049 A 
ATOM     58  C   UNL     1      13.485   1.142  -3.200  1.00  0.00     0.074 A 
ATOM     59  C   UNL     1      14.838  -4.936  -4.402  1.00  0.00     0.029 A 
ATOM     60  N   UNL     1      13.809  -3.012  -3.971  1.00  0.00    -0.354 N 
ATOM     61  N   UNL     1      13.671  -0.131  -3.454  1.00  0.00    -0.248 NA
ATOM     62  C   UNL     1      14.729   1.905  -3.017  1.00  0.00     0.031 C 
ATOM     63  C   UNL     1      15.810  -3.951  -4.199  1.00  0.00     0.029 A 
ATOM     64  C   UNL     1      15.169  -2.748  -3.950  1.00  0.00     0.049 A 
ATOM     65  H   UNL     1      13.102  -2.344  -3.822  1.00  0.00     0.167 HD
ATOM     66  C   UNL     1      15.048  -0.316  -3.488  1.00  0.00     0.074 A 
ATOM     67  C   UNL     1      15.650   0.978  -3.239  1.00  0.00     0.031 C 
ATOM     68  C   UNL     1      15.752  -1.454  -3.707  1.00  0.00     0.037 A 
BRANCH  55  69
ATOM     69  C   UNL     1      12.228  -6.455  -4.547  1.00  0.00     0.057 A 
ATOM     70  C   UNL     1      11.792  -6.979  -5.771  1.00  0.00     0.134 A 
ATOM     71  C   UNL     1      12.628  -7.365  -3.560  1.00  0.00     0.134 A 
ATOM     72  F   UNL     1      11.380  -6.162  -6.752  1.00  0.00    -0.206 F 
ATOM     73  C   UNL     1      11.737  -8.356  -5.997  1.00  0.00     0.040 A 
ATOM     74  C   UNL     1      12.601  -8.742  -3.783  1.00  0.00     0.040 A 
ATOM     75  F   UNL     1      13.059  -6.928  -2.367  1.00  0.00    -0.206 F 
ATOM     76  C   UNL     1      12.148  -9.241  -5.003  1.00  0.00     0.006 A 
ENDBRANCH  55  69
BRANCH  56  77
ATOM     77  C   UNL     1      12.205   3.364  -2.792  1.00  0.00     0.057 A 
ATOM     78  C   UNL     1      12.652   4.289  -3.742  1.00  0.00     0.134 A 
ATOM     79  C   UNL     1      11.788   3.862  -1.552  1.00  0.00     0.134 A 
ATOM     80  F   UNL     1      13.087   3.870  -4.939  1.00  0.00    -0.206 F 
ATOM     81  C   UNL     1      12.697   5.656  -3.465  1.00  0.00     0.040 A 
ATOM     82  C   UNL     1      11.805   5.229  -1.270  1.00  0.00     0.040 A 
ATOM     83  F   UNL     1      11.349   3.026  -0.599  1.00  0.00    -0.206 F 
ATOM     84  C   UNL     1      12.268   6.130  -2.227  1.00  0.00     0.006 A 
ENDBRANCH  56  77
BRANCH  68  85
ATOM     85  C   UNL     1      17.248  -1.347  -3.719  1.00  0.00     0.057 A 
ATOM     86  C   UNL     1      17.986  -1.167  -2.542  1.00  0.00     0.134 A 
ATOM     87  C   UNL     1      17.962  -1.468  -4.918  1.00  0.00     0.134 A 
ATOM     88  F   UNL     1      17.362  -1.032  -1.362  1.00  0.00    -0.206 F 
ATOM     89  C   UNL     1      19.380  -1.091  -2.561  1.00  0.00     0.040 A 
ATOM     90  C   UNL     1      19.356  -1.418  -4.946  1.00  0.00     0.040 A 
ATOM     91  F   UNL     1      17.316  -1.651  -6.080  1.00  0.00    -0.206 F 
ATOM     92  C   UNL     1      20.069  -1.224  -3.765  1.00  0.00     0.006 A 
ENDBRANCH  68  85
ENDBRANCH  42  43
ENDBRANCH  35  37
ENDBRANCH  34  35
ENDBRANCH  33  34
ENDBRANCH  32  33
ENDBRANCH  31  32
ENDBRANCH   1  31
TORSDOF 18
