REMARK SMILES O=C(OCCOCCOC(=O)c1ccc([C@@H]2CC(O)=Nc3c2ncn3-c2cccc(Cl)c2)cc1)c1ccc(-c2c3nc(c(-c4c(F)cccc4F)c4ccc([nH]4)c(-c4c(F)cccc4F)c4nc(c(-c5c(F)cccc5F)c5ccc2[nH]5)C=C4)C=C3)cc1
REMARK SMILES IDX 6 1 5 2 4 3 3 4 2 5 1 6 35 7 36 8 88 9 37 10 87 11 38 12
REMARK SMILES IDX 39 13 40 14 81 15 41 16 86 17 80 18 82 19 42 20 85 21 79 22
REMARK SMILES IDX 78 23 43 25 69 26 52 27 68 28 53 29 56 30 67 31 83 32 54 33
REMARK SMILES IDX 55 34 66 36 84 37 57 38 44 39 45 40 50 41 46 42 47 43 49 44
REMARK SMILES IDX 51 45 48 46 70 47 71 48 76 49 72 50 73 51 75 52 77 53 74 54
REMARK SMILES IDX 58 55 59 56 64 57 60 58 61 59 63 60 65 61 62 62 7 63 8 64
REMARK SMILES IDX 9 65 10 66 11 67 12 68 13 69 34 70 14 71 33 72 15 73 16 74
REMARK SMILES IDX 17 75 22 76 18 77 21 78 23 79 20 80 25 81 24 82 19 83 26 85
REMARK SMILES IDX 27 86 32 87 28 88 30 89 29 90 31 91
REMARK H PARENT 82 24 56 35 19 84
REMARK Flexibility Score: inf
ROOT
ATOM      1  O   UNL     1       4.304   1.004   0.868  1.00  0.00    -0.374 OA
ENDROOT
BRANCH   1   2
ATOM      2  C   UNL     1       4.827   1.055  -0.458  1.00  0.00     0.202 C 
BRANCH   2   3
ATOM      3  C   UNL     1       4.593  -0.129  -1.401  1.00  0.00     0.261 C 
BRANCH   3   4
ATOM      4  O   UNL     1       3.222  -0.266  -1.811  1.00  0.00    -0.460 OA
BRANCH   4   5
ATOM      5  C   UNL     1       2.175  -0.313  -0.960  1.00  0.00     0.338 C 
ATOM      6  O   UNL     1       1.130   0.277  -1.218  1.00  0.00    -0.246 OA
BRANCH   5   7
ATOM      7  C   UNL     1       2.208  -1.294   0.155  1.00  0.00     0.060 A 
ATOM      8  C   UNL     1       3.363  -1.919   0.629  1.00  0.00     0.016 A 
ATOM      9  C   UNL     1       0.956  -1.724   0.608  1.00  0.00     0.016 A 
ATOM     10  C   UNL     1       3.279  -3.169   1.180  1.00  0.00     0.010 A 
ATOM     11  C   UNL     1       0.860  -2.929   1.260  1.00  0.00     0.010 A 
ATOM     12  C   UNL     1       2.016  -3.695   1.389  1.00  0.00    -0.014 A 
BRANCH  12  13
ATOM     13  C   UNL     1       1.936  -5.075   1.803  1.00  0.00     0.031 A 
ATOM     14  C   UNL     1       2.546  -5.326   3.136  1.00  0.00     0.074 A 
ATOM     15  C   UNL     1       1.255  -5.930   1.016  1.00  0.00     0.049 A 
ATOM     16  N   UNL     1       3.414  -6.222   3.474  1.00  0.00    -0.248 NA
ATOM     17  C   UNL     1       2.277  -4.331   4.195  1.00  0.00     0.031 C 
ATOM     18  C   UNL     1       0.512  -5.628  -0.218  1.00  0.00     0.029 A 
ATOM     19  N   UNL     1       0.947  -7.231   1.240  1.00  0.00    -0.354 N 
ATOM     20  C   UNL     1       3.622  -6.040   4.840  1.00  0.00     0.074 A 
ATOM     21  C   UNL     1       3.049  -4.770   5.186  1.00  0.00     0.031 C 
ATOM     22  C   UNL     1      -0.366  -6.621  -0.467  1.00  0.00     0.029 A 
ATOM     23  C   UNL     1      -0.147  -7.676   0.499  1.00  0.00     0.049 A 
ATOM     24  H   UNL     1       1.446  -7.806   1.865  1.00  0.00     0.167 HD
ATOM     25  C   UNL     1       3.993  -7.077   5.637  1.00  0.00     0.037 A 
ATOM     26  C   UNL     1      -0.882  -8.772   0.806  1.00  0.00     0.037 A 
ATOM     27  C   UNL     1       4.675  -8.094   4.882  1.00  0.00     0.049 A 
ATOM     28  C   UNL     1      -0.042  -9.608   1.708  1.00  0.00     0.074 A 
ATOM     29  C   UNL     1       5.848  -8.125   4.154  1.00  0.00     0.029 A 
ATOM     30  N   UNL     1       3.955  -9.192   4.478  1.00  0.00    -0.354 N 
ATOM     31  N   UNL     1       1.075 -10.171   1.326  1.00  0.00    -0.248 NA
ATOM     32  C   UNL     1      -0.163  -9.370   3.142  1.00  0.00     0.031 C 
ATOM     33  C   UNL     1       5.554  -8.932   3.018  1.00  0.00     0.029 A 
ATOM     34  C   UNL     1       4.249  -9.407   3.155  1.00  0.00     0.049 A 
ATOM     35  H   UNL     1       3.343  -9.725   5.035  1.00  0.00     0.167 HD
ATOM     36  C   UNL     1       1.951  -9.988   2.389  1.00  0.00     0.074 A 
ATOM     37  C   UNL     1       1.116  -9.525   3.497  1.00  0.00     0.031 C 
ATOM     38  C   UNL     1       3.303  -9.940   2.202  1.00  0.00     0.037 A 
BRANCH  25  39
ATOM     39  C   UNL     1       3.352  -7.339   6.978  1.00  0.00     0.057 A 
ATOM     40  C   UNL     1       3.840  -8.389   7.773  1.00  0.00     0.134 A 
ATOM     41  C   UNL     1       2.101  -6.819   7.376  1.00  0.00     0.134 A 
ATOM     42  F   UNL     1       5.018  -8.969   7.499  1.00  0.00    -0.206 F 
ATOM     43  C   UNL     1       3.095  -8.941   8.823  1.00  0.00     0.040 A 
ATOM     44  C   UNL     1       1.372  -7.331   8.450  1.00  0.00     0.040 A 
ATOM     45  F   UNL     1       1.464  -5.858   6.697  1.00  0.00    -0.206 F 
ATOM     46  C   UNL     1       1.850  -8.421   9.155  1.00  0.00     0.006 A 
ENDBRANCH  25  39
BRANCH  26  47
ATOM     47  C   UNL     1      -2.357  -8.886   0.722  1.00  0.00     0.057 A 
ATOM     48  C   UNL     1      -2.994 -10.132   0.730  1.00  0.00     0.134 A 
ATOM     49  C   UNL     1      -3.196  -7.763   0.871  1.00  0.00     0.134 A 
ATOM     50  F   UNL     1      -2.276 -11.261   0.648  1.00  0.00    -0.206 F 
ATOM     51  C   UNL     1      -4.384 -10.255   0.876  1.00  0.00     0.040 A 
ATOM     52  C   UNL     1      -4.582  -7.872   1.009  1.00  0.00     0.040 A 
ATOM     53  F   UNL     1      -2.690  -6.526   0.973  1.00  0.00    -0.206 F 
ATOM     54  C   UNL     1      -5.182  -9.123   1.021  1.00  0.00     0.006 A 
ENDBRANCH  26  47
BRANCH  38  55
ATOM     55  C   UNL     1       3.836 -10.235   0.825  1.00  0.00     0.057 A 
ATOM     56  C   UNL     1       3.622  -9.404  -0.288  1.00  0.00     0.134 A 
ATOM     57  C   UNL     1       4.746 -11.281   0.659  1.00  0.00     0.134 A 
ATOM     58  F   UNL     1       2.853  -8.313  -0.196  1.00  0.00    -0.206 F 
ATOM     59  C   UNL     1       4.253  -9.627  -1.516  1.00  0.00     0.040 A 
ATOM     60  C   UNL     1       5.409 -11.497  -0.552  1.00  0.00     0.040 A 
ATOM     61  F   UNL     1       5.054 -12.076   1.695  1.00  0.00    -0.206 F 
ATOM     62  C   UNL     1       5.158 -10.674  -1.648  1.00  0.00     0.006 A 
ENDBRANCH  38  55
ENDBRANCH  12  13
ENDBRANCH   5   7
ENDBRANCH   4   5
ENDBRANCH   3   4
ENDBRANCH   2   3
ENDBRANCH   1   2
BRANCH   1  63
ATOM     63  C   UNL     1       3.135   1.788   1.150  1.00  0.00     0.202 C 
BRANCH  63  64
ATOM     64  C   UNL     1       3.212   3.323   1.120  1.00  0.00     0.261 C 
BRANCH  64  65
ATOM     65  O   UNL     1       3.503   3.844  -0.187  1.00  0.00    -0.460 OA
BRANCH  65  66
ATOM     66  C   UNL     1       4.805   4.180  -0.386  1.00  0.00     0.338 C 
ATOM     67  O   UNL     1       5.694   4.186   0.435  1.00  0.00    -0.246 OA
BRANCH  66  68
ATOM     68  C   UNL     1       5.050   4.280  -1.842  1.00  0.00     0.060 A 
ATOM     69  C   UNL     1       6.111   3.535  -2.372  1.00  0.00     0.016 A 
ATOM     70  C   UNL     1       4.258   5.071  -2.671  1.00  0.00     0.016 A 
ATOM     71  C   UNL     1       6.397   3.594  -3.730  1.00  0.00     0.005 A 
ATOM     72  C   UNL     1       4.583   5.172  -4.025  1.00  0.00     0.005 A 
ATOM     73  C   UNL     1       5.664   4.447  -4.568  1.00  0.00    -0.038 A 
BRANCH  73  74
ATOM     74  C   UNL     1       6.185   4.670  -5.978  1.00  0.00     0.081 C 
ATOM     75  C   UNL     1       6.874   6.049  -6.064  1.00  0.00     0.111 C 
ATOM     76  C   UNL     1       5.039   4.573  -6.908  1.00  0.00     0.093 A 
ATOM     77  C   UNL     1       6.058   7.121  -6.766  1.00  0.00     0.188 C 
ATOM     78  C   UNL     1       4.602   5.669  -7.615  1.00  0.00     0.164 A 
ATOM     79  N   UNL     1       4.247   3.478  -7.120  1.00  0.00    -0.238 NA
ATOM     80  N   UNL     1       5.037   6.951  -7.544  1.00  0.00    -0.198 NA
ATOM     81  N   UNL     1       3.472   5.239  -8.279  1.00  0.00    -0.283 N 
ATOM     82  C   UNL     1       3.287   3.922  -7.908  1.00  0.00     0.206 A 
BRANCH  77  83
ATOM     83  O   UNL     1       6.508   8.375  -6.570  1.00  0.00    -0.496 OA
ATOM     84  H   UNL     1       7.245   8.526  -6.012  1.00  0.00     0.294 HD
ENDBRANCH  77  83
BRANCH  81  85
ATOM     85  C   UNL     1       2.644   6.014  -9.117  1.00  0.00     0.050 A 
ATOM     86  C   UNL     1       1.254   5.953  -8.977  1.00  0.00     0.027 A 
ATOM     87  C   UNL     1       3.233   6.876 -10.050  1.00  0.00     0.047 A 
ATOM     88  C   UNL     1       0.454   6.800  -9.747  1.00  0.00     0.004 A 
ATOM     89  C   UNL     1       2.421   7.674 -10.848  1.00  0.00     0.043 A 
ATOM     90  C   UNL     1       1.036   7.654 -10.688  1.00  0.00     0.020 A 
ATOM     91  Cl  UNL     1       3.131   8.687 -12.044  1.00  0.00    -0.084 Cl
ENDBRANCH  81  85
ENDBRANCH  73  74
ENDBRANCH  66  68
ENDBRANCH  65  66
ENDBRANCH  64  65
ENDBRANCH  63  64
ENDBRANCH   1  63
TORSDOF 17
