REMARK SMILES NS(=O)(=O)c1ccc(N2N=C(C(=O)OCCOCCOC(=O)c3ccc(-c4c5nc(c(-c6c(F)cccc6F)c6ccc([nH]6)c(-c6c(F)cccc6F)c6nc(c(-c7c(F)cccc7F)c7ccc4[nH]7)C=C6)C=C5)cc3)C[C@H]2c2cccs2)cc1
REMARK SMILES IDX 16 1 15 2 14 3 12 4 13 5 11 6 9 7 10 8 78 9 77 10 8 11 5 12
REMARK SMILES IDX 6 13 85 14 7 15 84 16 2 17 3 18 4 19 1 20 79 23 80 24 83 25
REMARK SMILES IDX 81 26 82 27 17 28 18 29 19 30 20 31 21 32 22 33 23 34 24 35
REMARK SMILES IDX 76 36 25 37 75 38 26 39 27 40 28 41 69 42 29 43 74 44 68 45
REMARK SMILES IDX 70 46 30 47 73 48 67 49 66 50 31 52 57 53 40 54 56 55 41 56
REMARK SMILES IDX 44 57 55 58 71 59 42 60 43 61 54 63 72 64 45 65 32 66 33 67
REMARK SMILES IDX 38 68 34 69 35 70 37 71 39 72 36 73 58 74 59 75 64 76 60 77
REMARK SMILES IDX 61 78 63 79 65 80 62 81 46 82 47 83 52 84 48 85 49 86 51 87
REMARK SMILES IDX 53 88 50 89
REMARK H PARENT 1 21 1 22 70 51 44 62
REMARK Flexibility Score: inf
ROOT
ATOM      1  C   UNL     1       4.029  -9.047   6.994  1.00  0.00     0.202 C 
ENDROOT
BRANCH   1   2
ATOM      2  C   UNL     1       4.368  -7.908   7.958  1.00  0.00     0.261 C 
BRANCH   2   3
ATOM      3  O   UNL     1       3.402  -6.853   7.875  1.00  0.00    -0.459 OA
BRANCH   3   4
ATOM      4  C   UNL     1       3.900  -5.672   7.450  1.00  0.00     0.354 C 
ATOM      5  O   UNL     1       5.066  -5.355   7.319  1.00  0.00    -0.245 OA
BRANCH   4   6
ATOM      6  C   UNL     1       2.764  -4.783   7.014  1.00  0.00     0.148 C 
ATOM      7  N   UNL     1       1.671  -3.322   5.958  1.00  0.00    -0.256 N 
ATOM      8  N   UNL     1       2.839  -4.019   5.966  1.00  0.00    -0.169 NA
ATOM      9  C   UNL     1       0.922  -3.442   7.222  1.00  0.00     0.154 C 
ATOM     10  C   UNL     1       1.434  -4.811   7.702  1.00  0.00     0.099 C 
BRANCH   7  11
ATOM     11  C   UNL     1       1.418  -2.427   4.935  1.00  0.00     0.060 A 
ATOM     12  C   UNL     1       0.833  -0.619   2.861  1.00  0.00     0.082 A 
ATOM     13  C   UNL     1       0.608  -1.984   2.672  1.00  0.00     0.024 A 
ATOM     14  C   UNL     1       1.386  -0.154   4.054  1.00  0.00     0.024 A 
ATOM     15  C   UNL     1       0.907  -2.879   3.707  1.00  0.00     0.029 A 
ATOM     16  C   UNL     1       1.687  -1.061   5.072  1.00  0.00     0.029 A 
BRANCH  12  17
ATOM     17  S   UNL     1       0.407   0.535   1.594  1.00  0.00     0.238 S 
ATOM     18  O   UNL     1       1.059   1.799   1.861  1.00  0.00    -0.207 OA
ATOM     19  O   UNL     1      -1.008   0.432   1.339  1.00  0.00    -0.207 OA
BRANCH  17  20
ATOM     20  N   UNL     1       1.180  -0.075   0.234  1.00  0.00    -0.225 NA
ATOM     21  H   UNL     1       0.992   0.531  -0.565  1.00  0.00     0.137 HD
ATOM     22  H   UNL     1       0.832  -1.013   0.038  1.00  0.00     0.137 HD
ENDBRANCH  17  20
ENDBRANCH  12  17
ENDBRANCH   7  11
BRANCH   9  23
ATOM     23  C   UNL     1       1.111  -2.314   8.236  1.00  0.00     0.030 A 
ATOM     24  C   UNL     1       0.543  -1.050   8.189  1.00  0.00     0.017 A 
ATOM     25  S   UNL     1       2.093  -2.468   9.641  1.00  0.00    -0.147 S 
ATOM     26  C   UNL     1       0.940  -0.216   9.274  1.00  0.00     0.012 A 
ATOM     27  C   UNL     1       1.752  -0.882  10.160  1.00  0.00     0.065 A 
ENDBRANCH   9  23
ENDBRANCH   4   6
ENDBRANCH   3   4
ENDBRANCH   2   3
ENDBRANCH   1   2
BRANCH   1  28
ATOM     28  O   UNL     1       3.896  -8.730   5.611  1.00  0.00    -0.374 OA
BRANCH  28  29
ATOM     29  C   UNL     1       2.748  -8.003   5.177  1.00  0.00     0.202 C 
BRANCH  29  30
ATOM     30  C   UNL     1       1.388  -8.715   5.171  1.00  0.00     0.261 C 
BRANCH  30  31
ATOM     31  O   UNL     1       1.000  -9.231   6.456  1.00  0.00    -0.460 OA
BRANCH  31  32
ATOM     32  C   UNL     1       1.080 -10.582   6.549  1.00  0.00     0.338 C 
ATOM     33  O   UNL     1       1.396 -11.366   5.669  1.00  0.00    -0.246 OA
BRANCH  32  34
ATOM     34  C   UNL     1       0.896 -11.021   7.944  1.00  0.00     0.060 A 
ATOM     35  C   UNL     1       1.900 -11.825   8.498  1.00  0.00     0.016 A 
ATOM     36  C   UNL     1      -0.282 -10.768   8.648  1.00  0.00     0.016 A 
ATOM     37  C   UNL     1       1.695 -12.447   9.725  1.00  0.00     0.010 A 
ATOM     38  C   UNL     1      -0.486 -11.394   9.883  1.00  0.00     0.010 A 
ATOM     39  C   UNL     1       0.478 -12.280  10.400  1.00  0.00    -0.014 A 
BRANCH  39  40
ATOM     40  C   UNL     1       0.169 -13.175  11.544  1.00  0.00     0.031 A 
ATOM     41  C   UNL     1      -0.778 -14.330  11.338  1.00  0.00     0.074 A 
ATOM     42  C   UNL     1       0.783 -13.011  12.730  1.00  0.00     0.049 A 
ATOM     43  N   UNL     1      -1.157 -15.254  12.184  1.00  0.00    -0.248 NA
ATOM     44  C   UNL     1      -1.380 -14.459  10.001  1.00  0.00     0.031 C 
ATOM     45  C   UNL     1       1.739 -11.952  13.047  1.00  0.00     0.029 A 
ATOM     46  N   UNL     1       0.693 -13.742  13.888  1.00  0.00    -0.354 N 
ATOM     47  C   UNL     1      -2.046 -16.064  11.487  1.00  0.00     0.074 A 
ATOM     48  C   UNL     1      -2.179 -15.504  10.161  1.00  0.00     0.031 C 
ATOM     49  C   UNL     1       2.148 -12.100  14.319  1.00  0.00     0.029 A 
ATOM     50  C   UNL     1       1.463 -13.247  14.912  1.00  0.00     0.049 A 
ATOM     51  H   UNL     1       0.131 -14.545  13.976  1.00  0.00     0.167 HD
ATOM     52  C   UNL     1      -2.684 -17.182  11.909  1.00  0.00     0.037 A 
ATOM     53  C   UNL     1       1.589 -13.664  16.186  1.00  0.00     0.037 A 
ATOM     54  C   UNL     1      -2.539 -17.750  13.225  1.00  0.00     0.049 A 
ATOM     55  C   UNL     1       0.838 -14.889  16.639  1.00  0.00     0.074 A 
ATOM     56  C   UNL     1      -3.117 -18.900  13.734  1.00  0.00     0.029 A 
ATOM     57  N   UNL     1      -1.766 -17.208  14.239  1.00  0.00    -0.354 N 
ATOM     58  N   UNL     1       0.033 -15.669  15.958  1.00  0.00    -0.248 NA
ATOM     59  C   UNL     1       1.027 -15.300  18.038  1.00  0.00     0.031 C 
ATOM     60  C   UNL     1      -2.743 -19.020  15.076  1.00  0.00     0.029 A 
ATOM     61  C   UNL     1      -1.874 -17.985  15.382  1.00  0.00     0.049 A 
ATOM     62  H   UNL     1      -1.220 -16.393  14.161  1.00  0.00     0.167 HD
ATOM     63  C   UNL     1      -0.351 -16.680  16.834  1.00  0.00     0.074 A 
ATOM     64  C   UNL     1       0.329 -16.425  18.086  1.00  0.00     0.031 C 
ATOM     65  C   UNL     1      -1.189 -17.725  16.622  1.00  0.00     0.037 A 
BRANCH  52  66
ATOM     66  C   UNL     1      -3.622 -17.858  10.950  1.00  0.00     0.057 A 
ATOM     67  C   UNL     1      -3.163 -18.558   9.827  1.00  0.00     0.134 A 
ATOM     68  C   UNL     1      -5.003 -17.857  11.189  1.00  0.00     0.134 A 
ATOM     69  F   UNL     1      -1.855 -18.588   9.531  1.00  0.00    -0.206 F 
ATOM     70  C   UNL     1      -4.045 -19.219   8.968  1.00  0.00     0.040 A 
ATOM     71  C   UNL     1      -5.891 -18.538  10.355  1.00  0.00     0.040 A 
ATOM     72  F   UNL     1      -5.510 -17.208  12.248  1.00  0.00    -0.206 F 
ATOM     73  C   UNL     1      -5.412 -19.218   9.238  1.00  0.00     0.006 A 
ENDBRANCH  52  66
BRANCH  53  74
ATOM     74  C   UNL     1       2.447 -12.913  17.140  1.00  0.00     0.057 A 
ATOM     75  C   UNL     1       3.603 -13.482  17.690  1.00  0.00     0.134 A 
ATOM     76  C   UNL     1       2.100 -11.625  17.566  1.00  0.00     0.134 A 
ATOM     77  F   UNL     1       3.978 -14.721  17.340  1.00  0.00    -0.206 F 
ATOM     78  C   UNL     1       4.360 -12.813  18.654  1.00  0.00     0.040 A 
ATOM     79  C   UNL     1       2.866 -10.932  18.504  1.00  0.00     0.040 A 
ATOM     80  F   UNL     1       1.008 -11.020  17.075  1.00  0.00    -0.206 F 
ATOM     81  C   UNL     1       3.993 -11.532  19.061  1.00  0.00     0.006 A 
ENDBRANCH  53  74
BRANCH  65  82
ATOM     82  C   UNL     1      -1.375 -18.696  17.755  1.00  0.00     0.057 A 
ATOM     83  C   UNL     1      -2.036 -18.346  18.940  1.00  0.00     0.134 A 
ATOM     84  C   UNL     1      -0.885 -20.006  17.655  1.00  0.00     0.134 A 
ATOM     85  F   UNL     1      -2.524 -17.107  19.106  1.00  0.00    -0.206 F 
ATOM     86  C   UNL     1      -2.160 -19.245  20.001  1.00  0.00     0.040 A 
ATOM     87  C   UNL     1      -1.035 -20.925  18.695  1.00  0.00     0.040 A 
ATOM     88  F   UNL     1      -0.256 -20.416  16.544  1.00  0.00    -0.206 F 
ATOM     89  C   UNL     1      -1.661 -20.541  19.878  1.00  0.00     0.006 A 
ENDBRANCH  65  82
ENDBRANCH  39  40
ENDBRANCH  32  34
ENDBRANCH  31  32
ENDBRANCH  30  31
ENDBRANCH  29  30
ENDBRANCH  28  29
ENDBRANCH   1  28
TORSDOF 18
