REMARK SMILES CCCc1cc2c(cc1Cl)C=C(C(=O)OCCOCCOC(=O)c1ccc(-c3c4nc(c(-c5c(F)cccc5F)c5ccc([nH]5)c(-c5c(F)cccc5F)c5nc(c(-c6c(F)cccc6F)c6ccc3[nH]6)C=C5)C=C4)cc1)[C@@H](C(F)(F)F)O2
REMARK SMILES IDX 18 1 17 2 16 3 15 4 13 5 14 6 12 7 4 8 5 9 9 10 6 11 8 12
REMARK SMILES IDX 10 13 7 14 83 15 11 16 78 17 3 18 2 19 1 20 79 21 80 22
REMARK SMILES IDX 81 23 82 24 19 25 20 26 21 27 22 28 23 29 24 30 25 31 77 32
REMARK SMILES IDX 26 33 76 34 27 35 28 36 29 37 70 38 30 39 75 40 69 41 71 42
REMARK SMILES IDX 31 43 74 44 68 45 67 46 32 48 58 49 41 50 57 51 42 52 45 53
REMARK SMILES IDX 56 54 72 55 43 56 44 57 55 59 73 60 46 61 33 62 34 63 39 64
REMARK SMILES IDX 35 65 36 66 38 67 40 68 37 69 59 70 60 71 65 72 61 73 62 74
REMARK SMILES IDX 64 75 66 76 63 77 47 78 48 79 53 80 49 81 50 82 52 83 54 84
REMARK SMILES IDX 51 85
REMARK H PARENT 71 47 45 58
REMARK Flexibility Score: inf
ROOT
ATOM      1  O   UNL     1      -0.559   7.744   7.194  1.00  0.00    -0.374 OA
ENDROOT
BRANCH   1   2
ATOM      2  C   UNL     1      -1.864   7.689   7.761  1.00  0.00     0.202 C 
BRANCH   2   3
ATOM      3  C   UNL     1      -2.965   6.982   6.963  1.00  0.00     0.261 C 
BRANCH   3   4
ATOM      4  O   UNL     1      -2.606   5.638   6.612  1.00  0.00    -0.460 OA
BRANCH   4   5
ATOM      5  C   UNL     1      -2.411   5.444   5.285  1.00  0.00     0.338 C 
ATOM      6  O   UNL     1      -2.611   6.247   4.388  1.00  0.00    -0.246 OA
BRANCH   5   7
ATOM      7  C   UNL     1      -1.770   4.136   5.062  1.00  0.00     0.087 C 
ATOM      8  C   UNL     1       0.864   0.446   2.910  1.00  0.00    -0.026 A 
ATOM      9  C   UNL     1      -0.218   0.491   3.812  1.00  0.00     0.052 A 
ATOM     10  C   UNL     1       1.524   1.646   2.603  1.00  0.00     0.045 A 
ATOM     11  C   UNL     1      -0.679   1.707   4.323  1.00  0.00     0.128 A 
ATOM     12  C   UNL     1       1.035   2.864   3.080  1.00  0.00     0.032 A 
ATOM     13  Cl  UNL     1       2.949   1.702   1.629  1.00  0.00    -0.084 Cl
ATOM     14  C   UNL     1      -0.089   2.897   3.907  1.00  0.00     0.019 A 
ATOM     15  O   UNL     1      -1.730   1.646   5.193  1.00  0.00    -0.475 OA
ATOM     16  C   UNL     1      -0.699   4.162   4.260  1.00  0.00     0.027 C 
ATOM     17  C   UNL     1      -2.316   2.885   5.691  1.00  0.00     0.316 C 
BRANCH   8  18
ATOM     18  C   UNL     1       1.222  -0.877   2.268  1.00  0.00     0.037 C 
BRANCH  18  19
ATOM     19  C   UNL     1       0.458  -1.159   0.964  1.00  0.00     0.001 C 
ATOM     20  C   UNL     1       0.834  -0.258  -0.204  1.00  0.00     0.004 C 
ENDBRANCH  18  19
ENDBRANCH   8  18
BRANCH  17  21
ATOM     21  C   UNL     1      -3.841   2.755   5.556  1.00  0.00     0.430 C 
ATOM     22  F   UNL     1      -4.284   1.609   6.129  1.00  0.00    -0.167 F 
ATOM     23  F   UNL     1      -4.496   3.767   6.169  1.00  0.00    -0.167 F 
ATOM     24  F   UNL     1      -4.233   2.741   4.262  1.00  0.00    -0.167 F 
ENDBRANCH  17  21
ENDBRANCH   5   7
ENDBRANCH   4   5
ENDBRANCH   3   4
ENDBRANCH   2   3
ENDBRANCH   1   2
BRANCH   1  25
ATOM     25  C   UNL     1       0.233   6.558   7.185  1.00  0.00     0.202 C 
BRANCH  25  26
ATOM     26  C   UNL     1       0.782   6.032   8.518  1.00  0.00     0.261 C 
BRANCH  26  27
ATOM     27  O   UNL     1      -0.250   5.624   9.431  1.00  0.00    -0.460 OA
BRANCH  27  28
ATOM     28  C   UNL     1      -0.407   6.429  10.510  1.00  0.00     0.338 C 
ATOM     29  O   UNL     1       0.238   7.427  10.793  1.00  0.00    -0.246 OA
BRANCH  28  30
ATOM     30  C   UNL     1      -1.635   6.041  11.228  1.00  0.00     0.060 A 
ATOM     31  C   UNL     1      -1.811   4.740  11.699  1.00  0.00     0.016 A 
ATOM     32  C   UNL     1      -2.608   7.023  11.460  1.00  0.00     0.016 A 
ATOM     33  C   UNL     1      -2.962   4.430  12.427  1.00  0.00     0.010 A 
ATOM     34  C   UNL     1      -3.755   6.710  12.188  1.00  0.00     0.010 A 
ATOM     35  C   UNL     1      -3.932   5.415  12.693  1.00  0.00    -0.014 A 
BRANCH  35  36
ATOM     36  C   UNL     1      -5.068   5.108  13.597  1.00  0.00     0.031 A 
ATOM     37  C   UNL     1      -6.463   4.939  13.075  1.00  0.00     0.074 A 
ATOM     38  C   UNL     1      -4.822   4.984  14.915  1.00  0.00     0.049 A 
ATOM     39  N   UNL     1      -7.544   4.577  13.720  1.00  0.00    -0.248 NA
ATOM     40  C   UNL     1      -6.675   5.219  11.648  1.00  0.00     0.031 C 
ATOM     41  C   UNL     1      -3.514   5.171  15.547  1.00  0.00     0.029 A 
ATOM     42  N   UNL     1      -5.653   4.661  15.956  1.00  0.00    -0.354 N 
ATOM     43  C   UNL     1      -8.562   4.561  12.775  1.00  0.00     0.074 A 
ATOM     44  C   UNL     1      -7.979   5.008  11.526  1.00  0.00     0.031 C 
ATOM     45  C   UNL     1      -3.624   4.921  16.861  1.00  0.00     0.029 A 
ATOM     46  C   UNL     1      -5.011   4.590  17.168  1.00  0.00     0.049 A 
ATOM     47  H   UNL     1      -6.617   4.496  15.845  1.00  0.00     0.167 HD
ATOM     48  C   UNL     1      -9.856   4.189  12.933  1.00  0.00     0.037 A 
ATOM     49  C   UNL     1      -5.488   4.287  18.389  1.00  0.00     0.037 A 
ATOM     50  C   UNL     1     -10.439   3.779  14.187  1.00  0.00     0.049 A 
ATOM     51  C   UNL     1      -6.942   3.938  18.544  1.00  0.00     0.074 A 
ATOM     52  C   UNL     1     -11.734   3.358  14.442  1.00  0.00     0.029 A 
ATOM     53  N   UNL     1      -9.771   3.760  15.403  1.00  0.00    -0.354 N 
ATOM     54  N   UNL     1      -7.875   3.841  17.628  1.00  0.00    -0.248 NA
ATOM     55  C   UNL     1      -7.407   3.650  19.907  1.00  0.00     0.031 C 
ATOM     56  C   UNL     1     -11.864   3.143  15.819  1.00  0.00     0.029 A 
ATOM     57  C   UNL     1     -10.634   3.366  16.415  1.00  0.00     0.049 A 
ATOM     58  H   UNL     1      -8.823   3.993  15.529  1.00  0.00     0.167 HD
ATOM     59  C   UNL     1      -9.027   3.451  18.298  1.00  0.00     0.074 A 
ATOM     60  C   UNL     1      -8.668   3.307  19.694  1.00  0.00     0.031 C 
ATOM     61  C   UNL     1     -10.270   3.231  17.803  1.00  0.00     0.037 A 
BRANCH  48  62
ATOM     62  C   UNL     1     -10.733   4.217  11.712  1.00  0.00     0.057 A 
ATOM     63  C   UNL     1     -11.787   5.134  11.603  1.00  0.00     0.134 A 
ATOM     64  C   UNL     1     -10.553   3.315  10.654  1.00  0.00     0.134 A 
ATOM     65  F   UNL     1     -12.026   6.018  12.583  1.00  0.00    -0.206 F 
ATOM     66  C   UNL     1     -12.623   5.156  10.485  1.00  0.00     0.040 A 
ATOM     67  C   UNL     1     -11.364   3.347   9.518  1.00  0.00     0.040 A 
ATOM     68  F   UNL     1      -9.559   2.414  10.691  1.00  0.00    -0.206 F 
ATOM     69  C   UNL     1     -12.407   4.267   9.434  1.00  0.00     0.006 A 
ENDBRANCH  48  62
BRANCH  49  70
ATOM     70  C   UNL     1      -4.583   4.282  19.567  1.00  0.00     0.057 A 
ATOM     71  C   UNL     1      -4.030   5.467  20.067  1.00  0.00     0.134 A 
ATOM     72  C   UNL     1      -4.284   3.094  20.244  1.00  0.00     0.134 A 
ATOM     73  F   UNL     1      -4.271   6.637  19.458  1.00  0.00    -0.206 F 
ATOM     74  C   UNL     1      -3.216   5.472  21.200  1.00  0.00     0.040 A 
ATOM     75  C   UNL     1      -3.497   3.088  21.397  1.00  0.00     0.040 A 
ATOM     76  F   UNL     1      -4.796   1.929  19.823  1.00  0.00    -0.206 F 
ATOM     77  C   UNL     1      -2.959   4.281  21.876  1.00  0.00     0.006 A 
ENDBRANCH  49  70
BRANCH  61  78
ATOM     78  C   UNL     1     -11.321   2.777  18.779  1.00  0.00     0.057 A 
ATOM     79  C   UNL     1     -11.835   1.475  18.717  1.00  0.00     0.134 A 
ATOM     80  C   UNL     1     -11.823   3.619  19.780  1.00  0.00     0.134 A 
ATOM     81  F   UNL     1     -11.407   0.616  17.780  1.00  0.00    -0.206 F 
ATOM     82  C   UNL     1     -12.803   1.027  19.618  1.00  0.00     0.040 A 
ATOM     83  C   UNL     1     -12.766   3.172  20.707  1.00  0.00     0.040 A 
ATOM     84  F   UNL     1     -11.364   4.874  19.906  1.00  0.00    -0.206 F 
ATOM     85  C   UNL     1     -13.262   1.873  20.624  1.00  0.00     0.006 A 
ENDBRANCH  61  78
ENDBRANCH  35  36
ENDBRANCH  28  30
ENDBRANCH  27  28
ENDBRANCH  26  27
ENDBRANCH  25  26
ENDBRANCH   1  25
TORSDOF 17
