REMARK SMILES O=C(C[C@@H]([NH2+]Cc1ccccc1)C(=O)/N=c1/[nH]c(-c2ccccc2)cs1)OCCOCCOC(=O)c1ccc(-c2c3nc(c(-c4c(F)cccc4F)c4ccc([nH]4)c(-c4c(F)cccc4F)c4nc(c(-c5c(F)cccc5F)c5ccc2[nH]5)C=C4)C=C3)cc1
REMARK SMILES IDX 29 1 28 2 27 3 2 4 1 5 3 6 4 7 5 8 6 11 7 12 8 13 12 14 9 15
REMARK SMILES IDX 11 16 10 17 13 18 14 19 15 20 16 21 17 22 26 23 18 24 25 26
REMARK SMILES IDX 19 27 20 28 24 29 21 30 23 31 22 32 30 33 31 34 32 35 33 36
REMARK SMILES IDX 34 37 35 38 36 39 37 40 89 41 38 42 88 43 39 44 40 45 41 46
REMARK SMILES IDX 82 47 42 48 87 49 81 50 83 51 43 52 86 53 80 54 79 55 44 57
REMARK SMILES IDX 70 58 53 59 69 60 54 61 57 62 68 63 84 64 55 65 56 66 67 68
REMARK SMILES IDX 85 69 58 70 45 71 46 72 51 73 47 74 48 75 50 76 52 77 49 78
REMARK SMILES IDX 71 79 72 80 77 81 73 82 74 83 76 84 78 85 75 86 59 87 60 88
REMARK SMILES IDX 65 89 61 90 62 91 64 92 66 93 63 94
REMARK H PARENT 5 9 5 10 17 25 83 56 57 67
REMARK Flexibility Score: inf
ROOT
ATOM      1  C   UNL     1       4.404   0.943   0.417  1.00  0.00     0.202 C 
ENDROOT
BRANCH   1   2
ATOM      2  C   UNL     1       3.711   1.022  -0.949  1.00  0.00     0.261 C 
BRANCH   2   3
ATOM      3  O   UNL     1       3.292  -0.269  -1.430  1.00  0.00    -0.463 OA
BRANCH   3   4
ATOM      4  C   UNL     1       2.312  -0.877  -0.722  1.00  0.00     0.312 C 
ATOM      5  O   UNL     1       1.155  -0.471  -0.719  1.00  0.00    -0.252 OA
BRANCH   4   6
ATOM      6  C   UNL     1       2.797  -2.018   0.144  1.00  0.00     0.198 C 
BRANCH   6   7
ATOM      7  C   UNL     1       4.125  -2.741  -0.171  1.00  0.00     0.286 C 
BRANCH   7   8
ATOM      8  N   UNL     1       5.168  -1.950  -0.881  1.00  0.00    -0.332 N 
ATOM      9  H   UNL     1       5.814  -1.578  -0.184  1.00  0.00     0.347 HD
ATOM     10  H   UNL     1       4.675  -1.222  -1.399  1.00  0.00     0.347 HD
BRANCH   8  11
ATOM     11  C   UNL     1       5.943  -2.704  -1.865  1.00  0.00     0.297 C 
BRANCH  11  12
ATOM     12  C   UNL     1       5.072  -3.289  -2.954  1.00  0.00     0.006 A 
ATOM     13  C   UNL     1       4.223  -2.481  -3.731  1.00  0.00     0.009 A 
ATOM     14  C   UNL     1       5.024  -4.678  -3.119  1.00  0.00     0.009 A 
ATOM     15  C   UNL     1       3.290  -3.059  -4.591  1.00  0.00     0.001 A 
ATOM     16  C   UNL     1       4.104  -5.252  -3.994  1.00  0.00     0.001 A 
ATOM     17  C   UNL     1       3.226  -4.445  -4.715  1.00  0.00     0.000 A 
ENDBRANCH  11  12
ENDBRANCH   8  11
ENDBRANCH   7   8
BRANCH   7  18
ATOM     18  C   UNL     1       4.688  -3.310   1.165  1.00  0.00     0.307 C 
ATOM     19  O   UNL     1       4.314  -4.408   1.575  1.00  0.00    -0.265 OA
BRANCH  18  20
ATOM     20  N   UNL     1       5.609  -2.535   1.835  1.00  0.00    -0.180 NA
ATOM     21  C   UNL     1       5.243  -1.956   2.929  1.00  0.00     0.190 A 
ATOM     22  N   UNL     1       6.042  -1.162   3.716  1.00  0.00    -0.330 N 
ATOM     23  S   UNL     1       3.628  -1.989   3.692  1.00  0.00    -0.105 S 
ATOM     24  C   UNL     1       5.436  -0.517   4.781  1.00  0.00     0.058 A 
ATOM     25  H   UNL     1       7.003  -1.056   3.531  1.00  0.00     0.169 HD
ATOM     26  C   UNL     1       4.121  -0.796   4.869  1.00  0.00     0.095 A 
BRANCH  24  27
ATOM     27  C   UNL     1       6.186   0.324   5.736  1.00  0.00    -0.001 A 
ATOM     28  C   UNL     1       7.457   0.843   5.441  1.00  0.00     0.010 A 
ATOM     29  C   UNL     1       5.673   0.562   7.026  1.00  0.00     0.010 A 
ATOM     30  C   UNL     1       8.195   1.537   6.409  1.00  0.00     0.001 A 
ATOM     31  C   UNL     1       6.403   1.264   7.988  1.00  0.00     0.001 A 
ATOM     32  C   UNL     1       7.671   1.740   7.683  1.00  0.00     0.000 A 
ENDBRANCH  24  27
ENDBRANCH  18  20
ENDBRANCH   7  18
ENDBRANCH   6   7
ENDBRANCH   4   6
ENDBRANCH   3   4
ENDBRANCH   2   3
ENDBRANCH   1   2
BRANCH   1  33
ATOM     33  O   UNL     1       3.586   0.565   1.516  1.00  0.00    -0.374 OA
BRANCH  33  34
ATOM     34  C   UNL     1       2.397   1.306   1.779  1.00  0.00     0.202 C 
BRANCH  34  35
ATOM     35  C   UNL     1       2.625   2.522   2.670  1.00  0.00     0.261 C 
BRANCH  35  36
ATOM     36  O   UNL     1       3.110   3.605   1.867  1.00  0.00    -0.460 OA
BRANCH  36  37
ATOM     37  C   UNL     1       4.439   3.845   1.907  1.00  0.00     0.338 C 
ATOM     38  O   UNL     1       5.270   3.353   2.650  1.00  0.00    -0.246 OA
BRANCH  37  39
ATOM     39  C   UNL     1       4.762   4.640   0.705  1.00  0.00     0.060 A 
ATOM     40  C   UNL     1       5.922   4.335  -0.025  1.00  0.00     0.016 A 
ATOM     41  C   UNL     1       3.895   5.648   0.279  1.00  0.00     0.016 A 
ATOM     42  C   UNL     1       6.236   5.065  -1.169  1.00  0.00     0.010 A 
ATOM     43  C   UNL     1       4.209   6.379  -0.856  1.00  0.00     0.010 A 
ATOM     44  C   UNL     1       5.397   6.114  -1.559  1.00  0.00    -0.014 A 
BRANCH  44  45
ATOM     45  C   UNL     1       5.829   7.113  -2.553  1.00  0.00     0.031 A 
ATOM     46  C   UNL     1       6.356   8.415  -2.031  1.00  0.00     0.074 A 
ATOM     47  C   UNL     1       5.630   6.910  -3.864  1.00  0.00     0.049 A 
ATOM     48  N   UNL     1       6.558   9.542  -2.657  1.00  0.00    -0.248 NA
ATOM     49  C   UNL     1       6.660   8.455  -0.591  1.00  0.00     0.031 C 
ATOM     50  C   UNL     1       5.136   5.673  -4.463  1.00  0.00     0.029 A 
ATOM     51  N   UNL     1       5.774   7.771  -4.919  1.00  0.00    -0.354 N 
ATOM     52  C   UNL     1       6.977  10.436  -1.680  1.00  0.00     0.074 A 
ATOM     53  C   UNL     1       6.975   9.728  -0.420  1.00  0.00     0.031 C 
ATOM     54  C   UNL     1       4.974   5.868  -5.783  1.00  0.00     0.029 A 
ATOM     55  C   UNL     1       5.312   7.254  -6.103  1.00  0.00     0.049 A 
ATOM     56  H   UNL     1       6.169   8.669  -4.837  1.00  0.00     0.167 HD
ATOM     57  C   UNL     1       7.327  11.734  -1.828  1.00  0.00     0.037 A 
ATOM     58  C   UNL     1       5.138   7.855  -7.295  1.00  0.00     0.037 A 
ATOM     59  C   UNL     1       7.309  12.417  -3.093  1.00  0.00     0.049 A 
ATOM     60  C   UNL     1       5.498   9.309  -7.439  1.00  0.00     0.074 A 
ATOM     61  C   UNL     1       7.680  13.717  -3.379  1.00  0.00     0.029 A 
ATOM     62  N   UNL     1       6.879  11.848  -4.285  1.00  0.00    -0.354 N 
ATOM     63  N   UNL     1       5.933  10.146  -6.526  1.00  0.00    -0.248 NA
ATOM     64  C   UNL     1       5.348   9.902  -8.774  1.00  0.00     0.031 C 
ATOM     65  C   UNL     1       7.421  13.952  -4.734  1.00  0.00     0.029 A 
ATOM     66  C   UNL     1       6.950  12.778  -5.306  1.00  0.00     0.049 A 
ATOM     67  H   UNL     1       6.568  10.919  -4.388  1.00  0.00     0.167 HD
ATOM     68  C   UNL     1       6.140  11.354  -7.180  1.00  0.00     0.074 A 
ATOM     69  C   UNL     1       5.781  11.139  -8.568  1.00  0.00     0.031 C 
ATOM     70  C   UNL     1       6.595  12.532  -6.682  1.00  0.00     0.037 A 
BRANCH  57  71
ATOM     71  C   UNL     1       7.704  12.488  -0.586  1.00  0.00     0.057 A 
ATOM     72  C   UNL     1       8.862  12.191   0.146  1.00  0.00     0.134 A 
ATOM     73  C   UNL     1       6.879  13.509  -0.097  1.00  0.00     0.134 A 
ATOM     74  F   UNL     1       9.686  11.210  -0.253  1.00  0.00    -0.206 F 
ATOM     75  C   UNL     1       9.162  12.850   1.340  1.00  0.00     0.040 A 
ATOM     76  C   UNL     1       7.186  14.199   1.077  1.00  0.00     0.040 A 
ATOM     77  F   UNL     1       5.754  13.847  -0.746  1.00  0.00    -0.206 F 
ATOM     78  C   UNL     1       8.323  13.861   1.806  1.00  0.00     0.006 A 
ENDBRANCH  57  71
BRANCH  58  79
ATOM     79  C   UNL     1       4.590   7.074  -8.432  1.00  0.00     0.057 A 
ATOM     80  C   UNL     1       5.407   6.686  -9.499  1.00  0.00     0.134 A 
ATOM     81  C   UNL     1       3.254   6.655  -8.455  1.00  0.00     0.134 A 
ATOM     82  F   UNL     1       6.691   7.070  -9.540  1.00  0.00    -0.206 F 
ATOM     83  C   UNL     1       4.915   5.910 -10.550  1.00  0.00     0.040 A 
ATOM     84  C   UNL     1       2.755   5.861  -9.488  1.00  0.00     0.040 A 
ATOM     85  F   UNL     1       2.423   6.988  -7.456  1.00  0.00    -0.206 F 
ATOM     86  C   UNL     1       3.587   5.487 -10.541  1.00  0.00     0.006 A 
ENDBRANCH  58  79
BRANCH  70  87
ATOM     87  C   UNL     1       6.784  13.665  -7.648  1.00  0.00     0.057 A 
ATOM     88  C   UNL     1       5.703  14.374  -8.185  1.00  0.00     0.134 A 
ATOM     89  C   UNL     1       8.074  14.099  -7.980  1.00  0.00     0.134 A 
ATOM     90  F   UNL     1       4.443  14.002  -7.914  1.00  0.00    -0.206 F 
ATOM     91  C   UNL     1       5.899  15.469  -9.028  1.00  0.00     0.040 A 
ATOM     92  C   UNL     1       8.283  15.209  -8.799  1.00  0.00     0.040 A 
ATOM     93  F   UNL     1       9.152  13.469  -7.489  1.00  0.00    -0.206 F 
ATOM     94  C   UNL     1       7.192  15.895  -9.328  1.00  0.00     0.006 A 
ENDBRANCH  70  87
ENDBRANCH  44  45
ENDBRANCH  37  39
ENDBRANCH  36  37
ENDBRANCH  35  36
ENDBRANCH  34  35
ENDBRANCH  33  34
ENDBRANCH   1  33
TORSDOF 21
