REMARK SMILES NS(=O)(=O)c1ccc(-n2nc(C(F)(F)F)cc2-c2ccc(C(=O)OCCOCCOC(=O)c3ccc(-c4c5nc(c(-c6c(F)cccc6F)c6ccc([nH]6)c(-c6c(F)cccc6F)c6nc(c(-c7c(F)cccc7F)c7ccc4[nH]7)C=C6)C=C5)cc3)cc2)cc1
REMARK SMILES IDX 26 1 25 2 24 3 22 4 23 5 21 6 18 7 19 8 88 9 20 10 87 11
REMARK SMILES IDX 17 12 9 13 10 14 11 15 16 16 8 17 5 18 6 19 90 20 7 21 89 22
REMARK SMILES IDX 2 23 3 24 4 25 1 26 12 29 13 30 14 31 15 32 27 33 28 34
REMARK SMILES IDX 29 35 30 36 31 37 32 38 33 39 34 40 86 41 35 42 85 43 36 44
REMARK SMILES IDX 37 45 38 46 79 47 39 48 84 49 78 50 80 51 40 52 83 53 77 54
REMARK SMILES IDX 76 55 41 57 67 58 50 59 66 60 51 61 54 62 65 63 81 64 52 65
REMARK SMILES IDX 53 66 64 68 82 69 55 70 42 71 43 72 48 73 44 74 45 75 47 76
REMARK SMILES IDX 49 77 46 78 68 79 69 80 74 81 70 82 71 83 73 84 75 85 72 86
REMARK SMILES IDX 56 87 57 88 62 89 58 90 59 91 61 92 63 93 60 94
REMARK H PARENT 1 27 1 28 80 56 54 67
REMARK Flexibility Score: inf
ROOT
ATOM      1  C   UNL     1      -1.838  -3.922 -10.768  1.00  0.00     0.202 C 
ENDROOT
BRANCH   1   2
ATOM      2  C   UNL     1      -1.754  -2.594 -11.524  1.00  0.00     0.261 C 
BRANCH   2   3
ATOM      3  O   UNL     1      -0.879  -1.651 -10.885  1.00  0.00    -0.460 OA
BRANCH   3   4
ATOM      4  C   UNL     1      -1.517  -0.615 -10.290  1.00  0.00     0.338 C 
ATOM      5  O   UNL     1      -2.716  -0.389 -10.298  1.00  0.00    -0.246 OA
BRANCH   4   6
ATOM      6  C   UNL     1      -0.574   0.166  -9.460  1.00  0.00     0.060 A 
ATOM      7  C   UNL     1       1.013   1.912  -7.955  1.00  0.00     0.000 A 
ATOM      8  C   UNL     1      -0.284   1.595  -7.530  1.00  0.00     0.011 A 
ATOM      9  C   UNL     1       1.534   1.282  -9.095  1.00  0.00     0.011 A 
ATOM     10  C   UNL     1      -1.074   0.728  -8.279  1.00  0.00     0.016 A 
ATOM     11  C   UNL     1       0.747   0.402  -9.844  1.00  0.00     0.016 A 
BRANCH   7  12
ATOM     12  C   UNL     1       1.745   3.011  -7.324  1.00  0.00     0.075 A 
ATOM     13  N   UNL     1       1.897   3.240  -5.962  1.00  0.00    -0.233 N 
ATOM     14  N   UNL     1       2.312   4.508  -5.702  1.00  0.00    -0.163 NA
ATOM     15  C   UNL     1       2.585   5.042  -6.908  1.00  0.00     0.167 A 
ATOM     16  C   UNL     1       2.218   4.152  -7.942  1.00  0.00     0.064 A 
BRANCH  13  17
ATOM     17  C   UNL     1       1.647   2.339  -4.897  1.00  0.00     0.065 A 
ATOM     18  C   UNL     1       0.975   0.542  -2.886  1.00  0.00     0.082 A 
ATOM     19  C   UNL     1       1.682   0.091  -4.005  1.00  0.00     0.024 A 
ATOM     20  C   UNL     1       0.632   1.892  -2.749  1.00  0.00     0.024 A 
ATOM     21  C   UNL     1       2.004   0.988  -5.022  1.00  0.00     0.030 A 
ATOM     22  C   UNL     1       0.999   2.801  -3.744  1.00  0.00     0.030 A 
BRANCH  18  23
ATOM     23  S   UNL     1       0.484  -0.614  -1.641  1.00  0.00     0.238 S 
ATOM     24  O   UNL     1       1.176  -1.869  -1.863  1.00  0.00    -0.207 OA
ATOM     25  O   UNL     1      -0.942  -0.532  -1.477  1.00  0.00    -0.207 OA
BRANCH  23  26
ATOM     26  N   UNL     1       1.169   0.028  -0.251  1.00  0.00    -0.225 NA
ATOM     27  H   UNL     1       0.946  -0.569   0.545  1.00  0.00     0.137 HD
ATOM     28  H   UNL     1       0.798   0.964  -0.089  1.00  0.00     0.137 HD
ENDBRANCH  23  26
ENDBRANCH  18  23
ENDBRANCH  13  17
BRANCH  15  29
ATOM     29  C   UNL     1       3.168   6.416  -7.102  1.00  0.00     0.435 C 
ATOM     30  F   UNL     1       2.614   7.355  -6.293  1.00  0.00    -0.164 F 
ATOM     31  F   UNL     1       4.510   6.432  -6.879  1.00  0.00    -0.164 F 
ATOM     32  F   UNL     1       2.992   6.855  -8.380  1.00  0.00    -0.164 F 
ENDBRANCH  15  29
ENDBRANCH   7  12
ENDBRANCH   4   6
ENDBRANCH   3   4
ENDBRANCH   2   3
ENDBRANCH   1   2
BRANCH   1  33
ATOM     33  O   UNL     1      -2.372  -3.907  -9.446  1.00  0.00    -0.374 OA
BRANCH  33  34
ATOM     34  C   UNL     1      -1.619  -3.322  -8.391  1.00  0.00     0.202 C 
BRANCH  34  35
ATOM     35  C   UNL     1      -0.356  -4.027  -7.919  1.00  0.00     0.261 C 
BRANCH  35  36
ATOM     36  O   UNL     1       0.606  -4.230  -8.945  1.00  0.00    -0.460 OA
BRANCH  36  37
ATOM     37  C   UNL     1       0.640  -5.510  -9.385  1.00  0.00     0.338 C 
ATOM     38  O   UNL     1      -0.270  -6.321  -9.369  1.00  0.00    -0.246 OA
BRANCH  37  39
ATOM     39  C   UNL     1       2.024  -5.867  -9.704  1.00  0.00     0.060 A 
ATOM     40  C   UNL     1       2.242  -7.141 -10.233  1.00  0.00     0.016 A 
ATOM     41  C   UNL     1       3.077  -5.071  -9.230  1.00  0.00     0.016 A 
ATOM     42  C   UNL     1       3.505  -7.684 -10.138  1.00  0.00     0.010 A 
ATOM     43  C   UNL     1       4.330  -5.623  -9.113  1.00  0.00     0.010 A 
ATOM     44  C   UNL     1       4.519  -6.943  -9.514  1.00  0.00    -0.014 A 
BRANCH  44  45
ATOM     45  C   UNL     1       5.865  -7.483  -9.525  1.00  0.00     0.031 A 
ATOM     46  C   UNL     1       6.420  -7.435 -10.898  1.00  0.00     0.074 A 
ATOM     47  C   UNL     1       6.532  -7.861  -8.415  1.00  0.00     0.049 A 
ATOM     48  N   UNL     1       6.597  -8.437 -11.692  1.00  0.00    -0.248 NA
ATOM     49  C   UNL     1       6.553  -6.125 -11.564  1.00  0.00     0.031 C 
ATOM     50  C   UNL     1       6.105  -7.687  -7.023  1.00  0.00     0.029 A 
ATOM     51  N   UNL     1       7.781  -8.403  -8.284  1.00  0.00    -0.354 N 
ATOM     52  C   UNL     1       7.151  -7.892 -12.847  1.00  0.00     0.074 A 
ATOM     53  C   UNL     1       6.852  -6.491 -12.811  1.00  0.00     0.031 C 
ATOM     54  C   UNL     1       7.155  -7.903  -6.197  1.00  0.00     0.029 A 
ATOM     55  C   UNL     1       8.289  -8.360  -6.982  1.00  0.00     0.049 A 
ATOM     56  H   UNL     1       8.278  -8.790  -9.041  1.00  0.00     0.167 HD
ATOM     57  C   UNL     1       8.130  -8.578 -13.495  1.00  0.00     0.037 A 
ATOM     58  C   UNL     1       9.561  -8.654  -6.601  1.00  0.00     0.037 A 
ATOM     59  C   UNL     1       8.121  -9.958 -13.068  1.00  0.00     0.049 A 
ATOM     60  C   UNL     1      10.162  -9.472  -7.675  1.00  0.00     0.074 A 
ATOM     61  C   UNL     1       7.308 -11.057 -13.236  1.00  0.00     0.029 A 
ATOM     62  N   UNL     1       8.882 -10.177 -11.951  1.00  0.00    -0.354 N 
ATOM     63  N   UNL     1       9.816 -10.705  -7.909  1.00  0.00    -0.248 NA
ATOM     64  C   UNL     1      10.903  -8.813  -8.744  1.00  0.00     0.031 C 
ATOM     65  C   UNL     1       7.518 -11.884 -12.093  1.00  0.00     0.029 A 
ATOM     66  C   UNL     1       8.502 -11.309 -11.292  1.00  0.00     0.049 A 
ATOM     67  H   UNL     1       9.615  -9.588 -11.658  1.00  0.00     0.167 HD
ATOM     68  C   UNL     1       9.873 -10.811  -9.283  1.00  0.00     0.074 A 
ATOM     69  C   UNL     1      10.715  -9.704  -9.722  1.00  0.00     0.031 C 
ATOM     70  C   UNL     1       8.953 -11.568  -9.946  1.00  0.00     0.037 A 
BRANCH  57  71
ATOM     71  C   UNL     1       9.418  -7.944 -14.006  1.00  0.00     0.057 A 
ATOM     72  C   UNL     1      10.388  -8.788 -14.585  1.00  0.00     0.134 A 
ATOM     73  C   UNL     1       9.887  -6.656 -13.673  1.00  0.00     0.134 A 
ATOM     74  F   UNL     1      10.080 -10.041 -14.953  1.00  0.00    -0.206 F 
ATOM     75  C   UNL     1      11.730  -8.412 -14.727  1.00  0.00     0.040 A 
ATOM     76  C   UNL     1      11.217  -6.258 -13.848  1.00  0.00     0.040 A 
ATOM     77  F   UNL     1       9.129  -5.731 -13.078  1.00  0.00    -0.206 F 
ATOM     78  C   UNL     1      12.152  -7.147 -14.345  1.00  0.00     0.006 A 
ENDBRANCH  57  71
BRANCH  58  79
ATOM     79  C   UNL     1      10.398  -8.160  -5.482  1.00  0.00     0.057 A 
ATOM     80  C   UNL     1      11.565  -8.841  -5.090  1.00  0.00     0.134 A 
ATOM     81  C   UNL     1      10.259  -6.852  -4.994  1.00  0.00     0.134 A 
ATOM     82  F   UNL     1      11.806 -10.087  -5.523  1.00  0.00    -0.206 F 
ATOM     83  C   UNL     1      12.558  -8.239  -4.306  1.00  0.00     0.040 A 
ATOM     84  C   UNL     1      11.243  -6.239  -4.207  1.00  0.00     0.040 A 
ATOM     85  F   UNL     1       9.211  -6.094  -5.348  1.00  0.00    -0.206 F 
ATOM     86  C   UNL     1      12.407  -6.925  -3.878  1.00  0.00     0.006 A 
ENDBRANCH  58  79
BRANCH  70  87
ATOM     87  C   UNL     1       8.277 -12.657  -9.175  1.00  0.00     0.057 A 
ATOM     88  C   UNL     1       7.394 -12.460  -8.105  1.00  0.00     0.134 A 
ATOM     89  C   UNL     1       8.488 -13.973  -9.599  1.00  0.00     0.134 A 
ATOM     90  F   UNL     1       7.078 -11.229  -7.681  1.00  0.00    -0.206 F 
ATOM     91  C   UNL     1       6.779 -13.539  -7.462  1.00  0.00     0.040 A 
ATOM     92  C   UNL     1       7.852 -15.053  -8.992  1.00  0.00     0.040 A 
ATOM     93  F   UNL     1       9.295 -14.226 -10.643  1.00  0.00    -0.206 F 
ATOM     94  C   UNL     1       7.003 -14.839  -7.911  1.00  0.00     0.006 A 
ENDBRANCH  70  87
ENDBRANCH  44  45
ENDBRANCH  37  39
ENDBRANCH  36  37
ENDBRANCH  35  36
ENDBRANCH  34  35
ENDBRANCH  33  34
ENDBRANCH   1  33
TORSDOF 19
