REMARK SMILES COC(=O)[C@H]1CCN(S(=O)(=O)N2CCC[C@H](C(=O)OCCOCCOC(=O)c3ccc(-c4c5nc(c(-c6c(F)cccc6F)c6ccc([nH]6)c(-c6c(F)cccc6F)c6nc(c(-c7c(F)cccc7F)c7ccc4[nH]7)C=C6)C=C5)cc3)C2)C1
REMARK SMILES IDX 21 1 20 2 19 3 17 4 18 5 16 6 12 7 13 8 82 9 14 10 15 11
REMARK SMILES IDX 9 12 10 13 11 14 8 15 5 16 6 17 83 18 7 19 3 20 4 21 2 22
REMARK SMILES IDX 1 23 22 24 23 25 24 26 25 27 26 28 27 29 28 30 29 31 81 32
REMARK SMILES IDX 30 33 80 34 31 35 32 36 33 37 74 38 34 39 79 40 73 41 75 42
REMARK SMILES IDX 35 43 78 44 72 45 71 46 36 48 62 49 45 50 61 51 46 52 49 53
REMARK SMILES IDX 60 54 76 55 47 56 48 57 59 59 77 60 50 61 37 62 38 63 43 64
REMARK SMILES IDX 39 65 40 66 42 67 44 68 41 69 63 70 64 71 69 72 65 73 66 74
REMARK SMILES IDX 68 75 70 76 67 77 51 78 52 79 57 80 53 81 54 82 56 83 58 84
REMARK SMILES IDX 55 85
REMARK H PARENT 75 47 49 58
REMARK Flexibility Score: inf
ROOT
ATOM      1  C   UNL     1       2.926   4.079 -12.310  1.00  0.00     0.202 C 
ENDROOT
BRANCH   1   2
ATOM      2  C   UNL     1       2.037   3.784 -11.101  1.00  0.00     0.261 C 
BRANCH   2   3
ATOM      3  O   UNL     1       2.779   3.901  -9.881  1.00  0.00    -0.463 OA
BRANCH   3   4
ATOM      4  C   UNL     1       3.041   2.729  -9.255  1.00  0.00     0.310 C 
ATOM      5  O   UNL     1       2.619   1.631  -9.602  1.00  0.00    -0.252 OA
BRANCH   4   6
ATOM      6  C   UNL     1       3.966   2.883  -8.069  1.00  0.00     0.114 C 
ATOM      7  N   UNL     1       2.389   4.014  -6.569  1.00  0.00    -0.188 NA
ATOM      8  C   UNL     1       3.263   5.180  -6.335  1.00  0.00     0.103 C 
ATOM      9  C   UNL     1       3.120   2.763  -6.829  1.00  0.00     0.118 C 
ATOM     10  C   UNL     1       4.178   5.383  -7.544  1.00  0.00     0.018 C 
ATOM     11  C   UNL     1       4.889   4.100  -7.969  1.00  0.00     0.018 C 
BRANCH   7  12
ATOM     12  S   UNL     1       0.950   3.914  -5.712  1.00  0.00     0.282 S 
ATOM     13  O   UNL     1       0.154   2.848  -6.265  1.00  0.00    -0.195 OA
ATOM     14  O   UNL     1       0.417   5.255  -5.592  1.00  0.00    -0.195 OA
BRANCH  12  15
ATOM     15  N   UNL     1       1.464   3.426  -4.165  1.00  0.00    -0.188 NA
ATOM     16  C   UNL     1      -0.030   2.129  -2.735  1.00  0.00     0.116 C 
ATOM     17  C   UNL     1       0.783   1.209  -3.625  1.00  0.00     0.033 C 
ATOM     18  C   UNL     1       0.375   3.553  -3.133  1.00  0.00     0.118 C 
ATOM     19  C   UNL     1       1.983   2.047  -3.983  1.00  0.00     0.104 C 
BRANCH  16  20
ATOM     20  C   UNL     1      -1.491   1.779  -2.874  1.00  0.00     0.310 C 
ATOM     21  O   UNL     1      -1.962   0.745  -2.414  1.00  0.00    -0.252 OA
BRANCH  20  22
ATOM     22  O   UNL     1      -2.188   2.691  -3.593  1.00  0.00    -0.469 OA
ATOM     23  C   UNL     1      -3.559   2.354  -3.801  1.00  0.00     0.282 C 
ENDBRANCH  20  22
ENDBRANCH  16  20
ENDBRANCH  12  15
ENDBRANCH   7  12
ENDBRANCH   4   6
ENDBRANCH   3   4
ENDBRANCH   2   3
ENDBRANCH   1   2
BRANCH   1  24
ATOM     24  O   UNL     1       4.049   3.232 -12.541  1.00  0.00    -0.374 OA
BRANCH  24  25
ATOM     25  C   UNL     1       5.176   3.329 -11.675  1.00  0.00     0.202 C 
BRANCH  25  26
ATOM     26  C   UNL     1       6.035   4.601 -11.723  1.00  0.00     0.261 C 
BRANCH  26  27
ATOM     27  O   UNL     1       5.319   5.792 -11.348  1.00  0.00    -0.460 OA
BRANCH  27  28
ATOM     28  C   UNL     1       5.106   6.654 -12.373  1.00  0.00     0.338 C 
ATOM     29  O   UNL     1       5.496   6.544 -13.524  1.00  0.00    -0.246 OA
BRANCH  28  30
ATOM     30  C   UNL     1       4.152   7.707 -11.981  1.00  0.00     0.060 A 
ATOM     31  C   UNL     1       2.980   7.824 -12.739  1.00  0.00     0.016 A 
ATOM     32  C   UNL     1       4.455   8.641 -10.990  1.00  0.00     0.016 A 
ATOM     33  C   UNL     1       2.132   8.911 -12.551  1.00  0.00     0.010 A 
ATOM     34  C   UNL     1       3.604   9.738 -10.808  1.00  0.00     0.010 A 
ATOM     35  C   UNL     1       2.463   9.900 -11.617  1.00  0.00    -0.014 A 
BRANCH  35  36
ATOM     36  C   UNL     1       1.692  11.167 -11.600  1.00  0.00     0.031 A 
ATOM     37  C   UNL     1       2.289  12.399 -12.226  1.00  0.00     0.074 A 
ATOM     38  C   UNL     1       0.455  11.210 -11.074  1.00  0.00     0.049 A 
ATOM     39  N   UNL     1       1.809  13.615 -12.286  1.00  0.00    -0.248 NA
ATOM     40  C   UNL     1       3.604  12.239 -12.867  1.00  0.00     0.031 C 
ATOM     41  C   UNL     1      -0.250  10.074 -10.481  1.00  0.00     0.029 A 
ATOM     42  N   UNL     1      -0.424  12.256 -10.948  1.00  0.00    -0.354 N 
ATOM     43  C   UNL     1       2.768  14.367 -12.956  1.00  0.00     0.074 A 
ATOM     44  C   UNL     1       3.868  13.477 -13.258  1.00  0.00     0.031 C 
ATOM     45  C   UNL     1      -1.450  10.489 -10.041  1.00  0.00     0.029 A 
ATOM     46  C   UNL     1      -1.581  11.923 -10.286  1.00  0.00     0.049 A 
ATOM     47  H   UNL     1      -0.243  13.158 -11.298  1.00  0.00     0.167 HD
ATOM     48  C   UNL     1       2.729  15.678 -13.294  1.00  0.00     0.037 A 
ATOM     49  C   UNL     1      -2.612  12.696  -9.895  1.00  0.00     0.037 A 
ATOM     50  C   UNL     1       1.626  16.556 -13.000  1.00  0.00     0.049 A 
ATOM     51  C   UNL     1      -2.599  14.166 -10.222  1.00  0.00     0.074 A 
ATOM     52  C   UNL     1       1.481  17.894 -13.327  1.00  0.00     0.029 A 
ATOM     53  N   UNL     1       0.485  16.189 -12.305  1.00  0.00    -0.354 N 
ATOM     54  N   UNL     1      -1.701  14.862 -10.878  1.00  0.00    -0.248 NA
ATOM     55  C   UNL     1      -3.747  14.959  -9.758  1.00  0.00     0.031 C 
ATOM     56  C   UNL     1       0.282  18.351 -12.773  1.00  0.00     0.029 A 
ATOM     57  C   UNL     1      -0.354  17.282 -12.163  1.00  0.00     0.049 A 
ATOM     58  H   UNL     1       0.298  15.285 -11.962  1.00  0.00     0.167 HD
ATOM     59  C   UNL     1      -2.191  16.162 -10.934  1.00  0.00     0.074 A 
ATOM     60  C   UNL     1      -3.471  16.155 -10.258  1.00  0.00     0.031 C 
ATOM     61  C   UNL     1      -1.632  17.261 -11.497  1.00  0.00     0.037 A 
BRANCH  48  62
ATOM     62  C   UNL     1       3.927  16.257 -13.991  1.00  0.00     0.057 A 
ATOM     63  C   UNL     1       4.247  15.934 -15.316  1.00  0.00     0.134 A 
ATOM     64  C   UNL     1       4.740  17.195 -13.342  1.00  0.00     0.134 A 
ATOM     65  F   UNL     1       3.518  15.034 -15.993  1.00  0.00    -0.206 F 
ATOM     66  C   UNL     1       5.344  16.509 -15.963  1.00  0.00     0.040 A 
ATOM     67  C   UNL     1       5.820  17.799 -13.987  1.00  0.00     0.040 A 
ATOM     68  F   UNL     1       4.487  17.555 -12.074  1.00  0.00    -0.206 F 
ATOM     69  C   UNL     1       6.128  17.452 -15.301  1.00  0.00     0.006 A 
ENDBRANCH  48  62
BRANCH  49  70
ATOM     70  C   UNL     1      -3.736  12.104  -9.124  1.00  0.00     0.057 A 
ATOM     71  C   UNL     1      -5.027  12.024  -9.658  1.00  0.00     0.134 A 
ATOM     72  C   UNL     1      -3.549  11.630  -7.819  1.00  0.00     0.134 A 
ATOM     73  F   UNL     1      -5.275  12.483 -10.894  1.00  0.00    -0.206 F 
ATOM     74  C   UNL     1      -6.096  11.520  -8.916  1.00  0.00     0.040 A 
ATOM     75  C   UNL     1      -4.602  11.093  -7.077  1.00  0.00     0.040 A 
ATOM     76  F   UNL     1      -2.337  11.678  -7.247  1.00  0.00    -0.206 F 
ATOM     77  C   UNL     1      -5.883  11.047  -7.622  1.00  0.00     0.006 A 
ENDBRANCH  49  70
BRANCH  61  78
ATOM     78  C   UNL     1      -2.420  18.540 -11.453  1.00  0.00     0.057 A 
ATOM     79  C   UNL     1      -2.623  19.251 -10.264  1.00  0.00     0.134 A 
ATOM     80  C   UNL     1      -2.948  19.089 -12.630  1.00  0.00     0.134 A 
ATOM     81  F   UNL     1      -2.154  18.777  -9.099  1.00  0.00    -0.206 F 
ATOM     82  C   UNL     1      -3.345  20.446 -10.242  1.00  0.00     0.040 A 
ATOM     83  C   UNL     1      -3.643  20.299 -12.626  1.00  0.00     0.040 A 
ATOM     84  F   UNL     1      -2.781  18.467 -13.807  1.00  0.00    -0.206 F 
ATOM     85  C   UNL     1      -3.850  20.977 -11.427  1.00  0.00     0.006 A 
ENDBRANCH  61  78
ENDBRANCH  35  36
ENDBRANCH  28  30
ENDBRANCH  27  28
ENDBRANCH  26  27
ENDBRANCH  25  26
ENDBRANCH  24  25
ENDBRANCH   1  24
TORSDOF 18
