REMARK SMILES O=C(CC(=O)c1ccccc1)Nc1cccc(C(=O)OCCOCCOC(=O)c2ccc(-c3c4nc(c(-c5c(F)cccc5F)c5ccc([nH]5)c(-c5c(F)cccc5F)c5nc(c(-c6c(F)cccc6F)c6ccc3[nH]6)C=C5)C=C4)cc2)c1
REMARK SMILES IDX 22 1 21 2 20 3 18 4 19 5 17 6 13 7 14 8 83 9 15 10 16 11
REMARK SMILES IDX 12 12 1 13 2 14 3 16 4 17 5 18 6 19 7 20 11 21 8 22 10 23
REMARK SMILES IDX 9 24 23 25 24 26 25 27 26 28 27 29 28 30 29 31 30 32 82 33
REMARK SMILES IDX 31 34 81 35 32 36 33 37 34 38 75 39 35 40 80 41 74 42 76 43
REMARK SMILES IDX 36 44 79 45 73 46 72 47 37 49 63 50 46 51 62 52 47 53 50 54
REMARK SMILES IDX 61 55 77 56 48 57 49 58 60 60 78 61 51 62 38 63 39 64 44 65
REMARK SMILES IDX 40 66 41 67 43 68 45 69 42 70 64 71 65 72 70 73 66 74 67 75
REMARK SMILES IDX 69 76 71 77 68 78 52 79 53 80 58 81 54 82 55 83 57 84 59 85
REMARK SMILES IDX 56 86
REMARK H PARENT 12 15 76 48 50 59
REMARK Flexibility Score: inf
ROOT
ATOM      1  C   UNL     1      -2.018   3.200   4.999  1.00  0.00     0.202 C 
ENDROOT
BRANCH   1   2
ATOM      2  C   UNL     1      -2.482   2.862   3.578  1.00  0.00     0.261 C 
BRANCH   2   3
ATOM      3  O   UNL     1      -1.363   2.653   2.703  1.00  0.00    -0.460 OA
BRANCH   3   4
ATOM      4  C   UNL     1      -1.191   3.582   1.732  1.00  0.00     0.338 C 
ATOM      5  O   UNL     1      -1.955   4.491   1.440  1.00  0.00    -0.246 OA
BRANCH   4   6
ATOM      6  C   UNL     1       0.181   3.471   1.185  1.00  0.00     0.062 A 
ATOM      7  C   UNL     1       2.128   2.173   0.552  1.00  0.00     0.042 A 
ATOM      8  C   UNL     1       2.812   3.366   0.279  1.00  0.00     0.026 A 
ATOM      9  C   UNL     1       0.818   2.234   1.033  1.00  0.00     0.041 A 
ATOM     10  C   UNL     1       2.176   4.602   0.428  1.00  0.00     0.003 A 
ATOM     11  C   UNL     1       0.857   4.654   0.868  1.00  0.00     0.016 A 
BRANCH   7  12
ATOM     12  N   UNL     1       2.802   0.964   0.272  1.00  0.00    -0.326 N 
ATOM     13  O   UNL     1       1.030  -0.548   0.346  1.00  0.00    -0.274 OA
ATOM     14  C   UNL     1       2.209  -0.281   0.131  1.00  0.00     0.232 C 
ATOM     15  H   UNL     1       3.780   1.009   0.169  1.00  0.00     0.169 HD
BRANCH  14  16
ATOM     16  C   UNL     1       3.138  -1.347  -0.372  1.00  0.00     0.181 C 
BRANCH  16  17
ATOM     17  C   UNL     1       3.930  -1.011  -1.609  1.00  0.00     0.172 C 
ATOM     18  O   UNL     1       5.161  -1.013  -1.586  1.00  0.00    -0.294 OA
BRANCH  17  19
ATOM     19  C   UNL     1       3.247  -0.730  -2.900  1.00  0.00     0.018 A 
ATOM     20  C   UNL     1       3.752  -1.352  -4.049  1.00  0.00     0.012 A 
ATOM     21  C   UNL     1       2.202   0.191  -3.020  1.00  0.00     0.012 A 
ATOM     22  C   UNL     1       3.210  -1.061  -5.303  1.00  0.00     0.001 A 
ATOM     23  C   UNL     1       1.673   0.490  -4.278  1.00  0.00     0.001 A 
ATOM     24  C   UNL     1       2.175  -0.136  -5.417  1.00  0.00     0.000 A 
ENDBRANCH  17  19
ENDBRANCH  16  17
ENDBRANCH  14  16
ENDBRANCH   7  12
ENDBRANCH   4   6
ENDBRANCH   3   4
ENDBRANCH   2   3
ENDBRANCH   1   2
BRANCH   1  25
ATOM     25  O   UNL     1      -1.329   4.439   5.171  1.00  0.00    -0.374 OA
BRANCH  25  26
ATOM     26  C   UNL     1       0.045   4.485   4.787  1.00  0.00     0.202 C 
BRANCH  26  27
ATOM     27  C   UNL     1       1.064   3.891   5.766  1.00  0.00     0.261 C 
BRANCH  27  28
ATOM     28  O   UNL     1       0.879   2.479   5.962  1.00  0.00    -0.460 OA
BRANCH  28  29
ATOM     29  C   UNL     1       0.347   2.147   7.162  1.00  0.00     0.338 C 
ATOM     30  O   UNL     1       0.093   2.895   8.092  1.00  0.00    -0.246 OA
BRANCH  29  31
ATOM     31  C   UNL     1      -0.057   0.730   7.165  1.00  0.00     0.060 A 
ATOM     32  C   UNL     1      -1.369   0.439   7.558  1.00  0.00     0.016 A 
ATOM     33  C   UNL     1       0.849  -0.298   6.892  1.00  0.00     0.016 A 
ATOM     34  C   UNL     1      -1.762  -0.882   7.749  1.00  0.00     0.010 A 
ATOM     35  C   UNL     1       0.452  -1.626   7.088  1.00  0.00     0.010 A 
ATOM     36  C   UNL     1      -0.839  -1.919   7.563  1.00  0.00    -0.014 A 
BRANCH  36  37
ATOM     37  C   UNL     1      -1.185  -3.283   8.034  1.00  0.00     0.031 A 
ATOM     38  C   UNL     1      -0.630  -3.765   9.347  1.00  0.00     0.074 A 
ATOM     39  C   UNL     1      -2.027  -4.061   7.332  1.00  0.00     0.049 A 
ATOM     40  N   UNL     1      -0.810  -4.908   9.958  1.00  0.00    -0.248 NA
ATOM     41  C   UNL     1       0.249  -2.830  10.069  1.00  0.00     0.031 C 
ATOM     42  C   UNL     1      -2.657  -3.696   6.065  1.00  0.00     0.029 A 
ATOM     43  N   UNL     1      -2.499  -5.322   7.594  1.00  0.00    -0.354 N 
ATOM     44  C   UNL     1      -0.064  -4.834  11.128  1.00  0.00     0.074 A 
ATOM     45  C   UNL     1       0.602  -3.549  11.124  1.00  0.00     0.031 C 
ATOM     46  C   UNL     1      -3.434  -4.713   5.657  1.00  0.00     0.029 A 
ATOM     47  C   UNL     1      -3.335  -5.809   6.620  1.00  0.00     0.049 A 
ATOM     48  H   UNL     1      -2.261  -5.830   8.403  1.00  0.00     0.167 HD
ATOM     49  C   UNL     1       0.046  -5.746  12.123  1.00  0.00     0.037 A 
ATOM     50  C   UNL     1      -3.939  -7.007   6.513  1.00  0.00     0.037 A 
ATOM     51  C   UNL     1      -0.619  -7.023  12.128  1.00  0.00     0.049 A 
ATOM     52  C   UNL     1      -3.757  -8.028   7.605  1.00  0.00     0.074 A 
ATOM     53  C   UNL     1      -0.585  -8.011  13.097  1.00  0.00     0.029 A 
ATOM     54  N   UNL     1      -1.435  -7.492  11.108  1.00  0.00    -0.354 N 
ATOM     55  N   UNL     1      -3.071  -7.937   8.719  1.00  0.00    -0.248 NA
ATOM     56  C   UNL     1      -4.444  -9.315   7.427  1.00  0.00     0.031 C 
ATOM     57  C   UNL     1      -1.337  -9.098  12.640  1.00  0.00     0.029 A 
ATOM     58  C   UNL     1      -1.891  -8.764  11.415  1.00  0.00     0.049 A 
ATOM     59  H   UNL     1      -1.657  -6.994  10.289  1.00  0.00     0.167 HD
ATOM     60  C   UNL     1      -3.271  -9.139   9.389  1.00  0.00     0.074 A 
ATOM     61  C   UNL     1      -4.154  -9.935   8.562  1.00  0.00     0.031 C 
ATOM     62  C   UNL     1      -2.773  -9.545  10.584  1.00  0.00     0.037 A 
BRANCH  49  63
ATOM     63  C   UNL     1       0.944  -5.402  13.277  1.00  0.00     0.057 A 
ATOM     64  C   UNL     1       0.613  -4.407  14.207  1.00  0.00     0.134 A 
ATOM     65  C   UNL     1       2.149  -6.090  13.472  1.00  0.00     0.134 A 
ATOM     66  F   UNL     1      -0.519  -3.700  14.072  1.00  0.00    -0.206 F 
ATOM     67  C   UNL     1       1.461  -4.088  15.270  1.00  0.00     0.040 A 
ATOM     68  C   UNL     1       2.991  -5.801  14.547  1.00  0.00     0.040 A 
ATOM     69  F   UNL     1       2.526  -7.058  12.623  1.00  0.00    -0.206 F 
ATOM     70  C   UNL     1       2.651  -4.791  15.446  1.00  0.00     0.006 A 
ENDBRANCH  49  63
BRANCH  50  71
ATOM     71  C   UNL     1      -4.777  -7.312   5.325  1.00  0.00     0.057 A 
ATOM     72  C   UNL     1      -6.164  -7.465   5.433  1.00  0.00     0.134 A 
ATOM     73  C   UNL     1      -4.207  -7.480   4.057  1.00  0.00     0.134 A 
ATOM     74  F   UNL     1      -6.766  -7.340   6.625  1.00  0.00    -0.206 F 
ATOM     75  C   UNL     1      -6.952  -7.792   4.329  1.00  0.00     0.040 A 
ATOM     76  C   UNL     1      -4.986  -7.780   2.939  1.00  0.00     0.040 A 
ATOM     77  F   UNL     1      -2.884  -7.347   3.886  1.00  0.00    -0.206 F 
ATOM     78  C   UNL     1      -6.363  -7.945   3.075  1.00  0.00     0.006 A 
ENDBRANCH  50  71
BRANCH  62  79
ATOM     79  C   UNL     1      -3.208 -10.893  11.087  1.00  0.00     0.057 A 
ATOM     80  C   UNL     1      -2.784 -12.086  10.488  1.00  0.00     0.134 A 
ATOM     81  C   UNL     1      -4.053 -10.996  12.201  1.00  0.00     0.134 A 
ATOM     82  F   UNL     1      -1.984 -12.059   9.411  1.00  0.00    -0.206 F 
ATOM     83  C   UNL     1      -3.213 -13.330  10.954  1.00  0.00     0.040 A 
ATOM     84  C   UNL     1      -4.462 -12.235  12.696  1.00  0.00     0.040 A 
ATOM     85  F   UNL     1      -4.487  -9.895  12.832  1.00  0.00    -0.206 F 
ATOM     86  C   UNL     1      -4.051 -13.407  12.065  1.00  0.00     0.006 A 
ENDBRANCH  62  79
ENDBRANCH  36  37
ENDBRANCH  29  31
ENDBRANCH  28  29
ENDBRANCH  27  28
ENDBRANCH  26  27
ENDBRANCH  25  26
ENDBRANCH   1  25
TORSDOF 18
