REMARK SMILES CCOC(=O)c1ccc(-c2cc(F)cc(C(=O)OCCOCCOC(=O)c3ccc(-c4c5nc(c(-c6c(F)cccc6F)c6ccc([nH]6)c(-c6c(F)cccc6F)c6nc(c(-c7c(F)cccc7F)c7ccc4[nH]7)C=C6)C=C5)cc3)c2)cc1
REMARK SMILES IDX 20 1 19 2 18 3 16 4 17 5 15 6 10 7 11 8 81 9 12 10 13 11
REMARK SMILES IDX 14 12 9 13 6 14 7 15 83 16 8 17 82 18 4 19 5 20 3 21 2 22
REMARK SMILES IDX 1 23 21 24 22 25 23 26 24 27 25 28 26 29 27 30 28 31 80 32
REMARK SMILES IDX 29 33 79 34 30 35 31 36 32 37 73 38 33 39 78 40 72 41 74 42
REMARK SMILES IDX 34 43 77 44 71 45 70 46 35 48 61 49 44 50 60 51 45 52 48 53
REMARK SMILES IDX 59 54 75 55 46 56 47 57 58 59 76 60 49 61 36 62 37 63 42 64
REMARK SMILES IDX 38 65 39 66 41 67 43 68 40 69 62 70 63 71 68 72 64 73 65 74
REMARK SMILES IDX 67 75 69 76 66 77 50 78 51 79 56 80 52 81 53 82 55 83 57 84
REMARK SMILES IDX 54 85
REMARK H PARENT 74 47 48 58
REMARK Flexibility Score: inf
ROOT
ATOM      1  C   UNL     1       7.248  -0.313  11.955  1.00  0.00     0.202 C 
ENDROOT
BRANCH   1   2
ATOM      2  C   UNL     1       5.816   0.196  12.142  1.00  0.00     0.261 C 
BRANCH   2   3
ATOM      3  O   UNL     1       5.355   0.853  10.946  1.00  0.00    -0.460 OA
BRANCH   3   4
ATOM      4  C   UNL     1       5.076   2.171  11.081  1.00  0.00     0.338 C 
ATOM      5  O   UNL     1       5.005   2.804  12.124  1.00  0.00    -0.246 OA
BRANCH   4   6
ATOM      6  C   UNL     1       5.037   2.818   9.750  1.00  0.00     0.063 A 
ATOM      7  C   UNL     1       4.540   2.824   7.352  1.00  0.00    -0.015 A 
ATOM      8  C   UNL     1       5.071   4.125   7.291  1.00  0.00     0.048 A 
ATOM      9  C   UNL     1       4.540   2.174   8.604  1.00  0.00     0.024 A 
ATOM     10  C   UNL     1       5.576   4.745   8.430  1.00  0.00     0.124 A 
ATOM     11  F   UNL     1       6.095   5.976   8.332  1.00  0.00    -0.207 F 
ATOM     12  C   UNL     1       5.558   4.110   9.659  1.00  0.00     0.055 A 
BRANCH   7  13
ATOM     13  C   UNL     1       4.010   2.170   6.138  1.00  0.00    -0.018 A 
ATOM     14  C   UNL     1       3.021   0.891   3.813  1.00  0.00     0.060 A 
ATOM     15  C   UNL     1       4.231   1.587   3.771  1.00  0.00     0.016 A 
ATOM     16  C   UNL     1       2.294   0.840   5.005  1.00  0.00     0.016 A 
ATOM     17  C   UNL     1       4.714   2.224   4.920  1.00  0.00     0.009 A 
ATOM     18  C   UNL     1       2.788   1.472   6.154  1.00  0.00     0.009 A 
BRANCH  14  19
ATOM     19  C   UNL     1       2.587   0.160   2.602  1.00  0.00     0.338 C 
ATOM     20  O   UNL     1       3.370  -0.358   1.822  1.00  0.00    -0.246 OA
BRANCH  19  21
ATOM     21  O   UNL     1       1.236   0.181   2.501  1.00  0.00    -0.462 OA
BRANCH  21  22
ATOM     22  C   UNL     1       0.684  -0.576   1.412  1.00  0.00     0.230 C 
ATOM     23  C   UNL     1       0.862   0.124   0.076  1.00  0.00     0.049 C 
ENDBRANCH  21  22
ENDBRANCH  19  21
ENDBRANCH  14  19
ENDBRANCH   7  13
ENDBRANCH   4   6
ENDBRANCH   3   4
ENDBRANCH   2   3
ENDBRANCH   1   2
BRANCH   1  24
ATOM     24  O   UNL     1       8.242   0.704  11.823  1.00  0.00    -0.374 OA
BRANCH  24  25
ATOM     25  C   UNL     1       8.415   1.269  10.522  1.00  0.00     0.202 C 
BRANCH  25  26
ATOM     26  C   UNL     1       9.292   0.460   9.560  1.00  0.00     0.261 C 
BRANCH  26  27
ATOM     27  O   UNL     1       8.647  -0.764   9.162  1.00  0.00    -0.460 OA
BRANCH  27  28
ATOM     28  C   UNL     1       9.195  -1.890   9.674  1.00  0.00     0.338 C 
ATOM     29  O   UNL     1      10.213  -1.982  10.343  1.00  0.00    -0.246 OA
BRANCH  28  30
ATOM     30  C   UNL     1       8.289  -3.034   9.457  1.00  0.00     0.060 A 
ATOM     31  C   UNL     1       8.001  -3.846  10.561  1.00  0.00     0.016 A 
ATOM     32  C   UNL     1       7.787  -3.350   8.192  1.00  0.00     0.016 A 
ATOM     33  C   UNL     1       7.256  -5.012  10.395  1.00  0.00     0.010 A 
ATOM     34  C   UNL     1       7.046  -4.525   8.026  1.00  0.00     0.010 A 
ATOM     35  C   UNL     1       6.811  -5.380   9.119  1.00  0.00    -0.014 A 
BRANCH  35  36
ATOM     36  C   UNL     1       6.251  -6.734   8.899  1.00  0.00     0.031 A 
ATOM     37  C   UNL     1       7.148  -7.809   8.350  1.00  0.00     0.074 A 
ATOM     38  C   UNL     1       4.972  -7.013   9.205  1.00  0.00     0.049 A 
ATOM     39  N   UNL     1       6.864  -9.044   8.027  1.00  0.00    -0.248 NA
ATOM     40  C   UNL     1       8.556  -7.438   8.134  1.00  0.00     0.031 C 
ATOM     41  C   UNL     1       4.016  -6.072   9.786  1.00  0.00     0.029 A 
ATOM     42  N   UNL     1       4.256  -8.175   9.058  1.00  0.00    -0.354 N 
ATOM     43  C   UNL     1       8.053  -9.595   7.563  1.00  0.00     0.074 A 
ATOM     44  C   UNL     1       9.055  -8.553   7.621  1.00  0.00     0.031 C 
ATOM     45  C   UNL     1       2.832  -6.692   9.934  1.00  0.00     0.029 A 
ATOM     46  C   UNL     1       2.940  -8.060   9.430  1.00  0.00     0.049 A 
ATOM     47  H   UNL     1       4.650  -9.011   8.719  1.00  0.00     0.167 HD
ATOM     48  C   UNL     1       8.290 -10.857   7.134  1.00  0.00     0.037 A 
ATOM     49  C   UNL     1       1.934  -8.952   9.350  1.00  0.00     0.037 A 
ATOM     50  C   UNL     1       7.294 -11.893   7.078  1.00  0.00     0.049 A 
ATOM     51  C   UNL     1       2.205 -10.329   8.804  1.00  0.00     0.074 A 
ATOM     52  C   UNL     1       7.438 -13.207   6.667  1.00  0.00     0.029 A 
ATOM     53  N   UNL     1       5.966 -11.730   7.441  1.00  0.00    -0.354 N 
ATOM     54  N   UNL     1       3.335 -10.844   8.381  1.00  0.00    -0.248 NA
ATOM     55  C   UNL     1       1.061 -11.249   8.724  1.00  0.00     0.031 C 
ATOM     56  C   UNL     1       6.187 -13.828   6.743  1.00  0.00     0.029 A 
ATOM     57  C   UNL     1       5.275 -12.914   7.246  1.00  0.00     0.049 A 
ATOM     58  H   UNL     1       5.573 -10.897   7.787  1.00  0.00     0.167 HD
ATOM     59  C   UNL     1       3.046 -12.154   8.019  1.00  0.00     0.074 A 
ATOM     60  C   UNL     1       1.635 -12.357   8.275  1.00  0.00     0.031 C 
ATOM     61  C   UNL     1       3.874 -13.104   7.523  1.00  0.00     0.037 A 
BRANCH  48  62
ATOM     62  C   UNL     1       9.679 -11.177   6.669  1.00  0.00     0.057 A 
ATOM     63  C   UNL     1      10.746 -11.312   7.566  1.00  0.00     0.134 A 
ATOM     64  C   UNL     1       9.946 -11.381   5.309  1.00  0.00     0.134 A 
ATOM     65  F   UNL     1      10.560 -11.114   8.879  1.00  0.00    -0.206 F 
ATOM     66  C   UNL     1      12.035 -11.617   7.124  1.00  0.00     0.040 A 
ATOM     67  C   UNL     1      11.225 -11.710   4.858  1.00  0.00     0.040 A 
ATOM     68  F   UNL     1       8.967 -11.270   4.399  1.00  0.00    -0.206 F 
ATOM     69  C   UNL     1      12.275 -11.824   5.767  1.00  0.00     0.006 A 
ENDBRANCH  48  62
BRANCH  49  70
ATOM     70  C   UNL     1       0.567  -8.572   9.787  1.00  0.00     0.057 A 
ATOM     71  C   UNL     1      -0.012  -9.134  10.930  1.00  0.00     0.134 A 
ATOM     72  C   UNL     1      -0.202  -7.657   9.057  1.00  0.00     0.134 A 
ATOM     73  F   UNL     1       0.666 -10.035  11.656  1.00  0.00    -0.206 F 
ATOM     74  C   UNL     1      -1.312  -8.814  11.324  1.00  0.00     0.040 A 
ATOM     75  C   UNL     1      -1.495  -7.310   9.452  1.00  0.00     0.040 A 
ATOM     76  F   UNL     1       0.295  -7.083   7.952  1.00  0.00    -0.206 F 
ATOM     77  C   UNL     1      -2.056  -7.895  10.586  1.00  0.00     0.006 A 
ENDBRANCH  49  70
BRANCH  61  78
ATOM     78  C   UNL     1       3.294 -14.465   7.270  1.00  0.00     0.057 A 
ATOM     79  C   UNL     1       2.444 -14.719   6.187  1.00  0.00     0.134 A 
ATOM     80  C   UNL     1       3.635 -15.545   8.095  1.00  0.00     0.134 A 
ATOM     81  F   UNL     1       2.071 -13.725   5.368  1.00  0.00    -0.206 F 
ATOM     82  C   UNL     1       1.939 -15.998   5.943  1.00  0.00     0.040 A 
ATOM     83  C   UNL     1       3.155 -16.832   7.846  1.00  0.00     0.040 A 
ATOM     84  F   UNL     1       4.452 -15.371   9.144  1.00  0.00    -0.206 F 
ATOM     85  C   UNL     1       2.301 -17.060   6.770  1.00  0.00     0.006 A 
ENDBRANCH  61  78
ENDBRANCH  35  36
ENDBRANCH  28  30
ENDBRANCH  27  28
ENDBRANCH  26  27
ENDBRANCH  25  26
ENDBRANCH  24  25
ENDBRANCH   1  24
TORSDOF 18
