REMARK SMILES C[C@H]1[C@H](C(=O)OCCOCCOC(=O)c2ccc(-c3c4nc(c(-c5c(F)cccc5F)c5ccc([nH]5)c(-c5c(F)cccc5F)c5nc(c(-c6c(F)cccc6F)c6ccc3[nH]6)C=C5)C=C4)cc2)CC[N@@H+]1CC(=O)N1CCCC1
REMARK SMILES IDX 9 1 8 2 7 3 6 4 4 5 5 6 3 7 1 8 2 9 71 10 69 11 70 12 72 14
REMARK SMILES IDX 73 15 74 16 75 17 76 18 79 19 77 20 78 21 10 22 11 23 12 24
REMARK SMILES IDX 13 25 14 26 15 27 16 28 68 29 17 30 67 31 18 32 19 33 20 34
REMARK SMILES IDX 61 35 21 36 66 37 60 38 62 39 22 40 65 41 59 42 58 43 23 45
REMARK SMILES IDX 49 46 32 47 48 48 33 49 36 50 47 51 63 52 34 53 35 54 46 56
REMARK SMILES IDX 64 57 37 58 24 59 25 60 30 61 26 62 27 63 29 64 31 65 28 66
REMARK SMILES IDX 50 67 51 68 56 69 52 70 53 71 55 72 57 73 54 74 38 75 39 76
REMARK SMILES IDX 44 77 40 78 41 79 43 80 45 81 42 82
REMARK H PARENT 71 13 62 44 36 55
REMARK Flexibility Score: inf
ROOT
ATOM      1  O   UNL     1       2.234   4.364   1.984  1.00  0.00    -0.374 OA
ENDROOT
BRANCH   1   2
ATOM      2  C   UNL     1       0.932   4.598   2.518  1.00  0.00     0.202 C 
BRANCH   2   3
ATOM      3  C   UNL     1      -0.241   4.446   1.527  1.00  0.00     0.261 C 
BRANCH   3   4
ATOM      4  O   UNL     1      -0.477   3.093   1.068  1.00  0.00    -0.463 OA
BRANCH   4   5
ATOM      5  C   UNL     1      -0.123   2.807  -0.215  1.00  0.00     0.315 C 
ATOM      6  O   UNL     1       0.487   3.577  -0.947  1.00  0.00    -0.252 OA
BRANCH   5   7
ATOM      7  C   UNL     1      -0.514   1.409  -0.663  1.00  0.00     0.162 C 
ATOM      8  C   UNL     1       1.498  -0.042  -1.208  1.00  0.00     0.076 C 
ATOM      9  C   UNL     1       0.422   0.294  -0.175  1.00  0.00     0.195 C 
ATOM     10  N   UNL     1      -0.439  -0.880   0.045  1.00  0.00    -0.324 N 
ATOM     11  C   UNL     1      -1.901   0.940  -0.243  1.00  0.00     0.083 C 
ATOM     12  C   UNL     1      -1.792  -0.567  -0.402  1.00  0.00     0.264 C 
ATOM     13  H   UNL     1      -0.071  -1.627  -0.543  1.00  0.00     0.348 HD
BRANCH  10  14
ATOM     14  C   UNL     1      -0.316  -1.596   1.329  1.00  0.00     0.364 C 
BRANCH  14  15
ATOM     15  C   UNL     1      -1.361  -1.298   2.431  1.00  0.00     0.277 C 
ATOM     16  O   UNL     1      -2.400  -1.961   2.507  1.00  0.00    -0.268 OA
ATOM     17  N   UNL     1      -1.073  -0.334   3.372  1.00  0.00    -0.338 N 
ATOM     18  C   UNL     1      -0.030   0.640   3.289  1.00  0.00     0.119 C 
ATOM     19  C   UNL     1      -1.818  -0.183   4.604  1.00  0.00     0.119 C 
ATOM     20  C   UNL     1      -0.447   1.770   4.200  1.00  0.00     0.023 C 
ATOM     21  C   UNL     1      -1.592   1.254   5.041  1.00  0.00     0.023 C 
ENDBRANCH  14  15
ENDBRANCH  10  14
ENDBRANCH   5   7
ENDBRANCH   4   5
ENDBRANCH   3   4
ENDBRANCH   2   3
ENDBRANCH   1   2
BRANCH   1  22
ATOM     22  C   UNL     1       2.540   3.000   1.705  1.00  0.00     0.202 C 
BRANCH  22  23
ATOM     23  C   UNL     1       3.646   2.438   2.600  1.00  0.00     0.261 C 
BRANCH  23  24
ATOM     24  O   UNL     1       3.055   1.783   3.750  1.00  0.00    -0.460 OA
BRANCH  24  25
ATOM     25  C   UNL     1       3.403   2.263   4.966  1.00  0.00     0.338 C 
ATOM     26  O   UNL     1       4.172   3.181   5.198  1.00  0.00    -0.246 OA
BRANCH  25  27
ATOM     27  C   UNL     1       2.614   1.590   6.030  1.00  0.00     0.060 A 
ATOM     28  C   UNL     1       2.099   2.396   7.053  1.00  0.00     0.016 A 
ATOM     29  C   UNL     1       2.368   0.210   6.046  1.00  0.00     0.016 A 
ATOM     30  C   UNL     1       1.373   1.828   8.103  1.00  0.00     0.010 A 
ATOM     31  C   UNL     1       1.636  -0.360   7.103  1.00  0.00     0.010 A 
ATOM     32  C   UNL     1       1.167   0.441   8.160  1.00  0.00    -0.014 A 
BRANCH  32  33
ATOM     33  C   UNL     1       0.698  -0.150   9.445  1.00  0.00     0.031 A 
ATOM     34  C   UNL     1       1.742  -0.592  10.438  1.00  0.00     0.074 A 
ATOM     35  C   UNL     1      -0.602  -0.210   9.793  1.00  0.00     0.049 A 
ATOM     36  N   UNL     1       1.597  -0.984  11.678  1.00  0.00    -0.248 NA
ATOM     37  C   UNL     1       3.136  -0.577   9.968  1.00  0.00     0.031 C 
ATOM     38  C   UNL     1      -1.723   0.193   8.955  1.00  0.00     0.029 A 
ATOM     39  N   UNL     1      -1.196  -0.623  10.962  1.00  0.00    -0.354 N 
ATOM     40  C   UNL     1       2.882  -1.233  12.143  1.00  0.00     0.074 A 
ATOM     41  C   UNL     1       3.786  -1.004  11.038  1.00  0.00     0.031 C 
ATOM     42  C   UNL     1      -2.872   0.015   9.631  1.00  0.00     0.029 A 
ATOM     43  C   UNL     1      -2.567  -0.517  10.957  1.00  0.00     0.049 A 
ATOM     44  H   UNL     1      -0.687  -0.963  11.733  1.00  0.00     0.167 HD
ATOM     45  C   UNL     1       3.283  -1.597  13.384  1.00  0.00     0.037 A 
ATOM     46  C   UNL     1      -3.474  -0.806  11.912  1.00  0.00     0.037 A 
ATOM     47  C   UNL     1       2.397  -1.858  14.485  1.00  0.00     0.049 A 
ATOM     48  C   UNL     1      -3.008  -1.288  13.262  1.00  0.00     0.074 A 
ATOM     49  C   UNL     1       2.717  -2.238  15.777  1.00  0.00     0.029 A 
ATOM     50  N   UNL     1       1.015  -1.784  14.420  1.00  0.00    -0.354 N 
ATOM     51  N   UNL     1      -1.787  -1.453  13.708  1.00  0.00    -0.248 NA
ATOM     52  C   UNL     1      -4.052  -1.608  14.249  1.00  0.00     0.031 C 
ATOM     53  C   UNL     1       1.525  -2.441  16.481  1.00  0.00     0.029 A 
ATOM     54  C   UNL     1       0.466  -2.135  15.642  1.00  0.00     0.049 A 
ATOM     55  H   UNL     1       0.500  -1.521  13.623  1.00  0.00     0.167 HD
ATOM     56  C   UNL     1      -1.916  -1.858  15.032  1.00  0.00     0.074 A 
ATOM     57  C   UNL     1      -3.333  -1.902  15.322  1.00  0.00     0.031 C 
ATOM     58  C   UNL     1      -0.945  -2.163  15.928  1.00  0.00     0.037 A 
BRANCH  45  59
ATOM     59  C   UNL     1       4.758  -1.749  13.598  1.00  0.00     0.057 A 
ATOM     60  C   UNL     1       5.613  -0.639  13.644  1.00  0.00     0.134 A 
ATOM     61  C   UNL     1       5.331  -3.016  13.754  1.00  0.00     0.134 A 
ATOM     62  F   UNL     1       5.127   0.601  13.479  1.00  0.00    -0.206 F 
ATOM     63  C   UNL     1       6.990  -0.787  13.810  1.00  0.00     0.040 A 
ATOM     64  C   UNL     1       6.704  -3.175  13.947  1.00  0.00     0.040 A 
ATOM     65  F   UNL     1       4.568  -4.119  13.719  1.00  0.00    -0.206 F 
ATOM     66  C   UNL     1       7.538  -2.058  13.967  1.00  0.00     0.006 A 
ENDBRANCH  45  59
BRANCH  46  67
ATOM     67  C   UNL     1      -4.928  -0.642  11.648  1.00  0.00     0.057 A 
ATOM     68  C   UNL     1      -5.684   0.335  12.307  1.00  0.00     0.134 A 
ATOM     69  C   UNL     1      -5.609  -1.504  10.780  1.00  0.00     0.134 A 
ATOM     70  F   UNL     1      -5.095   1.174  13.172  1.00  0.00    -0.206 F 
ATOM     71  C   UNL     1      -7.067   0.431  12.137  1.00  0.00     0.040 A 
ATOM     72  C   UNL     1      -6.988  -1.404  10.581  1.00  0.00     0.040 A 
ATOM     73  F   UNL     1      -4.945  -2.464  10.120  1.00  0.00    -0.206 F 
ATOM     74  C   UNL     1      -7.722  -0.441  11.269  1.00  0.00     0.006 A 
ENDBRANCH  46  67
BRANCH  58  75
ATOM     75  C   UNL     1      -1.374  -2.527  17.321  1.00  0.00     0.057 A 
ATOM     76  C   UNL     1      -2.011  -3.741  17.611  1.00  0.00     0.134 A 
ATOM     77  C   UNL     1      -1.110  -1.666  18.395  1.00  0.00     0.134 A 
ATOM     78  F   UNL     1      -2.303  -4.607  16.629  1.00  0.00    -0.206 F 
ATOM     79  C   UNL     1      -2.393  -4.072  18.913  1.00  0.00     0.040 A 
ATOM     80  C   UNL     1      -1.461  -1.999  19.704  1.00  0.00     0.040 A 
ATOM     81  F   UNL     1      -0.493  -0.492  18.191  1.00  0.00    -0.206 F 
ATOM     82  C   UNL     1      -2.112  -3.203  19.965  1.00  0.00     0.006 A 
ENDBRANCH  58  75
ENDBRANCH  32  33
ENDBRANCH  25  27
ENDBRANCH  24  25
ENDBRANCH  23  24
ENDBRANCH  22  23
ENDBRANCH   1  22
TORSDOF 16
