REMARK SMILES O=C(OCCOCCOC(=O)c1cc(-c2ccc(F)c(C(F)(F)F)c2)cnc1O)c1ccc(-c2c3nc(c(-c4c(F)cccc4F)c4ccc([nH]4)c(-c4c(F)cccc4F)c4nc(c(-c5c(F)cccc5F)c5ccc2[nH]5)C=C4)C=C3)cc1
REMARK SMILES IDX 6 1 5 2 4 3 3 4 2 5 1 6 30 7 31 8 83 9 32 10 82 11 33 12
REMARK SMILES IDX 34 13 35 14 76 15 36 16 81 17 75 18 77 19 37 20 80 21 74 22
REMARK SMILES IDX 73 23 38 25 64 26 47 27 63 28 48 29 51 30 62 31 78 32 49 33
REMARK SMILES IDX 50 34 61 36 79 37 52 38 39 39 40 40 45 41 41 42 42 43 44 44
REMARK SMILES IDX 46 45 43 46 65 47 66 48 71 49 67 50 68 51 70 52 72 53 69 54
REMARK SMILES IDX 53 55 54 56 59 57 55 58 56 59 58 60 60 61 57 62 7 63 8 64
REMARK SMILES IDX 9 65 10 66 11 67 12 68 13 69 28 70 14 71 27 72 26 73 29 74
REMARK SMILES IDX 15 76 16 77 25 78 17 79 20 80 18 81 19 82 21 83 22 84 23 85
REMARK SMILES IDX 24 86
REMARK H PARENT 77 24 51 35 29 75
REMARK Flexibility Score: inf
ROOT
ATOM      1  O   UNL     1       4.145   1.590   0.299  1.00  0.00    -0.374 OA
ENDROOT
BRANCH   1   2
ATOM      2  C   UNL     1       4.444   1.331  -1.074  1.00  0.00     0.202 C 
BRANCH   2   3
ATOM      3  C   UNL     1       4.177  -0.110  -1.516  1.00  0.00     0.261 C 
BRANCH   3   4
ATOM      4  O   UNL     1       2.815  -0.486  -1.272  1.00  0.00    -0.460 OA
BRANCH   4   5
ATOM      5  C   UNL     1       2.272  -1.109  -0.203  1.00  0.00     0.338 C 
ATOM      6  O   UNL     1       1.072  -1.378  -0.255  1.00  0.00    -0.246 OA
BRANCH   5   7
ATOM      7  C   UNL     1       3.003  -1.462   1.063  1.00  0.00     0.060 A 
ATOM      8  C   UNL     1       2.268  -2.190   2.020  1.00  0.00     0.016 A 
ATOM      9  C   UNL     1       4.304  -1.087   1.408  1.00  0.00     0.016 A 
ATOM     10  C   UNL     1       2.807  -2.505   3.271  1.00  0.00     0.010 A 
ATOM     11  C   UNL     1       4.855  -1.404   2.645  1.00  0.00     0.010 A 
ATOM     12  C   UNL     1       4.108  -2.106   3.584  1.00  0.00    -0.014 A 
BRANCH  12  13
ATOM     13  C   UNL     1       4.773  -2.514   4.830  1.00  0.00     0.031 A 
ATOM     14  C   UNL     1       5.009  -1.532   5.933  1.00  0.00     0.074 A 
ATOM     15  C   UNL     1       5.291  -3.753   4.863  1.00  0.00     0.049 A 
ATOM     16  N   UNL     1       5.532  -1.734   7.113  1.00  0.00    -0.248 NA
ATOM     17  C   UNL     1       4.641  -0.133   5.666  1.00  0.00     0.031 C 
ATOM     18  C   UNL     1       5.219  -4.721   3.764  1.00  0.00     0.029 A 
ATOM     19  N   UNL     1       5.994  -4.401   5.837  1.00  0.00    -0.354 N 
ATOM     20  C   UNL     1       5.540  -0.494   7.739  1.00  0.00     0.074 A 
ATOM     21  C   UNL     1       5.029   0.466   6.784  1.00  0.00     0.031 C 
ATOM     22  C   UNL     1       5.834  -5.852   4.137  1.00  0.00     0.029 A 
ATOM     23  C   UNL     1       6.335  -5.685   5.495  1.00  0.00     0.049 A 
ATOM     24  H   UNL     1       6.232  -3.989   6.699  1.00  0.00     0.167 HD
ATOM     25  C   UNL     1       5.926  -0.202   9.005  1.00  0.00     0.037 A 
ATOM     26  C   UNL     1       6.954  -6.629   6.222  1.00  0.00     0.037 A 
ATOM     27  C   UNL     1       6.465  -1.186   9.911  1.00  0.00     0.049 A 
ATOM     28  C   UNL     1       7.327  -6.296   7.635  1.00  0.00     0.074 A 
ATOM     29  C   UNL     1       6.808  -1.049  11.244  1.00  0.00     0.029 A 
ATOM     30  N   UNL     1       6.762  -2.497   9.556  1.00  0.00    -0.354 N 
ATOM     31  N   UNL     1       7.183  -5.164   8.283  1.00  0.00    -0.248 NA
ATOM     32  C   UNL     1       7.919  -7.379   8.425  1.00  0.00     0.031 C 
ATOM     33  C   UNL     1       7.358  -2.263  11.679  1.00  0.00     0.029 A 
ATOM     34  C   UNL     1       7.311  -3.172  10.633  1.00  0.00     0.049 A 
ATOM     35  H   UNL     1       6.605  -2.889   8.666  1.00  0.00     0.167 HD
ATOM     36  C   UNL     1       7.644  -5.402   9.568  1.00  0.00     0.074 A 
ATOM     37  C   UNL     1       8.046  -6.796   9.608  1.00  0.00     0.031 C 
ATOM     38  C   UNL     1       7.727  -4.553  10.624  1.00  0.00     0.037 A 
BRANCH  25  39
ATOM     39  C   UNL     1       5.773   1.220   9.472  1.00  0.00     0.057 A 
ATOM     40  C   UNL     1       6.890   2.004   9.787  1.00  0.00     0.134 A 
ATOM     41  C   UNL     1       4.511   1.812   9.636  1.00  0.00     0.134 A 
ATOM     42  F   UNL     1       8.130   1.506   9.661  1.00  0.00    -0.206 F 
ATOM     43  C   UNL     1       6.760   3.319  10.242  1.00  0.00     0.040 A 
ATOM     44  C   UNL     1       4.369   3.134  10.064  1.00  0.00     0.040 A 
ATOM     45  F   UNL     1       3.395   1.125   9.348  1.00  0.00    -0.206 F 
ATOM     46  C   UNL     1       5.496   3.891  10.373  1.00  0.00     0.006 A 
ENDBRANCH  25  39
BRANCH  26  47
ATOM     47  C   UNL     1       7.132  -7.988   5.660  1.00  0.00     0.057 A 
ATOM     48  C   UNL     1       8.046  -8.251   4.633  1.00  0.00     0.134 A 
ATOM     49  C   UNL     1       6.340  -9.050   6.109  1.00  0.00     0.134 A 
ATOM     50  F   UNL     1       8.815  -7.269   4.142  1.00  0.00    -0.206 F 
ATOM     51  C   UNL     1       8.163  -9.524   4.071  1.00  0.00     0.040 A 
ATOM     52  C   UNL     1       6.462 -10.332   5.572  1.00  0.00     0.040 A 
ATOM     53  F   UNL     1       5.447  -8.857   7.090  1.00  0.00    -0.206 F 
ATOM     54  C   UNL     1       7.372 -10.569   4.545  1.00  0.00     0.006 A 
ENDBRANCH  26  47
BRANCH  38  55
ATOM     55  C   UNL     1       8.273  -5.138  11.892  1.00  0.00     0.057 A 
ATOM     56  C   UNL     1       7.432  -5.386  12.982  1.00  0.00     0.134 A 
ATOM     57  C   UNL     1       9.624  -5.489  12.018  1.00  0.00     0.134 A 
ATOM     58  F   UNL     1       6.131  -5.065  12.927  1.00  0.00    -0.206 F 
ATOM     59  C   UNL     1       7.912  -5.980  14.149  1.00  0.00     0.040 A 
ATOM     60  C   UNL     1      10.108  -6.113  13.167  1.00  0.00     0.040 A 
ATOM     61  F   UNL     1      10.476  -5.293  10.999  1.00  0.00    -0.206 F 
ATOM     62  C   UNL     1       9.250  -6.359  14.238  1.00  0.00     0.006 A 
ENDBRANCH  38  55
ENDBRANCH  12  13
ENDBRANCH   5   7
ENDBRANCH   4   5
ENDBRANCH   3   4
ENDBRANCH   2   3
ENDBRANCH   1   2
BRANCH   1  63
ATOM     63  C   UNL     1       2.830   2.101   0.551  1.00  0.00     0.202 C 
BRANCH  63  64
ATOM     64  C   UNL     1       2.897   3.562   1.007  1.00  0.00     0.261 C 
BRANCH  64  65
ATOM     65  O   UNL     1       3.430   4.370  -0.059  1.00  0.00    -0.459 OA
BRANCH  65  66
ATOM     66  C   UNL     1       4.785   4.510  -0.056  1.00  0.00     0.343 C 
ATOM     67  O   UNL     1       5.548   4.283   0.857  1.00  0.00    -0.246 OA
BRANCH  66  68
ATOM     68  C   UNL     1       5.208   4.773  -1.444  1.00  0.00     0.122 A 
ATOM     69  C   UNL     1       6.372   4.140  -1.905  1.00  0.00     0.031 A 
ATOM     70  C   UNL     1       4.458   5.517  -2.345  1.00  0.00     0.225 A 
ATOM     71  C   UNL     1       6.721   4.224  -3.255  1.00  0.00     0.001 A 
ATOM     72  N   UNL     1       4.801   5.669  -3.638  1.00  0.00    -0.221 NA
ATOM     73  C   UNL     1       5.908   5.017  -4.063  1.00  0.00     0.124 A 
BRANCH  70  74
ATOM     74  O   UNL     1       3.291   6.145  -2.022  1.00  0.00    -0.493 OA
ATOM     75  H   UNL     1       2.963   6.101  -1.145  1.00  0.00     0.295 HD
ENDBRANCH  70  74
BRANCH  71  76
ATOM     76  C   UNL     1       7.849   3.487  -3.822  1.00  0.00    -0.016 A 
ATOM     77  C   UNL     1       9.151   4.002  -3.755  1.00  0.00     0.012 A 
ATOM     78  C   UNL     1       7.639   2.273  -4.505  1.00  0.00     0.025 A 
ATOM     79  C   UNL     1      10.208   3.341  -4.382  1.00  0.00     0.040 A 
ATOM     80  C   UNL     1       8.700   1.598  -5.134  1.00  0.00     0.092 A 
ATOM     81  C   UNL     1       9.973   2.155  -5.071  1.00  0.00     0.135 A 
ATOM     82  F   UNL     1      10.997   1.557  -5.693  1.00  0.00    -0.206 F 
BRANCH  80  83
ATOM     83  C   UNL     1       8.491   0.329  -5.905  1.00  0.00     0.419 C 
ATOM     84  F   UNL     1       8.586   0.510  -7.250  1.00  0.00    -0.166 F 
ATOM     85  F   UNL     1       9.377  -0.653  -5.585  1.00  0.00    -0.166 F 
ATOM     86  F   UNL     1       7.257  -0.216  -5.695  1.00  0.00    -0.166 F 
ENDBRANCH  80  83
ENDBRANCH  71  76
ENDBRANCH  66  68
ENDBRANCH  65  66
ENDBRANCH  64  65
ENDBRANCH  63  64
ENDBRANCH   1  63
TORSDOF 17
