REMARK SMILES O=C(CCCN1C(=O)/C(=C/c2ccccc2Cl)SC1=S)Nc1cccc(C(=O)OCCOCCOC(=O)c2ccc(-c3c4nc(c(-c5c(F)cccc5F)c5ccc([nH]5)c(-c5c(F)cccc5F)c5nc(c(-c6c(F)cccc6F)c6ccc3[nH]6)C=C5)C=C4)cc2)c1
REMARK SMILES IDX 30 1 29 2 27 3 28 4 26 5 22 6 23 7 92 8 24 9 25 10 21 11
REMARK SMILES IDX 1 12 2 13 3 15 4 16 5 17 6 18 7 19 19 20 8 21 9 22 18 23
REMARK SMILES IDX 20 24 10 25 11 26 12 27 16 28 13 29 15 30 17 31 14 32 31 33
REMARK SMILES IDX 32 34 33 35 34 36 35 37 36 38 37 39 38 40 39 41 91 42 40 43
REMARK SMILES IDX 90 44 41 45 42 46 43 47 84 48 44 49 89 50 83 51 85 52 45 53
REMARK SMILES IDX 88 54 82 55 81 56 46 58 72 59 55 60 71 61 56 62 59 63 70 64
REMARK SMILES IDX 86 65 57 66 58 67 69 69 87 70 60 71 47 72 48 73 53 74 49 75
REMARK SMILES IDX 50 76 52 77 54 78 51 79 73 80 74 81 79 82 75 83 76 84 78 85
REMARK SMILES IDX 80 86 77 87 61 88 62 89 67 90 63 91 64 92 66 93 68 94 65 95
REMARK H PARENT 21 14 85 57 59 68
REMARK Flexibility Score: inf
ROOT
ATOM      1  C   UNL     1      -2.460   3.244   3.213  1.00  0.00     0.261 C 
ENDROOT
BRANCH   1   2
ATOM      2  O   UNL     1      -1.372   2.970   2.317  1.00  0.00    -0.460 OA
BRANCH   2   3
ATOM      3  C   UNL     1      -1.249   3.814   1.262  1.00  0.00     0.338 C 
ATOM      4  O   UNL     1      -2.032   4.687   0.923  1.00  0.00    -0.246 OA
BRANCH   3   5
ATOM      5  C   UNL     1       0.110   3.671   0.691  1.00  0.00     0.062 A 
ATOM      6  C   UNL     1       2.072   2.348   0.186  1.00  0.00     0.042 A 
ATOM      7  C   UNL     1       2.751   3.514  -0.185  1.00  0.00     0.026 A 
ATOM      8  C   UNL     1       0.760   2.435   0.654  1.00  0.00     0.041 A 
ATOM      9  C   UNL     1       2.096   4.748  -0.167  1.00  0.00     0.003 A 
ATOM     10  C   UNL     1       0.772   4.825   0.258  1.00  0.00     0.016 A 
BRANCH   6  11
ATOM     11  N   UNL     1       2.756   1.123   0.058  1.00  0.00    -0.326 N 
ATOM     12  O   UNL     1       0.938  -0.325  -0.047  1.00  0.00    -0.275 OA
ATOM     13  C   UNL     1       2.148  -0.114  -0.044  1.00  0.00     0.224 C 
ATOM     14  H   UNL     1       3.740   1.150   0.039  1.00  0.00     0.169 HD
BRANCH  13  15
ATOM     15  C   UNL     1       3.106  -1.275  -0.174  1.00  0.00     0.102 C 
BRANCH  15  16
ATOM     16  C   UNL     1       3.916  -1.264  -1.469  1.00  0.00     0.032 C 
BRANCH  16  17
ATOM     17  C   UNL     1       5.286  -0.572  -1.409  1.00  0.00     0.128 C 
BRANCH  17  18
ATOM     18  N   UNL     1       6.012  -0.736  -0.147  1.00  0.00    -0.293 N 
ATOM     19  C   UNL     1       6.288   0.388   0.620  1.00  0.00     0.266 C 
ATOM     20  C   UNL     1       6.482  -1.938   0.348  1.00  0.00     0.148 C 
ATOM     21  O   UNL     1       5.869   1.517   0.402  1.00  0.00    -0.268 OA
ATOM     22  C   UNL     1       7.133   0.018   1.785  1.00  0.00     0.081 C 
ATOM     23  S   UNL     1       7.140  -1.693   1.956  1.00  0.00    -0.054 SA
ATOM     24  S   UNL     1       6.461  -3.440  -0.373  1.00  0.00    -0.052 S 
ATOM     25  C   UNL     1       7.812   0.915   2.517  1.00  0.00     0.031 C 
BRANCH  25  26
ATOM     26  C   UNL     1       8.692   0.569   3.650  1.00  0.00    -0.006 A 
ATOM     27  C   UNL     1       8.289   0.981   4.930  1.00  0.00     0.010 A 
ATOM     28  C   UNL     1       9.882  -0.172   3.524  1.00  0.00     0.048 A 
ATOM     29  C   UNL     1       9.023   0.611   6.060  1.00  0.00     0.001 A 
ATOM     30  C   UNL     1      10.598  -0.563   4.660  1.00  0.00     0.021 A 
ATOM     31  Cl  UNL     1      10.540  -0.610   1.982  1.00  0.00    -0.084 Cl
ATOM     32  C   UNL     1      10.164  -0.178   5.927  1.00  0.00     0.002 A 
ENDBRANCH  25  26
ENDBRANCH  17  18
ENDBRANCH  16  17
ENDBRANCH  15  16
ENDBRANCH  13  15
ENDBRANCH   6  11
ENDBRANCH   3   5
ENDBRANCH   2   3
ENDBRANCH   1   2
BRANCH   1  33
ATOM     33  C   UNL     1      -1.953   3.781   4.556  1.00  0.00     0.202 C 
BRANCH  33  34
ATOM     34  O   UNL     1      -1.282   5.040   4.543  1.00  0.00    -0.374 OA
BRANCH  34  35
ATOM     35  C   UNL     1       0.081   5.054   4.119  1.00  0.00     0.202 C 
BRANCH  35  36
ATOM     36  C   UNL     1       1.139   4.612   5.137  1.00  0.00     0.261 C 
BRANCH  36  37
ATOM     37  O   UNL     1       0.979   3.241   5.539  1.00  0.00    -0.460 OA
BRANCH  37  38
ATOM     38  C   UNL     1       0.469   3.085   6.784  1.00  0.00     0.338 C 
ATOM     39  O   UNL     1       0.225   3.958   7.600  1.00  0.00    -0.246 OA
BRANCH  38  40
ATOM     40  C   UNL     1       0.077   1.682   7.000  1.00  0.00     0.060 A 
ATOM     41  C   UNL     1      -1.234   1.445   7.431  1.00  0.00     0.016 A 
ATOM     42  C   UNL     1       0.992   0.633   6.890  1.00  0.00     0.016 A 
ATOM     43  C   UNL     1      -1.614   0.169   7.830  1.00  0.00     0.010 A 
ATOM     44  C   UNL     1       0.607  -0.651   7.292  1.00  0.00     0.010 A 
ATOM     45  C   UNL     1      -0.681  -0.877   7.812  1.00  0.00    -0.014 A 
BRANCH  45  46
ATOM     46  C   UNL     1      -1.019  -2.150   8.495  1.00  0.00     0.031 A 
ATOM     47  C   UNL     1      -0.445  -2.426   9.858  1.00  0.00     0.074 A 
ATOM     48  C   UNL     1      -1.883  -3.017   7.939  1.00  0.00     0.049 A 
ATOM     49  N   UNL     1      -0.635  -3.452  10.649  1.00  0.00    -0.248 NA
ATOM     50  C   UNL     1       0.470  -1.411  10.402  1.00  0.00     0.031 C 
ATOM     51  C   UNL     1      -2.529  -2.848   6.639  1.00  0.00     0.029 A 
ATOM     52  N   UNL     1      -2.367  -4.212   8.406  1.00  0.00    -0.354 N 
ATOM     53  C   UNL     1       0.139  -3.209  11.777  1.00  0.00     0.074 A 
ATOM     54  C   UNL     1       0.835  -1.961  11.550  1.00  0.00     0.031 C 
ATOM     55  C   UNL     1      -3.330  -3.902   6.412  1.00  0.00     0.029 A 
ATOM     56  C   UNL     1      -3.231  -4.830   7.537  1.00  0.00     0.049 A 
ATOM     57  H   UNL     1      -2.119  -4.590   9.280  1.00  0.00     0.167 HD
ATOM     58  C   UNL     1       0.251  -3.951  12.905  1.00  0.00     0.037 A 
ATOM     59  C   UNL     1      -3.861  -6.017   7.634  1.00  0.00     0.037 A 
ATOM     60  C   UNL     1      -0.444  -5.193  13.129  1.00  0.00     0.049 A 
ATOM     61  C   UNL     1      -3.682  -6.848   8.876  1.00  0.00     0.074 A 
ATOM     62  C   UNL     1      -0.415  -6.009  14.247  1.00  0.00     0.029 A 
ATOM     63  N   UNL     1      -1.286  -5.804  12.211  1.00  0.00    -0.354 N 
ATOM     64  N   UNL     1      -2.973  -6.596   9.950  1.00  0.00    -0.248 NA
ATOM     65  C   UNL     1      -4.406  -8.126   8.923  1.00  0.00     0.031 C 
ATOM     66  C   UNL     1      -1.192  -7.142  13.982  1.00  0.00     0.029 A 
ATOM     67  C   UNL     1      -1.761  -7.000  12.727  1.00  0.00     0.049 A 
ATOM     68  H   UNL     1      -1.513  -5.441  11.325  1.00  0.00     0.167 HD
ATOM     69  C   UNL     1      -3.189  -7.665  10.811  1.00  0.00     0.074 A 
ATOM     70  C   UNL     1      -4.110  -8.559  10.140  1.00  0.00     0.031 C 
ATOM     71  C   UNL     1      -2.675  -7.885  12.048  1.00  0.00     0.037 A 
BRANCH  58  72
ATOM     72  C   UNL     1       1.188  -3.451  13.969  1.00  0.00     0.057 A 
ATOM     73  C   UNL     1       0.921  -2.295  14.716  1.00  0.00     0.134 A 
ATOM     74  C   UNL     1       2.371  -4.144  14.258  1.00  0.00     0.134 A 
ATOM     75  F   UNL     1      -0.186  -1.574  14.482  1.00  0.00    -0.206 F 
ATOM     76  C   UNL     1       1.812  -1.829  15.686  1.00  0.00     0.040 A 
ATOM     77  C   UNL     1       3.253  -3.706  15.248  1.00  0.00     0.040 A 
ATOM     78  F   UNL     1       2.688  -5.261  13.587  1.00  0.00    -0.206 F 
ATOM     79  C   UNL     1       2.979  -2.539  15.958  1.00  0.00     0.006 A 
ENDBRANCH  58  72
BRANCH  59  80
ATOM     80  C   UNL     1      -4.725  -6.488   6.522  1.00  0.00     0.057 A 
ATOM     81  C   UNL     1      -6.113  -6.589   6.669  1.00  0.00     0.134 A 
ATOM     82  C   UNL     1      -4.179  -6.860   5.287  1.00  0.00     0.134 A 
ATOM     83  F   UNL     1      -6.693  -6.269   7.835  1.00  0.00    -0.206 F 
ATOM     84  C   UNL     1      -6.925  -7.059   5.636  1.00  0.00     0.040 A 
ATOM     85  C   UNL     1      -4.981  -7.304   4.236  1.00  0.00     0.040 A 
ATOM     86  F   UNL     1      -2.855  -6.785   5.082  1.00  0.00    -0.206 F 
ATOM     87  C   UNL     1      -6.359  -7.412   4.412  1.00  0.00     0.006 A 
ENDBRANCH  59  80
BRANCH  71  88
ATOM     88  C   UNL     1      -3.135  -9.121  12.771  1.00  0.00     0.057 A 
ATOM     89  C   UNL     1      -2.778 -10.410  12.351  1.00  0.00     0.134 A 
ATOM     90  C   UNL     1      -3.946  -9.019  13.910  1.00  0.00     0.134 A 
ATOM     91  F   UNL     1      -2.011 -10.583  11.263  1.00  0.00    -0.206 F 
ATOM     92  C   UNL     1      -3.244 -11.549  13.010  1.00  0.00     0.040 A 
ATOM     93  C   UNL     1      -4.390 -10.149  14.597  1.00  0.00     0.040 A 
ATOM     94  F   UNL     1      -4.316  -7.817  14.377  1.00  0.00    -0.206 F 
ATOM     95  C   UNL     1      -4.050 -11.420  14.139  1.00  0.00     0.006 A 
ENDBRANCH  71  88
ENDBRANCH  45  46
ENDBRANCH  38  40
ENDBRANCH  37  38
ENDBRANCH  36  37
ENDBRANCH  35  36
ENDBRANCH  34  35
ENDBRANCH  33  34
ENDBRANCH   1  33
TORSDOF 20
