REMARK SMILES Cc1cccc(CNC(=O)N[C@@H](CC2=c3ccccc3=NC2)C(=O)OCCOCCOC(=O)c2ccc(-c3c4nc(c(-c5c(F)cccc5F)c5ccc([nH]5)c(-c5c(F)cccc5F)c5nc(c(-c6c(F)cccc6F)c6ccc3[nH]6)C=C5)C=C4)cc2)c1
REMARK SMILES IDX 27 1 26 2 25 3 23 4 24 5 12 6 11 7 8 8 9 9 10 11 7 13 6 14
REMARK SMILES IDX 1 15 2 16 3 17 88 18 4 19 5 20 13 21 14 22 15 23 22 24 16 25
REMARK SMILES IDX 20 26 21 27 17 28 19 29 18 30 28 31 29 32 30 33 31 34 32 35
REMARK SMILES IDX 33 36 34 37 35 38 87 39 36 40 86 41 37 42 38 43 39 44 80 45
REMARK SMILES IDX 40 46 85 47 79 48 81 49 41 50 84 51 78 52 77 53 42 55 68 56
REMARK SMILES IDX 51 57 67 58 52 59 55 60 66 61 82 62 53 63 54 64 65 66 83 67
REMARK SMILES IDX 56 68 43 69 44 70 49 71 45 72 46 73 48 74 50 75 47 76 69 77
REMARK SMILES IDX 70 78 75 79 71 80 72 81 74 82 76 83 73 84 57 85 58 86 63 87
REMARK SMILES IDX 59 88 60 89 62 90 64 91 61 92
REMARK H PARENT 8 10 11 12 81 54 55 65
REMARK Flexibility Score: inf
ROOT
ATOM      1  C   UNL     1      -4.736   0.411   1.954  1.00  0.00     0.202 C 
ENDROOT
BRANCH   1   2
ATOM      2  C   UNL     1      -4.217   1.214   3.128  1.00  0.00     0.261 C 
BRANCH   2   3
ATOM      3  O   UNL     1      -4.019   2.577   2.775  1.00  0.00    -0.462 OA
BRANCH   3   4
ATOM      4  C   UNL     1      -2.954   2.761   1.971  1.00  0.00     0.329 C 
ATOM      5  O   UNL     1      -2.037   1.955   1.872  1.00  0.00    -0.250 OA
BRANCH   4   6
ATOM      6  C   UNL     1      -3.171   3.975   1.056  1.00  0.00     0.198 C 
BRANCH   6   7
ATOM      7  N   UNL     1      -3.780   3.629  -0.228  1.00  0.00    -0.324 N 
ATOM      8  N   UNL     1      -2.214   2.597  -1.645  1.00  0.00    -0.334 N 
ATOM      9  C   UNL     1      -3.435   3.020  -1.353  1.00  0.00     0.315 C 
ATOM     10  H   UNL     1      -2.140   2.224  -2.553  1.00  0.00     0.165 HD
ATOM     11  O   UNL     1      -4.330   2.847  -2.184  1.00  0.00    -0.249 OA
ATOM     12  H   UNL     1      -4.714   3.937  -0.268  1.00  0.00     0.166 HD
BRANCH   8  13
ATOM     13  C   UNL     1      -0.974   2.567  -0.917  1.00  0.00     0.153 C 
BRANCH  13  14
ATOM     14  C   UNL     1      -0.355   1.197  -0.844  1.00  0.00    -0.028 A 
ATOM     15  C   UNL     1       3.000  -0.235   0.222  1.00  0.00     0.044 C 
ATOM     16  C   UNL     1       1.562  -0.149  -0.179  1.00  0.00    -0.051 A 
ATOM     17  C   UNL     1       0.813  -1.312  -0.379  1.00  0.00     0.003 A 
ATOM     18  C   UNL     1       0.962   1.097  -0.384  1.00  0.00     0.009 A 
ATOM     19  C   UNL     1      -0.491  -1.230  -0.855  1.00  0.00     0.001 A 
ATOM     20  C   UNL     1      -1.057   0.017  -1.115  1.00  0.00     0.005 A 
ENDBRANCH  13  14
ENDBRANCH   8  13
ENDBRANCH   6   7
BRANCH   6  21
ATOM     21  C   UNL     1      -3.981   5.093   1.741  1.00  0.00     0.070 C 
BRANCH  21  22
ATOM     22  C   UNL     1      -5.487   5.059   1.843  1.00  0.00    -0.037 C 
ATOM     23  C   UNL     1      -6.436   4.155   1.585  1.00  0.00     0.001 A 
ATOM     24  C   UNL     1      -6.100   6.285   2.477  1.00  0.00     0.174 C 
ATOM     25  C   UNL     1      -6.585   2.868   0.971  1.00  0.00     0.010 A 
ATOM     26  C   UNL     1      -7.540   4.695   2.394  1.00  0.00     0.065 A 
ATOM     27  N   UNL     1      -7.469   5.907   2.844  1.00  0.00    -0.280 NA
ATOM     28  C   UNL     1      -7.563   2.046   1.376  1.00  0.00     0.001 A 
ATOM     29  C   UNL     1      -8.572   3.736   2.800  1.00  0.00     0.028 A 
ATOM     30  C   UNL     1      -8.472   2.459   2.407  1.00  0.00     0.002 A 
ENDBRANCH  21  22
ENDBRANCH   6  21
ENDBRANCH   4   6
ENDBRANCH   3   4
ENDBRANCH   2   3
ENDBRANCH   1   2
BRANCH   1  31
ATOM     31  O   UNL     1      -3.873  -0.660   1.630  1.00  0.00    -0.374 OA
BRANCH  31  32
ATOM     32  C   UNL     1      -4.011  -1.056   0.269  1.00  0.00     0.202 C 
BRANCH  32  33
ATOM     33  C   UNL     1      -5.400  -1.575  -0.147  1.00  0.00     0.261 C 
BRANCH  33  34
ATOM     34  O   UNL     1      -5.700  -2.831   0.505  1.00  0.00    -0.460 OA
BRANCH  34  35
ATOM     35  C   UNL     1      -6.822  -2.880   1.286  1.00  0.00     0.338 C 
ATOM     36  O   UNL     1      -7.950  -2.992   0.875  1.00  0.00    -0.246 OA
BRANCH  35  37
ATOM     37  C   UNL     1      -6.475  -2.701   2.726  1.00  0.00     0.060 A 
ATOM     38  C   UNL     1      -7.457  -2.314   3.650  1.00  0.00     0.016 A 
ATOM     39  C   UNL     1      -5.141  -2.683   3.098  1.00  0.00     0.016 A 
ATOM     40  C   UNL     1      -7.080  -1.707   4.854  1.00  0.00     0.010 A 
ATOM     41  C   UNL     1      -4.781  -1.952   4.212  1.00  0.00     0.010 A 
ATOM     42  C   UNL     1      -5.742  -1.400   5.071  1.00  0.00    -0.014 A 
BRANCH  42  43
ATOM     43  C   UNL     1      -5.266  -0.356   5.999  1.00  0.00     0.031 A 
ATOM     44  C   UNL     1      -4.022  -0.613   6.781  1.00  0.00     0.074 A 
ATOM     45  C   UNL     1      -5.777   0.902   5.877  1.00  0.00     0.049 A 
ATOM     46  N   UNL     1      -3.445   0.265   7.517  1.00  0.00    -0.248 NA
ATOM     47  C   UNL     1      -3.316  -1.897   6.819  1.00  0.00     0.031 C 
ATOM     48  C   UNL     1      -5.099   2.179   6.158  1.00  0.00     0.029 A 
ATOM     49  N   UNL     1      -6.993   1.320   5.302  1.00  0.00    -0.354 N 
ATOM     50  C   UNL     1      -2.231  -0.225   7.946  1.00  0.00     0.074 A 
ATOM     51  C   UNL     1      -2.226  -1.601   7.536  1.00  0.00     0.031 C 
ATOM     52  C   UNL     1      -5.950   3.202   5.950  1.00  0.00     0.029 A 
ATOM     53  C   UNL     1      -7.274   2.634   5.715  1.00  0.00     0.049 A 
ATOM     54  H   UNL     1      -7.557   0.777   4.704  1.00  0.00     0.167 HD
ATOM     55  C   UNL     1      -1.367   0.646   8.539  1.00  0.00     0.037 A 
ATOM     56  C   UNL     1      -8.367   2.896   6.500  1.00  0.00     0.037 A 
ATOM     57  C   UNL     1      -2.067   1.916   8.795  1.00  0.00     0.049 A 
ATOM     58  C   UNL     1      -7.860   3.223   7.891  1.00  0.00     0.074 A 
ATOM     59  C   UNL     1      -2.016   3.173   8.221  1.00  0.00     0.029 A 
ATOM     60  N   UNL     1      -3.242   1.886   9.554  1.00  0.00    -0.354 N 
ATOM     61  N   UNL     1      -6.755   2.712   8.382  1.00  0.00    -0.248 NA
ATOM     62  C   UNL     1      -8.425   4.263   8.745  1.00  0.00     0.031 C 
ATOM     63  C   UNL     1      -3.225   3.857   8.569  1.00  0.00     0.029 A 
ATOM     64  C   UNL     1      -3.991   3.037   9.391  1.00  0.00     0.049 A 
ATOM     65  H   UNL     1      -3.504   1.136  10.135  1.00  0.00     0.167 HD
ATOM     66  C   UNL     1      -6.397   3.408   9.499  1.00  0.00     0.074 A 
ATOM     67  C   UNL     1      -7.504   4.325   9.724  1.00  0.00     0.031 C 
ATOM     68  C   UNL     1      -5.216   3.244  10.165  1.00  0.00     0.037 A 
BRANCH  55  69
ATOM     69  C   UNL     1       0.119   0.426   8.796  1.00  0.00     0.057 A 
ATOM     70  C   UNL     1       0.880   1.418   9.449  1.00  0.00     0.134 A 
ATOM     71  C   UNL     1       0.888  -0.676   8.362  1.00  0.00     0.134 A 
ATOM     72  F   UNL     1       0.312   2.541   9.911  1.00  0.00    -0.206 F 
ATOM     73  C   UNL     1       2.270   1.321   9.651  1.00  0.00     0.040 A 
ATOM     74  C   UNL     1       2.270  -0.803   8.591  1.00  0.00     0.040 A 
ATOM     75  F   UNL     1       0.372  -1.677   7.647  1.00  0.00    -0.206 F 
ATOM     76  C   UNL     1       2.971   0.203   9.231  1.00  0.00     0.006 A 
ENDBRANCH  55  69
BRANCH  56  77
ATOM     77  C   UNL     1      -9.640   2.184   6.105  1.00  0.00     0.057 A 
ATOM     78  C   UNL     1     -10.553   2.808   5.234  1.00  0.00     0.134 A 
ATOM     79  C   UNL     1      -9.687   0.785   6.106  1.00  0.00     0.134 A 
ATOM     80  F   UNL     1     -10.661   4.146   5.216  1.00  0.00    -0.206 F 
ATOM     81  C   UNL     1     -11.260   2.093   4.241  1.00  0.00     0.040 A 
ATOM     82  C   UNL     1     -10.358   0.060   5.104  1.00  0.00     0.040 A 
ATOM     83  F   UNL     1      -8.946   0.094   6.982  1.00  0.00    -0.206 F 
ATOM     84  C   UNL     1     -11.100   0.716   4.129  1.00  0.00     0.006 A 
ENDBRANCH  56  77
BRANCH  68  85
ATOM     85  C   UNL     1      -5.156   3.276  11.673  1.00  0.00     0.057 A 
ATOM     86  C   UNL     1      -6.294   3.167  12.491  1.00  0.00     0.134 A 
ATOM     87  C   UNL     1      -3.923   3.201  12.357  1.00  0.00     0.134 A 
ATOM     88  F   UNL     1      -7.532   3.094  11.984  1.00  0.00    -0.206 F 
ATOM     89  C   UNL     1      -6.214   3.064  13.882  1.00  0.00     0.040 A 
ATOM     90  C   UNL     1      -3.833   3.019  13.738  1.00  0.00     0.040 A 
ATOM     91  F   UNL     1      -2.746   3.258  11.719  1.00  0.00    -0.206 F 
ATOM     92  C   UNL     1      -4.981   2.974  14.509  1.00  0.00     0.006 A 
ENDBRANCH  68  85
ENDBRANCH  42  43
ENDBRANCH  35  37
ENDBRANCH  34  35
ENDBRANCH  33  34
ENDBRANCH  32  33
ENDBRANCH  31  32
ENDBRANCH   1  31
TORSDOF 19
