REMARK SMILES CC(C)(C)c1cc2c(cc1Cl)C=C(C(=O)OCCOCCOC(=O)c1ccc(-c3c4nc(c(-c5c(F)cccc5F)c5ccc([nH]5)c(-c5c(F)cccc5F)c5nc(c(-c6c(F)cccc6F)c6ccc3[nH]6)C=C5)C=C4)cc1)[C@@H](C(F)(F)F)O2
REMARK SMILES IDX 20 1 19 2 18 3 17 4 16 5 14 6 15 7 13 8 5 9 6 10 10 11 7 12
REMARK SMILES IDX 9 13 11 14 8 15 84 16 12 17 79 18 2 19 1 20 3 21 4 22 80 23
REMARK SMILES IDX 81 24 82 25 83 26 21 27 22 28 23 29 24 30 25 31 26 32 78 33
REMARK SMILES IDX 27 34 77 35 28 36 29 37 30 38 71 39 31 40 76 41 70 42 72 43
REMARK SMILES IDX 32 44 75 45 69 46 68 47 33 49 59 50 42 51 58 52 43 53 46 54
REMARK SMILES IDX 57 55 73 56 44 57 45 58 56 60 74 61 47 62 34 63 35 64 40 65
REMARK SMILES IDX 36 66 37 67 39 68 41 69 38 70 60 71 61 72 66 73 62 74 63 75
REMARK SMILES IDX 65 76 67 77 64 78 48 79 49 80 54 81 50 82 51 83 53 84 55 85
REMARK SMILES IDX 52 86
REMARK H PARENT 72 48 46 59
REMARK Flexibility Score: inf
ROOT
ATOM      1  C   UNL     1       5.190  -0.020  -8.527  1.00  0.00     0.202 C 
ENDROOT
BRANCH   1   2
ATOM      2  O   UNL     1       4.919  -0.024  -9.927  1.00  0.00    -0.374 OA
BRANCH   2   3
ATOM      3  C   UNL     1       4.400   1.157 -10.529  1.00  0.00     0.202 C 
BRANCH   3   4
ATOM      4  C   UNL     1       2.934   1.516 -10.269  1.00  0.00     0.261 C 
BRANCH   4   5
ATOM      5  O   UNL     1       2.628   1.580  -8.869  1.00  0.00    -0.460 OA
BRANCH   5   6
ATOM      6  C   UNL     1       1.829   0.577  -8.434  1.00  0.00     0.338 C 
ATOM      7  O   UNL     1       1.273  -0.266  -9.119  1.00  0.00    -0.246 OA
BRANCH   6   8
ATOM      8  C   UNL     1       1.815   0.549  -6.961  1.00  0.00     0.087 C 
ATOM      9  C   UNL     1       1.081  -1.047  -2.224  1.00  0.00    -0.020 A 
ATOM     10  C   UNL     1       1.207   0.217  -2.865  1.00  0.00     0.053 A 
ATOM     11  C   UNL     1       1.340  -2.176  -3.033  1.00  0.00     0.045 A 
ATOM     12  C   UNL     1       1.526   0.351  -4.221  1.00  0.00     0.128 A 
ATOM     13  C   UNL     1       1.690  -2.035  -4.386  1.00  0.00     0.032 A 
ATOM     14  Cl  UNL     1       1.180  -3.822  -2.534  1.00  0.00    -0.084 Cl
ATOM     15  C   UNL     1       1.748  -0.781  -4.986  1.00  0.00     0.019 A 
ATOM     16  O   UNL     1       1.575   1.622  -4.719  1.00  0.00    -0.475 OA
ATOM     17  C   UNL     1       1.928  -0.669  -6.418  1.00  0.00     0.027 C 
ATOM     18  C   UNL     1       1.634   1.811  -6.165  1.00  0.00     0.316 C 
BRANCH   9  19
ATOM     19  C   UNL     1       0.560  -1.080  -0.762  1.00  0.00    -0.012 C 
ATOM     20  C   UNL     1       1.016   0.161   0.054  1.00  0.00     0.016 C 
ATOM     21  C   UNL     1       1.000  -2.292   0.089  1.00  0.00     0.016 C 
ATOM     22  C   UNL     1      -0.983  -1.069  -0.828  1.00  0.00     0.016 C 
ENDBRANCH   9  19
BRANCH  18  23
ATOM     23  C   UNL     1       0.399   2.612  -6.603  1.00  0.00     0.430 C 
ATOM     24  F   UNL     1       0.236   3.720  -5.840  1.00  0.00    -0.167 F 
ATOM     25  F   UNL     1       0.506   3.039  -7.884  1.00  0.00    -0.167 F 
ATOM     26  F   UNL     1      -0.737   1.884  -6.513  1.00  0.00    -0.167 F 
ENDBRANCH  18  23
ENDBRANCH   6   8
ENDBRANCH   5   6
ENDBRANCH   4   5
ENDBRANCH   3   4
ENDBRANCH   2   3
ENDBRANCH   1   2
BRANCH   1  27
ATOM     27  C   UNL     1       6.345   0.842  -8.000  1.00  0.00     0.261 C 
BRANCH  27  28
ATOM     28  O   UNL     1       6.128   2.250  -8.194  1.00  0.00    -0.460 OA
BRANCH  28  29
ATOM     29  C   UNL     1       6.943   2.831  -9.108  1.00  0.00     0.338 C 
ATOM     30  O   UNL     1       7.840   2.303  -9.747  1.00  0.00    -0.246 OA
BRANCH  29  31
ATOM     31  C   UNL     1       6.458   4.193  -9.390  1.00  0.00     0.060 A 
ATOM     32  C   UNL     1       6.355   5.144  -8.375  1.00  0.00     0.016 A 
ATOM     33  C   UNL     1       6.150   4.526 -10.716  1.00  0.00     0.016 A 
ATOM     34  C   UNL     1       5.969   6.446  -8.699  1.00  0.00     0.010 A 
ATOM     35  C   UNL     1       5.761   5.826 -11.037  1.00  0.00     0.010 A 
ATOM     36  C   UNL     1       5.693   6.801 -10.033  1.00  0.00    -0.014 A 
BRANCH  36  37
ATOM     37  C   UNL     1       5.476   8.223 -10.394  1.00  0.00     0.031 A 
ATOM     38  C   UNL     1       4.121   8.745 -10.762  1.00  0.00     0.074 A 
ATOM     39  C   UNL     1       6.543   9.044 -10.408  1.00  0.00     0.049 A 
ATOM     40  N   UNL     1       3.761   9.972 -11.043  1.00  0.00    -0.248 NA
ATOM     41  C   UNL     1       3.030   7.763 -10.831  1.00  0.00     0.031 C 
ATOM     42  C   UNL     1       7.919   8.638 -10.112  1.00  0.00     0.029 A 
ATOM     43  N   UNL     1       6.641  10.384 -10.677  1.00  0.00    -0.354 N 
ATOM     44  C   UNL     1       2.398   9.919 -11.300  1.00  0.00     0.074 A 
ATOM     45  C   UNL     1       2.007   8.527 -11.195  1.00  0.00     0.031 C 
ATOM     46  C   UNL     1       8.718   9.714 -10.183  1.00  0.00     0.029 A 
ATOM     47  C   UNL     1       7.919  10.874 -10.564  1.00  0.00     0.049 A 
ATOM     48  H   UNL     1       5.869  10.942 -10.927  1.00  0.00     0.167 HD
ATOM     49  C   UNL     1       1.551  10.940 -11.580  1.00  0.00     0.037 A 
ATOM     50  C   UNL     1       8.394  12.119 -10.751  1.00  0.00     0.037 A 
ATOM     51  C   UNL     1       1.954  12.318 -11.719  1.00  0.00     0.049 A 
ATOM     52  C   UNL     1       7.441  13.217 -11.129  1.00  0.00     0.074 A 
ATOM     53  C   UNL     1       1.165  13.428 -11.971  1.00  0.00     0.029 A 
ATOM     54  N   UNL     1       3.263  12.773 -11.642  1.00  0.00    -0.354 N 
ATOM     55  N   UNL     1       6.140  13.171 -11.282  1.00  0.00    -0.248 NA
ATOM     56  C   UNL     1       8.026  14.546 -11.355  1.00  0.00     0.031 C 
ATOM     57  C   UNL     1       2.002  14.542 -12.107  1.00  0.00     0.029 A 
ATOM     58  C   UNL     1       3.307  14.140 -11.877  1.00  0.00     0.049 A 
ATOM     59  H   UNL     1       4.046  12.208 -11.449  1.00  0.00     0.167 HD
ATOM     60  C   UNL     1       5.748  14.465 -11.598  1.00  0.00     0.074 A 
ATOM     61  C   UNL     1       6.947  15.278 -11.587  1.00  0.00     0.031 C 
ATOM     62  C   UNL     1       4.508  14.938 -11.875  1.00  0.00     0.037 A 
BRANCH  49  63
ATOM     63  C   UNL     1       0.099  10.600 -11.765  1.00  0.00     0.057 A 
ATOM     64  C   UNL     1      -0.518  10.729 -13.016  1.00  0.00     0.134 A 
ATOM     65  C   UNL     1      -0.701  10.174 -10.695  1.00  0.00     0.134 A 
ATOM     66  F   UNL     1       0.183  11.143 -14.082  1.00  0.00    -0.206 F 
ATOM     67  C   UNL     1      -1.874  10.445 -13.196  1.00  0.00     0.040 A 
ATOM     68  C   UNL     1      -2.050   9.859 -10.868  1.00  0.00     0.040 A 
ATOM     69  F   UNL     1      -0.173  10.024  -9.470  1.00  0.00    -0.206 F 
ATOM     70  C   UNL     1      -2.641  10.000 -12.122  1.00  0.00     0.006 A 
ENDBRANCH  49  63
BRANCH  50  71
ATOM     71  C   UNL     1       9.841  12.401 -10.576  1.00  0.00     0.057 A 
ATOM     72  C   UNL     1      10.797  11.892 -11.462  1.00  0.00     0.134 A 
ATOM     73  C   UNL     1      10.297  13.219  -9.535  1.00  0.00     0.134 A 
ATOM     74  F   UNL     1      10.425  11.095 -12.475  1.00  0.00    -0.206 F 
ATOM     75  C   UNL     1      12.153  12.186 -11.322  1.00  0.00     0.040 A 
ATOM     76  C   UNL     1      11.647  13.546  -9.401  1.00  0.00     0.040 A 
ATOM     77  F   UNL     1       9.427  13.750  -8.663  1.00  0.00    -0.206 F 
ATOM     78  C   UNL     1      12.580  13.026 -10.296  1.00  0.00     0.006 A 
ENDBRANCH  50  71
BRANCH  62  79
ATOM     79  C   UNL     1       4.391  16.409 -12.164  1.00  0.00     0.057 A 
ATOM     80  C   UNL     1       3.751  17.267 -11.260  1.00  0.00     0.134 A 
ATOM     81  C   UNL     1       4.913  16.980 -13.333  1.00  0.00     0.134 A 
ATOM     82  F   UNL     1       3.221  16.788 -10.124  1.00  0.00    -0.206 F 
ATOM     83  C   UNL     1       3.639  18.636 -11.504  1.00  0.00     0.040 A 
ATOM     84  C   UNL     1       4.837  18.354 -13.573  1.00  0.00     0.040 A 
ATOM     85  F   UNL     1       5.554  16.220 -14.234  1.00  0.00    -0.206 F 
ATOM     86  C   UNL     1       4.193  19.185 -12.658  1.00  0.00     0.006 A 
ENDBRANCH  62  79
ENDBRANCH  36  37
ENDBRANCH  29  31
ENDBRANCH  28  29
ENDBRANCH  27  28
ENDBRANCH   1  27
TORSDOF 16
