REMARK SMILES O=C(OCCOCCOC(=O)[C@@H]1c2ccccc2C[C@H]1P(O)(O)=S)c1ccc(-c2c3nc(c(-c4c(F)cccc4F)c4ccc([nH]4)c(-c4c(F)cccc4F)c4nc(c(-c5c(F)cccc5F)c5ccc2[nH]5)C=C4)C=C3)cc1
REMARK SMILES IDX 6 1 5 2 4 3 3 4 2 5 1 6 25 7 26 8 78 9 27 10 77 11 28 12
REMARK SMILES IDX 29 13 30 14 71 15 31 16 76 17 70 18 72 19 32 20 75 21 69 22
REMARK SMILES IDX 68 23 33 25 59 26 42 27 58 28 43 29 46 30 57 31 73 32 44 33
REMARK SMILES IDX 45 34 56 36 74 37 47 38 34 39 35 40 40 41 36 42 37 43 39 44
REMARK SMILES IDX 41 45 38 46 60 47 61 48 66 49 62 50 63 51 65 52 67 53 64 54
REMARK SMILES IDX 48 55 49 56 54 57 50 58 51 59 53 60 55 61 52 62 7 63 8 64
REMARK SMILES IDX 9 65 10 66 11 67 12 68 13 69 20 70 14 71 18 72 19 73 15 74
REMARK SMILES IDX 17 75 16 76 21 77 24 78 22 79 23 81
REMARK H PARENT 72 24 46 35 22 80 23 82
REMARK Flexibility Score: inf
ROOT
ATOM      1  O   UNL     1       7.788  -1.068   3.357  1.00  0.00    -0.374 OA
ENDROOT
BRANCH   1   2
ATOM      2  C   UNL     1       7.175  -0.389   2.268  1.00  0.00     0.202 C 
BRANCH   2   3
ATOM      3  C   UNL     1       8.000  -0.491   0.986  1.00  0.00     0.261 C 
BRANCH   3   4
ATOM      4  O   UNL     1       8.487  -1.827   0.821  1.00  0.00    -0.460 OA
BRANCH   4   5
ATOM      5  C   UNL     1       9.663  -2.291   1.313  1.00  0.00     0.338 C 
ATOM      6  O   UNL     1       9.920  -3.490   1.221  1.00  0.00    -0.246 OA
BRANCH   5   7
ATOM      7  C   UNL     1      10.713  -1.392   1.884  1.00  0.00     0.060 A 
ATOM      8  C   UNL     1      10.463  -0.325   2.750  1.00  0.00     0.016 A 
ATOM      9  C   UNL     1      12.049  -1.726   1.622  1.00  0.00     0.016 A 
ATOM     10  C   UNL     1      11.477   0.381   3.359  1.00  0.00     0.010 A 
ATOM     11  C   UNL     1      13.087  -1.046   2.264  1.00  0.00     0.010 A 
ATOM     12  C   UNL     1      12.789  -0.016   3.163  1.00  0.00    -0.014 A 
BRANCH  12  13
ATOM     13  C   UNL     1      13.811   0.687   3.943  1.00  0.00     0.031 A 
ATOM     14  C   UNL     1      14.663   1.692   3.254  1.00  0.00     0.074 A 
ATOM     15  C   UNL     1      13.848   0.492   5.274  1.00  0.00     0.049 A 
ATOM     16  N   UNL     1      15.702   2.331   3.707  1.00  0.00    -0.248 NA
ATOM     17  C   UNL     1      14.291   2.032   1.869  1.00  0.00     0.031 C 
ATOM     18  C   UNL     1      12.925  -0.364   6.031  1.00  0.00     0.029 A 
ATOM     19  N   UNL     1      14.670   1.016   6.233  1.00  0.00    -0.354 N 
ATOM     20  C   UNL     1      16.147   3.106   2.647  1.00  0.00     0.074 A 
ATOM     21  C   UNL     1      15.248   2.885   1.537  1.00  0.00     0.031 C 
ATOM     22  C   UNL     1      13.230  -0.298   7.335  1.00  0.00     0.029 A 
ATOM     23  C   UNL     1      14.423   0.520   7.491  1.00  0.00     0.049 A 
ATOM     24  H   UNL     1      15.369   1.681   6.041  1.00  0.00     0.167 HD
ATOM     25  C   UNL     1      17.236   3.903   2.622  1.00  0.00     0.037 A 
ATOM     26  C   UNL     1      15.137   0.663   8.621  1.00  0.00     0.037 A 
ATOM     27  C   UNL     1      18.085   4.096   3.765  1.00  0.00     0.049 A 
ATOM     28  C   UNL     1      16.397   1.479   8.534  1.00  0.00     0.074 A 
ATOM     29  C   UNL     1      19.242   4.842   3.868  1.00  0.00     0.029 A 
ATOM     30  N   UNL     1      17.855   3.527   5.012  1.00  0.00    -0.354 N 
ATOM     31  N   UNL     1      16.871   2.157   7.514  1.00  0.00    -0.248 NA
ATOM     32  C   UNL     1      17.242   1.522   9.732  1.00  0.00     0.031 C 
ATOM     33  C   UNL     1      19.737   4.686   5.167  1.00  0.00     0.029 A 
ATOM     34  C   UNL     1      18.865   3.879   5.886  1.00  0.00     0.049 A 
ATOM     35  H   UNL     1      17.085   2.957   5.239  1.00  0.00     0.167 HD
ATOM     36  C   UNL     1      18.067   2.708   7.944  1.00  0.00     0.074 A 
ATOM     37  C   UNL     1      18.227   2.312   9.331  1.00  0.00     0.031 C 
ATOM     38  C   UNL     1      18.965   3.458   7.261  1.00  0.00     0.037 A 
BRANCH  25  39
ATOM     39  C   UNL     1      17.603   4.521   1.311  1.00  0.00     0.057 A 
ATOM     40  C   UNL     1      16.896   5.596   0.760  1.00  0.00     0.134 A 
ATOM     41  C   UNL     1      18.682   4.011   0.577  1.00  0.00     0.134 A 
ATOM     42  F   UNL     1      15.831   6.107   1.395  1.00  0.00    -0.206 F 
ATOM     43  C   UNL     1      17.244   6.135  -0.481  1.00  0.00     0.040 A 
ATOM     44  C   UNL     1      19.051   4.553  -0.654  1.00  0.00     0.040 A 
ATOM     45  F   UNL     1      19.389   2.969   1.042  1.00  0.00    -0.206 F 
ATOM     46  C   UNL     1      18.329   5.617  -1.188  1.00  0.00     0.006 A 
ENDBRANCH  25  39
BRANCH  26  47
ATOM     47  C   UNL     1      14.758  -0.058   9.865  1.00  0.00     0.057 A 
ATOM     48  C   UNL     1      14.430   0.629  11.039  1.00  0.00     0.134 A 
ATOM     49  C   UNL     1      14.757  -1.459   9.925  1.00  0.00     0.134 A 
ATOM     50  F   UNL     1      14.432   1.970  11.060  1.00  0.00    -0.206 F 
ATOM     51  C   UNL     1      14.143  -0.046  12.229  1.00  0.00     0.040 A 
ATOM     52  C   UNL     1      14.439  -2.148  11.097  1.00  0.00     0.040 A 
ATOM     53  F   UNL     1      15.063  -2.186   8.840  1.00  0.00    -0.206 F 
ATOM     54  C   UNL     1      14.144  -1.440  12.259  1.00  0.00     0.006 A 
ENDBRANCH  26  47
BRANCH  38  55
ATOM     55  C   UNL     1      20.178   3.898   8.018  1.00  0.00     0.057 A 
ATOM     56  C   UNL     1      21.216   3.007   8.315  1.00  0.00     0.134 A 
ATOM     57  C   UNL     1      20.329   5.235   8.400  1.00  0.00     0.134 A 
ATOM     58  F   UNL     1      21.115   1.710   7.987  1.00  0.00    -0.206 F 
ATOM     59  C   UNL     1      22.363   3.432   8.983  1.00  0.00     0.040 A 
ATOM     60  C   UNL     1      21.484   5.677   9.043  1.00  0.00     0.040 A 
ATOM     61  F   UNL     1      19.369   6.134   8.134  1.00  0.00    -0.206 F 
ATOM     62  C   UNL     1      22.503   4.773   9.339  1.00  0.00     0.006 A 
ENDBRANCH  38  55
ENDBRANCH  12  13
ENDBRANCH   5   7
ENDBRANCH   4   5
ENDBRANCH   3   4
ENDBRANCH   2   3
ENDBRANCH   1   2
BRANCH   1  63
ATOM     63  C   UNL     1       7.117  -2.197   3.884  1.00  0.00     0.202 C 
BRANCH  63  64
ATOM     64  C   UNL     1       6.431  -1.801   5.188  1.00  0.00     0.261 C 
BRANCH  64  65
ATOM     65  O   UNL     1       5.331  -0.931   4.874  1.00  0.00    -0.463 OA
BRANCH  65  66
ATOM     66  C   UNL     1       5.569   0.414   4.837  1.00  0.00     0.314 C 
ATOM     67  O   UNL     1       6.576   0.981   5.221  1.00  0.00    -0.252 OA
BRANCH  66  68
ATOM     68  C   UNL     1       4.352   1.059   4.224  1.00  0.00     0.142 C 
ATOM     69  C   UNL     1       4.488   2.410   3.567  1.00  0.00    -0.030 A 
ATOM     70  C   UNL     1       3.347   1.346   5.354  1.00  0.00     0.098 C 
ATOM     71  C   UNL     1       5.373   2.850   2.595  1.00  0.00     0.005 A 
ATOM     72  C   UNL     1       3.424   3.232   3.951  1.00  0.00    -0.043 A 
ATOM     73  C   UNL     1       2.475   2.499   4.848  1.00  0.00     0.050 C 
ATOM     74  C   UNL     1       5.236   4.135   2.067  1.00  0.00     0.000 A 
ATOM     75  C   UNL     1       3.280   4.514   3.442  1.00  0.00     0.004 A 
ATOM     76  C   UNL     1       4.204   4.970   2.502  1.00  0.00     0.000 A 
BRANCH  70  77
ATOM     77  P   UNL     1       2.494  -0.099   5.970  1.00  0.00     0.188 P 
ATOM     78  S   UNL     1       3.002  -0.872   7.655  1.00  0.00    -0.037 S 
BRANCH  77  79
ATOM     79  O   UNL     1       0.939   0.313   5.966  1.00  0.00    -0.345 OA
ATOM     80  H   UNL     1       0.709   0.700   5.107  1.00  0.00     0.219 HD
ENDBRANCH  77  79
BRANCH  77  81
ATOM     81  O   UNL     1       2.406  -1.145   4.753  1.00  0.00    -0.345 OA
ATOM     82  H   UNL     1       2.146  -0.679   3.944  1.00  0.00     0.219 HD
ENDBRANCH  77  81
ENDBRANCH  70  77
ENDBRANCH  66  68
ENDBRANCH  65  66
ENDBRANCH  64  65
ENDBRANCH  63  64
ENDBRANCH   1  63
TORSDOF 17
