REMARK SMILES Cc1cccc(C(=O)OCCOCCOC(=O)c2ccc(-c3c4nc(c(-c5c(F)cccc5F)c5ccc([nH]5)c(-c5c(F)cccc5F)c5nc(c(-c6c(F)cccc6F)c6ccc3[nH]6)C=C5)C=C4)cc2)c1OC[C@@H]1C[C@H]2CC[C@@H]1C2
REMARK SMILES IDX 11 1 10 2 9 3 7 4 8 5 6 6 1 7 2 8 3 9 72 10 4 11 5 12 73 13
REMARK SMILES IDX 74 14 75 15 76 16 80 17 77 18 79 19 81 20 78 21 12 22 13 23
REMARK SMILES IDX 14 24 15 25 16 26 17 27 18 28 19 29 71 30 20 31 70 32 21 33
REMARK SMILES IDX 22 34 23 35 64 36 24 37 69 38 63 39 65 40 25 41 68 42 62 43
REMARK SMILES IDX 61 44 26 46 52 47 35 48 51 49 36 50 39 51 50 52 66 53 37 54
REMARK SMILES IDX 38 55 49 57 67 58 40 59 27 60 28 61 33 62 29 63 30 64 32 65
REMARK SMILES IDX 34 66 31 67 53 68 54 69 59 70 55 71 56 72 58 73 60 74 57 75
REMARK SMILES IDX 41 76 42 77 47 78 43 79 44 80 46 81 48 82 45 83
REMARK H PARENT 65 45 39 56
REMARK Flexibility Score: inf
ROOT
ATOM      1  C   UNL     1      -0.807   3.509  -1.953  1.00  0.00     0.202 C 
ENDROOT
BRANCH   1   2
ATOM      2  C   UNL     1      -0.421   3.964  -0.568  1.00  0.00     0.261 C 
BRANCH   2   3
ATOM      3  O   UNL     1      -0.163   2.875   0.338  1.00  0.00    -0.460 OA
BRANCH   3   4
ATOM      4  C   UNL     1      -1.127   1.937   0.507  1.00  0.00     0.342 C 
ATOM      5  O   UNL     1      -2.301   2.142   0.734  1.00  0.00    -0.246 OA
BRANCH   4   6
ATOM      6  C   UNL     1      -0.558   0.582   0.311  1.00  0.00     0.102 A 
ATOM      7  C   UNL     1       2.212  -1.280  -1.528  1.00  0.00     0.048 C 
ATOM      8  C   UNL     1       1.011  -0.969  -0.681  1.00  0.00    -0.008 A 
ATOM      9  C   UNL     1       0.107  -2.018  -0.425  1.00  0.00     0.007 A 
ATOM     10  C   UNL     1       0.709   0.337  -0.261  1.00  0.00     0.136 A 
ATOM     11  C   UNL     1      -1.123  -1.777   0.176  1.00  0.00     0.001 A 
ATOM     12  C   UNL     1      -1.459  -0.479   0.536  1.00  0.00     0.019 A 
BRANCH  10  13
ATOM     13  O   UNL     1       1.497   1.349  -0.741  1.00  0.00    -0.492 OA
BRANCH  13  14
ATOM     14  C   UNL     1       2.626   1.871  -0.012  1.00  0.00     0.233 C 
BRANCH  14  15
ATOM     15  C   UNL     1       3.019   1.325   1.367  1.00  0.00     0.030 C 
ATOM     16  C   UNL     1       4.043   2.247   2.094  1.00  0.00     0.011 C 
ATOM     17  C   UNL     1       3.816  -0.001   1.312  1.00  0.00    -0.004 C 
ATOM     18  C   UNL     1       5.171   1.285   2.510  1.00  0.00    -0.010 C 
ATOM     19  C   UNL     1       3.744  -0.647   2.701  1.00  0.00     0.004 C 
ATOM     20  C   UNL     1       5.283   0.434   1.254  1.00  0.00     0.007 C 
ATOM     21  C   UNL     1       4.638   0.274   3.542  1.00  0.00     0.004 C 
ENDBRANCH  14  15
ENDBRANCH  13  14
ENDBRANCH  10  13
ENDBRANCH   4   6
ENDBRANCH   3   4
ENDBRANCH   2   3
ENDBRANCH   1   2
BRANCH   1  22
ATOM     22  O   UNL     1      -2.128   2.999  -1.872  1.00  0.00    -0.374 OA
BRANCH  22  23
ATOM     23  C   UNL     1      -2.648   2.435  -3.061  1.00  0.00     0.202 C 
BRANCH  23  24
ATOM     24  C   UNL     1      -2.756   3.459  -4.198  1.00  0.00     0.261 C 
BRANCH  24  25
ATOM     25  O   UNL     1      -3.692   4.503  -3.842  1.00  0.00    -0.460 OA
BRANCH  25  26
ATOM     26  C   UNL     1      -3.153   5.649  -3.339  1.00  0.00     0.338 C 
ATOM     27  O   UNL     1      -2.274   6.308  -3.871  1.00  0.00    -0.246 OA
BRANCH  26  28
ATOM     28  C   UNL     1      -3.587   5.838  -1.923  1.00  0.00     0.060 A 
ATOM     29  C   UNL     1      -2.966   6.810  -1.113  1.00  0.00     0.016 A 
ATOM     30  C   UNL     1      -4.334   4.825  -1.334  1.00  0.00     0.016 A 
ATOM     31  C   UNL     1      -2.942   6.655   0.283  1.00  0.00     0.010 A 
ATOM     32  C   UNL     1      -4.180   4.602   0.015  1.00  0.00     0.010 A 
ATOM     33  C   UNL     1      -3.460   5.490   0.835  1.00  0.00    -0.014 A 
BRANCH  33  34
ATOM     34  C   UNL     1      -3.322   5.020   2.219  1.00  0.00     0.031 A 
ATOM     35  C   UNL     1      -4.582   4.776   2.963  1.00  0.00     0.074 A 
ATOM     36  C   UNL     1      -2.166   4.450   2.652  1.00  0.00     0.049 A 
ATOM     37  N   UNL     1      -4.636   4.277   4.144  1.00  0.00    -0.248 NA
ATOM     38  C   UNL     1      -5.915   5.099   2.440  1.00  0.00     0.031 C 
ATOM     39  C   UNL     1      -2.011   3.341   3.602  1.00  0.00     0.029 A 
ATOM     40  N   UNL     1      -0.838   4.734   2.309  1.00  0.00    -0.354 N 
ATOM     41  C   UNL     1      -5.926   3.864   4.361  1.00  0.00     0.074 A 
ATOM     42  C   UNL     1      -6.706   4.523   3.350  1.00  0.00     0.031 C 
ATOM     43  C   UNL     1      -0.723   3.233   3.974  1.00  0.00     0.029 A 
ATOM     44  C   UNL     1      -0.028   4.370   3.402  1.00  0.00     0.049 A 
ATOM     45  H   UNL     1      -0.527   5.119   1.458  1.00  0.00     0.167 HD
ATOM     46  C   UNL     1      -6.133   2.899   5.297  1.00  0.00     0.037 A 
ATOM     47  C   UNL     1       0.711   5.301   4.064  1.00  0.00     0.037 A 
ATOM     48  C   UNL     1      -4.914   2.693   6.090  1.00  0.00     0.049 A 
ATOM     49  C   UNL     1       0.207   5.386   5.475  1.00  0.00     0.074 A 
ATOM     50  C   UNL     1      -3.976   1.680   6.165  1.00  0.00     0.029 A 
ATOM     51  N   UNL     1      -4.351   3.797   6.735  1.00  0.00    -0.354 N 
ATOM     52  N   UNL     1      -1.011   5.048   5.803  1.00  0.00    -0.248 NA
ATOM     53  C   UNL     1       1.031   5.716   6.631  1.00  0.00     0.031 C 
ATOM     54  C   UNL     1      -2.799   2.229   6.761  1.00  0.00     0.029 A 
ATOM     55  C   UNL     1      -3.040   3.556   7.095  1.00  0.00     0.049 A 
ATOM     56  H   UNL     1      -4.828   4.640   6.911  1.00  0.00     0.167 HD
ATOM     57  C   UNL     1      -1.122   5.011   7.156  1.00  0.00     0.074 A 
ATOM     58  C   UNL     1       0.167   5.482   7.636  1.00  0.00     0.031 C 
ATOM     59  C   UNL     1      -2.252   4.579   7.782  1.00  0.00     0.037 A 
BRANCH  46  60
ATOM     60  C   UNL     1      -7.372   2.042   5.414  1.00  0.00     0.057 A 
ATOM     61  C   UNL     1      -7.536   1.191   6.523  1.00  0.00     0.134 A 
ATOM     62  C   UNL     1      -8.388   1.924   4.441  1.00  0.00     0.134 A 
ATOM     63  F   UNL     1      -6.635   1.161   7.516  1.00  0.00    -0.206 F 
ATOM     64  C   UNL     1      -8.625   0.316   6.663  1.00  0.00     0.040 A 
ATOM     65  C   UNL     1      -9.507   1.091   4.593  1.00  0.00     0.040 A 
ATOM     66  F   UNL     1      -8.332   2.556   3.264  1.00  0.00    -0.206 F 
ATOM     67  C   UNL     1      -9.626   0.276   5.705  1.00  0.00     0.006 A 
ENDBRANCH  46  60
BRANCH  47  68
ATOM     68  C   UNL     1       1.160   6.386   3.139  1.00  0.00     0.057 A 
ATOM     69  C   UNL     1       2.132   6.025   2.181  1.00  0.00     0.134 A 
ATOM     70  C   UNL     1       0.302   7.436   2.793  1.00  0.00     0.134 A 
ATOM     71  F   UNL     1       3.007   5.045   2.450  1.00  0.00    -0.206 F 
ATOM     72  C   UNL     1       2.121   6.537   0.879  1.00  0.00     0.040 A 
ATOM     73  C   UNL     1       0.290   7.963   1.492  1.00  0.00     0.040 A 
ATOM     74  F   UNL     1      -0.650   7.845   3.643  1.00  0.00    -0.206 F 
ATOM     75  C   UNL     1       1.158   7.471   0.516  1.00  0.00     0.006 A 
ENDBRANCH  47  68
BRANCH  59  76
ATOM     76  C   UNL     1      -2.660   5.064   9.146  1.00  0.00     0.057 A 
ATOM     77  C   UNL     1      -2.180   6.254   9.717  1.00  0.00     0.134 A 
ATOM     78  C   UNL     1      -3.705   4.438   9.856  1.00  0.00     0.134 A 
ATOM     79  F   UNL     1      -1.296   7.039   9.087  1.00  0.00    -0.206 F 
ATOM     80  C   UNL     1      -2.634   6.735  10.947  1.00  0.00     0.040 A 
ATOM     81  C   UNL     1      -4.216   4.949  11.050  1.00  0.00     0.040 A 
ATOM     82  F   UNL     1      -4.306   3.327   9.406  1.00  0.00    -0.206 F 
ATOM     83  C   UNL     1      -3.663   6.087  11.614  1.00  0.00     0.006 A 
ENDBRANCH  59  76
ENDBRANCH  33  34
ENDBRANCH  26  28
ENDBRANCH  25  26
ENDBRANCH  24  25
ENDBRANCH  23  24
ENDBRANCH  22  23
ENDBRANCH   1  22
TORSDOF 17
