REMARK SMILES O=C(OCCOCCOC(=O)c1ccc(-c2c3nc(c(-c4c(F)cccc4F)c4ccc([nH]4)c(-c4c(F)cccc4F)c4nc(c(-c5c(F)cccc5F)c5ccc2[nH]5)C=C4)C=C3)cc1)C1=Cc2c(Cl)ccc(Cl)c2O[C@@H]1C(F)(F)F
REMARK SMILES IDX 7 1 6 2 5 3 4 4 3 5 2 6 1 7 66 8 67 9 77 10 68 11 76 12
REMARK SMILES IDX 69 13 75 14 70 15 71 16 73 17 72 18 74 19 78 20 79 21 80 22
REMARK SMILES IDX 81 23 8 24 9 25 10 26 11 27 12 28 13 29 65 30 14 31 64 32
REMARK SMILES IDX 15 33 16 34 17 35 58 36 18 37 63 38 57 39 59 40 19 41 62 42
REMARK SMILES IDX 56 43 55 44 20 46 46 47 29 48 45 49 30 50 33 51 44 52 60 53
REMARK SMILES IDX 31 54 32 55 43 57 61 58 34 59 21 60 22 61 27 62 23 63 24 64
REMARK SMILES IDX 26 65 28 66 25 67 47 68 48 69 53 70 49 71 50 72 52 73 54 74
REMARK SMILES IDX 51 75 35 76 36 77 41 78 37 79 38 80 40 81 42 82 39 83
REMARK H PARENT 59 45 33 56
REMARK Flexibility Score: inf
ROOT
ATOM      1  C   UNL     1       3.023  -2.854  -1.136  1.00  0.00     0.202 C 
ENDROOT
BRANCH   1   2
ATOM      2  O   UNL     1       4.213  -2.064  -0.944  1.00  0.00    -0.374 OA
BRANCH   2   3
ATOM      3  C   UNL     1       4.342  -0.497  -1.167  1.00  0.00     0.202 C 
BRANCH   3   4
ATOM      4  C   UNL     1       3.547   1.130   0.018  1.00  0.00     0.261 C 
BRANCH   4   5
ATOM      5  O   UNL     1       2.711   2.327  -0.506  1.00  0.00    -0.460 OA
BRANCH   5   6
ATOM      6  C   UNL     1       2.879   2.557  -1.810  1.00  0.00     0.338 C 
ATOM      7  O   UNL     1       2.326   3.332  -2.546  1.00  0.00    -0.246 OA
BRANCH   6   8
ATOM      8  C   UNL     1       3.672   1.380  -2.050  1.00  0.00     0.087 C 
ATOM      9  C   UNL     1       5.068   1.596  -1.530  1.00  0.00     0.029 C 
ATOM     10  C   UNL     1       2.419   0.083  -1.319  1.00  0.00     0.316 C 
ATOM     11  C   UNL     1       5.731   0.782  -0.013  1.00  0.00     0.037 A 
ATOM     12  O   UNL     1       3.073  -0.728   0.280  1.00  0.00    -0.474 OA
ATOM     13  C   UNL     1       6.931   1.162   0.542  1.00  0.00     0.052 A 
ATOM     14  C   UNL     1       4.741  -0.317   0.891  1.00  0.00     0.148 A 
ATOM     15  Cl  UNL     1       8.023   2.239  -0.221  1.00  0.00    -0.084 Cl
ATOM     16  C   UNL     1       7.205   0.658   1.828  1.00  0.00     0.023 A 
ATOM     17  C   UNL     1       5.031  -0.630   2.192  1.00  0.00     0.083 A 
ATOM     18  C   UNL     1       6.293  -0.155   2.619  1.00  0.00     0.026 A 
ATOM     19  Cl  UNL     1       3.876  -1.207   3.301  1.00  0.00    -0.080 Cl
BRANCH  10  20
ATOM     20  C   UNL     1       1.831  -0.652  -2.577  1.00  0.00     0.430 C 
ATOM     21  F   UNL     1       0.902  -1.581  -2.287  1.00  0.00    -0.167 F 
ATOM     22  F   UNL     1       1.207   0.281  -3.349  1.00  0.00    -0.167 F 
ATOM     23  F   UNL     1       2.754  -1.214  -3.386  1.00  0.00    -0.167 F 
ENDBRANCH  10  20
ENDBRANCH   6   8
ENDBRANCH   5   6
ENDBRANCH   4   5
ENDBRANCH   3   4
ENDBRANCH   2   3
ENDBRANCH   1   2
BRANCH   1  24
ATOM     24  C   UNL     1       3.099  -4.223  -0.457  1.00  0.00     0.261 C 
BRANCH  24  25
ATOM     25  O   UNL     1       3.606  -4.112   0.869  1.00  0.00    -0.460 OA
BRANCH  25  26
ATOM     26  C   UNL     1       4.951  -4.235   0.956  1.00  0.00     0.338 C 
ATOM     27  O   UNL     1       5.747  -4.413   0.049  1.00  0.00    -0.246 OA
BRANCH  26  28
ATOM     28  C   UNL     1       5.346  -4.115   2.370  1.00  0.00     0.060 A 
ATOM     29  C   UNL     1       6.631  -3.644   2.660  1.00  0.00     0.016 A 
ATOM     30  C   UNL     1       4.456  -4.453   3.400  1.00  0.00     0.016 A 
ATOM     31  C   UNL     1       7.028  -3.504   3.986  1.00  0.00     0.010 A 
ATOM     32  C   UNL     1       4.848  -4.301   4.724  1.00  0.00     0.010 A 
ATOM     33  C   UNL     1       6.141  -3.848   5.016  1.00  0.00    -0.014 A 
BRANCH  33  34
ATOM     34  C   UNL     1       6.639  -3.943   6.398  1.00  0.00     0.031 A 
ATOM     35  C   UNL     1       7.116  -5.284   6.865  1.00  0.00     0.074 A 
ATOM     36  C   UNL     1       6.671  -2.866   7.199  1.00  0.00     0.049 A 
ATOM     37  N   UNL     1       7.634  -5.625   8.014  1.00  0.00    -0.248 NA
ATOM     38  C   UNL     1       6.990  -6.393   5.902  1.00  0.00     0.031 C 
ATOM     39  C   UNL     1       6.223  -1.523   6.834  1.00  0.00     0.029 A 
ATOM     40  N   UNL     1       7.098  -2.739   8.494  1.00  0.00    -0.354 N 
ATOM     41  C   UNL     1       7.921  -6.978   7.900  1.00  0.00     0.074 A 
ATOM     42  C   UNL     1       7.464  -7.412   6.600  1.00  0.00     0.031 C 
ATOM     43  C   UNL     1       6.399  -0.704   7.886  1.00  0.00     0.029 A 
ATOM     44  C   UNL     1       6.950  -1.471   9.000  1.00  0.00     0.049 A 
ATOM     45  H   UNL     1       7.476  -3.485   9.012  1.00  0.00     0.167 HD
ATOM     46  C   UNL     1       8.536  -7.781   8.796  1.00  0.00     0.037 A 
ATOM     47  C   UNL     1       7.222  -1.002  10.232  1.00  0.00     0.037 A 
ATOM     48  C   UNL     1       8.940  -7.347  10.104  1.00  0.00     0.049 A 
ATOM     49  C   UNL     1       7.816  -1.946  11.249  1.00  0.00     0.074 A 
ATOM     50  C   UNL     1       9.552  -8.077  11.106  1.00  0.00     0.029 A 
ATOM     51  N   UNL     1       8.749  -6.064  10.597  1.00  0.00    -0.354 N 
ATOM     52  N   UNL     1       8.145  -3.209  11.116  1.00  0.00    -0.248 NA
ATOM     53  C   UNL     1       8.088  -1.394  12.583  1.00  0.00     0.031 C 
ATOM     54  C   UNL     1       9.682  -7.248  12.225  1.00  0.00     0.029 A 
ATOM     55  C   UNL     1       9.210  -5.985  11.898  1.00  0.00     0.049 A 
ATOM     56  H   UNL     1       8.345  -5.320  10.094  1.00  0.00     0.167 HD
ATOM     57  C   UNL     1       8.697  -3.592  12.333  1.00  0.00     0.074 A 
ATOM     58  C   UNL     1       8.670  -2.420  13.185  1.00  0.00     0.031 C 
ATOM     59  C   UNL     1       9.183  -4.798  12.716  1.00  0.00     0.037 A 
BRANCH  46  60
ATOM     60  C   UNL     1       8.776  -9.201   8.382  1.00  0.00     0.057 A 
ATOM     61  C   UNL     1       9.704  -9.529   7.383  1.00  0.00     0.134 A 
ATOM     62  C   UNL     1       8.064 -10.251   8.972  1.00  0.00     0.134 A 
ATOM     63  F   UNL     1      10.400  -8.566   6.759  1.00  0.00    -0.206 F 
ATOM     64  C   UNL     1       9.895 -10.847   6.968  1.00  0.00     0.040 A 
ATOM     65  C   UNL     1       8.267 -11.577   8.585  1.00  0.00     0.040 A 
ATOM     66  F   UNL     1       7.156 -10.006   9.928  1.00  0.00    -0.206 F 
ATOM     67  C   UNL     1       9.179 -11.877   7.575  1.00  0.00     0.006 A 
ENDBRANCH  46  60
BRANCH  47  68
ATOM     68  C   UNL     1       6.944   0.414  10.584  1.00  0.00     0.057 A 
ATOM     69  C   UNL     1       7.981   1.306  10.886  1.00  0.00     0.134 A 
ATOM     70  C   UNL     1       5.634   0.900  10.677  1.00  0.00     0.134 A 
ATOM     71  F   UNL     1       9.258   0.899  10.833  1.00  0.00    -0.206 F 
ATOM     72  C   UNL     1       7.725   2.614  11.303  1.00  0.00     0.040 A 
ATOM     73  C   UNL     1       5.364   2.214  11.064  1.00  0.00     0.040 A 
ATOM     74  F   UNL     1       4.594   0.101  10.395  1.00  0.00    -0.206 F 
ATOM     75  C   UNL     1       6.412   3.072  11.391  1.00  0.00     0.006 A 
ENDBRANCH  47  68
BRANCH  59  76
ATOM     76  C   UNL     1       9.771  -4.896  14.095  1.00  0.00     0.057 A 
ATOM     77  C   UNL     1       8.978  -4.846  15.248  1.00  0.00     0.134 A 
ATOM     78  C   UNL     1      11.148  -5.091  14.264  1.00  0.00     0.134 A 
ATOM     79  F   UNL     1       7.654  -4.651  15.155  1.00  0.00    -0.206 F 
ATOM     80  C   UNL     1       9.538  -4.957  16.521  1.00  0.00     0.040 A 
ATOM     81  C   UNL     1      11.715  -5.237  15.530  1.00  0.00     0.040 A 
ATOM     82  F   UNL     1      11.963  -5.162  13.200  1.00  0.00    -0.206 F 
ATOM     83  C   UNL     1      10.909  -5.162  16.664  1.00  0.00     0.006 A 
ENDBRANCH  59  76
ENDBRANCH  33  34
ENDBRANCH  26  28
ENDBRANCH  25  26
ENDBRANCH  24  25
ENDBRANCH   1  24
TORSDOF 15
