REMARK SMILES CC[C@H](CCC1CC1)C(=O)OCCOCCOC(=O)c1ccc(-c2c3nc(c(-c4c(F)cccc4F)c4ccc([nH]4)c(-c4c(F)cccc4F)c4nc(c(-c5c(F)cccc5F)c5ccc2[nH]5)C=C4)C=C3)cc1
REMARK SMILES IDX 13 1 12 2 11 3 9 4 10 5 3 6 2 7 1 8 4 9 5 10 6 11 7 12 8 13
REMARK SMILES IDX 14 14 15 15 16 16 17 17 18 18 19 19 20 20 21 21 73 22 22 23
REMARK SMILES IDX 72 24 23 25 24 26 25 27 66 28 26 29 71 30 65 31 67 32 27 33
REMARK SMILES IDX 70 34 64 35 63 36 28 38 54 39 37 40 53 41 38 42 41 43 52 44
REMARK SMILES IDX 68 45 39 46 40 47 51 49 69 50 42 51 29 52 30 53 35 54 31 55
REMARK SMILES IDX 32 56 34 57 36 58 33 59 55 60 56 61 61 62 57 63 58 64 60 65
REMARK SMILES IDX 62 66 59 67 43 68 44 69 49 70 45 71 46 72 48 73 50 74 47 75
REMARK H PARENT 67 37 41 48
REMARK Flexibility Score: inf
ROOT
ATOM      1  C   UNL     1      -0.500   4.018   4.632  1.00  0.00     0.202 C 
ENDROOT
BRANCH   1   2
ATOM      2  C   UNL     1      -0.507   4.589   3.213  1.00  0.00     0.261 C 
BRANCH   2   3
ATOM      3  O   UNL     1      -0.402   3.542   2.231  1.00  0.00    -0.463 OA
BRANCH   3   4
ATOM      4  C   UNL     1       0.704   3.572   1.442  1.00  0.00     0.308 C 
ATOM      5  O   UNL     1       1.548   4.460   1.454  1.00  0.00    -0.252 OA
BRANCH   4   6
ATOM      6  C   UNL     1       0.800   2.374   0.504  1.00  0.00     0.099 C 
BRANCH   6   7
ATOM      7  C   UNL     1       0.529   2.869  -0.928  1.00  0.00     0.012 C 
ATOM      8  C   UNL     1       1.671   2.521  -1.873  1.00  0.00     0.005 C 
ENDBRANCH   6   7
BRANCH   6   9
ATOM      9  C   UNL     1      -0.088   1.176   0.909  1.00  0.00     0.015 C 
BRANCH   9  10
ATOM     10  C   UNL     1       0.117  -0.094   0.073  1.00  0.00     0.004 C 
BRANCH  10  11
ATOM     11  C   UNL     1       1.424  -0.783   0.351  1.00  0.00    -0.011 C 
ATOM     12  C   UNL     1       1.504  -1.904   1.356  1.00  0.00     0.004 C 
ATOM     13  C   UNL     1       1.616  -2.205  -0.113  1.00  0.00     0.004 C 
ENDBRANCH  10  11
ENDBRANCH   9  10
ENDBRANCH   6   9
ENDBRANCH   4   6
ENDBRANCH   3   4
ENDBRANCH   2   3
ENDBRANCH   1   2
BRANCH   1  14
ATOM     14  O   UNL     1       0.746   3.495   5.090  1.00  0.00    -0.374 OA
BRANCH  14  15
ATOM     15  C   UNL     1       1.152   2.222   4.589  1.00  0.00     0.202 C 
BRANCH  15  16
ATOM     16  C   UNL     1       0.465   1.003   5.216  1.00  0.00     0.261 C 
BRANCH  16  17
ATOM     17  O   UNL     1      -0.942   0.954   4.915  1.00  0.00    -0.460 OA
BRANCH  17  18
ATOM     18  C   UNL     1      -1.756   1.091   5.987  1.00  0.00     0.338 C 
ATOM     19  O   UNL     1      -1.427   1.159   7.165  1.00  0.00    -0.246 OA
BRANCH  18  20
ATOM     20  C   UNL     1      -3.148   1.314   5.557  1.00  0.00     0.060 A 
ATOM     21  C   UNL     1      -3.811   2.433   6.078  1.00  0.00     0.016 A 
ATOM     22  C   UNL     1      -3.827   0.404   4.744  1.00  0.00     0.016 A 
ATOM     23  C   UNL     1      -5.170   2.616   5.835  1.00  0.00     0.010 A 
ATOM     24  C   UNL     1      -5.195   0.586   4.507  1.00  0.00     0.010 A 
ATOM     25  C   UNL     1      -5.880   1.671   5.083  1.00  0.00    -0.014 A 
BRANCH  25  26
ATOM     26  C   UNL     1      -7.361   1.747   5.036  1.00  0.00     0.031 A 
ATOM     27  C   UNL     1      -8.168   0.889   5.971  1.00  0.00     0.074 A 
ATOM     28  C   UNL     1      -7.982   2.604   4.207  1.00  0.00     0.049 A 
ATOM     29  N   UNL     1      -9.467   0.793   6.099  1.00  0.00    -0.248 NA
ATOM     30  C   UNL     1      -7.408   0.024   6.888  1.00  0.00     0.031 C 
ATOM     31  C   UNL     1      -7.316   3.516   3.280  1.00  0.00     0.029 A 
ATOM     32  N   UNL     1      -9.320   2.841   4.012  1.00  0.00    -0.354 N 
ATOM     33  C   UNL     1      -9.680  -0.138   7.107  1.00  0.00     0.074 A 
ATOM     34  C   UNL     1      -8.379  -0.603   7.536  1.00  0.00     0.031 C 
ATOM     35  C   UNL     1      -8.250   4.210   2.606  1.00  0.00     0.029 A 
ATOM     36  C   UNL     1      -9.577   3.772   3.037  1.00  0.00     0.049 A 
ATOM     37  H   UNL     1     -10.028   2.386   4.523  1.00  0.00     0.167 HD
ATOM     38  C   UNL     1     -10.853  -0.561   7.637  1.00  0.00     0.037 A 
ATOM     39  C   UNL     1     -10.749   4.208   2.537  1.00  0.00     0.037 A 
ATOM     40  C   UNL     1     -12.149  -0.103   7.213  1.00  0.00     0.049 A 
ATOM     41  C   UNL     1     -12.041   3.673   3.094  1.00  0.00     0.074 A 
ATOM     42  C   UNL     1     -13.394  -0.466   7.699  1.00  0.00     0.029 A 
ATOM     43  N   UNL     1     -12.368   0.816   6.199  1.00  0.00    -0.354 N 
ATOM     44  N   UNL     1     -12.230   2.808   4.061  1.00  0.00    -0.248 NA
ATOM     45  C   UNL     1     -13.284   4.180   2.493  1.00  0.00     0.031 C 
ATOM     46  C   UNL     1     -14.368   0.203   6.949  1.00  0.00     0.029 A 
ATOM     47  C   UNL     1     -13.728   1.015   6.027  1.00  0.00     0.049 A 
ATOM     48  H   UNL     1     -11.661   1.261   5.677  1.00  0.00     0.167 HD
ATOM     49  C   UNL     1     -13.607   2.684   4.199  1.00  0.00     0.074 A 
ATOM     50  C   UNL     1     -14.207   3.571   3.225  1.00  0.00     0.031 C 
ATOM     51  C   UNL     1     -14.311   1.905   5.056  1.00  0.00     0.037 A 
BRANCH  38  52
ATOM     52  C   UNL     1     -10.784  -1.589   8.726  1.00  0.00     0.057 A 
ATOM     53  C   UNL     1     -10.358  -1.264  10.021  1.00  0.00     0.134 A 
ATOM     54  C   UNL     1     -11.172  -2.912   8.485  1.00  0.00     0.134 A 
ATOM     55  F   UNL     1      -9.959  -0.017  10.312  1.00  0.00    -0.206 F 
ATOM     56  C   UNL     1     -10.302  -2.224  11.032  1.00  0.00     0.040 A 
ATOM     57  C   UNL     1     -11.142  -3.876   9.494  1.00  0.00     0.040 A 
ATOM     58  F   UNL     1     -11.593  -3.288   7.268  1.00  0.00    -0.206 F 
ATOM     59  C   UNL     1     -10.700  -3.534  10.771  1.00  0.00     0.006 A 
ENDBRANCH  38  52
BRANCH  39  60
ATOM     60  C   UNL     1     -10.759   5.199   1.433  1.00  0.00     0.057 A 
ATOM     61  C   UNL     1     -11.186   6.515   1.640  1.00  0.00     0.134 A 
ATOM     62  C   UNL     1     -10.358   4.845   0.139  1.00  0.00     0.134 A 
ATOM     63  F   UNL     1     -11.606   6.905   2.852  1.00  0.00    -0.206 F 
ATOM     64  C   UNL     1     -11.227   7.442   0.597  1.00  0.00     0.040 A 
ATOM     65  C   UNL     1     -10.371   5.768  -0.908  1.00  0.00     0.040 A 
ATOM     66  F   UNL     1      -9.939   3.598  -0.123  1.00  0.00    -0.206 F 
ATOM     67  C   UNL     1     -10.813   7.069  -0.681  1.00  0.00     0.006 A 
ENDBRANCH  39  60
BRANCH  51  68
ATOM     68  C   UNL     1     -15.808   1.998   5.000  1.00  0.00     0.057 A 
ATOM     69  C   UNL     1     -16.544   1.425   3.956  1.00  0.00     0.134 A 
ATOM     70  C   UNL     1     -16.522   2.631   6.026  1.00  0.00     0.134 A 
ATOM     71  F   UNL     1     -15.919   0.815   2.938  1.00  0.00    -0.206 F 
ATOM     72  C   UNL     1     -17.938   1.495   3.924  1.00  0.00     0.040 A 
ATOM     73  C   UNL     1     -17.916   2.688   6.016  1.00  0.00     0.040 A 
ATOM     74  F   UNL     1     -15.877   3.192   7.059  1.00  0.00    -0.206 F 
ATOM     75  C   UNL     1     -18.628   2.123   4.960  1.00  0.00     0.006 A 
ENDBRANCH  51  68
ENDBRANCH  25  26
ENDBRANCH  18  20
ENDBRANCH  17  18
ENDBRANCH  16  17
ENDBRANCH  15  16
ENDBRANCH  14  15
ENDBRANCH   1  14
TORSDOF 18
