REMARK SMILES CC[C@](C)(NC(=O)[C@H]1C[NH2+]Cc2ccccc21)C(=O)OCCOCCOC(=O)c1ccc(-c2c3nc(c(-c4c(F)cccc4F)c4ccc([nH]4)c(-c4c(F)cccc4F)c4nc(c(-c5c(F)cccc5F)c5ccc2[nH]5)C=C4)C=C3)cc1
REMARK SMILES IDX 23 1 22 2 21 3 20 4 18 5 19 6 3 7 4 8 2 9 1 10 5 11 6 12
REMARK SMILES IDX 7 14 8 15 9 16 17 17 10 18 12 19 16 20 11 21 13 24 15 25
REMARK SMILES IDX 14 26 24 27 25 28 26 29 27 30 28 31 29 32 30 33 82 34 31 35
REMARK SMILES IDX 81 36 32 37 33 38 34 39 75 40 35 41 80 42 74 43 76 44 36 45
REMARK SMILES IDX 79 46 73 47 72 48 37 50 63 51 46 52 62 53 47 54 50 55 61 56
REMARK SMILES IDX 77 57 48 58 49 59 60 61 78 62 51 63 38 64 39 65 44 66 40 67
REMARK SMILES IDX 41 68 43 69 45 70 42 71 64 72 65 73 70 74 66 75 67 76 69 77
REMARK SMILES IDX 71 78 68 79 52 80 53 81 58 82 54 83 55 84 57 85 59 86 56 87
REMARK H PARENT 5 13 10 22 10 23 76 49 50 60
REMARK Flexibility Score: inf
ROOT
ATOM      1  O   UNL     1       1.144   4.580   3.114  1.00  0.00    -0.374 OA
ENDROOT
BRANCH   1   2
ATOM      2  C   UNL     1       0.669   4.763   4.465  1.00  0.00     0.202 C 
BRANCH   2   3
ATOM      3  C   UNL     1      -0.275   3.689   5.098  1.00  0.00     0.261 C 
BRANCH   3   4
ATOM      4  O   UNL     1      -0.376   2.522   4.320  1.00  0.00    -0.462 OA
BRANCH   4   5
ATOM      5  C   UNL     1      -1.107   2.776   3.209  1.00  0.00     0.331 C 
ATOM      6  O   UNL     1      -2.191   3.357   3.218  1.00  0.00    -0.249 OA
BRANCH   5   7
ATOM      7  C   UNL     1      -0.362   2.301   1.968  1.00  0.00     0.135 C 
ATOM      8  C   UNL     1      -0.427   3.455   0.931  1.00  0.00     0.047 C 
BRANCH   7   9
ATOM      9  C   UNL     1      -1.157   1.112   1.360  1.00  0.00     0.037 C 
ATOM     10  C   UNL     1      -0.732  -0.259   1.869  1.00  0.00     0.007 C 
ENDBRANCH   7   9
BRANCH   7  11
ATOM     11  N   UNL     1       1.028   1.832   2.334  1.00  0.00    -0.340 N 
ATOM     12  C   UNL     1       2.142   2.590   2.517  1.00  0.00     0.234 C 
ATOM     13  H   UNL     1       1.140   0.861   2.454  1.00  0.00     0.164 HD
ATOM     14  O   UNL     1       2.696   2.627   1.400  1.00  0.00    -0.274 OA
BRANCH  12  15
ATOM     15  C   UNL     1       2.954   2.938   4.022  1.00  0.00     0.164 C 
ATOM     16  C   UNL     1       4.149   1.504   3.404  1.00  0.00     0.279 C 
ATOM     17  C   UNL     1       3.851   4.678   4.487  1.00  0.00    -0.021 A 
ATOM     18  N   UNL     1       5.884   1.858   2.926  1.00  0.00    -0.342 N 
ATOM     19  C   UNL     1       5.533   4.955   3.957  1.00  0.00     0.010 A 
ATOM     20  C   UNL     1       3.377   5.811   5.149  1.00  0.00     0.005 A 
ATOM     21  C   UNL     1       6.558   3.543   3.223  1.00  0.00     0.297 C 
ATOM     22  H   UNL     1       5.963   1.676   1.926  1.00  0.00     0.346 HD
ATOM     23  H   UNL     1       6.436   1.260   3.541  1.00  0.00     0.346 HD
ATOM     24  C   UNL     1       6.241   6.135   4.085  1.00  0.00     0.010 A 
ATOM     25  C   UNL     1       4.181   7.005   5.152  1.00  0.00     0.000 A 
ATOM     26  C   UNL     1       5.514   7.166   4.651  1.00  0.00     0.001 A 
ENDBRANCH  12  15
ENDBRANCH   7  11
ENDBRANCH   5   7
ENDBRANCH   4   5
ENDBRANCH   3   4
ENDBRANCH   2   3
ENDBRANCH   1   2
BRANCH   1  27
ATOM     27  C   UNL     1       2.298   5.276   2.492  1.00  0.00     0.202 C 
BRANCH  27  28
ATOM     28  C   UNL     1       3.898   4.589   2.200  1.00  0.00     0.261 C 
BRANCH  28  29
ATOM     29  O   UNL     1       4.615   3.349   3.317  1.00  0.00    -0.460 OA
BRANCH  29  30
ATOM     30  C   UNL     1       5.176   2.960   5.000  1.00  0.00     0.338 C 
ATOM     31  O   UNL     1       5.575   3.774   5.870  1.00  0.00    -0.246 OA
BRANCH  30  32
ATOM     32  C   UNL     1       5.179   1.667   5.767  1.00  0.00     0.060 A 
ATOM     33  C   UNL     1       4.362   1.605   6.918  1.00  0.00     0.016 A 
ATOM     34  C   UNL     1       6.139   0.676   5.559  1.00  0.00     0.016 A 
ATOM     35  C   UNL     1       4.484   0.550   7.820  1.00  0.00     0.010 A 
ATOM     36  C   UNL     1       6.170  -0.437   6.384  1.00  0.00     0.010 A 
ATOM     37  C   UNL     1       5.385  -0.482   7.548  1.00  0.00    -0.014 A 
BRANCH  37  38
ATOM     38  C   UNL     1       5.667  -1.559   8.520  1.00  0.00     0.031 A 
ATOM     39  C   UNL     1       7.072  -1.685   9.041  1.00  0.00     0.074 A 
ATOM     40  C   UNL     1       4.719  -2.459   8.830  1.00  0.00     0.049 A 
ATOM     41  N   UNL     1       7.656  -2.696   9.626  1.00  0.00    -0.248 NA
ATOM     42  C   UNL     1       7.959  -0.534   8.799  1.00  0.00     0.031 C 
ATOM     43  C   UNL     1       3.328  -2.419   8.377  1.00  0.00     0.029 A 
ATOM     44  N   UNL     1       4.796  -3.603   9.577  1.00  0.00    -0.354 N 
ATOM     45  C   UNL     1       8.993  -2.332   9.743  1.00  0.00     0.074 A 
ATOM     46  C   UNL     1       9.139  -1.033   9.127  1.00  0.00     0.031 C 
ATOM     47  C   UNL     1       2.679  -3.490   8.860  1.00  0.00     0.029 A 
ATOM     48  C   UNL     1       3.623  -4.317   9.603  1.00  0.00     0.049 A 
ATOM     49  H   UNL     1       5.612  -3.887  10.049  1.00  0.00     0.167 HD
ATOM     50  C   UNL     1      10.000  -3.021  10.328  1.00  0.00     0.037 A 
ATOM     51  C   UNL     1       3.361  -5.519  10.146  1.00  0.00     0.037 A 
ATOM     52  C   UNL     1       9.798  -4.277  10.998  1.00  0.00     0.049 A 
ATOM     53  C   UNL     1       4.481  -6.247  10.836  1.00  0.00     0.074 A 
ATOM     54  C   UNL     1      10.709  -5.045  11.697  1.00  0.00     0.029 A 
ATOM     55  N   UNL     1       8.576  -4.936  11.066  1.00  0.00    -0.354 N 
ATOM     56  N   UNL     1       5.742  -5.900  10.955  1.00  0.00    -0.248 NA
ATOM     57  C   UNL     1       4.146  -7.527  11.469  1.00  0.00     0.031 C 
ATOM     58  C   UNL     1      10.043  -6.185  12.163  1.00  0.00     0.029 A 
ATOM     59  C   UNL     1       8.708  -6.104  11.794  1.00  0.00     0.049 A 
ATOM     60  H   UNL     1       7.739  -4.618  10.655  1.00  0.00     0.167 HD
ATOM     61  C   UNL     1       6.346  -6.903  11.700  1.00  0.00     0.074 A 
ATOM     62  C   UNL     1       5.306  -7.865  12.014  1.00  0.00     0.031 C 
ATOM     63  C   UNL     1       7.639  -7.025  12.092  1.00  0.00     0.037 A 
BRANCH  50  64
ATOM     64  C   UNL     1      11.381  -2.429  10.256  1.00  0.00     0.057 A 
ATOM     65  C   UNL     1      11.716  -1.226  10.896  1.00  0.00     0.134 A 
ATOM     66  C   UNL     1      12.389  -3.058   9.514  1.00  0.00     0.134 A 
ATOM     67  F   UNL     1      10.799  -0.560  11.614  1.00  0.00    -0.206 F 
ATOM     68  C   UNL     1      12.979  -0.646  10.757  1.00  0.00     0.040 A 
ATOM     69  C   UNL     1      13.668  -2.507   9.398  1.00  0.00     0.040 A 
ATOM     70  F   UNL     1      12.149  -4.216   8.879  1.00  0.00    -0.206 F 
ATOM     71  C   UNL     1      13.961  -1.290  10.008  1.00  0.00     0.006 A 
ENDBRANCH  50  64
BRANCH  51  72
ATOM     72  C   UNL     1       1.987  -6.076  10.085  1.00  0.00     0.057 A 
ATOM     73  C   UNL     1       1.193  -6.142  11.236  1.00  0.00     0.134 A 
ATOM     74  C   UNL     1       1.416  -6.515   8.885  1.00  0.00     0.134 A 
ATOM     75  F   UNL     1       1.686  -5.745  12.418  1.00  0.00    -0.206 F 
ATOM     76  C   UNL     1      -0.112  -6.635  11.200  1.00  0.00     0.040 A 
ATOM     77  C   UNL     1       0.104  -6.989   8.829  1.00  0.00     0.040 A 
ATOM     78  F   UNL     1       2.117  -6.465   7.742  1.00  0.00    -0.206 F 
ATOM     79  C   UNL     1      -0.663  -7.054   9.990  1.00  0.00     0.006 A 
ENDBRANCH  51  72
BRANCH  63  80
ATOM     80  C   UNL     1       7.979  -8.214  12.939  1.00  0.00     0.057 A 
ATOM     81  C   UNL     1       8.053  -9.505  12.405  1.00  0.00     0.134 A 
ATOM     82  C   UNL     1       8.282  -8.051  14.297  1.00  0.00     0.134 A 
ATOM     83  F   UNL     1       7.762  -9.726  11.114  1.00  0.00    -0.206 F 
ATOM     84  C   UNL     1       8.397 -10.600  13.198  1.00  0.00     0.040 A 
ATOM     85  C   UNL     1       8.655  -9.133  15.093  1.00  0.00     0.040 A 
ATOM     86  F   UNL     1       8.238  -6.836  14.864  1.00  0.00    -0.206 F 
ATOM     87  C   UNL     1       8.707 -10.413  14.545  1.00  0.00     0.006 A 
ENDBRANCH  63  80
ENDBRANCH  37  38
ENDBRANCH  30  32
ENDBRANCH  29  30
ENDBRANCH  28  29
ENDBRANCH  27  28
ENDBRANCH   1  27
TORSDOF 17
