REMARK SMILES CC1(C)C(NC(=O)[C@@H]2CCC[C@@H](C(=O)OCCOCCOC(=O)c3ccc(-c4c5nc(c(-c6c(F)cccc6F)c6ccc([nH]6)c(-c6c(F)cccc6F)c6nc(c(-c7c(F)cccc7F)c7ccc4[nH]7)C=C6)C=C5)cc3)C2)C1(C)C
REMARK SMILES IDX 18 1 17 2 16 3 15 4 13 5 14 6 12 7 8 8 9 9 78 10 10 11 11 12
REMARK SMILES IDX 6 13 5 14 7 16 4 17 1 18 2 19 3 20 79 21 80 22 81 23 19 24
REMARK SMILES IDX 20 25 21 26 22 27 23 28 24 29 25 30 77 31 26 32 76 33 27 34
REMARK SMILES IDX 28 35 29 36 70 37 30 38 75 39 69 40 71 41 31 42 74 43 68 44
REMARK SMILES IDX 67 45 32 47 58 48 41 49 57 50 42 51 45 52 56 53 72 54 43 55
REMARK SMILES IDX 44 56 55 58 73 59 46 60 33 61 34 62 39 63 35 64 36 65 38 66
REMARK SMILES IDX 40 67 37 68 59 69 60 70 65 71 61 72 62 73 64 74 66 75 63 76
REMARK SMILES IDX 47 77 48 78 53 79 49 80 50 81 52 82 54 83 51 84
REMARK H PARENT 5 15 71 46 45 57
REMARK Flexibility Score: inf
ROOT
ATOM      1  O   UNL     1       5.908   3.670   1.752  1.00  0.00    -0.374 OA
ENDROOT
BRANCH   1   2
ATOM      2  C   UNL     1       6.336   4.996   2.062  1.00  0.00     0.202 C 
BRANCH   2   3
ATOM      3  C   UNL     1       5.256   6.039   2.363  1.00  0.00     0.261 C 
BRANCH   3   4
ATOM      4  O   UNL     1       4.455   5.707   3.517  1.00  0.00    -0.463 OA
BRANCH   4   5
ATOM      5  C   UNL     1       3.115   5.674   3.282  1.00  0.00     0.309 C 
ATOM      6  O   UNL     1       2.608   5.965   2.204  1.00  0.00    -0.252 OA
BRANCH   5   7
ATOM      7  C   UNL     1       2.286   5.304   4.520  1.00  0.00     0.100 C 
ATOM      8  C   UNL     1       0.712   3.791   3.294  1.00  0.00     0.079 C 
ATOM      9  C   UNL     1       0.948   2.620   4.241  1.00  0.00     0.013 C 
ATOM     10  C   UNL     1       0.820   5.098   4.088  1.00  0.00     0.028 C 
ATOM     11  C   UNL     1       2.350   2.697   4.835  1.00  0.00     0.002 C 
ATOM     12  C   UNL     1       2.764   4.090   5.346  1.00  0.00     0.015 C 
BRANCH   8  13
ATOM     13  C   UNL     1      -0.603   3.647   2.549  1.00  0.00     0.223 C 
ATOM     14  N   UNL     1      -0.596   3.003   1.334  1.00  0.00    -0.352 N 
ATOM     15  H   UNL     1      -1.477   2.878   0.914  1.00  0.00     0.163 HD
ATOM     16  O   UNL     1      -1.667   4.051   3.019  1.00  0.00    -0.275 OA
BRANCH  14  17
ATOM     17  C   UNL     1       0.521   2.489   0.594  1.00  0.00     0.094 C 
ATOM     18  C   UNL     1       1.521   0.282  -0.238  1.00  0.00     0.014 C 
ATOM     19  C   UNL     1       0.407   1.306  -0.347  1.00  0.00    -0.007 C 
ATOM     20  C   UNL     1      -0.931   0.643  -0.581  1.00  0.00     0.014 C 
ATOM     21  C   UNL     1       0.679   2.721  -0.900  1.00  0.00    -0.007 C 
ATOM     22  C   UNL     1       2.062   3.087  -1.404  1.00  0.00     0.014 C 
ATOM     23  C   UNL     1      -0.397   3.468  -1.659  1.00  0.00     0.014 C 
ENDBRANCH  14  17
ENDBRANCH   8  13
ENDBRANCH   5   7
ENDBRANCH   4   5
ENDBRANCH   3   4
ENDBRANCH   2   3
ENDBRANCH   1   2
BRANCH   1  24
ATOM     24  C   UNL     1       5.383   2.900   2.829  1.00  0.00     0.202 C 
BRANCH  24  25
ATOM     25  C   UNL     1       6.382   2.288   3.820  1.00  0.00     0.261 C 
BRANCH  25  26
ATOM     26  O   UNL     1       7.223   3.277   4.434  1.00  0.00    -0.460 OA
BRANCH  26  27
ATOM     27  C   UNL     1       8.515   3.236   4.032  1.00  0.00     0.338 C 
ATOM     28  O   UNL     1       9.049   2.386   3.332  1.00  0.00    -0.246 OA
BRANCH  27  29
ATOM     29  C   UNL     1       9.196   4.491   4.394  1.00  0.00     0.060 A 
ATOM     30  C   UNL     1       9.831   5.193   3.361  1.00  0.00     0.016 A 
ATOM     31  C   UNL     1       9.266   4.947   5.712  1.00  0.00     0.016 A 
ATOM     32  C   UNL     1      10.588   6.324   3.649  1.00  0.00     0.010 A 
ATOM     33  C   UNL     1      10.039   6.076   6.003  1.00  0.00     0.010 A 
ATOM     34  C   UNL     1      10.734   6.744   4.977  1.00  0.00    -0.014 A 
BRANCH  34  35
ATOM     35  C   UNL     1      11.756   7.767   5.296  1.00  0.00     0.031 A 
ATOM     36  C   UNL     1      13.112   7.313   5.761  1.00  0.00     0.074 A 
ATOM     37  C   UNL     1      11.504   9.075   5.116  1.00  0.00     0.049 A 
ATOM     38  N   UNL     1      14.164   8.023   6.077  1.00  0.00    -0.248 NA
ATOM     39  C   UNL     1      13.308   5.859   5.880  1.00  0.00     0.031 C 
ATOM     40  C   UNL     1      10.246   9.633   4.625  1.00  0.00     0.029 A 
ATOM     41  N   UNL     1      12.303  10.170   5.323  1.00  0.00    -0.354 N 
ATOM     42  C   UNL     1      15.145   7.106   6.431  1.00  0.00     0.074 A 
ATOM     43  C   UNL     1      14.554   5.789   6.324  1.00  0.00     0.031 C 
ATOM     44  C   UNL     1      10.357  10.971   4.569  1.00  0.00     0.029 A 
ATOM     45  C   UNL     1      11.683  11.363   5.045  1.00  0.00     0.049 A 
ATOM     46  H   UNL     1      13.233  10.107   5.640  1.00  0.00     0.167 HD
ATOM     47  C   UNL     1      16.426   7.338   6.801  1.00  0.00     0.037 A 
ATOM     48  C   UNL     1      12.133  12.625   5.173  1.00  0.00     0.037 A 
ATOM     49  C   UNL     1      17.010   8.648   6.912  1.00  0.00     0.049 A 
ATOM     50  C   UNL     1      13.536  12.862   5.665  1.00  0.00     0.074 A 
ATOM     51  C   UNL     1      18.302   8.989   7.272  1.00  0.00     0.029 A 
ATOM     52  N   UNL     1      16.334   9.834   6.673  1.00  0.00    -0.354 N 
ATOM     53  N   UNL     1      14.462  11.988   5.979  1.00  0.00    -0.248 NA
ATOM     54  C   UNL     1      13.957  14.263   5.818  1.00  0.00     0.031 C 
ATOM     55  C   UNL     1      18.393  10.386   7.294  1.00  0.00     0.029 A 
ATOM     56  C   UNL     1      17.173  10.912   6.901  1.00  0.00     0.049 A 
ATOM     57  H   UNL     1      15.395   9.900   6.382  1.00  0.00     0.167 HD
ATOM     58  C   UNL     1      15.581  12.729   6.340  1.00  0.00     0.074 A 
ATOM     59  C   UNL     1      15.220  14.125   6.196  1.00  0.00     0.031 C 
ATOM     60  C   UNL     1      16.797  12.294   6.750  1.00  0.00     0.037 A 
BRANCH  47  61
ATOM     61  C   UNL     1      17.269   6.143   7.138  1.00  0.00     0.057 A 
ATOM     62  C   UNL     1      17.725   5.258   6.152  1.00  0.00     0.134 A 
ATOM     63  C   UNL     1      17.636   5.880   8.463  1.00  0.00     0.134 A 
ATOM     64  F   UNL     1      17.395   5.444   4.865  1.00  0.00    -0.206 F 
ATOM     65  C   UNL     1      18.494   4.138   6.477  1.00  0.00     0.040 A 
ATOM     66  C   UNL     1      18.425   4.778   8.797  1.00  0.00     0.040 A 
ATOM     67  F   UNL     1      17.234   6.689   9.455  1.00  0.00    -0.206 F 
ATOM     68  C   UNL     1      18.850   3.899   7.803  1.00  0.00     0.006 A 
ENDBRANCH  47  61
BRANCH  48  69
ATOM     69  C   UNL     1      11.247  13.766   4.834  1.00  0.00     0.057 A 
ATOM     70  C   UNL     1      11.492  14.568   3.714  1.00  0.00     0.134 A 
ATOM     71  C   UNL     1      10.139  14.088   5.628  1.00  0.00     0.134 A 
ATOM     72  F   UNL     1      12.551  14.323   2.928  1.00  0.00    -0.206 F 
ATOM     73  C   UNL     1      10.675  15.655   3.400  1.00  0.00     0.040 A 
ATOM     74  C   UNL     1       9.301  15.159   5.315  1.00  0.00     0.040 A 
ATOM     75  F   UNL     1       9.852  13.359   6.716  1.00  0.00    -0.206 F 
ATOM     76  C   UNL     1       9.572  15.949   4.200  1.00  0.00     0.006 A 
ENDBRANCH  48  69
BRANCH  60  77
ATOM     77  C   UNL     1      17.837  13.336   7.043  1.00  0.00     0.057 A 
ATOM     78  C   UNL     1      17.779  14.136   8.191  1.00  0.00     0.134 A 
ATOM     79  C   UNL     1      18.931  13.511   6.186  1.00  0.00     0.134 A 
ATOM     80  F   UNL     1      16.750  14.026   9.045  1.00  0.00    -0.206 F 
ATOM     81  C   UNL     1      18.762  15.088   8.466  1.00  0.00     0.040 A 
ATOM     82  C   UNL     1      19.933  14.442   6.463  1.00  0.00     0.040 A 
ATOM     83  F   UNL     1      19.052  12.770   5.075  1.00  0.00    -0.206 F 
ATOM     84  C   UNL     1      19.847  15.238   7.604  1.00  0.00     0.006 A 
ENDBRANCH  60  77
ENDBRANCH  34  35
ENDBRANCH  27  29
ENDBRANCH  26  27
ENDBRANCH  25  26
ENDBRANCH  24  25
ENDBRANCH   1  24
TORSDOF 16
