REMARK SMILES COc1ncccc1C[C@H](C(=O)OCCOCCOC(=O)c1ccc(-c2c3nc(c(-c4c(F)cccc4F)c4ccc([nH]4)c(-c4c(F)cccc4F)c4nc(c(-c5c(F)cccc5F)c5ccc2[nH]5)C=C4)C=C3)cc1)c1ccc(F)cc1
REMARK SMILES IDX 15 1 14 2 13 3 11 4 12 5 10 6 9 7 8 8 3 9 4 10 5 11 7 12
REMARK SMILES IDX 6 13 2 14 1 15 76 16 77 17 82 18 78 19 81 20 79 21 80 22
REMARK SMILES IDX 16 23 17 24 18 25 19 26 20 27 21 28 22 29 23 30 75 31 24 32
REMARK SMILES IDX 74 33 25 34 26 35 27 36 68 37 28 38 73 39 67 40 69 41 29 42
REMARK SMILES IDX 72 43 66 44 65 45 30 47 56 48 39 49 55 50 40 51 43 52 54 53
REMARK SMILES IDX 70 54 41 55 42 56 53 58 71 59 44 60 31 61 32 62 37 63 33 64
REMARK SMILES IDX 34 65 36 66 38 67 35 68 57 69 58 70 63 71 59 72 60 73 62 74
REMARK SMILES IDX 64 75 61 76 45 77 46 78 51 79 47 80 48 81 50 82 52 83 49 84
REMARK H PARENT 69 46 43 57
REMARK Flexibility Score: inf
ROOT
ATOM      1  C   UNL     1       3.286  -1.813  -3.911  1.00  0.00     0.202 C 
ENDROOT
BRANCH   1   2
ATOM      2  C   UNL     1       3.305  -2.226  -2.437  1.00  0.00     0.261 C 
BRANCH   2   3
ATOM      3  O   UNL     1       2.773  -1.221  -1.562  1.00  0.00    -0.463 OA
BRANCH   3   4
ATOM      4  C   UNL     1       3.722  -0.532  -0.869  1.00  0.00     0.313 C 
ATOM      5  O   UNL     1       4.928  -0.729  -0.990  1.00  0.00    -0.252 OA
BRANCH   4   6
ATOM      6  C   UNL     1       3.139   0.602  -0.011  1.00  0.00     0.134 C 
BRANCH   6   7
ATOM      7  C   UNL     1       1.683   0.378   0.474  1.00  0.00     0.061 C 
BRANCH   7   8
ATOM      8  C   UNL     1       0.697   1.381  -0.093  1.00  0.00     0.015 A 
ATOM      9  C   UNL     1       0.570   2.663   0.444  1.00  0.00     0.216 A 
ATOM     10  N   UNL     1      -0.291   3.604  -0.001  1.00  0.00    -0.222 NA
ATOM     11  C   UNL     1      -1.088   3.248  -1.031  1.00  0.00     0.115 A 
ATOM     12  C   UNL     1      -0.129   1.065  -1.175  1.00  0.00     0.011 A 
ATOM     13  C   UNL     1      -1.044   2.006  -1.645  1.00  0.00     0.021 A 
BRANCH   9  14
ATOM     14  O   UNL     1       1.287   2.958   1.578  1.00  0.00    -0.481 OA
ATOM     15  C   UNL     1       2.208   4.010   1.322  1.00  0.00     0.280 C 
ENDBRANCH   9  14
ENDBRANCH   7   8
ENDBRANCH   6   7
BRANCH   6  16
ATOM     16  C   UNL     1       4.108   0.852   1.145  1.00  0.00    -0.033 A 
ATOM     17  C   UNL     1       4.240  -0.090   2.181  1.00  0.00     0.007 A 
ATOM     18  C   UNL     1       4.982   1.953   1.111  1.00  0.00     0.007 A 
ATOM     19  C   UNL     1       5.210   0.076   3.168  1.00  0.00     0.039 A 
ATOM     20  C   UNL     1       5.941   2.124   2.109  1.00  0.00     0.039 A 
ATOM     21  C   UNL     1       6.047   1.183   3.126  1.00  0.00     0.123 A 
ATOM     22  F   UNL     1       6.983   1.337   4.071  1.00  0.00    -0.207 F 
ENDBRANCH   6  16
ENDBRANCH   4   6
ENDBRANCH   3   4
ENDBRANCH   2   3
ENDBRANCH   1   2
BRANCH   1  23
ATOM     23  O   UNL     1       3.871  -0.565  -4.263  1.00  0.00    -0.374 OA
BRANCH  23  24
ATOM     24  C   UNL     1       3.168   0.635  -3.944  1.00  0.00     0.202 C 
BRANCH  24  25
ATOM     25  C   UNL     1       1.857   0.915  -4.687  1.00  0.00     0.261 C 
BRANCH  25  26
ATOM     26  O   UNL     1       0.820  -0.019  -4.333  1.00  0.00    -0.460 OA
BRANCH  26  27
ATOM     27  C   UNL     1       0.364  -0.777  -5.356  1.00  0.00     0.338 C 
ATOM     28  O   UNL     1       0.681  -0.704  -6.537  1.00  0.00    -0.246 OA
BRANCH  27  29
ATOM     29  C   UNL     1      -0.462  -1.877  -4.834  1.00  0.00     0.060 A 
ATOM     30  C   UNL     1      -0.066  -3.188  -5.135  1.00  0.00     0.016 A 
ATOM     31  C   UNL     1      -1.652  -1.631  -4.148  1.00  0.00     0.016 A 
ATOM     32  C   UNL     1      -0.887  -4.258  -4.792  1.00  0.00     0.010 A 
ATOM     33  C   UNL     1      -2.481  -2.706  -3.816  1.00  0.00     0.010 A 
ATOM     34  C   UNL     1      -2.119  -4.018  -4.172  1.00  0.00    -0.014 A 
BRANCH  34  35
ATOM     35  C   UNL     1      -3.097  -5.124  -4.053  1.00  0.00     0.031 A 
ATOM     36  C   UNL     1      -4.184  -5.246  -5.085  1.00  0.00     0.074 A 
ATOM     37  C   UNL     1      -2.997  -6.027  -3.063  1.00  0.00     0.049 A 
ATOM     38  N   UNL     1      -5.167  -6.105  -5.157  1.00  0.00    -0.248 NA
ATOM     39  C   UNL     1      -4.157  -4.266  -6.183  1.00  0.00     0.031 C 
ATOM     40  C   UNL     1      -1.962  -6.038  -2.031  1.00  0.00     0.029 A 
ATOM     41  N   UNL     1      -3.786  -7.109  -2.764  1.00  0.00    -0.354 N 
ATOM     42  C   UNL     1      -5.875  -5.771  -6.304  1.00  0.00     0.074 A 
ATOM     43  C   UNL     1      -5.229  -4.611  -6.880  1.00  0.00     0.031 C 
ATOM     44  C   UNL     1      -2.190  -7.069  -1.199  1.00  0.00     0.029 A 
ATOM     45  C   UNL     1      -3.401  -7.770  -1.625  1.00  0.00     0.049 A 
ATOM     46  H   UNL     1      -4.555  -7.384  -3.314  1.00  0.00     0.167 HD
ATOM     47  C   UNL     1      -6.960  -6.381  -6.836  1.00  0.00     0.037 A 
ATOM     48  C   UNL     1      -3.975  -8.808  -0.987  1.00  0.00     0.037 A 
ATOM     49  C   UNL     1      -7.603  -7.532  -6.260  1.00  0.00     0.049 A 
ATOM     50  C   UNL     1      -5.219  -9.431  -1.560  1.00  0.00     0.074 A 
ATOM     51  C   UNL     1      -8.710  -8.223  -6.721  1.00  0.00     0.029 A 
ATOM     52  N   UNL     1      -7.197  -8.159  -5.091  1.00  0.00    -0.354 N 
ATOM     53  N   UNL     1      -5.879  -9.110  -2.647  1.00  0.00    -0.248 NA
ATOM     54  C   UNL     1      -5.795 -10.564  -0.822  1.00  0.00     0.031 C 
ATOM     55  C   UNL     1      -8.997  -9.245  -5.809  1.00  0.00     0.029 A 
ATOM     56  C   UNL     1      -8.041  -9.219  -4.807  1.00  0.00     0.049 A 
ATOM     57  H   UNL     1      -6.423  -7.891  -4.546  1.00  0.00     0.167 HD
ATOM     58  C   UNL     1      -6.932 -10.012  -2.734  1.00  0.00     0.074 A 
ATOM     59  C   UNL     1      -6.816 -10.902  -1.597  1.00  0.00     0.031 C 
ATOM     60  C   UNL     1      -7.908 -10.096  -3.671  1.00  0.00     0.037 A 
BRANCH  47  61
ATOM     61  C   UNL     1      -7.531  -5.801  -8.095  1.00  0.00     0.057 A 
ATOM     62  C   UNL     1      -6.884  -5.940  -9.330  1.00  0.00     0.134 A 
ATOM     63  C   UNL     1      -8.756  -5.124  -8.079  1.00  0.00     0.134 A 
ATOM     64  F   UNL     1      -5.699  -6.563  -9.411  1.00  0.00    -0.206 F 
ATOM     65  C   UNL     1      -7.428  -5.410 -10.502  1.00  0.00     0.040 A 
ATOM     66  C   UNL     1      -9.321  -4.610  -9.247  1.00  0.00     0.040 A 
ATOM     67  F   UNL     1      -9.427  -4.958  -6.929  1.00  0.00    -0.206 F 
ATOM     68  C   UNL     1      -8.654  -4.748 -10.462  1.00  0.00     0.006 A 
ENDBRANCH  47  61
BRANCH  48  69
ATOM     69  C   UNL     1      -3.386  -9.310   0.279  1.00  0.00     0.057 A 
ATOM     70  C   UNL     1      -2.752 -10.555   0.344  1.00  0.00     0.134 A 
ATOM     71  C   UNL     1      -3.449  -8.555   1.456  1.00  0.00     0.134 A 
ATOM     72  F   UNL     1      -2.680 -11.334  -0.746  1.00  0.00    -0.206 F 
ATOM     73  C   UNL     1      -2.210 -11.037   1.537  1.00  0.00     0.040 A 
ATOM     74  C   UNL     1      -2.892  -9.014   2.650  1.00  0.00     0.040 A 
ATOM     75  F   UNL     1      -4.043  -7.352   1.458  1.00  0.00    -0.206 F 
ATOM     76  C   UNL     1      -2.274 -10.262   2.693  1.00  0.00     0.006 A 
ENDBRANCH  48  69
BRANCH  60  77
ATOM     77  C   UNL     1      -8.910 -11.204  -3.525  1.00  0.00     0.057 A 
ATOM     78  C   UNL     1      -9.912 -11.169  -2.547  1.00  0.00     0.134 A 
ATOM     79  C   UNL     1      -8.902 -12.293  -4.406  1.00  0.00     0.134 A 
ATOM     80  F   UNL     1      -9.968 -10.159  -1.667  1.00  0.00    -0.206 F 
ATOM     81  C   UNL     1     -10.858 -12.190  -2.438  1.00  0.00     0.040 A 
ATOM     82  C   UNL     1      -9.857 -13.306  -4.323  1.00  0.00     0.040 A 
ATOM     83  F   UNL     1      -7.975 -12.380  -5.372  1.00  0.00    -0.206 F 
ATOM     84  C   UNL     1     -10.837 -13.258  -3.333  1.00  0.00     0.006 A 
ENDBRANCH  60  77
ENDBRANCH  34  35
ENDBRANCH  27  29
ENDBRANCH  26  27
ENDBRANCH  25  26
ENDBRANCH  24  25
ENDBRANCH  23  24
ENDBRANCH   1  23
TORSDOF 18
