REMARK SMILES O=C(Cc1ccccc1)Nc1cccc(C(=O)Nc2ccccc2C(=O)OCCOCCOC(=O)c2ccc(-c3c4nc(c(-c5c(F)cccc5F)c5ccc([nH]5)c(-c5c(F)cccc5F)c5nc(c(-c6c(F)cccc6F)c6ccc3[nH]6)C=C5)C=C4)cc2)c1
REMARK SMILES IDX 28 1 27 2 25 3 26 4 24 5 19 6 20 7 21 8 23 9 22 10 18 11
REMARK SMILES IDX 16 12 17 13 15 15 11 16 12 17 90 18 13 19 14 20 10 21 1 22
REMARK SMILES IDX 2 23 3 25 4 26 5 27 9 28 6 29 8 30 7 31 29 32 30 33 31 34
REMARK SMILES IDX 32 35 33 36 34 37 35 38 36 39 37 40 89 41 38 42 88 43 39 44
REMARK SMILES IDX 40 45 41 46 82 47 42 48 87 49 81 50 83 51 43 52 86 53 80 54
REMARK SMILES IDX 79 55 44 57 70 58 53 59 69 60 54 61 57 62 68 63 84 64 55 65
REMARK SMILES IDX 56 66 67 68 85 69 58 70 45 71 46 72 51 73 47 74 48 75 50 76
REMARK SMILES IDX 52 77 49 78 71 79 72 80 77 81 73 82 74 83 76 84 78 85 75 86
REMARK SMILES IDX 59 87 60 88 65 89 61 90 62 91 64 92 66 93 63 94
REMARK H PARENT 18 14 10 24 83 56 57 67
REMARK Flexibility Score: inf
ROOT
ATOM      1  C   UNL     1       2.904  -0.475   5.166  1.00  0.00     0.261 C 
ENDROOT
BRANCH   1   2
ATOM      2  O   UNL     1       1.809  -1.053   4.435  1.00  0.00    -0.460 OA
BRANCH   2   3
ATOM      3  C   UNL     1       1.989  -1.057   3.091  1.00  0.00     0.340 C 
ATOM      4  O   UNL     1       3.019  -0.738   2.509  1.00  0.00    -0.246 OA
BRANCH   3   5
ATOM      5  C   UNL     1       0.854  -1.675   2.363  1.00  0.00     0.083 A 
ATOM      6  C   UNL     1      -0.521  -1.527   2.624  1.00  0.00     0.056 A 
ATOM      7  C   UNL     1      -1.420  -2.281   1.840  1.00  0.00     0.027 A 
ATOM      8  C   UNL     1      -0.988  -3.079   0.776  1.00  0.00     0.002 A 
ATOM      9  C   UNL     1       1.276  -2.501   1.294  1.00  0.00     0.018 A 
ATOM     10  C   UNL     1       0.365  -3.183   0.496  1.00  0.00     0.001 A 
BRANCH   6  11
ATOM     11  N   UNL     1      -1.168  -0.679   3.556  1.00  0.00    -0.321 N 
ATOM     12  C   UNL     1      -0.893   0.563   4.088  1.00  0.00     0.255 C 
ATOM     13  O   UNL     1      -1.575   0.970   5.029  1.00  0.00    -0.269 OA
ATOM     14  H   UNL     1      -2.005  -1.064   3.902  1.00  0.00     0.170 HD
BRANCH  12  15
ATOM     15  C   UNL     1       0.141   1.459   3.527  1.00  0.00     0.042 A 
ATOM     16  C   UNL     1       1.679   1.972   1.750  1.00  0.00     0.041 A 
ATOM     17  C   UNL     1       2.419   2.765   2.636  1.00  0.00     0.026 A 
ATOM     18  C   UNL     1       0.469   1.428   2.172  1.00  0.00     0.040 A 
ATOM     19  C   UNL     1       1.981   2.962   3.947  1.00  0.00     0.003 A 
ATOM     20  C   UNL     1       0.854   2.285   4.404  1.00  0.00     0.014 A 
BRANCH  16  21
ATOM     21  N   UNL     1       2.297   1.581   0.546  1.00  0.00    -0.326 N 
ATOM     22  O   UNL     1       0.597   0.430  -0.557  1.00  0.00    -0.274 OA
ATOM     23  C   UNL     1       1.780   0.738  -0.425  1.00  0.00     0.228 C 
ATOM     24  H   UNL     1       3.195   1.947   0.376  1.00  0.00     0.169 HD
BRANCH  23  25
ATOM     25  C   UNL     1       2.840   0.105  -1.315  1.00  0.00     0.135 C 
BRANCH  25  26
ATOM     26  C   UNL     1       3.829   1.057  -1.945  1.00  0.00    -0.039 A 
ATOM     27  C   UNL     1       5.112   0.594  -2.270  1.00  0.00     0.004 A 
ATOM     28  C   UNL     1       3.489   2.381  -2.256  1.00  0.00     0.004 A 
ATOM     29  C   UNL     1       6.050   1.453  -2.843  1.00  0.00     0.000 A 
ATOM     30  C   UNL     1       4.434   3.243  -2.809  1.00  0.00     0.000 A 
ATOM     31  C   UNL     1       5.715   2.780  -3.099  1.00  0.00     0.000 A 
ENDBRANCH  25  26
ENDBRANCH  23  25
ENDBRANCH  16  21
ENDBRANCH  12  15
ENDBRANCH   6  11
ENDBRANCH   3   5
ENDBRANCH   2   3
ENDBRANCH   1   2
BRANCH   1  32
ATOM     32  C   UNL     1       3.757  -1.483   5.941  1.00  0.00     0.202 C 
BRANCH  32  33
ATOM     33  O   UNL     1       4.423  -2.514   5.223  1.00  0.00    -0.374 OA
BRANCH  33  34
ATOM     34  C   UNL     1       3.642  -3.511   4.573  1.00  0.00     0.202 C 
BRANCH  34  35
ATOM     35  C   UNL     1       2.801  -4.465   5.431  1.00  0.00     0.261 C 
BRANCH  35  36
ATOM     36  O   UNL     1       1.844  -3.804   6.275  1.00  0.00    -0.460 OA
BRANCH  36  37
ATOM     37  C   UNL     1       2.096  -3.924   7.601  1.00  0.00     0.338 C 
ATOM     38  O   UNL     1       3.016  -4.535   8.129  1.00  0.00    -0.246 OA
BRANCH  37  39
ATOM     39  C   UNL     1       1.180  -3.086   8.390  1.00  0.00     0.060 A 
ATOM     40  C   UNL     1       1.747  -2.123   9.236  1.00  0.00     0.016 A 
ATOM     41  C   UNL     1      -0.190  -3.351   8.428  1.00  0.00     0.016 A 
ATOM     42  C   UNL     1       0.953  -1.466  10.171  1.00  0.00     0.010 A 
ATOM     43  C   UNL     1      -0.984  -2.698   9.376  1.00  0.00     0.010 A 
ATOM     44  C   UNL     1      -0.405  -1.790  10.282  1.00  0.00    -0.014 A 
BRANCH  44  45
ATOM     45  C   UNL     1      -1.164  -1.308  11.460  1.00  0.00     0.031 A 
ATOM     46  C   UNL     1      -1.302  -2.209  12.657  1.00  0.00     0.074 A 
ATOM     47  C   UNL     1      -1.673  -0.066  11.487  1.00  0.00     0.049 A 
ATOM     48  N   UNL     1      -1.890  -1.984  13.804  1.00  0.00    -0.248 NA
ATOM     49  C   UNL     1      -0.690  -3.543  12.545  1.00  0.00     0.031 C 
ATOM     50  C   UNL     1      -1.570   0.913  10.407  1.00  0.00     0.029 A 
ATOM     51  N   UNL     1      -2.374   0.585  12.470  1.00  0.00    -0.354 N 
ATOM     52  C   UNL     1      -1.724  -3.145  14.548  1.00  0.00     0.074 A 
ATOM     53  C   UNL     1      -1.004  -4.084  13.713  1.00  0.00     0.031 C 
ATOM     54  C   UNL     1      -2.180   2.047  10.791  1.00  0.00     0.029 A 
ATOM     55  C   UNL     1      -2.736   1.864  12.130  1.00  0.00     0.049 A 
ATOM     56  H   UNL     1      -2.595   0.173  13.337  1.00  0.00     0.167 HD
ATOM     57  C   UNL     1      -2.126  -3.405  15.815  1.00  0.00     0.037 A 
ATOM     58  C   UNL     1      -3.443   2.777  12.822  1.00  0.00     0.037 A 
ATOM     59  C   UNL     1      -2.841  -2.473  16.646  1.00  0.00     0.049 A 
ATOM     60  C   UNL     1      -3.943   2.438  14.200  1.00  0.00     0.074 A 
ATOM     61  C   UNL     1      -3.269  -2.631  17.953  1.00  0.00     0.029 A 
ATOM     62  N   UNL     1      -3.242  -1.208  16.244  1.00  0.00    -0.354 N 
ATOM     63  N   UNL     1      -3.756   1.349  14.905  1.00  0.00    -0.248 NA
ATOM     64  C   UNL     1      -4.756   3.460  14.876  1.00  0.00     0.031 C 
ATOM     65  C   UNL     1      -3.969  -1.477  18.326  1.00  0.00     0.029 A 
ATOM     66  C   UNL     1      -3.939  -0.585  17.266  1.00  0.00     0.049 A 
ATOM     67  H   UNL     1      -3.059  -0.811  15.361  1.00  0.00     0.167 HD
ATOM     68  C   UNL     1      -4.404   1.563  16.116  1.00  0.00     0.074 A 
ATOM     69  C   UNL     1      -4.981   2.890  16.052  1.00  0.00     0.031 C 
ATOM     70  C   UNL     1      -4.508   0.737  17.186  1.00  0.00     0.037 A 
BRANCH  57  71
ATOM     71  C   UNL     1      -1.823  -4.768  16.363  1.00  0.00     0.057 A 
ATOM     72  C   UNL     1      -0.524  -5.150  16.723  1.00  0.00     0.134 A 
ATOM     73  C   UNL     1      -2.845  -5.710  16.534  1.00  0.00     0.134 A 
ATOM     74  F   UNL     1       0.502  -4.299  16.569  1.00  0.00    -0.206 F 
ATOM     75  C   UNL     1      -0.248  -6.430  17.208  1.00  0.00     0.040 A 
ATOM     76  C   UNL     1      -2.585  -6.985  17.040  1.00  0.00     0.040 A 
ATOM     77  F   UNL     1      -4.111  -5.408  16.211  1.00  0.00    -0.206 F 
ATOM     78  C   UNL     1      -1.282  -7.350  17.371  1.00  0.00     0.006 A 
ENDBRANCH  57  71
BRANCH  58  79
ATOM     79  C   UNL     1      -3.713   4.108  12.227  1.00  0.00     0.057 A 
ATOM     80  C   UNL     1      -3.082   5.257  12.716  1.00  0.00     0.134 A 
ATOM     81  C   UNL     1      -4.611   4.264  11.165  1.00  0.00     0.134 A 
ATOM     82  F   UNL     1      -2.230   5.172  13.748  1.00  0.00    -0.206 F 
ATOM     83  C   UNL     1      -3.339   6.517  12.174  1.00  0.00     0.040 A 
ATOM     84  C   UNL     1      -4.862   5.515  10.600  1.00  0.00     0.040 A 
ATOM     85  F   UNL     1      -5.251   3.200  10.658  1.00  0.00    -0.206 F 
ATOM     86  C   UNL     1      -4.228   6.647  11.109  1.00  0.00     0.006 A 
ENDBRANCH  58  79
BRANCH  70  87
ATOM     87  C   UNL     1      -5.249   1.258  18.381  1.00  0.00     0.057 A 
ATOM     88  C   UNL     1      -6.645   1.376  18.390  1.00  0.00     0.134 A 
ATOM     89  C   UNL     1      -4.560   1.622  19.545  1.00  0.00     0.134 A 
ATOM     90  F   UNL     1      -7.361   1.057  17.302  1.00  0.00    -0.206 F 
ATOM     91  C   UNL     1      -7.327   1.862  19.507  1.00  0.00     0.040 A 
ATOM     92  C   UNL     1      -5.233   2.087  20.676  1.00  0.00     0.040 A 
ATOM     93  F   UNL     1      -3.224   1.524  19.604  1.00  0.00    -0.206 F 
ATOM     94  C   UNL     1      -6.620   2.214  20.656  1.00  0.00     0.006 A 
ENDBRANCH  70  87
ENDBRANCH  44  45
ENDBRANCH  37  39
ENDBRANCH  36  37
ENDBRANCH  35  36
ENDBRANCH  34  35
ENDBRANCH  33  34
ENDBRANCH  32  33
ENDBRANCH   1  32
TORSDOF 19
