REMARK SMILES CS(=O)(=O)c1ccc(C2=NN(c3ccc(C(=O)OCCOCCOC(=O)c4ccc(-c5c6nc(c(-c7c(F)cccc7F)c7ccc([nH]7)c(-c7c(F)cccc7F)c7nc(c(-c8c(F)cccc8F)c8ccc5[nH]8)C=C7)C=C6)cc4)cc3)[C@H](c3ccc(F)cc3)C2)cc1
REMARK SMILES IDX 20 1 19 2 18 3 16 4 17 5 15 6 12 7 13 8 82 9 14 10 81 11
REMARK SMILES IDX 11 12 9 13 10 14 91 15 83 16 8 17 5 18 6 19 93 20 7 21 92 22
REMARK SMILES IDX 2 23 1 24 3 25 4 26 84 27 85 28 90 29 86 30 89 31 87 32
REMARK SMILES IDX 88 33 21 34 22 35 23 36 24 37 25 38 26 39 27 40 28 41 80 42
REMARK SMILES IDX 29 43 79 44 30 45 31 46 32 47 73 48 33 49 78 50 72 51 74 52
REMARK SMILES IDX 34 53 77 54 71 55 70 56 35 58 61 59 44 60 60 61 45 62 48 63
REMARK SMILES IDX 59 64 75 65 46 66 47 67 58 69 76 70 49 71 36 72 37 73 42 74
REMARK SMILES IDX 38 75 39 76 41 77 43 78 40 79 62 80 63 81 68 82 64 83 65 84
REMARK SMILES IDX 67 85 69 86 66 87 50 88 51 89 56 90 52 91 53 92 55 93 57 94
REMARK SMILES IDX 54 95
REMARK H PARENT 74 57 48 68
REMARK Flexibility Score: inf
ROOT
ATOM      1  C   UNL     1       9.900  12.416  -5.195  1.00  0.00     0.202 C 
ENDROOT
BRANCH   1   2
ATOM      2  C   UNL     1       8.714  13.177  -4.596  1.00  0.00     0.261 C 
BRANCH   2   3
ATOM      3  O   UNL     1       7.927  12.308  -3.765  1.00  0.00    -0.460 OA
BRANCH   3   4
ATOM      4  C   UNL     1       6.674  12.055  -4.210  1.00  0.00     0.338 C 
ATOM      5  O   UNL     1       6.104  12.613  -5.138  1.00  0.00    -0.246 OA
BRANCH   4   6
ATOM      6  C   UNL     1       6.083  10.907  -3.478  1.00  0.00     0.060 A 
ATOM      7  C   UNL     1       4.742   8.861  -2.100  1.00  0.00     0.060 A 
ATOM      8  C   UNL     1       4.341   9.222  -3.390  1.00  0.00     0.029 A 
ATOM      9  C   UNL     1       5.890   9.455  -1.557  1.00  0.00     0.029 A 
ATOM     10  C   UNL     1       5.001  10.245  -4.072  1.00  0.00     0.018 A 
ATOM     11  C   UNL     1       6.558  10.478  -2.234  1.00  0.00     0.018 A 
BRANCH   7  12
ATOM     12  N   UNL     1       3.931   8.058  -1.287  1.00  0.00    -0.257 N 
ATOM     13  C   UNL     1       2.511   6.463  -1.217  1.00  0.00     0.071 C 
ATOM     14  N   UNL     1       3.696   6.768  -1.646  1.00  0.00    -0.176 NA
ATOM     15  C   UNL     1       1.727   7.590  -0.602  1.00  0.00     0.091 C 
ATOM     16  C   UNL     1       2.772   8.710  -0.650  1.00  0.00     0.144 C 
BRANCH  13  17
ATOM     17  C   UNL     1       1.956   5.098  -1.307  1.00  0.00    -0.002 A 
ATOM     18  C   UNL     1       0.993   2.486  -1.434  1.00  0.00     0.067 A 
ATOM     19  C   UNL     1       2.356   2.707  -1.225  1.00  0.00     0.021 A 
ATOM     20  C   UNL     1       0.111   3.561  -1.595  1.00  0.00     0.021 A 
ATOM     21  C   UNL     1       2.836   4.017  -1.165  1.00  0.00     0.011 A 
ATOM     22  C   UNL     1       0.593   4.872  -1.525  1.00  0.00     0.011 A 
BRANCH  18  23
ATOM     23  S   UNL     1       0.382   0.817  -1.523  1.00  0.00     0.175 S 
ATOM     24  C   UNL     1       0.917   0.059  -0.011  1.00  0.00     0.163 C 
ATOM     25  O   UNL     1       1.071   0.180  -2.626  1.00  0.00    -0.224 OA
ATOM     26  O   UNL     1      -1.068   0.884  -1.480  1.00  0.00    -0.224 OA
ENDBRANCH  18  23
ENDBRANCH  13  17
BRANCH  16  27
ATOM     27  C   UNL     1       3.197   9.361   0.660  1.00  0.00    -0.023 A 
ATOM     28  C   UNL     1       3.158   8.707   1.901  1.00  0.00     0.009 A 
ATOM     29  C   UNL     1       3.754  10.659   0.612  1.00  0.00     0.009 A 
ATOM     30  C   UNL     1       3.659   9.329   3.050  1.00  0.00     0.039 A 
ATOM     31  C   UNL     1       4.287  11.263   1.750  1.00  0.00     0.039 A 
ATOM     32  C   UNL     1       4.231  10.592   2.961  1.00  0.00     0.123 A 
ATOM     33  F   UNL     1       4.749  11.163   4.056  1.00  0.00    -0.207 F 
ENDBRANCH  16  27
ENDBRANCH   7  12
ENDBRANCH   4   6
ENDBRANCH   3   4
ENDBRANCH   2   3
ENDBRANCH   1   2
BRANCH   1  34
ATOM     34  O   UNL     1       9.573  11.405  -6.149  1.00  0.00    -0.374 OA
BRANCH  34  35
ATOM     35  C   UNL     1       9.122  10.149  -5.643  1.00  0.00     0.202 C 
BRANCH  35  36
ATOM     36  C   UNL     1      10.211   9.181  -5.167  1.00  0.00     0.261 C 
BRANCH  36  37
ATOM     37  O   UNL     1      10.925   9.690  -4.027  1.00  0.00    -0.460 OA
BRANCH  37  38
ATOM     38  C   UNL     1      12.189  10.093  -4.289  1.00  0.00     0.338 C 
ATOM     39  O   UNL     1      12.795   9.994  -5.348  1.00  0.00    -0.246 OA
BRANCH  38  40
ATOM     40  C   UNL     1      12.737  10.842  -3.144  1.00  0.00     0.060 A 
ATOM     41  C   UNL     1      13.347  12.073  -3.415  1.00  0.00     0.016 A 
ATOM     42  C   UNL     1      12.741  10.319  -1.848  1.00  0.00     0.016 A 
ATOM     43  C   UNL     1      14.022  12.755  -2.407  1.00  0.00     0.010 A 
ATOM     44  C   UNL     1      13.425  11.003  -0.836  1.00  0.00     0.010 A 
ATOM     45  C   UNL     1      14.105  12.200  -1.123  1.00  0.00    -0.014 A 
BRANCH  45  46
ATOM     46  C   UNL     1      15.045  12.792  -0.140  1.00  0.00     0.031 A 
ATOM     47  C   UNL     1      16.400  12.162   0.042  1.00  0.00     0.074 A 
ATOM     48  C   UNL     1      14.723  13.905   0.541  1.00  0.00     0.049 A 
ATOM     49  N   UNL     1      17.380  12.511   0.835  1.00  0.00    -0.248 NA
ATOM     50  C   UNL     1      16.688  10.978  -0.785  1.00  0.00     0.031 C 
ATOM     51  C   UNL     1      13.461  14.632   0.424  1.00  0.00     0.029 A 
ATOM     52  N   UNL     1      15.440  14.619   1.468  1.00  0.00    -0.354 N 
ATOM     53  C   UNL     1      18.398  11.595   0.604  1.00  0.00     0.074 A 
ATOM     54  C   UNL     1      17.905  10.651  -0.376  1.00  0.00     0.031 C 
ATOM     55  C   UNL     1      13.491  15.691   1.252  1.00  0.00     0.029 A 
ATOM     56  C   UNL     1      14.762  15.701   1.972  1.00  0.00     0.049 A 
ATOM     57  H   UNL     1      16.354  14.379   1.744  1.00  0.00     0.167 HD
ATOM     58  C   UNL     1      19.637  11.549   1.149  1.00  0.00     0.037 A 
ATOM     59  C   UNL     1      15.125  16.590   2.917  1.00  0.00     0.037 A 
ATOM     60  C   UNL     1      20.130  12.485   2.124  1.00  0.00     0.049 A 
ATOM     61  C   UNL     1      16.484  16.478   3.557  1.00  0.00     0.074 A 
ATOM     62  C   UNL     1      21.372  12.524   2.733  1.00  0.00     0.029 A 
ATOM     63  N   UNL     1      19.401  13.549   2.633  1.00  0.00    -0.354 N 
ATOM     64  N   UNL     1      17.444  15.618   3.319  1.00  0.00    -0.248 NA
ATOM     65  C   UNL     1      16.810  17.468   4.595  1.00  0.00     0.031 C 
ATOM     66  C   UNL     1      21.380  13.588   3.642  1.00  0.00     0.029 A 
ATOM     67  C   UNL     1      20.160  14.239   3.563  1.00  0.00     0.049 A 
ATOM     68  H   UNL     1      18.480  13.778   2.373  1.00  0.00     0.167 HD
ATOM     69  C   UNL     1      18.497  15.982   4.149  1.00  0.00     0.074 A 
ATOM     70  C   UNL     1      18.061  17.146   4.891  1.00  0.00     0.031 C 
ATOM     71  C   UNL     1      19.717  15.405   4.283  1.00  0.00     0.037 A 
BRANCH  58  72
ATOM     72  C   UNL     1      20.541  10.434   0.711  1.00  0.00     0.057 A 
ATOM     73  C   UNL     1      21.123  10.413  -0.564  1.00  0.00     0.134 A 
ATOM     74  C   UNL     1      20.852   9.383   1.581  1.00  0.00     0.134 A 
ATOM     75  F   UNL     1      20.852  11.383  -1.450  1.00  0.00    -0.206 F 
ATOM     76  C   UNL     1      21.965   9.374  -0.964  1.00  0.00     0.040 A 
ATOM     77  C   UNL     1      21.713   8.351   1.202  1.00  0.00     0.040 A 
ATOM     78  F   UNL     1      20.331   9.344   2.817  1.00  0.00    -0.206 F 
ATOM     79  C   UNL     1      22.267   8.343  -0.077  1.00  0.00     0.006 A 
ENDBRANCH  58  72
BRANCH  59  80
ATOM     80  C   UNL     1      14.190  17.669   3.323  1.00  0.00     0.057 A 
ATOM     81  C   UNL     1      14.451  19.009   3.015  1.00  0.00     0.134 A 
ATOM     82  C   UNL     1      13.029  17.389   4.053  1.00  0.00     0.134 A 
ATOM     83  F   UNL     1      15.560  19.342   2.338  1.00  0.00    -0.206 F 
ATOM     84  C   UNL     1      13.602  20.034   3.434  1.00  0.00     0.040 A 
ATOM     85  C   UNL     1      12.159  18.401   4.458  1.00  0.00     0.040 A 
ATOM     86  F   UNL     1      12.723  16.125   4.380  1.00  0.00    -0.206 F 
ATOM     87  C   UNL     1      12.449  19.730   4.156  1.00  0.00     0.006 A 
ENDBRANCH  59  80
BRANCH  71  88
ATOM     88  C   UNL     1      20.683  16.052   5.232  1.00  0.00     0.057 A 
ATOM     89  C   UNL     1      20.528  15.968   6.621  1.00  0.00     0.134 A 
ATOM     90  C   UNL     1      21.803  16.741   4.747  1.00  0.00     0.134 A 
ATOM     91  F   UNL     1      19.470  15.334   7.150  1.00  0.00    -0.206 F 
ATOM     92  C   UNL     1      21.438  16.567   7.494  1.00  0.00     0.040 A 
ATOM     93  C   UNL     1      22.733  17.321   5.609  1.00  0.00     0.040 A 
ATOM     94  F   UNL     1      22.016  16.850   3.427  1.00  0.00    -0.206 F 
ATOM     95  C   UNL     1      22.549  17.241   6.988  1.00  0.00     0.006 A 
ENDBRANCH  71  88
ENDBRANCH  45  46
ENDBRANCH  38  40
ENDBRANCH  37  38
ENDBRANCH  36  37
ENDBRANCH  35  36
ENDBRANCH  34  35
ENDBRANCH   1  34
TORSDOF 18
