REMARK SMILES C[C@H]1SC[C@H](C(=O)OCCOCCOC(=O)c2ccc(-c3c4nc(c(-c5c(F)cccc5F)c5ccc([nH]5)c(-c5c(F)cccc5F)c5nc(c(-c6c(F)cccc6F)c6ccc3[nH]6)C=C5)C=C4)cc2)N1C(=O)[C@@H]1CSc2ccccc21
REMARK SMILES IDX 11 1 10 2 9 3 8 4 6 5 7 6 5 7 1 8 2 9 3 10 71 11 4 12 72 13
REMARK SMILES IDX 73 14 74 15 75 16 82 17 76 18 77 19 81 20 78 21 80 22 79 23
REMARK SMILES IDX 12 24 13 25 14 26 15 27 16 28 17 29 18 30 70 31 19 32 69 33
REMARK SMILES IDX 20 34 21 35 22 36 63 37 23 38 68 39 62 40 64 41 24 42 67 43
REMARK SMILES IDX 61 44 60 45 25 47 51 48 34 49 50 50 35 51 38 52 49 53 65 54
REMARK SMILES IDX 36 55 37 56 48 58 66 59 39 60 26 61 27 62 32 63 28 64 29 65
REMARK SMILES IDX 31 66 33 67 30 68 52 69 53 70 58 71 54 72 55 73 57 74 59 75
REMARK SMILES IDX 56 76 40 77 41 78 46 79 42 80 43 81 45 82 47 83 44 84
REMARK H PARENT 64 46 38 57
REMARK Flexibility Score: inf
ROOT
ATOM      1  O   UNL     1       2.349  -1.500  10.041  1.00  0.00    -0.374 OA
ENDROOT
BRANCH   1   2
ATOM      2  C   UNL     1       1.108  -1.394   9.341  1.00  0.00     0.202 C 
BRANCH   2   3
ATOM      3  C   UNL     1       1.086  -0.500   8.095  1.00  0.00     0.261 C 
BRANCH   3   4
ATOM      4  O   UNL     1       1.748  -1.120   6.976  1.00  0.00    -0.462 OA
BRANCH   4   5
ATOM      5  C   UNL     1       2.997  -0.646   6.714  1.00  0.00     0.329 C 
ATOM      6  O   UNL     1       3.571   0.217   7.370  1.00  0.00    -0.250 OA
BRANCH   5   7
ATOM      7  C   UNL     1       3.711  -1.431   5.607  1.00  0.00     0.206 C 
ATOM      8  C   UNL     1       5.359  -1.853   3.018  1.00  0.00     0.043 C 
ATOM      9  C   UNL     1       3.969  -2.369   3.407  1.00  0.00     0.141 C 
ATOM     10  S   UNL     1       4.204  -3.819   4.477  1.00  0.00    -0.135 SA
ATOM     11  N   UNL     1       3.224  -1.411   4.222  1.00  0.00    -0.316 N 
ATOM     12  C   UNL     1       3.767  -2.920   5.987  1.00  0.00     0.109 C 
BRANCH  11  13
ATOM     13  C   UNL     1       2.385  -0.408   3.777  1.00  0.00     0.232 C 
ATOM     14  O   UNL     1       2.107   0.549   4.507  1.00  0.00    -0.274 OA
BRANCH  13  15
ATOM     15  C   UNL     1       1.698  -0.487   2.410  1.00  0.00     0.120 C 
ATOM     16  C   UNL     1       0.833  -1.750   2.263  1.00  0.00     0.093 C 
ATOM     17  C   UNL     1       2.640  -0.382   1.246  1.00  0.00    -0.021 A 
ATOM     18  S   UNL     1       1.292  -2.596   0.712  1.00  0.00    -0.125 SA
ATOM     19  C   UNL     1       2.575  -1.440   0.340  1.00  0.00     0.011 A 
ATOM     20  C   UNL     1       3.550   0.656   1.056  1.00  0.00     0.006 A 
ATOM     21  C   UNL     1       3.488  -1.540  -0.698  1.00  0.00     0.015 A 
ATOM     22  C   UNL     1       4.458   0.573   0.002  1.00  0.00     0.000 A 
ATOM     23  C   UNL     1       4.443  -0.533  -0.856  1.00  0.00     0.001 A 
ENDBRANCH  13  15
ENDBRANCH  11  13
ENDBRANCH   5   7
ENDBRANCH   4   5
ENDBRANCH   3   4
ENDBRANCH   2   3
ENDBRANCH   1   2
BRANCH   1  24
ATOM     24  C   UNL     1       3.325  -2.391   9.508  1.00  0.00     0.202 C 
BRANCH  24  25
ATOM     25  C   UNL     1       3.163  -3.876   9.848  1.00  0.00     0.261 C 
BRANCH  25  26
ATOM     26  O   UNL     1       1.928  -4.410   9.339  1.00  0.00    -0.460 OA
BRANCH  26  27
ATOM     27  C   UNL     1       0.995  -4.646  10.290  1.00  0.00     0.338 C 
ATOM     28  O   UNL     1       1.136  -4.559  11.504  1.00  0.00    -0.246 OA
BRANCH  27  29
ATOM     29  C   UNL     1      -0.324  -4.868   9.675  1.00  0.00     0.060 A 
ATOM     30  C   UNL     1      -1.390  -4.099  10.159  1.00  0.00     0.016 A 
ATOM     31  C   UNL     1      -0.541  -5.861   8.716  1.00  0.00     0.016 A 
ATOM     32  C   UNL     1      -2.689  -4.365   9.738  1.00  0.00     0.010 A 
ATOM     33  C   UNL     1      -1.849  -6.133   8.301  1.00  0.00     0.010 A 
ATOM     34  C   UNL     1      -2.931  -5.416   8.845  1.00  0.00    -0.014 A 
BRANCH  34  35
ATOM     35  C   UNL     1      -4.327  -5.865   8.624  1.00  0.00     0.031 A 
ATOM     36  C   UNL     1      -4.840  -7.047   9.402  1.00  0.00     0.074 A 
ATOM     37  C   UNL     1      -5.143  -5.199   7.788  1.00  0.00     0.049 A 
ATOM     38  N   UNL     1      -6.020  -7.612   9.372  1.00  0.00    -0.248 NA
ATOM     39  C   UNL     1      -3.896  -7.675  10.341  1.00  0.00     0.031 C 
ATOM     40  C   UNL     1      -4.778  -4.012   7.018  1.00  0.00     0.029 A 
ATOM     41  N   UNL     1      -6.452  -5.432   7.452  1.00  0.00    -0.354 N 
ATOM     42  C   UNL     1      -5.957  -8.664  10.277  1.00  0.00     0.074 A 
ATOM     43  C   UNL     1      -4.618  -8.676  10.823  1.00  0.00     0.031 C 
ATOM     44  C   UNL     1      -5.841  -3.621   6.293  1.00  0.00     0.029 A 
ATOM     45  C   UNL     1      -6.948  -4.546   6.528  1.00  0.00     0.049 A 
ATOM     46  H   UNL     1      -6.986  -6.164   7.837  1.00  0.00     0.167 HD
ATOM     47  C   UNL     1      -6.931  -9.537  10.627  1.00  0.00     0.037 A 
ATOM     48  C   UNL     1      -8.154  -4.500   5.930  1.00  0.00     0.037 A 
ATOM     49  C   UNL     1      -8.267  -9.516  10.095  1.00  0.00     0.049 A 
ATOM     50  C   UNL     1      -9.197  -5.527   6.286  1.00  0.00     0.074 A 
ATOM     51  C   UNL     1      -9.335 -10.338  10.414  1.00  0.00     0.029 A 
ATOM     52  N   UNL     1      -8.717  -8.632   9.128  1.00  0.00    -0.354 N 
ATOM     53  N   UNL     1      -9.137  -6.497   7.166  1.00  0.00    -0.248 NA
ATOM     54  C   UNL     1     -10.476  -5.451   5.564  1.00  0.00     0.031 C 
ATOM     55  C   UNL     1     -10.417  -9.981   9.604  1.00  0.00     0.029 A 
ATOM     56  C   UNL     1     -10.038  -8.906   8.816  1.00  0.00     0.049 A 
ATOM     57  H   UNL     1      -8.178  -7.914   8.723  1.00  0.00     0.167 HD
ATOM     58  C   UNL     1     -10.377  -7.125   7.126  1.00  0.00     0.074 A 
ATOM     59  C   UNL     1     -11.171  -6.420   6.142  1.00  0.00     0.031 C 
ATOM     60  C   UNL     1     -10.819  -8.188   7.842  1.00  0.00     0.037 A 
BRANCH  47  61
ATOM     61  C   UNL     1      -6.579 -10.608  11.617  1.00  0.00     0.057 A 
ATOM     62  C   UNL     1      -6.401 -10.332  12.978  1.00  0.00     0.134 A 
ATOM     63  C   UNL     1      -6.458 -11.941  11.205  1.00  0.00     0.134 A 
ATOM     64  F   UNL     1      -6.490  -9.073  13.433  1.00  0.00    -0.206 F 
ATOM     65  C   UNL     1      -6.098 -11.342  13.893  1.00  0.00     0.040 A 
ATOM     66  C   UNL     1      -6.178 -12.963  12.114  1.00  0.00     0.040 A 
ATOM     67  F   UNL     1      -6.619 -12.273   9.915  1.00  0.00    -0.206 F 
ATOM     68  C   UNL     1      -5.994 -12.663  13.462  1.00  0.00     0.006 A 
ENDBRANCH  47  61
BRANCH  48  69
ATOM     69  C   UNL     1      -8.448  -3.452   4.921  1.00  0.00     0.057 A 
ATOM     70  C   UNL     1      -9.378  -2.438   5.178  1.00  0.00     0.134 A 
ATOM     71  C   UNL     1      -7.833  -3.460   3.663  1.00  0.00     0.134 A 
ATOM     72  F   UNL     1     -10.018  -2.392   6.355  1.00  0.00    -0.206 F 
ATOM     73  C   UNL     1      -9.700  -1.481   4.214  1.00  0.00     0.040 A 
ATOM     74  C   UNL     1      -8.128  -2.495   2.699  1.00  0.00     0.040 A 
ATOM     75  F   UNL     1      -6.934  -4.407   3.354  1.00  0.00    -0.206 F 
ATOM     76  C   UNL     1      -9.071  -1.506   2.971  1.00  0.00     0.006 A 
ENDBRANCH  48  69
BRANCH  60  77
ATOM     77  C   UNL     1     -12.235  -8.628   7.619  1.00  0.00     0.057 A 
ATOM     78  C   UNL     1     -12.626  -9.300   6.454  1.00  0.00     0.134 A 
ATOM     79  C   UNL     1     -13.211  -8.413   8.601  1.00  0.00     0.134 A 
ATOM     80  F   UNL     1     -11.743  -9.526   5.470  1.00  0.00    -0.206 F 
ATOM     81  C   UNL     1     -13.943  -9.724   6.265  1.00  0.00     0.040 A 
ATOM     82  C   UNL     1     -14.524  -8.854   8.434  1.00  0.00     0.040 A 
ATOM     83  F   UNL     1     -12.900  -7.783   9.744  1.00  0.00    -0.206 F 
ATOM     84  C   UNL     1     -14.894  -9.508   7.261  1.00  0.00     0.006 A 
ENDBRANCH  60  77
ENDBRANCH  34  35
ENDBRANCH  27  29
ENDBRANCH  26  27
ENDBRANCH  25  26
ENDBRANCH  24  25
ENDBRANCH   1  24
TORSDOF 16
