REMARK SMILES C[C@@H](Oc1ccc(/C=N/NC(=O)c2ccc(I)c(O)c2)cc1)C(=O)OCCOCCOC(=O)c1ccc(-c2c3nc(c(-c4c(F)cccc4F)c4ccc([nH]4)c(-c4c(F)cccc4F)c4nc(c(-c5c(F)cccc5F)c5ccc2[nH]5)C=C4)C=C3)cc1
REMARK SMILES IDX 26 1 25 2 23 3 24 4 2 5 1 6 3 7 4 8 5 9 22 10 6 11 21 12
REMARK SMILES IDX 7 13 8 14 9 15 10 16 11 17 12 19 13 20 14 21 20 22 15 23
REMARK SMILES IDX 18 24 16 25 17 26 19 27 27 29 28 30 29 31 30 32 31 33 32 34
REMARK SMILES IDX 33 35 34 36 35 37 87 38 36 39 86 40 37 41 38 42 39 43 80 44
REMARK SMILES IDX 40 45 85 46 79 47 81 48 41 49 84 50 78 51 77 52 42 54 68 55
REMARK SMILES IDX 51 56 67 57 52 58 55 59 66 60 82 61 53 62 54 63 65 65 83 66
REMARK SMILES IDX 56 67 43 68 44 69 49 70 45 71 46 72 48 73 50 74 47 75 69 76
REMARK SMILES IDX 70 77 75 78 71 79 72 80 74 81 76 82 73 83 57 84 58 85 63 86
REMARK SMILES IDX 59 87 60 88 62 89 64 90 61 91
REMARK H PARENT 10 18 19 28 81 53 55 64
REMARK Flexibility Score: inf
ROOT
ATOM      1  C   UNL     1      -3.084  -1.995  -0.305  1.00  0.00     0.261 C 
ENDROOT
BRANCH   1   2
ATOM      2  O   UNL     1      -1.726  -1.645   0.025  1.00  0.00    -0.461 OA
BRANCH   2   3
ATOM      3  C   UNL     1      -0.750  -2.229  -0.726  1.00  0.00     0.347 C 
ATOM      4  O   UNL     1      -0.947  -3.066  -1.600  1.00  0.00    -0.248 OA
BRANCH   3   5
ATOM      5  C   UNL     1       0.643  -1.719  -0.362  1.00  0.00     0.279 C 
ATOM      6  C   UNL     1       0.654  -0.241   0.028  1.00  0.00     0.066 C 
BRANCH   5   7
ATOM      7  O   UNL     1       1.130  -2.538   0.714  1.00  0.00    -0.479 OA
BRANCH   7   8
ATOM      8  C   UNL     1       2.463  -2.802   0.566  1.00  0.00     0.120 A 
ATOM      9  C   UNL     1       2.862  -4.096   0.232  1.00  0.00     0.047 A 
ATOM     10  C   UNL     1       3.407  -1.803   0.791  1.00  0.00     0.047 A 
ATOM     11  C   UNL     1       4.222  -4.384   0.085  1.00  0.00     0.013 A 
ATOM     12  C   UNL     1       4.752  -2.064   0.574  1.00  0.00     0.013 A 
ATOM     13  C   UNL     1       5.153  -3.357   0.239  1.00  0.00    -0.005 A 
BRANCH  13  14
ATOM     14  C   UNL     1       6.597  -3.593   0.154  1.00  0.00     0.141 C 
ATOM     15  N   UNL     1       7.154  -4.546   0.829  1.00  0.00    -0.180 NA
BRANCH  15  16
ATOM     16  N   UNL     1       8.520  -4.564   0.864  1.00  0.00    -0.243 N 
ATOM     17  C   UNL     1       9.406  -3.521   1.097  1.00  0.00     0.271 C 
ATOM     18  H   UNL     1       8.935  -5.441   0.701  1.00  0.00     0.194 HD
ATOM     19  O   UNL     1      10.620  -3.699   1.008  1.00  0.00    -0.267 OA
BRANCH  17  20
ATOM     20  C   UNL     1       8.915  -2.169   1.460  1.00  0.00     0.045 A 
ATOM     21  C   UNL     1       9.464  -1.067   0.792  1.00  0.00     0.015 A 
ATOM     22  C   UNL     1       7.923  -1.979   2.430  1.00  0.00     0.061 A 
ATOM     23  C   UNL     1       8.975   0.217   1.041  1.00  0.00     0.019 A 
ATOM     24  C   UNL     1       7.426  -0.695   2.664  1.00  0.00     0.129 A 
ATOM     25  C   UNL     1       7.943   0.403   1.966  1.00  0.00     0.055 A 
ATOM     26  I   UNL     1       7.189   2.335   2.227  1.00  0.00    -0.040 I 
BRANCH  24  27
ATOM     27  O   UNL     1       6.391  -0.524   3.542  1.00  0.00    -0.507 OA
ATOM     28  H   UNL     1       6.051   0.334   3.705  1.00  0.00     0.293 HD
ENDBRANCH  24  27
ENDBRANCH  17  20
ENDBRANCH  15  16
ENDBRANCH  13  14
ENDBRANCH   7   8
ENDBRANCH   5   7
ENDBRANCH   3   5
ENDBRANCH   2   3
ENDBRANCH   1   2
BRANCH   1  29
ATOM     29  C   UNL     1      -3.926  -0.737  -0.537  1.00  0.00     0.202 C 
BRANCH  29  30
ATOM     30  O   UNL     1      -3.721  -0.062  -1.780  1.00  0.00    -0.374 OA
BRANCH  30  31
ATOM     31  C   UNL     1      -2.495   0.643  -1.948  1.00  0.00     0.202 C 
BRANCH  31  32
ATOM     32  C   UNL     1      -2.403   2.017  -1.268  1.00  0.00     0.261 C 
BRANCH  32  33
ATOM     33  O   UNL     1      -2.562   1.944   0.160  1.00  0.00    -0.460 OA
BRANCH  33  34
ATOM     34  C   UNL     1      -3.696   2.522   0.628  1.00  0.00     0.338 C 
ATOM     35  O   UNL     1      -4.521   3.159  -0.012  1.00  0.00    -0.246 OA
BRANCH  34  36
ATOM     36  C   UNL     1      -3.927   2.151   2.035  1.00  0.00     0.060 A 
ATOM     37  C   UNL     1      -5.146   1.533   2.343  1.00  0.00     0.016 A 
ATOM     38  C   UNL     1      -3.030   2.494   3.049  1.00  0.00     0.016 A 
ATOM     39  C   UNL     1      -5.496   1.301   3.671  1.00  0.00     0.010 A 
ATOM     40  C   UNL     1      -3.388   2.268   4.384  1.00  0.00     0.010 A 
ATOM     41  C   UNL     1      -4.638   1.706   4.702  1.00  0.00    -0.014 A 
BRANCH  41  42
ATOM     42  C   UNL     1      -5.127   1.673   6.103  1.00  0.00     0.031 A 
ATOM     43  C   UNL     1      -5.666   2.934   6.721  1.00  0.00     0.074 A 
ATOM     44  C   UNL     1      -5.143   0.524   6.801  1.00  0.00     0.049 A 
ATOM     45  N   UNL     1      -6.152   3.130   7.920  1.00  0.00    -0.248 NA
ATOM     46  C   UNL     1      -5.660   4.135   5.870  1.00  0.00     0.031 C 
ATOM     47  C   UNL     1      -4.686  -0.773   6.305  1.00  0.00     0.029 A 
ATOM     48  N   UNL     1      -5.563   0.267   8.082  1.00  0.00    -0.354 N 
ATOM     49  C   UNL     1      -6.506   4.472   7.970  1.00  0.00     0.074 A 
ATOM     50  C   UNL     1      -6.154   5.051   6.691  1.00  0.00     0.031 C 
ATOM     51  C   UNL     1      -4.846  -1.690   7.275  1.00  0.00     0.029 A 
ATOM     52  C   UNL     1      -5.392  -1.040   8.465  1.00  0.00     0.049 A 
ATOM     53  H   UNL     1      -5.951   0.954   8.671  1.00  0.00     0.167 HD
ATOM     54  C   UNL     1      -7.083   5.159   8.985  1.00  0.00     0.037 A 
ATOM     55  C   UNL     1      -5.634  -1.640   9.647  1.00  0.00     0.037 A 
ATOM     56  C   UNL     1      -7.439   4.587  10.256  1.00  0.00     0.049 A 
ATOM     57  C   UNL     1      -6.214  -0.840  10.783  1.00  0.00     0.074 A 
ATOM     58  C   UNL     1      -8.047   5.200  11.338  1.00  0.00     0.029 A 
ATOM     59  N   UNL     1      -7.213   3.268  10.618  1.00  0.00    -0.354 N 
ATOM     60  N   UNL     1      -6.568   0.422  10.809  1.00  0.00    -0.248 NA
ATOM     61  C   UNL     1      -6.430  -1.550  12.052  1.00  0.00     0.031 C 
ATOM     62  C   UNL     1      -8.149   4.263  12.372  1.00  0.00     0.029 A 
ATOM     63  C   UNL     1      -7.646   3.055  11.917  1.00  0.00     0.049 A 
ATOM     64  H   UNL     1      -6.806   2.585  10.039  1.00  0.00     0.167 HD
ATOM     65  C   UNL     1      -7.071   0.650  12.084  1.00  0.00     0.074 A 
ATOM     66  C   UNL     1      -6.986  -0.606  12.799  1.00  0.00     0.031 C 
ATOM     67  C   UNL     1      -7.561   1.798  12.615  1.00  0.00     0.037 A 
BRANCH  54  68
ATOM     68  C   UNL     1      -7.346   6.619   8.766  1.00  0.00     0.057 A 
ATOM     69  C   UNL     1      -8.377   7.068   7.930  1.00  0.00     0.134 A 
ATOM     70  C   UNL     1      -6.579   7.588   9.425  1.00  0.00     0.134 A 
ATOM     71  F   UNL     1      -9.138   6.190   7.260  1.00  0.00    -0.206 F 
ATOM     72  C   UNL     1      -8.622   8.429   7.742  1.00  0.00     0.040 A 
ATOM     73  C   UNL     1      -6.829   8.951   9.263  1.00  0.00     0.040 A 
ATOM     74  F   UNL     1      -5.579   7.225  10.243  1.00  0.00    -0.206 F 
ATOM     75  C   UNL     1      -7.851   9.375   8.415  1.00  0.00     0.006 A 
ENDBRANCH  54  68
BRANCH  55  76
ATOM     76  C   UNL     1      -5.316  -3.079   9.826  1.00  0.00     0.057 A 
ATOM     77  C   UNL     1      -6.328  -4.035   9.963  1.00  0.00     0.134 A 
ATOM     78  C   UNL     1      -3.991  -3.527   9.886  1.00  0.00     0.134 A 
ATOM     79  F   UNL     1      -7.616  -3.663   9.939  1.00  0.00    -0.206 F 
ATOM     80  C   UNL     1      -6.035  -5.385  10.165  1.00  0.00     0.040 A 
ATOM     81  C   UNL     1      -3.683  -4.876  10.065  1.00  0.00     0.040 A 
ATOM     82  F   UNL     1      -2.976  -2.658   9.764  1.00  0.00    -0.206 F 
ATOM     83  C   UNL     1      -4.708  -5.809  10.212  1.00  0.00     0.006 A 
ENDBRANCH  55  76
BRANCH  67  84
ATOM     84  C   UNL     1      -8.070   1.743  14.025  1.00  0.00     0.057 A 
ATOM     85  C   UNL     1      -7.203   1.662  15.121  1.00  0.00     0.134 A 
ATOM     86  C   UNL     1      -9.444   1.815  14.290  1.00  0.00     0.134 A 
ATOM     87  F   UNL     1      -5.877   1.578  14.934  1.00  0.00    -0.206 F 
ATOM     88  C   UNL     1      -7.685   1.635  16.431  1.00  0.00     0.040 A 
ATOM     89  C   UNL     1      -9.936   1.812  15.596  1.00  0.00     0.040 A 
ATOM     90  F   UNL     1     -10.328   1.903  13.285  1.00  0.00    -0.206 F 
ATOM     91  C   UNL     1      -9.055   1.717  16.671  1.00  0.00     0.006 A 
ENDBRANCH  67  84
ENDBRANCH  41  42
ENDBRANCH  34  36
ENDBRANCH  33  34
ENDBRANCH  32  33
ENDBRANCH  31  32
ENDBRANCH  30  31
ENDBRANCH  29  30
ENDBRANCH   1  29
TORSDOF 20
