REMARK SMILES C[C@@H]1CCC[C@H](C)[N@H+]1Cc1cc2c(cc1Cl)C=C(C(=O)OCCOCCOC(=O)c1ccc(-c3c4nc(c(-c5c(F)cccc5F)c5ccc([nH]5)c(-c5c(F)cccc5F)c5nc(c(-c6c(F)cccc6F)c6ccc3[nH]6)C=C5)C=C4)cc1)[C@@H](C(F)(F)F)O2
REMARK SMILES IDX 24 1 23 2 22 3 21 4 19 5 20 6 18 7 10 8 11 9 15 10 12 11
REMARK SMILES IDX 14 12 16 13 13 14 89 15 17 16 84 17 9 18 8 19 7 20 6 21 5 22
REMARK SMILES IDX 4 23 2 24 3 26 1 27 85 28 86 29 87 30 88 31 25 32 26 33
REMARK SMILES IDX 27 34 28 35 29 36 30 37 31 38 83 39 32 40 82 41 33 42 34 43
REMARK SMILES IDX 35 44 76 45 36 46 81 47 75 48 77 49 37 50 80 51 74 52 73 53
REMARK SMILES IDX 38 55 64 56 47 57 63 58 48 59 51 60 62 61 78 62 49 63 50 64
REMARK SMILES IDX 61 66 79 67 52 68 39 69 40 70 45 71 41 72 42 73 44 74 46 75
REMARK SMILES IDX 43 76 65 77 66 78 71 79 67 80 68 81 70 82 72 83 69 84 53 85
REMARK SMILES IDX 54 86 59 87 55 88 56 89 58 90 60 91 57 92
REMARK H PARENT 8 25 77 54 51 65
REMARK Flexibility Score: inf
ROOT
ATOM      1  O   UNL     1      -9.051   1.682   3.878  1.00  0.00    -0.374 OA
ENDROOT
BRANCH   1   2
ATOM      2  C   UNL     1      -9.262   1.834   5.277  1.00  0.00     0.202 C 
BRANCH   2   3
ATOM      3  C   UNL     1      -8.744   0.735   6.210  1.00  0.00     0.261 C 
BRANCH   3   4
ATOM      4  O   UNL     1      -7.353   0.446   6.006  1.00  0.00    -0.460 OA
BRANCH   4   5
ATOM      5  C   UNL     1      -7.137  -0.741   5.394  1.00  0.00     0.338 C 
ATOM      6  O   UNL     1      -7.988  -1.571   5.109  1.00  0.00    -0.246 OA
BRANCH   5   7
ATOM      7  C   UNL     1      -5.723  -0.893   5.012  1.00  0.00     0.087 C 
ATOM      8  C   UNL     1      -1.548  -2.651   2.839  1.00  0.00     0.029 A 
ATOM      9  C   UNL     1      -1.795  -1.674   3.832  1.00  0.00     0.058 A 
ATOM     10  C   UNL     1      -2.632  -3.428   2.399  1.00  0.00     0.050 A 
ATOM     11  C   UNL     1      -3.100  -1.382   4.241  1.00  0.00     0.128 A 
ATOM     12  C   UNL     1      -3.935  -3.071   2.735  1.00  0.00     0.033 A 
ATOM     13  Cl  UNL     1      -2.457  -4.855   1.440  1.00  0.00    -0.084 Cl
ATOM     14  C   UNL     1      -4.167  -2.026   3.622  1.00  0.00     0.019 A 
ATOM     15  O   UNL     1      -3.281  -0.420   5.200  1.00  0.00    -0.475 OA
ATOM     16  C   UNL     1      -5.527  -1.643   3.922  1.00  0.00     0.027 C 
ATOM     17  C   UNL     1      -4.596  -0.354   5.848  1.00  0.00     0.316 C 
BRANCH   8  18
ATOM     18  C   UNL     1      -0.162  -2.773   2.228  1.00  0.00     0.301 C 
BRANCH  18  19
ATOM     19  N   UNL     1       0.122  -1.951   1.022  1.00  0.00    -0.327 N 
ATOM     20  C   UNL     1       1.392   0.093   0.415  1.00  0.00     0.075 C 
ATOM     21  C   UNL     1       0.271  -0.510   1.277  1.00  0.00     0.181 C 
ATOM     22  C   UNL     1      -1.027   0.294   1.109  1.00  0.00     0.065 C 
ATOM     23  C   UNL     1      -1.761  -0.013  -0.187  1.00  0.00     0.012 C 
ATOM     24  C   UNL     1      -0.653  -2.322  -0.178  1.00  0.00     0.181 C 
ATOM     25  H   UNL     1       1.069  -2.223   0.758  1.00  0.00     0.348 HD
ATOM     26  C   UNL     1      -1.947  -1.512  -0.378  1.00  0.00     0.065 C 
ATOM     27  C   UNL     1       0.190  -2.298  -1.463  1.00  0.00     0.075 C 
ENDBRANCH  18  19
ENDBRANCH   8  18
BRANCH  17  28
ATOM     28  C   UNL     1      -4.553  -1.036   7.223  1.00  0.00     0.430 C 
ATOM     29  F   UNL     1      -3.506  -0.602   7.962  1.00  0.00    -0.167 F 
ATOM     30  F   UNL     1      -5.672  -0.769   7.939  1.00  0.00    -0.167 F 
ATOM     31  F   UNL     1      -4.452  -2.381   7.123  1.00  0.00    -0.167 F 
ENDBRANCH  17  28
ENDBRANCH   5   7
ENDBRANCH   4   5
ENDBRANCH   3   4
ENDBRANCH   2   3
ENDBRANCH   1   2
BRANCH   1  32
ATOM     32  C   UNL     1      -7.744   1.904   3.351  1.00  0.00     0.202 C 
BRANCH  32  33
ATOM     33  C   UNL     1      -7.188   3.335   3.350  1.00  0.00     0.261 C 
BRANCH  33  34
ATOM     34  O   UNL     1      -6.984   3.858   4.673  1.00  0.00    -0.460 OA
BRANCH  34  35
ATOM     35  C   UNL     1      -7.839   4.847   5.037  1.00  0.00     0.338 C 
ATOM     36  O   UNL     1      -8.724   5.350   4.362  1.00  0.00    -0.246 OA
BRANCH  35  37
ATOM     37  C   UNL     1      -7.687   5.102   6.481  1.00  0.00     0.060 A 
ATOM     38  C   UNL     1      -6.445   5.426   7.024  1.00  0.00     0.016 A 
ATOM     39  C   UNL     1      -8.828   5.039   7.294  1.00  0.00     0.016 A 
ATOM     40  C   UNL     1      -6.351   5.707   8.388  1.00  0.00     0.010 A 
ATOM     41  C   UNL     1      -8.732   5.323   8.656  1.00  0.00     0.010 A 
ATOM     42  C   UNL     1      -7.494   5.677   9.210  1.00  0.00    -0.014 A 
BRANCH  42  43
ATOM     43  C   UNL     1      -7.394   6.137  10.617  1.00  0.00     0.031 A 
ATOM     44  C   UNL     1      -7.461   5.179  11.767  1.00  0.00     0.074 A 
ATOM     45  C   UNL     1      -7.228   7.453  10.846  1.00  0.00     0.049 A 
ATOM     46  N   UNL     1      -7.258   5.408  13.040  1.00  0.00    -0.248 NA
ATOM     47  C   UNL     1      -7.809   3.788  11.450  1.00  0.00     0.031 C 
ATOM     48  C   UNL     1      -7.208   8.489   9.812  1.00  0.00     0.029 A 
ATOM     49  N   UNL     1      -7.030   8.141  12.015  1.00  0.00    -0.354 N 
ATOM     50  C   UNL     1      -7.420   4.186  13.677  1.00  0.00     0.074 A 
ATOM     51  C   UNL     1      -7.808   3.233  12.655  1.00  0.00     0.031 C 
ATOM     52  C   UNL     1      -6.969   9.677  10.389  1.00  0.00     0.029 A 
ATOM     53  C   UNL     1      -6.846   9.489  11.830  1.00  0.00     0.049 A 
ATOM     54  H   UNL     1      -7.020   7.710  12.900  1.00  0.00     0.167 HD
ATOM     55  C   UNL     1      -7.239   3.881  14.986  1.00  0.00     0.037 A 
ATOM     56  C   UNL     1      -6.599  10.464  12.723  1.00  0.00     0.037 A 
ATOM     57  C   UNL     1      -6.900   4.843  16.007  1.00  0.00     0.049 A 
ATOM     58  C   UNL     1      -6.451  10.108  14.176  1.00  0.00     0.074 A 
ATOM     59  C   UNL     1      -6.679   4.632  17.358  1.00  0.00     0.029 A 
ATOM     60  N   UNL     1      -6.757   6.208  15.793  1.00  0.00    -0.354 N 
ATOM     61  N   UNL     1      -6.516   8.933  14.753  1.00  0.00    -0.248 NA
ATOM     62  C   UNL     1      -6.180  11.218  15.099  1.00  0.00     0.031 C 
ATOM     63  C   UNL     1      -6.458   5.873  17.968  1.00  0.00     0.029 A 
ATOM     64  C   UNL     1      -6.478   6.853  16.989  1.00  0.00     0.049 A 
ATOM     65  H   UNL     1      -6.841   6.653  14.919  1.00  0.00     0.167 HD
ATOM     66  C   UNL     1      -6.271   9.158  16.102  1.00  0.00     0.074 A 
ATOM     67  C   UNL     1      -6.026  10.579  16.248  1.00  0.00     0.031 C 
ATOM     68  C   UNL     1      -6.253   8.271  17.129  1.00  0.00     0.037 A 
BRANCH  55  69
ATOM     69  C   UNL     1      -7.413   2.441  15.382  1.00  0.00     0.057 A 
ATOM     70  C   UNL     1      -8.471   2.038  16.205  1.00  0.00     0.134 A 
ATOM     71  C   UNL     1      -6.520   1.448  14.952  1.00  0.00     0.134 A 
ATOM     72  F   UNL     1      -9.357   2.935  16.665  1.00  0.00    -0.206 F 
ATOM     73  C   UNL     1      -8.642   0.703  16.577  1.00  0.00     0.040 A 
ATOM     74  C   UNL     1      -6.698   0.105  15.291  1.00  0.00     0.040 A 
ATOM     75  F   UNL     1      -5.486   1.761  14.156  1.00  0.00    -0.206 F 
ATOM     76  C   UNL     1      -7.761  -0.270  16.109  1.00  0.00     0.006 A 
ENDBRANCH  55  69
BRANCH  56  77
ATOM     77  C   UNL     1      -6.458  11.870  12.269  1.00  0.00     0.057 A 
ATOM     78  C   UNL     1      -7.555  12.584  11.772  1.00  0.00     0.134 A 
ATOM     79  C   UNL     1      -5.233  12.542  12.348  1.00  0.00     0.134 A 
ATOM     80  F   UNL     1      -8.754  11.994  11.661  1.00  0.00    -0.206 F 
ATOM     81  C   UNL     1      -7.439  13.915  11.370  1.00  0.00     0.040 A 
ATOM     82  C   UNL     1      -5.110  13.882  11.980  1.00  0.00     0.040 A 
ATOM     83  F   UNL     1      -4.149  11.916  12.830  1.00  0.00    -0.206 F 
ATOM     84  C   UNL     1      -6.216  14.572  11.486  1.00  0.00     0.006 A 
ENDBRANCH  56  77
BRANCH  68  85
ATOM     85  C   UNL     1      -5.932   8.821  18.492  1.00  0.00     0.057 A 
ATOM     86  C   UNL     1      -4.724   8.501  19.125  1.00  0.00     0.134 A 
ATOM     87  C   UNL     1      -6.803   9.687  19.170  1.00  0.00     0.134 A 
ATOM     88  F   UNL     1      -3.847   7.671  18.541  1.00  0.00    -0.206 F 
ATOM     89  C   UNL     1      -4.388   9.032  20.371  1.00  0.00     0.040 A 
ATOM     90  C   UNL     1      -6.462  10.252  20.401  1.00  0.00     0.040 A 
ATOM     91  F   UNL     1      -7.971  10.048  18.616  1.00  0.00    -0.206 F 
ATOM     92  C   UNL     1      -5.251   9.922  21.006  1.00  0.00     0.006 A 
ENDBRANCH  68  85
ENDBRANCH  42  43
ENDBRANCH  35  37
ENDBRANCH  34  35
ENDBRANCH  33  34
ENDBRANCH  32  33
ENDBRANCH   1  32
TORSDOF 17
