REMARK SMILES O=C(OCCOCCOC(=O)[C@@]12CN(CC3CC3)C(=O)[C@@H]1CN(c1nc3ccccc3o1)C2)c1ccc(-c2c3nc(c(-c4c(F)cccc4F)c4ccc([nH]4)c(-c4c(F)cccc4F)c4nc(c(-c5c(F)cccc5F)c5ccc2[nH]5)C=C4)C=C3)cc1
REMARK SMILES IDX 6 1 5 2 4 3 3 4 2 5 1 6 34 7 35 8 87 9 36 10 86 11 37 12
REMARK SMILES IDX 38 13 39 14 80 15 40 16 85 17 79 18 81 19 41 20 84 21 78 22
REMARK SMILES IDX 77 23 42 25 68 26 51 27 67 28 52 29 55 30 66 31 82 32 53 33
REMARK SMILES IDX 54 34 65 36 83 37 56 38 43 39 44 40 49 41 45 42 46 43 48 44
REMARK SMILES IDX 50 45 47 46 69 47 70 48 75 49 71 50 72 51 74 52 76 53 73 54
REMARK SMILES IDX 57 55 58 56 63 57 59 58 60 59 62 60 64 61 61 62 7 63 8 64
REMARK SMILES IDX 9 65 10 66 11 67 12 68 13 69 21 70 33 71 14 72 19 73 22 74
REMARK SMILES IDX 23 75 20 76 15 77 16 78 17 79 18 80 24 81 25 82 32 83 26 84
REMARK SMILES IDX 31 85 27 86 30 87 28 88 29 89
REMARK H PARENT 81 24 55 35
REMARK Flexibility Score: inf
ROOT
ATOM      1  O   UNL     1       3.912  -1.285   0.783  1.00  0.00    -0.374 OA
ENDROOT
BRANCH   1   2
ATOM      2  C   UNL     1       4.616  -0.148   0.302  1.00  0.00     0.202 C 
BRANCH   2   3
ATOM      3  C   UNL     1       3.896   1.020  -0.381  1.00  0.00     0.261 C 
BRANCH   3   4
ATOM      4  O   UNL     1       2.461   0.917  -0.475  1.00  0.00    -0.460 OA
BRANCH   4   5
ATOM      5  C   UNL     1       1.779   0.434  -1.548  1.00  0.00     0.338 C 
ATOM      6  O   UNL     1       0.587   0.655  -1.706  1.00  0.00    -0.246 OA
BRANCH   5   7
ATOM      7  C   UNL     1       2.510  -0.419  -2.505  1.00  0.00     0.060 A 
ATOM      8  C   UNL     1       3.319  -1.432  -2.026  1.00  0.00     0.016 A 
ATOM      9  C   UNL     1       2.364  -0.290  -3.878  1.00  0.00     0.016 A 
ATOM     10  C   UNL     1       4.231  -2.076  -2.804  1.00  0.00     0.010 A 
ATOM     11  C   UNL     1       3.079  -1.157  -4.712  1.00  0.00     0.010 A 
ATOM     12  C   UNL     1       4.027  -2.042  -4.163  1.00  0.00    -0.014 A 
BRANCH  12  13
ATOM     13  C   UNL     1       4.838  -2.980  -4.941  1.00  0.00     0.031 A 
ATOM     14  C   UNL     1       5.795  -2.409  -5.922  1.00  0.00     0.074 A 
ATOM     15  C   UNL     1       4.785  -4.298  -4.652  1.00  0.00     0.049 A 
ATOM     16  N   UNL     1       6.439  -3.011  -6.874  1.00  0.00    -0.248 NA
ATOM     17  C   UNL     1       6.053  -0.960  -5.826  1.00  0.00     0.031 C 
ATOM     18  C   UNL     1       4.000  -4.909  -3.565  1.00  0.00     0.029 A 
ATOM     19  N   UNL     1       5.422  -5.365  -5.219  1.00  0.00    -0.354 N 
ATOM     20  C   UNL     1       7.103  -2.005  -7.555  1.00  0.00     0.074 A 
ATOM     21  C   UNL     1       6.825  -0.758  -6.882  1.00  0.00     0.031 C 
ATOM     22  C   UNL     1       4.231  -6.228  -3.529  1.00  0.00     0.029 A 
ATOM     23  C   UNL     1       5.045  -6.573  -4.678  1.00  0.00     0.049 A 
ATOM     24  H   UNL     1       6.085  -5.279  -5.942  1.00  0.00     0.167 HD
ATOM     25  C   UNL     1       7.841  -2.144  -8.675  1.00  0.00     0.037 A 
ATOM     26  C   UNL     1       5.251  -7.820  -5.136  1.00  0.00     0.037 A 
ATOM     27  C   UNL     1       8.098  -3.426  -9.266  1.00  0.00     0.049 A 
ATOM     28  C   UNL     1       5.998  -7.936  -6.433  1.00  0.00     0.074 A 
ATOM     29  C   UNL     1       8.803  -3.725 -10.413  1.00  0.00     0.029 A 
ATOM     30  N   UNL     1       7.651  -4.632  -8.734  1.00  0.00    -0.354 N 
ATOM     31  N   UNL     1       6.557  -6.986  -7.147  1.00  0.00    -0.248 NA
ATOM     32  C   UNL     1       6.109  -9.276  -7.015  1.00  0.00     0.031 C 
ATOM     33  C   UNL     1       8.733  -5.109 -10.605  1.00  0.00     0.029 A 
ATOM     34  C   UNL     1       8.034  -5.678  -9.549  1.00  0.00     0.049 A 
ATOM     35  H   UNL     1       7.137  -4.725  -7.900  1.00  0.00     0.167 HD
ATOM     36  C   UNL     1       7.089  -7.609  -8.262  1.00  0.00     0.074 A 
ATOM     37  C   UNL     1       6.812  -9.026  -8.111  1.00  0.00     0.031 C 
ATOM     38  C   UNL     1       7.734  -7.071  -9.326  1.00  0.00     0.037 A 
BRANCH  25  39
ATOM     39  C   UNL     1       8.291  -0.894  -9.359  1.00  0.00     0.057 A 
ATOM     40  C   UNL     1       9.299  -0.068  -8.848  1.00  0.00     0.134 A 
ATOM     41  C   UNL     1       7.668  -0.494 -10.549  1.00  0.00     0.134 A 
ATOM     42  F   UNL     1       9.904  -0.370  -7.689  1.00  0.00    -0.206 F 
ATOM     43  C   UNL     1       9.664   1.117  -9.492  1.00  0.00     0.040 A 
ATOM     44  C   UNL     1       8.041   0.674 -11.214  1.00  0.00     0.040 A 
ATOM     45  F   UNL     1       6.677  -1.228 -11.078  1.00  0.00    -0.206 F 
ATOM     46  C   UNL     1       9.040   1.485 -10.682  1.00  0.00     0.006 A 
ENDBRANCH  25  39
BRANCH  26  47
ATOM     47  C   UNL     1       4.637  -8.999  -4.468  1.00  0.00     0.057 A 
ATOM     48  C   UNL     1       5.421 -10.036  -3.950  1.00  0.00     0.134 A 
ATOM     49  C   UNL     1       3.244  -9.142  -4.360  1.00  0.00     0.134 A 
ATOM     50  F   UNL     1       6.758  -9.974  -4.031  1.00  0.00    -0.206 F 
ATOM     51  C   UNL     1       4.849 -11.176  -3.380  1.00  0.00     0.040 A 
ATOM     52  C   UNL     1       2.659 -10.259  -3.761  1.00  0.00     0.040 A 
ATOM     53  F   UNL     1       2.424  -8.190  -4.830  1.00  0.00    -0.206 F 
ATOM     54  C   UNL     1       3.463 -11.288  -3.281  1.00  0.00     0.006 A 
ENDBRANCH  26  47
BRANCH  38  55
ATOM     55  C   UNL     1       8.197  -8.029 -10.375  1.00  0.00     0.057 A 
ATOM     56  C   UNL     1       7.303  -8.616 -11.276  1.00  0.00     0.134 A 
ATOM     57  C   UNL     1       9.561  -8.301 -10.527  1.00  0.00     0.134 A 
ATOM     58  F   UNL     1       5.983  -8.403 -11.162  1.00  0.00    -0.206 F 
ATOM     59  C   UNL     1       7.752  -9.451 -12.296  1.00  0.00     0.040 A 
ATOM     60  C   UNL     1      10.024  -9.109 -11.562  1.00  0.00     0.040 A 
ATOM     61  F   UNL     1      10.462  -7.758  -9.695  1.00  0.00    -0.206 F 
ATOM     62  C   UNL     1       9.117  -9.688 -12.448  1.00  0.00     0.006 A 
ENDBRANCH  38  55
ENDBRANCH  12  13
ENDBRANCH   5   7
ENDBRANCH   4   5
ENDBRANCH   3   4
ENDBRANCH   2   3
ENDBRANCH   1   2
BRANCH   1  63
ATOM     63  C   UNL     1       2.556  -1.264   1.230  1.00  0.00     0.202 C 
BRANCH  63  64
ATOM     64  C   UNL     1       2.402  -2.422   2.221  1.00  0.00     0.261 C 
BRANCH  64  65
ATOM     65  O   UNL     1       2.842  -1.960   3.504  1.00  0.00    -0.463 OA
BRANCH  65  66
ATOM     66  C   UNL     1       4.173  -1.666   3.568  1.00  0.00     0.316 C 
ATOM     67  O   UNL     1       5.054  -2.129   2.852  1.00  0.00    -0.251 OA
BRANCH  66  68
ATOM     68  C   UNL     1       4.367  -0.641   4.657  1.00  0.00     0.116 C 
ATOM     69  C   UNL     1       5.175  -1.830   5.349  1.00  0.00     0.141 C 
ATOM     70  C   UNL     1       4.877   0.267   5.807  1.00  0.00     0.119 C 
ATOM     71  C   UNL     1       4.621   0.469   3.593  1.00  0.00     0.142 C 
ATOM     72  N   UNL     1       4.569  -1.790   6.656  1.00  0.00    -0.341 N 
ATOM     73  C   UNL     1       4.327  -0.466   6.995  1.00  0.00     0.228 C 
ATOM     74  C   UNL     1       4.364   1.681   5.614  1.00  0.00     0.136 C 
ATOM     75  N   UNL     1       4.122   1.685   4.203  1.00  0.00    -0.324 N 
ATOM     76  O   UNL     1       3.779  -0.014   7.964  1.00  0.00    -0.274 OA
BRANCH  72  77
ATOM     77  C   UNL     1       3.901  -2.937   7.231  1.00  0.00     0.123 C 
BRANCH  77  78
ATOM     78  C   UNL     1       4.779  -3.670   8.187  1.00  0.00     0.008 C 
ATOM     79  C   UNL     1       6.210  -3.283   8.486  1.00  0.00     0.006 C 
ATOM     80  C   UNL     1       5.128  -2.999   9.489  1.00  0.00     0.006 C 
ENDBRANCH  77  78
ENDBRANCH  72  77
BRANCH  75  81
ATOM     81  C   UNL     1       3.768   2.777   3.510  1.00  0.00     0.298 A 
ATOM     82  N   UNL     1       4.335   3.963   3.486  1.00  0.00    -0.193 NA
ATOM     83  O   UNL     1       2.624   2.676   2.757  1.00  0.00    -0.423 OA
ATOM     84  C   UNL     1       3.515   4.704   2.670  1.00  0.00     0.111 A 
ATOM     85  C   UNL     1       2.441   3.935   2.257  1.00  0.00     0.156 A 
ATOM     86  C   UNL     1       3.599   6.036   2.240  1.00  0.00     0.032 A 
ATOM     87  C   UNL     1       1.386   4.404   1.478  1.00  0.00     0.049 A 
ATOM     88  C   UNL     1       2.560   6.547   1.446  1.00  0.00     0.003 A 
ATOM     89  C   UNL     1       1.467   5.748   1.087  1.00  0.00     0.004 A 
ENDBRANCH  75  81
ENDBRANCH  66  68
ENDBRANCH  65  66
ENDBRANCH  64  65
ENDBRANCH  63  64
ENDBRANCH   1  63
TORSDOF 17
