REMARK SMILES O=C(OCCOCCOC(=O)c1cccn(Cc2ccc3c(c2)OC(F)(F)O3)c1=O)c1ccc(-c2c3nc(c(-c4c(F)cccc4F)c4ccc([nH]4)c(-c4c(F)cccc4F)c4nc(c(-c5c(F)cccc5F)c5ccc2[nH]5)C=C4)C=C3)cc1
REMARK SMILES IDX 6 1 5 2 4 3 3 4 2 5 1 6 31 7 32 8 84 9 33 10 83 11 34 12
REMARK SMILES IDX 35 13 36 14 77 15 37 16 82 17 76 18 78 19 38 20 81 21 75 22
REMARK SMILES IDX 74 23 39 25 65 26 48 27 64 28 49 29 52 30 63 31 79 32 50 33
REMARK SMILES IDX 51 34 62 36 80 37 53 38 40 39 41 40 46 41 42 42 43 43 45 44
REMARK SMILES IDX 47 45 44 46 66 47 67 48 72 49 68 50 69 51 71 52 73 53 70 54
REMARK SMILES IDX 54 55 55 56 60 57 56 58 57 59 59 60 61 61 58 62 7 63 8 64
REMARK SMILES IDX 9 65 10 66 11 67 12 68 13 69 29 70 14 71 16 72 30 73 15 74
REMARK SMILES IDX 17 75 18 76 19 77 23 78 20 79 22 80 21 81 24 82 28 83 25 84
REMARK SMILES IDX 26 85 27 86
REMARK H PARENT 78 24 52 35
REMARK Flexibility Score: inf
ROOT
ATOM      1  O   UNL     1       4.007   0.901  -1.057  1.00  0.00    -0.374 OA
ENDROOT
BRANCH   1   2
ATOM      2  C   UNL     1       4.376  -0.446  -1.343  1.00  0.00     0.202 C 
BRANCH   2   3
ATOM      3  C   UNL     1       4.303  -1.418  -0.170  1.00  0.00     0.261 C 
BRANCH   3   4
ATOM      4  O   UNL     1       2.999  -1.480   0.412  1.00  0.00    -0.460 OA
BRANCH   4   5
ATOM      5  C   UNL     1       2.388  -0.598   1.232  1.00  0.00     0.338 C 
ATOM      6  O   UNL     1       1.204  -0.805   1.498  1.00  0.00    -0.246 OA
BRANCH   5   7
ATOM      7  C   UNL     1       3.025   0.634   1.814  1.00  0.00     0.060 A 
ATOM      8  C   UNL     1       2.161   1.476   2.540  1.00  0.00     0.016 A 
ATOM      9  C   UNL     1       4.356   1.047   1.675  1.00  0.00     0.016 A 
ATOM     10  C   UNL     1       2.598   2.697   3.053  1.00  0.00     0.010 A 
ATOM     11  C   UNL     1       4.796   2.277   2.155  1.00  0.00     0.010 A 
ATOM     12  C   UNL     1       3.917   3.103   2.846  1.00  0.00    -0.014 A 
BRANCH  12  13
ATOM     13  C   UNL     1       4.443   4.309   3.496  1.00  0.00     0.031 A 
ATOM     14  C   UNL     1       4.611   5.585   2.741  1.00  0.00     0.074 A 
ATOM     15  C   UNL     1       4.818   4.180   4.779  1.00  0.00     0.049 A 
ATOM     16  N   UNL     1       4.958   6.761   3.192  1.00  0.00    -0.248 NA
ATOM     17  C   UNL     1       4.376   5.535   1.289  1.00  0.00     0.031 C 
ATOM     18  C   UNL     1       4.776   2.926   5.540  1.00  0.00     0.029 A 
ATOM     19  N   UNL     1       5.311   5.094   5.662  1.00  0.00    -0.354 N 
ATOM     20  C   UNL     1       4.936   7.607   2.092  1.00  0.00     0.074 A 
ATOM     21  C   UNL     1       4.617   6.792   0.938  1.00  0.00     0.031 C 
ATOM     22  C   UNL     1       5.210   3.158   6.787  1.00  0.00     0.029 A 
ATOM     23  C   UNL     1       5.559   4.567   6.903  1.00  0.00     0.049 A 
ATOM     24  H   UNL     1       5.472   6.038   5.431  1.00  0.00     0.167 HD
ATOM     25  C   UNL     1       5.140   8.946   2.070  1.00  0.00     0.037 A 
ATOM     26  C   UNL     1       6.004   5.174   8.015  1.00  0.00     0.037 A 
ATOM     27  C   UNL     1       5.522   9.706   3.236  1.00  0.00     0.049 A 
ATOM     28  C   UNL     1       6.225   6.656   7.960  1.00  0.00     0.074 A 
ATOM     29  C   UNL     1       5.750  11.065   3.356  1.00  0.00     0.029 A 
ATOM     30  N   UNL     1       5.752   9.153   4.492  1.00  0.00    -0.354 N 
ATOM     31  N   UNL     1       6.096   7.475   6.943  1.00  0.00    -0.248 NA
ATOM     32  C   UNL     1       6.620   7.303   9.214  1.00  0.00     0.031 C 
ATOM     33  C   UNL     1       6.159  11.326   4.670  1.00  0.00     0.029 A 
ATOM     34  C   UNL     1       6.131  10.139   5.387  1.00  0.00     0.049 A 
ATOM     35  H   UNL     1       5.658   8.198   4.712  1.00  0.00     0.167 HD
ATOM     36  C   UNL     1       6.375   8.740   7.436  1.00  0.00     0.074 A 
ATOM     37  C   UNL     1       6.640   8.576   8.854  1.00  0.00     0.031 C 
ATOM     38  C   UNL     1       6.415   9.931   6.787  1.00  0.00     0.037 A 
BRANCH  25  39
ATOM     39  C   UNL     1       4.941   9.657   0.760  1.00  0.00     0.057 A 
ATOM     40  C   UNL     1       6.008  10.269   0.090  1.00  0.00     0.134 A 
ATOM     41  C   UNL     1       3.672   9.762   0.172  1.00  0.00     0.134 A 
ATOM     42  F   UNL     1       7.250  10.219   0.595  1.00  0.00    -0.206 F 
ATOM     43  C   UNL     1       5.820  10.955  -1.113  1.00  0.00     0.040 A 
ATOM     44  C   UNL     1       3.476  10.422  -1.044  1.00  0.00     0.040 A 
ATOM     45  F   UNL     1       2.603   9.195   0.754  1.00  0.00    -0.206 F 
ATOM     46  C   UNL     1       4.552  11.026  -1.688  1.00  0.00     0.006 A 
ENDBRANCH  25  39
BRANCH  26  47
ATOM     47  C   UNL     1       6.205   4.392   9.258  1.00  0.00     0.057 A 
ATOM     48  C   UNL     1       7.221   3.434   9.357  1.00  0.00     0.134 A 
ATOM     49  C   UNL     1       5.379   4.574  10.373  1.00  0.00     0.134 A 
ATOM     50  F   UNL     1       8.029   3.191   8.314  1.00  0.00    -0.206 F 
ATOM     51  C   UNL     1       7.417   2.694  10.523  1.00  0.00     0.040 A 
ATOM     52  C   UNL     1       5.582   3.862  11.556  1.00  0.00     0.040 A 
ATOM     53  F   UNL     1       4.386   5.474  10.338  1.00  0.00    -0.206 F 
ATOM     54  C   UNL     1       6.603   2.917  11.632  1.00  0.00     0.006 A 
ENDBRANCH  26  47
BRANCH  38  55
ATOM     55  C   UNL     1       6.747  11.126   7.632  1.00  0.00     0.057 A 
ATOM     56  C   UNL     1       5.769  12.083   7.926  1.00  0.00     0.134 A 
ATOM     57  C   UNL     1       8.020  11.305   8.192  1.00  0.00     0.134 A 
ATOM     58  F   UNL     1       4.533  11.977   7.414  1.00  0.00    -0.206 F 
ATOM     59  C   UNL     1       6.038  13.164   8.766  1.00  0.00     0.040 A 
ATOM     60  C   UNL     1       8.289  12.361   9.062  1.00  0.00     0.040 A 
ATOM     61  F   UNL     1       8.996  10.414   7.962  1.00  0.00    -0.206 F 
ATOM     62  C   UNL     1       7.296  13.294   9.351  1.00  0.00     0.006 A 
ENDBRANCH  38  55
ENDBRANCH  12  13
ENDBRANCH   5   7
ENDBRANCH   4   5
ENDBRANCH   3   4
ENDBRANCH   2   3
ENDBRANCH   1   2
BRANCH   1  63
ATOM     63  C   UNL     1       2.723   1.303  -1.551  1.00  0.00     0.202 C 
BRANCH  63  64
ATOM     64  C   UNL     1       2.815   1.970  -2.925  1.00  0.00     0.261 C 
BRANCH  64  65
ATOM     65  O   UNL     1       3.254   1.009  -3.891  1.00  0.00    -0.459 OA
BRANCH  65  66
ATOM     66  C   UNL     1       4.587   0.953  -4.126  1.00  0.00     0.343 C 
ATOM     67  O   UNL     1       5.431   1.756  -3.748  1.00  0.00    -0.246 OA
BRANCH  66  68
ATOM     68  C   UNL     1       4.904  -0.369  -4.692  1.00  0.00     0.125 A 
ATOM     69  C   UNL     1       5.962  -1.042  -4.202  1.00  0.00     0.023 A 
ATOM     70  C   UNL     1       4.078  -0.987  -5.760  1.00  0.00     0.265 A 
ATOM     71  C   UNL     1       6.254  -2.386  -4.629  1.00  0.00     0.019 A 
ATOM     72  N   UNL     1       4.606  -2.162  -6.305  1.00  0.00    -0.310 N 
ATOM     73  O   UNL     1       3.081  -0.425  -6.207  1.00  0.00    -0.268 OA
ATOM     74  C   UNL     1       5.608  -2.887  -5.685  1.00  0.00     0.089 A 
BRANCH  72  75
ATOM     75  C   UNL     1       4.282  -2.439  -7.697  1.00  0.00     0.161 C 
BRANCH  75  76
ATOM     76  C   UNL     1       5.268  -1.675  -8.572  1.00  0.00    -0.024 A 
ATOM     77  C   UNL     1       6.375  -2.334  -9.151  1.00  0.00     0.010 A 
ATOM     78  C   UNL     1       5.142  -0.279  -8.713  1.00  0.00     0.056 A 
ATOM     79  C   UNL     1       7.326  -1.625  -9.894  1.00  0.00     0.051 A 
ATOM     80  C   UNL     1       6.087   0.390  -9.455  1.00  0.00     0.173 A 
ATOM     81  C   UNL     1       7.143  -0.268 -10.043  1.00  0.00     0.172 A 
ATOM     82  O   UNL     1       6.093   1.725  -9.714  1.00  0.00    -0.395 OA
ATOM     83  O   UNL     1       7.925   0.574 -10.773  1.00  0.00    -0.395 OA
ATOM     84  C   UNL     1       7.102   1.749 -10.730  1.00  0.00     0.586 C 
ATOM     85  F   UNL     1       6.486   1.884 -11.932  1.00  0.00    -0.125 F 
ATOM     86  F   UNL     1       7.890   2.835 -10.550  1.00  0.00    -0.125 F 
ENDBRANCH  75  76
ENDBRANCH  72  75
ENDBRANCH  66  68
ENDBRANCH  65  66
ENDBRANCH  64  65
ENDBRANCH  63  64
ENDBRANCH   1  63
TORSDOF 16
