REMARK SMILES CCc1cc(OC(F)(F)F)cc2c1O[C@H](C(F)(F)F)C(C(=O)OCCOCCOC(=O)c1ccc(-c3c4nc(c(-c5c(F)cccc5F)c5ccc([nH]5)c(-c5c(F)cccc5F)c5nc(c(-c6c(F)cccc6F)c6ccc3[nH]6)C=C5)C=C4)cc1)=C2
REMARK SMILES IDX 26 1 25 2 24 3 23 4 21 5 22 6 20 7 3 8 4 9 13 10 5 11 12 12
REMARK SMILES IDX 14 13 11 14 86 15 15 16 2 17 1 18 6 19 7 20 8 21 9 22 10 23
REMARK SMILES IDX 16 24 17 25 18 26 19 27 27 28 28 29 29 30 30 31 31 32 32 33
REMARK SMILES IDX 33 34 85 35 34 36 84 37 35 38 36 39 37 40 78 41 38 42 83 43
REMARK SMILES IDX 77 44 79 45 39 46 82 47 76 48 75 49 40 51 66 52 49 53 65 54
REMARK SMILES IDX 50 55 53 56 64 57 80 58 51 59 52 60 63 62 81 63 54 64 41 65
REMARK SMILES IDX 42 66 47 67 43 68 44 69 46 70 48 71 45 72 67 73 68 74 73 75
REMARK SMILES IDX 69 76 70 77 72 78 74 79 71 80 55 81 56 82 61 83 57 84 58 85
REMARK SMILES IDX 60 86 62 87 59 88
REMARK H PARENT 79 50 53 61
REMARK Flexibility Score: inf
ROOT
ATOM      1  O   UNL     1       7.284  -2.276   5.026  1.00  0.00    -0.374 OA
ENDROOT
BRANCH   1   2
ATOM      2  C   UNL     1       6.692  -3.271   5.857  1.00  0.00     0.202 C 
BRANCH   2   3
ATOM      3  C   UNL     1       5.184  -3.158   6.097  1.00  0.00     0.261 C 
BRANCH   3   4
ATOM      4  O   UNL     1       4.429  -3.395   4.893  1.00  0.00    -0.460 OA
BRANCH   4   5
ATOM      5  C   UNL     1       3.862  -2.288   4.361  1.00  0.00     0.338 C 
ATOM      6  O   UNL     1       3.894  -1.164   4.837  1.00  0.00    -0.246 OA
BRANCH   5   7
ATOM      7  C   UNL     1       3.275  -2.546   3.032  1.00  0.00     0.087 C 
ATOM      8  C   UNL     1       0.881  -2.387  -0.384  1.00  0.00    -0.002 A 
ATOM      9  C   UNL     1       0.485  -3.597  -0.985  1.00  0.00     0.054 A 
ATOM     10  C   UNL     1       1.664  -2.466   0.772  1.00  0.00     0.131 A 
ATOM     11  C   UNL     1       0.835  -4.837  -0.439  1.00  0.00     0.130 A 
ATOM     12  C   UNL     1       2.015  -3.702   1.352  1.00  0.00     0.021 A 
ATOM     13  O   UNL     1       2.034  -1.294   1.368  1.00  0.00    -0.475 OA
ATOM     14  C   UNL     1       1.605  -4.883   0.730  1.00  0.00     0.058 A 
ATOM     15  C   UNL     1       2.717  -3.706   2.647  1.00  0.00     0.027 C 
ATOM     16  C   UNL     1       3.265  -1.351   2.112  1.00  0.00     0.316 C 
BRANCH   8  17
ATOM     17  C   UNL     1       0.419  -1.105  -1.054  1.00  0.00     0.036 C 
ATOM     18  C   UNL     1       0.730   0.245  -0.416  1.00  0.00     0.009 C 
ENDBRANCH   8  17
BRANCH  11  19
ATOM     19  O   UNL     1       0.482  -6.058  -0.942  1.00  0.00    -0.406 OA
BRANCH  19  20
ATOM     20  C   UNL     1      -0.485  -6.086  -1.983  1.00  0.00     0.573 C 
ATOM     21  F   UNL     1      -1.622  -5.458  -1.611  1.00  0.00    -0.132 F 
ATOM     22  F   UNL     1      -0.003  -5.516  -3.108  1.00  0.00    -0.132 F 
ATOM     23  F   UNL     1      -0.788  -7.372  -2.261  1.00  0.00    -0.132 F 
ENDBRANCH  19  20
ENDBRANCH  11  19
BRANCH  16  24
ATOM     24  C   UNL     1       4.497  -1.292   1.188  1.00  0.00     0.430 C 
ATOM     25  F   UNL     1       4.895  -2.514   0.759  1.00  0.00    -0.167 F 
ATOM     26  F   UNL     1       4.272  -0.537   0.086  1.00  0.00    -0.167 F 
ATOM     27  F   UNL     1       5.557  -0.740   1.824  1.00  0.00    -0.167 F 
ENDBRANCH  16  24
ENDBRANCH   5   7
ENDBRANCH   4   5
ENDBRANCH   3   4
ENDBRANCH   2   3
ENDBRANCH   1   2
BRANCH   1  28
ATOM     28  C   UNL     1       7.138  -2.424   3.615  1.00  0.00     0.202 C 
BRANCH  28  29
ATOM     29  C   UNL     1       8.072  -3.416   2.917  1.00  0.00     0.261 C 
BRANCH  29  30
ATOM     30  O   UNL     1       7.850  -4.764   3.363  1.00  0.00    -0.460 OA
BRANCH  30  31
ATOM     31  C   UNL     1       8.834  -5.266   4.142  1.00  0.00     0.338 C 
ATOM     32  O   UNL     1       9.909  -4.744   4.412  1.00  0.00    -0.246 OA
BRANCH  31  33
ATOM     33  C   UNL     1       8.370  -6.494   4.808  1.00  0.00     0.060 A 
ATOM     34  C   UNL     1       8.533  -6.571   6.197  1.00  0.00     0.016 A 
ATOM     35  C   UNL     1       7.844  -7.572   4.092  1.00  0.00     0.016 A 
ATOM     36  C   UNL     1       8.226  -7.749   6.870  1.00  0.00     0.010 A 
ATOM     37  C   UNL     1       7.544  -8.759   4.768  1.00  0.00     0.010 A 
ATOM     38  C   UNL     1       7.771  -8.863   6.152  1.00  0.00    -0.014 A 
BRANCH  38  39
ATOM     39  C   UNL     1       7.685 -10.175   6.835  1.00  0.00     0.031 A 
ATOM     40  C   UNL     1       8.818 -11.151   6.679  1.00  0.00     0.074 A 
ATOM     41  C   UNL     1       6.636 -10.473   7.620  1.00  0.00     0.049 A 
ATOM     42  N   UNL     1       8.956 -12.350   7.184  1.00  0.00    -0.248 NA
ATOM     43  C   UNL     1       9.948 -10.715   5.842  1.00  0.00     0.031 C 
ATOM     44  C   UNL     1       5.497  -9.594   7.879  1.00  0.00     0.029 A 
ATOM     45  N   UNL     1       6.361 -11.604   8.345  1.00  0.00    -0.354 N 
ATOM     46  C   UNL     1      10.183 -12.812   6.726  1.00  0.00     0.074 A 
ATOM     47  C   UNL     1      10.736 -11.779   5.877  1.00  0.00     0.031 C 
ATOM     48  C   UNL     1       4.640 -10.223   8.701  1.00  0.00     0.029 A 
ATOM     49  C   UNL     1       5.158 -11.556   9.005  1.00  0.00     0.049 A 
ATOM     50  H   UNL     1       6.969 -12.378   8.389  1.00  0.00     0.167 HD
ATOM     51  C   UNL     1      10.799 -13.987   6.998  1.00  0.00     0.037 A 
ATOM     52  C   UNL     1       4.542 -12.489   9.755  1.00  0.00     0.037 A 
ATOM     53  C   UNL     1      10.248 -15.013   7.843  1.00  0.00     0.049 A 
ATOM     54  C   UNL     1       5.216 -13.814   9.987  1.00  0.00     0.074 A 
ATOM     55  C   UNL     1      10.802 -16.231   8.195  1.00  0.00     0.029 A 
ATOM     56  N   UNL     1       9.011 -14.941   8.465  1.00  0.00    -0.354 N 
ATOM     57  N   UNL     1       6.388 -14.230   9.572  1.00  0.00    -0.248 NA
ATOM     58  C   UNL     1       4.482 -14.799  10.795  1.00  0.00     0.031 C 
ATOM     59  C   UNL     1       9.880 -16.916   8.994  1.00  0.00     0.029 A 
ATOM     60  C   UNL     1       8.772 -16.104   9.178  1.00  0.00     0.049 A 
ATOM     61  H   UNL     1       8.393 -14.177   8.408  1.00  0.00     0.167 HD
ATOM     62  C   UNL     1       6.544 -15.511  10.089  1.00  0.00     0.074 A 
ATOM     63  C   UNL     1       5.351 -15.798  10.858  1.00  0.00     0.031 C 
ATOM     64  C   UNL     1       7.581 -16.371   9.943  1.00  0.00     0.037 A 
BRANCH  51  65
ATOM     65  C   UNL     1      12.132 -14.232   6.356  1.00  0.00     0.057 A 
ATOM     66  C   UNL     1      13.288 -13.560   6.773  1.00  0.00     0.134 A 
ATOM     67  C   UNL     1      12.265 -15.173   5.327  1.00  0.00     0.134 A 
ATOM     68  F   UNL     1      13.225 -12.636   7.743  1.00  0.00    -0.206 F 
ATOM     69  C   UNL     1      14.527 -13.801   6.175  1.00  0.00     0.040 A 
ATOM     70  C   UNL     1      13.502 -15.439   4.738  1.00  0.00     0.040 A 
ATOM     71  F   UNL     1      11.197 -15.852   4.882  1.00  0.00    -0.206 F 
ATOM     72  C   UNL     1      14.637 -14.748   5.159  1.00  0.00     0.006 A 
ENDBRANCH  51  65
BRANCH  52  73
ATOM     73  C   UNL     1       3.205 -12.210  10.336  1.00  0.00     0.057 A 
ATOM     74  C   UNL     1       3.032 -12.050  11.715  1.00  0.00     0.134 A 
ATOM     75  C   UNL     1       2.066 -12.118   9.527  1.00  0.00     0.134 A 
ATOM     76  F   UNL     1       4.082 -12.150  12.543  1.00  0.00    -0.206 F 
ATOM     77  C   UNL     1       1.772 -11.825  12.273  1.00  0.00     0.040 A 
ATOM     78  C   UNL     1       0.803 -11.870  10.068  1.00  0.00     0.040 A 
ATOM     79  F   UNL     1       2.166 -12.261   8.198  1.00  0.00    -0.206 F 
ATOM     80  C   UNL     1       0.653 -11.730  11.446  1.00  0.00     0.006 A 
ENDBRANCH  52  73
BRANCH  64  81
ATOM     81  C   UNL     1       7.487 -17.690  10.652  1.00  0.00     0.057 A 
ATOM     82  C   UNL     1       6.630 -18.706  10.212  1.00  0.00     0.134 A 
ATOM     83  C   UNL     1       8.293 -17.959  11.766  1.00  0.00     0.134 A 
ATOM     84  F   UNL     1       5.824 -18.507   9.159  1.00  0.00    -0.206 F 
ATOM     85  C   UNL     1       6.564 -19.937  10.867  1.00  0.00     0.040 A 
ATOM     86  C   UNL     1       8.253 -19.194  12.414  1.00  0.00     0.040 A 
ATOM     87  F   UNL     1       9.142 -17.031  12.233  1.00  0.00    -0.206 F 
ATOM     88  C   UNL     1       7.382 -20.186  11.967  1.00  0.00     0.006 A 
ENDBRANCH  64  81
ENDBRANCH  38  39
ENDBRANCH  31  33
ENDBRANCH  30  31
ENDBRANCH  29  30
ENDBRANCH  28  29
ENDBRANCH   1  28
TORSDOF 18
