REMARK SMILES C=C(C)COc1cc(/C=C/c2cc(C(=O)OCCOCCOC(=O)c3ccc(-c4c5nc(c(-c6c(F)cccc6F)c6ccc([nH]6)c(-c6c(F)cccc6F)c6nc(c(-c7c(F)cccc7F)c7ccc4[nH]7)C=C6)C=C5)cc3)ncn2)ccc1OC
REMARK SMILES IDX 17 1 16 2 14 3 15 4 13 5 11 6 12 7 81 8 80 9 79 10 10 11
REMARK SMILES IDX 9 12 8 13 6 14 7 15 84 16 83 17 82 18 5 19 4 20 2 21 1 22
REMARK SMILES IDX 3 23 85 24 86 25 18 26 19 27 20 28 21 29 22 30 23 31 24 32
REMARK SMILES IDX 25 33 26 34 78 35 27 36 77 37 28 38 29 39 30 40 71 41 31 42
REMARK SMILES IDX 76 43 70 44 72 45 32 46 75 47 69 48 68 49 33 51 59 52 42 53
REMARK SMILES IDX 58 54 43 55 46 56 57 57 73 58 44 59 45 60 56 62 74 63 47 64
REMARK SMILES IDX 34 65 35 66 40 67 36 68 37 69 39 70 41 71 38 72 60 73 61 74
REMARK SMILES IDX 66 75 62 76 63 77 65 78 67 79 64 80 48 81 49 82 54 83 50 84
REMARK SMILES IDX 51 85 53 86 55 87 52 88
REMARK H PARENT 72 50 46 61
REMARK Flexibility Score: inf
ROOT
ATOM      1  C   UNL     1       4.756 -11.701   4.082  1.00  0.00     0.261 C 
ENDROOT
BRANCH   1   2
ATOM      2  O   UNL     1       4.390 -10.371   4.493  1.00  0.00    -0.459 OA
BRANCH   2   3
ATOM      3  C   UNL     1       4.114 -10.230   5.819  1.00  0.00     0.357 C 
ATOM      4  O   UNL     1       3.969 -11.135   6.623  1.00  0.00    -0.244 OA
BRANCH   3   5
ATOM      5  C   UNL     1       4.130  -8.781   6.187  1.00  0.00     0.152 A 
ATOM      6  C   UNL     1       3.687  -6.518   5.802  1.00  0.00     0.067 A 
ATOM      7  C   UNL     1       3.653  -7.817   5.328  1.00  0.00     0.064 A 
ATOM      8  N   UNL     1       4.226  -6.190   6.989  1.00  0.00    -0.237 NA
ATOM      9  C   UNL     1       4.673  -7.207   7.739  1.00  0.00     0.223 A 
ATOM     10  N   UNL     1       4.644  -8.500   7.405  1.00  0.00    -0.229 NA
BRANCH   6  11
ATOM     11  C   UNL     1       3.134  -5.404   5.016  1.00  0.00     0.029 C 
ATOM     12  C   UNL     1       1.921  -5.517   4.451  1.00  0.00     0.010 C 
BRANCH  12  13
ATOM     13  C   UNL     1       1.260  -4.616   3.492  1.00  0.00    -0.022 A 
ATOM     14  C   UNL     1       1.009  -2.587   2.154  1.00  0.00     0.162 A 
ATOM     15  C   UNL     1       1.651  -3.305   3.186  1.00  0.00     0.058 A 
ATOM     16  C   UNL     1      -0.013  -3.186   1.406  1.00  0.00     0.160 A 
ATOM     17  C   UNL     1      -0.444  -4.464   1.765  1.00  0.00     0.051 A 
ATOM     18  C   UNL     1       0.180  -5.168   2.791  1.00  0.00     0.012 A 
BRANCH  14  19
ATOM     19  O   UNL     1       1.502  -1.345   1.845  1.00  0.00    -0.485 OA
BRANCH  19  20
ATOM     20  C   UNL     1       0.895  -0.293   2.610  1.00  0.00     0.260 C 
BRANCH  20  21
ATOM     21  C   UNL     1       0.402   0.784   1.666  1.00  0.00    -0.043 C 
ATOM     22  C   UNL     1       1.188   1.329   0.718  1.00  0.00     0.011 C 
ATOM     23  C   UNL     1      -1.049   1.162   1.771  1.00  0.00     0.042 C 
ENDBRANCH  20  21
ENDBRANCH  19  20
ENDBRANCH  14  19
BRANCH  16  24
ATOM     24  O   UNL     1      -0.712  -2.691   0.344  1.00  0.00    -0.493 OA
ATOM     25  C   UNL     1      -0.087  -1.743  -0.505  1.00  0.00     0.278 C 
ENDBRANCH  16  24
ENDBRANCH  12  13
ENDBRANCH   6  11
ENDBRANCH   3   5
ENDBRANCH   2   3
ENDBRANCH   1   2
BRANCH   1  26
ATOM     26  C   UNL     1       6.211 -11.760   3.605  1.00  0.00     0.202 C 
BRANCH  26  27
ATOM     27  O   UNL     1       7.210 -11.446   4.574  1.00  0.00    -0.374 OA
BRANCH  27  28
ATOM     28  C   UNL     1       7.436 -10.066   4.863  1.00  0.00     0.202 C 
BRANCH  28  29
ATOM     29  C   UNL     1       8.276  -9.280   3.849  1.00  0.00     0.261 C 
BRANCH  29  30
ATOM     30  O   UNL     1       7.634  -9.183   2.564  1.00  0.00    -0.460 OA
BRANCH  30  31
ATOM     31  C   UNL     1       8.224  -9.910   1.583  1.00  0.00     0.338 C 
ATOM     32  O   UNL     1       9.252 -10.559   1.656  1.00  0.00    -0.246 OA
BRANCH  31  33
ATOM     33  C   UNL     1       7.347  -9.959   0.398  1.00  0.00     0.060 A 
ATOM     34  C   UNL     1       7.023 -11.222  -0.115  1.00  0.00     0.016 A 
ATOM     35  C   UNL     1       6.915  -8.799  -0.248  1.00  0.00     0.016 A 
ATOM     36  C   UNL     1       6.305 -11.330  -1.304  1.00  0.00     0.010 A 
ATOM     37  C   UNL     1       6.200  -8.910  -1.446  1.00  0.00     0.010 A 
ATOM     38  C   UNL     1       5.922 -10.174  -1.996  1.00  0.00    -0.014 A 
BRANCH  38  39
ATOM     39  C   UNL     1       5.347 -10.291  -3.359  1.00  0.00     0.031 A 
ATOM     40  C   UNL     1       6.229 -10.036  -4.551  1.00  0.00     0.074 A 
ATOM     41  C   UNL     1       4.061 -10.642  -3.535  1.00  0.00     0.049 A 
ATOM     42  N   UNL     1       5.927 -10.041  -5.824  1.00  0.00    -0.248 NA
ATOM     43  C   UNL     1       7.641  -9.734  -4.268  1.00  0.00     0.031 C 
ATOM     44  C   UNL     1       3.116 -10.950  -2.464  1.00  0.00     0.029 A 
ATOM     45  N   UNL     1       3.328 -10.788  -4.686  1.00  0.00    -0.354 N 
ATOM     46  C   UNL     1       7.105  -9.735  -6.493  1.00  0.00     0.074 A 
ATOM     47  C   UNL     1       8.121  -9.521  -5.485  1.00  0.00     0.031 C 
ATOM     48  C   UNL     1       1.921 -11.239  -3.008  1.00  0.00     0.029 A 
ATOM     49  C   UNL     1       2.011 -11.104  -4.461  1.00  0.00     0.049 A 
ATOM     50  H   UNL     1       3.710 -10.678  -5.586  1.00  0.00     0.167 HD
ATOM     51  C   UNL     1       7.323  -9.649  -7.827  1.00  0.00     0.037 A 
ATOM     52  C   UNL     1       0.989 -11.244  -5.328  1.00  0.00     0.037 A 
ATOM     53  C   UNL     1       6.312  -9.864  -8.829  1.00  0.00     0.049 A 
ATOM     54  C   UNL     1       1.241 -11.075  -6.803  1.00  0.00     0.074 A 
ATOM     55  C   UNL     1       6.441  -9.823 -10.207  1.00  0.00     0.029 A 
ATOM     56  N   UNL     1       4.983 -10.155  -8.561  1.00  0.00    -0.354 N 
ATOM     57  N   UNL     1       2.365 -10.814  -7.426  1.00  0.00    -0.248 NA
ATOM     58  C   UNL     1       0.082 -11.225  -7.695  1.00  0.00     0.031 C 
ATOM     59  C   UNL     1       5.179 -10.038 -10.771  1.00  0.00     0.029 A 
ATOM     60  C   UNL     1       4.276 -10.268  -9.746  1.00  0.00     0.049 A 
ATOM     61  H   UNL     1       4.600 -10.265  -7.661  1.00  0.00     0.167 HD
ATOM     62  C   UNL     1       2.055 -10.797  -8.781  1.00  0.00     0.074 A 
ATOM     63  C   UNL     1       0.640 -11.086  -8.889  1.00  0.00     0.031 C 
ATOM     64  C   UNL     1       2.869 -10.565  -9.840  1.00  0.00     0.037 A 
BRANCH  51  65
ATOM     65  C   UNL     1       8.706  -9.281  -8.281  1.00  0.00     0.057 A 
ATOM     66  C   UNL     1       9.782 -10.172  -8.176  1.00  0.00     0.134 A 
ATOM     67  C   UNL     1       8.956  -8.032  -8.864  1.00  0.00     0.134 A 
ATOM     68  F   UNL     1       9.613 -11.379  -7.615  1.00  0.00    -0.206 F 
ATOM     69  C   UNL     1      11.061  -9.825  -8.615  1.00  0.00     0.040 A 
ATOM     70  C   UNL     1      10.224  -7.685  -9.331  1.00  0.00     0.040 A 
ATOM     71  F   UNL     1       7.968  -7.134  -9.000  1.00  0.00    -0.206 F 
ATOM     72  C   UNL     1      11.283  -8.581  -9.201  1.00  0.00     0.006 A 
ENDBRANCH  51  65
BRANCH  52  73
ATOM     73  C   UNL     1      -0.375 -11.549  -4.826  1.00  0.00     0.057 A 
ATOM     74  C   UNL     1      -0.983 -12.784  -5.078  1.00  0.00     0.134 A 
ATOM     75  C   UNL     1      -1.113 -10.602  -4.104  1.00  0.00     0.134 A 
ATOM     76  F   UNL     1      -0.336 -13.723  -5.784  1.00  0.00    -0.206 F 
ATOM     77  C   UNL     1      -2.281 -13.061  -4.646  1.00  0.00     0.040 A 
ATOM     78  C   UNL     1      -2.402 -10.875  -3.644  1.00  0.00     0.040 A 
ATOM     79  F   UNL     1      -0.586  -9.400  -3.829  1.00  0.00    -0.206 F 
ATOM     80  C   UNL     1      -2.993 -12.106  -3.923  1.00  0.00     0.006 A 
ENDBRANCH  52  73
BRANCH  64  81
ATOM     81  C   UNL     1       2.261 -10.654 -11.210  1.00  0.00     0.057 A 
ATOM     82  C   UNL     1       1.385  -9.676 -11.698  1.00  0.00     0.134 A 
ATOM     83  C   UNL     1       2.591 -11.711 -12.068  1.00  0.00     0.134 A 
ATOM     84  F   UNL     1       1.018  -8.644 -10.924  1.00  0.00    -0.206 F 
ATOM     85  C   UNL     1       0.840  -9.760 -12.982  1.00  0.00     0.040 A 
ATOM     86  C   UNL     1       2.075 -11.791 -13.362  1.00  0.00     0.040 A 
ATOM     87  F   UNL     1       3.433 -12.677 -11.667  1.00  0.00    -0.206 F 
ATOM     88  C   UNL     1       1.192 -10.816 -13.820  1.00  0.00     0.006 A 
ENDBRANCH  64  81
ENDBRANCH  38  39
ENDBRANCH  31  33
ENDBRANCH  30  31
ENDBRANCH  29  30
ENDBRANCH  28  29
ENDBRANCH  27  28
ENDBRANCH  26  27
ENDBRANCH   1  26
TORSDOF 20
