REMARK SMILES O=C(OCCOCCOC(=O)c1ccc(CNc2ccccc2)nc1)c1ccc(-c2c3nc(c(-c4c(F)cccc4F)c4ccc([nH]4)c(-c4c(F)cccc4F)c4nc(c(-c5c(F)cccc5F)c5ccc2[nH]5)C=C4)C=C3)cc1
REMARK SMILES IDX 7 1 6 2 5 3 4 4 3 5 2 6 1 7 26 8 27 9 79 10 28 11 78 12
REMARK SMILES IDX 29 13 30 14 31 15 72 16 32 17 77 18 71 19 73 20 33 21 76 22
REMARK SMILES IDX 70 23 69 24 34 26 60 27 43 28 59 29 44 30 47 31 58 32 74 33
REMARK SMILES IDX 45 34 46 35 57 37 75 38 48 39 35 40 36 41 41 42 37 43 38 44
REMARK SMILES IDX 40 45 42 46 39 47 61 48 62 49 67 50 63 51 64 52 66 53 68 54
REMARK SMILES IDX 65 55 49 56 50 57 55 58 51 59 52 60 54 61 56 62 53 63 8 64
REMARK SMILES IDX 9 65 10 66 11 67 12 68 13 69 25 70 14 71 24 72 15 73 16 74
REMARK SMILES IDX 17 75 18 77 19 78 23 79 20 80 22 81 21 82
REMARK H PARENT 73 25 47 36 17 76
REMARK Flexibility Score: inf
ROOT
ATOM      1  C   UNL     1       2.671   2.305   0.305  1.00  0.00     0.202 C 
ENDROOT
BRANCH   1   2
ATOM      2  O   UNL     1       4.017   1.902   0.016  1.00  0.00    -0.374 OA
BRANCH   2   3
ATOM      3  C   UNL     1       4.220   1.307  -1.269  1.00  0.00     0.202 C 
BRANCH   3   4
ATOM      4  C   UNL     1       3.884  -0.188  -1.348  1.00  0.00     0.261 C 
BRANCH   4   5
ATOM      5  O   UNL     1       2.515  -0.421  -0.969  1.00  0.00    -0.460 OA
BRANCH   5   6
ATOM      6  C   UNL     1       2.036  -0.984   0.166  1.00  0.00     0.338 C 
ATOM      7  O   UNL     1       0.829  -1.199   0.254  1.00  0.00    -0.246 OA
BRANCH   6   8
ATOM      8  C   UNL     1       2.897  -1.355   1.329  1.00  0.00     0.060 A 
ATOM      9  C   UNL     1       4.110  -0.743   1.639  1.00  0.00     0.016 A 
ATOM     10  C   UNL     1       2.400  -2.321   2.222  1.00  0.00     0.016 A 
ATOM     11  C   UNL     1       4.856  -1.129   2.740  1.00  0.00     0.010 A 
ATOM     12  C   UNL     1       3.116  -2.673   3.373  1.00  0.00     0.010 A 
ATOM     13  C   UNL     1       4.360  -2.086   3.622  1.00  0.00    -0.014 A 
BRANCH  13  14
ATOM     14  C   UNL     1       5.226  -2.476   4.749  1.00  0.00     0.031 A 
ATOM     15  C   UNL     1       5.949  -3.784   4.683  1.00  0.00     0.074 A 
ATOM     16  C   UNL     1       5.482  -1.575   5.715  1.00  0.00     0.049 A 
ATOM     17  N   UNL     1       6.795  -4.304   5.530  1.00  0.00    -0.248 NA
ATOM     18  C   UNL     1       5.704  -4.611   3.488  1.00  0.00     0.031 C 
ATOM     19  C   UNL     1       4.901  -0.230   5.787  1.00  0.00     0.029 A 
ATOM     20  N   UNL     1       6.331  -1.626   6.787  1.00  0.00    -0.354 N 
ATOM     21  C   UNL     1       7.178  -5.518   4.978  1.00  0.00     0.074 A 
ATOM     22  C   UNL     1       6.460  -5.670   3.732  1.00  0.00     0.031 C 
ATOM     23  C   UNL     1       5.439   0.427   6.826  1.00  0.00     0.029 A 
ATOM     24  C   UNL     1       6.348  -0.469   7.529  1.00  0.00     0.049 A 
ATOM     25  H   UNL     1       6.876  -2.416   7.006  1.00  0.00     0.167 HD
ATOM     26  C   UNL     1       8.057  -6.420   5.472  1.00  0.00     0.037 A 
ATOM     27  C   UNL     1       7.010  -0.185   8.666  1.00  0.00     0.037 A 
ATOM     28  C   UNL     1       8.746  -6.248   6.722  1.00  0.00     0.049 A 
ATOM     29  C   UNL     1       7.903  -1.247   9.243  1.00  0.00     0.074 A 
ATOM     30  C   UNL     1       9.578  -7.130   7.384  1.00  0.00     0.029 A 
ATOM     31  N   UNL     1       8.679  -5.097   7.497  1.00  0.00    -0.354 N 
ATOM     32  N   UNL     1       8.198  -2.431   8.758  1.00  0.00    -0.248 NA
ATOM     33  C   UNL     1       8.545  -0.946  10.528  1.00  0.00     0.031 C 
ATOM     34  C   UNL     1       9.989  -6.524   8.577  1.00  0.00     0.029 A 
ATOM     35  C   UNL     1       9.449  -5.248   8.636  1.00  0.00     0.049 A 
ATOM     36  H   UNL     1       8.159  -4.292   7.269  1.00  0.00     0.167 HD
ATOM     37  C   UNL     1       9.064  -3.013   9.672  1.00  0.00     0.074 A 
ATOM     38  C   UNL     1       9.271  -2.037  10.724  1.00  0.00     0.031 C 
ATOM     39  C   UNL     1       9.630  -4.245   9.656  1.00  0.00     0.037 A 
BRANCH  26  40
ATOM     40  C   UNL     1       8.256  -7.677   4.681  1.00  0.00     0.057 A 
ATOM     41  C   UNL     1       8.967  -7.689   3.474  1.00  0.00     0.134 A 
ATOM     42  C   UNL     1       7.693  -8.885   5.111  1.00  0.00     0.134 A 
ATOM     43  F   UNL     1       9.505  -6.559   2.990  1.00  0.00    -0.206 F 
ATOM     44  C   UNL     1       9.090  -8.853   2.711  1.00  0.00     0.040 A 
ATOM     45  C   UNL     1       7.828 -10.059   4.368  1.00  0.00     0.040 A 
ATOM     46  F   UNL     1       6.992  -8.941   6.253  1.00  0.00    -0.206 F 
ATOM     47  C   UNL     1       8.521 -10.043   3.159  1.00  0.00     0.006 A 
ENDBRANCH  26  40
BRANCH  27  48
ATOM     48  C   UNL     1       6.806   1.118   9.354  1.00  0.00     0.057 A 
ATOM     49  C   UNL     1       7.849   2.035   9.521  1.00  0.00     0.134 A 
ATOM     50  C   UNL     1       5.559   1.464   9.892  1.00  0.00     0.134 A 
ATOM     51  F   UNL     1       9.074   1.760   9.050  1.00  0.00    -0.206 F 
ATOM     52  C   UNL     1       7.667   3.235  10.216  1.00  0.00     0.040 A 
ATOM     53  C   UNL     1       5.354   2.672  10.560  1.00  0.00     0.040 A 
ATOM     54  F   UNL     1       4.513   0.633   9.768  1.00  0.00    -0.206 F 
ATOM     55  C   UNL     1       6.414   3.557  10.733  1.00  0.00     0.006 A 
ENDBRANCH  27  48
BRANCH  39  56
ATOM     56  C   UNL     1      10.537  -4.580  10.800  1.00  0.00     0.057 A 
ATOM     57  C   UNL     1      10.037  -4.852  12.079  1.00  0.00     0.134 A 
ATOM     58  C   UNL     1      11.922  -4.658  10.609  1.00  0.00     0.134 A 
ATOM     59  F   UNL     1       8.720  -4.779  12.325  1.00  0.00    -0.206 F 
ATOM     60  C   UNL     1      10.888  -5.167  13.138  1.00  0.00     0.040 A 
ATOM     61  C   UNL     1      12.780  -4.997  11.654  1.00  0.00     0.040 A 
ATOM     62  F   UNL     1      12.459  -4.415   9.404  1.00  0.00    -0.206 F 
ATOM     63  C   UNL     1      12.263  -5.246  12.925  1.00  0.00     0.006 A 
ENDBRANCH  39  56
ENDBRANCH  13  14
ENDBRANCH   6   8
ENDBRANCH   5   6
ENDBRANCH   4   5
ENDBRANCH   3   4
ENDBRANCH   2   3
ENDBRANCH   1   2
BRANCH   1  64
ATOM     64  C   UNL     1       2.665   3.734   0.855  1.00  0.00     0.261 C 
BRANCH  64  65
ATOM     65  O   UNL     1       3.126   4.614  -0.183  1.00  0.00    -0.460 OA
BRANCH  65  66
ATOM     66  C   UNL     1       4.472   4.770  -0.221  1.00  0.00     0.339 C 
ATOM     67  O   UNL     1       5.266   4.608   0.690  1.00  0.00    -0.246 OA
BRANCH  66  68
ATOM     68  C   UNL     1       4.864   4.936  -1.627  1.00  0.00     0.078 A 
ATOM     69  C   UNL     1       4.088   5.604  -2.574  1.00  0.00     0.019 A 
ATOM     70  C   UNL     1       6.022   4.306  -2.044  1.00  0.00     0.127 A 
ATOM     71  C   UNL     1       4.499   5.619  -3.907  1.00  0.00     0.026 A 
ATOM     72  N   UNL     1       6.437   4.298  -3.329  1.00  0.00    -0.259 NA
ATOM     73  C   UNL     1       5.677   4.961  -4.249  1.00  0.00     0.059 A 
BRANCH  73  74
ATOM     74  C   UNL     1       6.198   4.957  -5.679  1.00  0.00     0.169 C 
BRANCH  74  75
ATOM     75  N   UNL     1       7.643   5.138  -5.631  1.00  0.00    -0.379 N 
ATOM     76  H   UNL     1       8.026   5.738  -4.950  1.00  0.00     0.160 HD
BRANCH  75  77
ATOM     77  C   UNL     1       8.494   4.494  -6.510  1.00  0.00     0.034 A 
ATOM     78  C   UNL     1       9.731   4.040  -6.032  1.00  0.00     0.025 A 
ATOM     79  C   UNL     1       8.187   4.281  -7.856  1.00  0.00     0.025 A 
ATOM     80  C   UNL     1      10.623   3.358  -6.861  1.00  0.00     0.002 A 
ATOM     81  C   UNL     1       9.082   3.607  -8.694  1.00  0.00     0.002 A 
ATOM     82  C   UNL     1      10.295   3.139  -8.194  1.00  0.00     0.000 A 
ENDBRANCH  75  77
ENDBRANCH  74  75
ENDBRANCH  73  74
ENDBRANCH  66  68
ENDBRANCH  65  66
ENDBRANCH  64  65
ENDBRANCH   1  64
TORSDOF 17
