REMARK SMILES COc1cc2c(cc1OC)C1=C(C#N)C[N@H+](CC(=O)OCCOCCOC(=O)c3ccc(-c4c5nc(c(-c6c(F)cccc6F)c6ccc([nH]6)c(-c6c(F)cccc6F)c6nc(c(-c7c(F)cccc7F)c7ccc4[nH]7)C=C6)C=C5)cc3)CN1CC2
REMARK SMILES IDX 23 1 22 2 21 3 20 4 18 5 19 6 17 7 16 8 3 9 4 10 8 11 5 12
REMARK SMILES IDX 7 13 6 14 86 15 11 16 85 17 12 18 84 19 15 20 83 21 2 23
REMARK SMILES IDX 1 24 9 25 10 26 13 27 14 28 24 29 25 30 26 31 27 32 28 33
REMARK SMILES IDX 29 34 30 35 82 36 31 37 81 38 32 39 33 40 34 41 75 42 35 43
REMARK SMILES IDX 80 44 74 45 76 46 36 47 79 48 73 49 72 50 37 52 63 53 46 54
REMARK SMILES IDX 62 55 47 56 50 57 61 58 77 59 48 60 49 61 60 63 78 64 51 65
REMARK SMILES IDX 38 66 39 67 44 68 40 69 41 70 43 71 45 72 42 73 64 74 65 75
REMARK SMILES IDX 70 76 66 77 67 78 69 79 71 80 68 81 52 82 53 83 58 84 54 85
REMARK SMILES IDX 55 86 57 87 59 88 56 89
REMARK H PARENT 16 22 76 51 50 62
REMARK Flexibility Score: inf
ROOT
ATOM      1  O   UNL     1       4.457   7.038   4.036  1.00  0.00    -0.374 OA
ENDROOT
BRANCH   1   2
ATOM      2  C   UNL     1       3.082   7.182   4.394  1.00  0.00     0.202 C 
BRANCH   2   3
ATOM      3  C   UNL     1       2.460   8.554   4.100  1.00  0.00     0.261 C 
BRANCH   3   4
ATOM      4  O   UNL     1       2.481   8.837   2.696  1.00  0.00    -0.459 OA
BRANCH   4   5
ATOM      5  C   UNL     1       3.072   9.996   2.286  1.00  0.00     0.361 C 
ATOM      6  O   UNL     1       3.400  10.914   3.028  1.00  0.00    -0.245 OA
BRANCH   5   7
ATOM      7  C   UNL     1       3.350  10.012   0.769  1.00  0.00     0.388 C 
BRANCH   7   8
ATOM      8  N   UNL     1       2.901   8.774   0.140  1.00  0.00    -0.304 N 
ATOM      9  C   UNL     1       1.061   2.400  -2.005  1.00  0.00     0.161 A 
ATOM     10  C   UNL     1       2.373   2.867  -1.909  1.00  0.00     0.055 A 
ATOM     11  C   UNL     1       0.028   3.314  -2.217  1.00  0.00     0.161 A 
ATOM     12  C   UNL     1       2.643   4.245  -1.855  1.00  0.00    -0.033 A 
ATOM     13  C   UNL     1       0.313   4.694  -2.144  1.00  0.00     0.061 A 
ATOM     14  C   UNL     1       1.589   5.180  -1.815  1.00  0.00     0.006 A 
ATOM     15  C   UNL     1       4.075   4.707  -1.795  1.00  0.00     0.058 C 
ATOM     16  C   UNL     1       1.892   6.580  -1.327  1.00  0.00     0.068 C 
ATOM     17  C   UNL     1       4.204   6.172  -2.220  1.00  0.00     0.127 C 
ATOM     18  C   UNL     1       1.041   7.400  -0.642  1.00  0.00     0.108 C 
ATOM     19  N   UNL     1       3.229   6.993  -1.504  1.00  0.00    -0.323 N 
ATOM     20  C   UNL     1       1.475   8.757  -0.172  1.00  0.00     0.314 C 
ATOM     21  C   UNL     1       3.661   8.297  -1.000  1.00  0.00     0.390 C 
ATOM     22  H   UNL     1       3.092   8.106   0.887  1.00  0.00     0.350 HD
BRANCH   9  23
ATOM     23  O   UNL     1       0.843   1.049  -1.946  1.00  0.00    -0.493 OA
ATOM     24  C   UNL     1       1.137   0.536  -0.641  1.00  0.00     0.278 C 
ENDBRANCH   9  23
BRANCH  11  25
ATOM     25  O   UNL     1      -1.299   3.062  -2.437  1.00  0.00    -0.493 OA
ATOM     26  C   UNL     1      -1.762   1.722  -2.375  1.00  0.00     0.278 C 
ENDBRANCH  11  25
BRANCH  18  27
ATOM     27  C   UNL     1      -0.429   7.060  -0.456  1.00  0.00     0.103 C 
ATOM     28  N   UNL     1      -1.648   6.777  -0.301  1.00  0.00    -0.192 NA
ENDBRANCH  18  27
ENDBRANCH   7   8
ENDBRANCH   5   7
ENDBRANCH   4   5
ENDBRANCH   3   4
ENDBRANCH   2   3
ENDBRANCH   1   2
BRANCH   1  29
ATOM     29  C   UNL     1       4.747   6.838   2.653  1.00  0.00     0.202 C 
BRANCH  29  30
ATOM     30  C   UNL     1       4.384   5.468   2.076  1.00  0.00     0.261 C 
BRANCH  30  31
ATOM     31  O   UNL     1       2.965   5.232   2.021  1.00  0.00    -0.460 OA
BRANCH  31  32
ATOM     32  C   UNL     1       2.537   4.085   2.602  1.00  0.00     0.338 C 
ATOM     33  O   UNL     1       3.225   3.217   3.125  1.00  0.00    -0.246 OA
BRANCH  32  34
ATOM     34  C   UNL     1       1.062   4.030   2.605  1.00  0.00     0.060 A 
ATOM     35  C   UNL     1       0.360   4.138   1.411  1.00  0.00     0.016 A 
ATOM     36  C   UNL     1       0.370   3.786   3.792  1.00  0.00     0.016 A 
ATOM     37  C   UNL     1      -1.030   4.012   1.387  1.00  0.00     0.010 A 
ATOM     38  C   UNL     1      -1.026   3.653   3.772  1.00  0.00     0.010 A 
ATOM     39  C   UNL     1      -1.739   3.760   2.566  1.00  0.00    -0.014 A 
BRANCH  39  40
ATOM     40  C   UNL     1      -3.216   3.595   2.525  1.00  0.00     0.031 A 
ATOM     41  C   UNL     1      -4.116   4.654   3.092  1.00  0.00     0.074 A 
ATOM     42  C   UNL     1      -3.758   2.503   1.951  1.00  0.00     0.049 A 
ATOM     43  N   UNL     1      -5.415   4.638   3.260  1.00  0.00    -0.248 NA
ATOM     44  C   UNL     1      -3.465   5.895   3.537  1.00  0.00     0.031 C 
ATOM     45  C   UNL     1      -3.005   1.432   1.300  1.00  0.00     0.029 A 
ATOM     46  N   UNL     1      -5.069   2.123   1.807  1.00  0.00    -0.354 N 
ATOM     47  C   UNL     1      -5.734   5.847   3.863  1.00  0.00     0.074 A 
ATOM     48  C   UNL     1      -4.491   6.572   4.033  1.00  0.00     0.031 C 
ATOM     49  C   UNL     1      -3.867   0.542   0.781  1.00  0.00     0.029 A 
ATOM     50  C   UNL     1      -5.229   0.941   1.124  1.00  0.00     0.049 A 
ATOM     51  H   UNL     1      -5.824   2.647   2.159  1.00  0.00     0.167 HD
ATOM     52  C   UNL     1      -6.951   6.307   4.245  1.00  0.00     0.037 A 
ATOM     53  C   UNL     1      -6.345   0.249   0.828  1.00  0.00     0.037 A 
ATOM     54  C   UNL     1      -8.191   5.602   4.044  1.00  0.00     0.049 A 
ATOM     55  C   UNL     1      -7.675   0.749   1.324  1.00  0.00     0.074 A 
ATOM     56  C   UNL     1      -9.472   5.982   4.408  1.00  0.00     0.029 A 
ATOM     57  N   UNL     1      -8.305   4.373   3.412  1.00  0.00    -0.354 N 
ATOM     58  N   UNL     1      -7.960   1.865   1.950  1.00  0.00    -0.248 NA
ATOM     59  C   UNL     1      -8.834  -0.128   1.101  1.00  0.00     0.031 C 
ATOM     60  C   UNL     1     -10.357   4.964   4.031  1.00  0.00     0.029 A 
ATOM     61  C   UNL     1      -9.631   3.968   3.398  1.00  0.00     0.049 A 
ATOM     62  H   UNL     1      -7.555   3.862   3.030  1.00  0.00     0.167 HD
ATOM     63  C   UNL     1      -9.329   1.830   2.183  1.00  0.00     0.074 A 
ATOM     64  C   UNL     1      -9.821   0.594   1.611  1.00  0.00     0.031 C 
ATOM     65  C   UNL     1     -10.107   2.735   2.825  1.00  0.00     0.037 A 
BRANCH  52  66
ATOM     66  C   UNL     1      -6.985   7.617   4.975  1.00  0.00     0.057 A 
ATOM     67  C   UNL     1      -7.215   7.647   6.357  1.00  0.00     0.134 A 
ATOM     68  C   UNL     1      -6.791   8.841   4.325  1.00  0.00     0.134 A 
ATOM     69  F   UNL     1      -7.415   6.509   7.039  1.00  0.00    -0.206 F 
ATOM     70  C   UNL     1      -7.244   8.848   7.067  1.00  0.00     0.040 A 
ATOM     71  C   UNL     1      -6.794  10.048   5.029  1.00  0.00     0.040 A 
ATOM     72  F   UNL     1      -6.553   8.881   3.006  1.00  0.00    -0.206 F 
ATOM     73  C   UNL     1      -7.023  10.053   6.404  1.00  0.00     0.006 A 
ENDBRANCH  52  66
BRANCH  53  74
ATOM     74  C   UNL     1      -6.270  -1.011   0.045  1.00  0.00     0.057 A 
ATOM     75  C   UNL     1      -5.688  -2.172   0.567  1.00  0.00     0.134 A 
ATOM     76  C   UNL     1      -6.825  -1.090  -1.238  1.00  0.00     0.134 A 
ATOM     77  F   UNL     1      -5.143  -2.165   1.793  1.00  0.00    -0.206 F 
ATOM     78  C   UNL     1      -5.652  -3.363  -0.160  1.00  0.00     0.040 A 
ATOM     79  C   UNL     1      -6.820  -2.281  -1.966  1.00  0.00     0.040 A 
ATOM     80  F   UNL     1      -7.424  -0.020  -1.782  1.00  0.00    -0.206 F 
ATOM     81  C   UNL     1      -6.227  -3.422  -1.428  1.00  0.00     0.006 A 
ENDBRANCH  53  74
BRANCH  65  82
ATOM     82  C   UNL     1     -11.571   2.423   2.924  1.00  0.00     0.057 A 
ATOM     83  C   UNL     1     -12.506   3.118   2.148  1.00  0.00     0.134 A 
ATOM     84  C   UNL     1     -12.055   1.439   3.796  1.00  0.00     0.134 A 
ATOM     85  F   UNL     1     -12.108   4.074   1.295  1.00  0.00    -0.206 F 
ATOM     86  C   UNL     1     -13.872   2.846   2.235  1.00  0.00     0.040 A 
ATOM     87  C   UNL     1     -13.417   1.142   3.875  1.00  0.00     0.040 A 
ATOM     88  F   UNL     1     -11.209   0.725   4.553  1.00  0.00    -0.206 F 
ATOM     89  C   UNL     1     -14.330   1.850   3.096  1.00  0.00     0.006 A 
ENDBRANCH  65  82
ENDBRANCH  39  40
ENDBRANCH  32  34
ENDBRANCH  31  32
ENDBRANCH  30  31
ENDBRANCH  29  30
ENDBRANCH   1  29
TORSDOF 18
