REMARK SMILES O=C(OCCOCCOC(=O)c1ccc(-c2c3nc(c(-c4c(F)cccc4F)c4ccc([nH]4)c(-c4c(F)cccc4F)c4nc(c(-c5c(F)cccc5F)c5ccc2[nH]5)C=C4)C=C3)cc1)C1=Cc2cc(Cl)c(Cl)cc2O[C@@H]1C(F)(F)F
REMARK SMILES IDX 7 1 6 2 5 3 4 4 3 5 2 6 1 7 66 8 67 9 77 10 68 11 76 12
REMARK SMILES IDX 69 13 75 14 70 15 74 16 71 17 72 18 73 19 78 20 79 21 80 22
REMARK SMILES IDX 81 23 8 24 9 25 10 26 11 27 12 28 13 29 65 30 14 31 64 32
REMARK SMILES IDX 15 33 16 34 17 35 58 36 18 37 63 38 57 39 59 40 19 41 62 42
REMARK SMILES IDX 56 43 55 44 20 46 46 47 29 48 45 49 30 50 33 51 44 52 60 53
REMARK SMILES IDX 31 54 32 55 43 57 61 58 34 59 21 60 22 61 27 62 23 63 24 64
REMARK SMILES IDX 26 65 28 66 25 67 47 68 48 69 53 70 49 71 50 72 52 73 54 74
REMARK SMILES IDX 51 75 35 76 36 77 41 78 37 79 38 80 40 81 42 82 39 83
REMARK H PARENT 59 45 33 56
REMARK Flexibility Score: inf
ROOT
ATOM      1  C   UNL     1       2.857  -2.619   1.663  1.00  0.00     0.202 C 
ENDROOT
BRANCH   1   2
ATOM      2  O   UNL     1       4.104  -2.252   1.035  1.00  0.00    -0.374 OA
BRANCH   2   3
ATOM      3  C   UNL     1       4.433  -1.229  -0.192  1.00  0.00     0.202 C 
BRANCH   3   4
ATOM      4  C   UNL     1       3.618   0.758  -0.597  1.00  0.00     0.261 C 
BRANCH   4   5
ATOM      5  O   UNL     1       2.589   1.116  -1.669  1.00  0.00    -0.460 OA
BRANCH   5   6
ATOM      6  C   UNL     1       2.666   0.323  -2.742  1.00  0.00     0.338 C 
ATOM      7  O   UNL     1       1.951   0.280  -3.710  1.00  0.00    -0.246 OA
BRANCH   6   8
ATOM      8  C   UNL     1       3.567  -0.648  -2.154  1.00  0.00     0.087 C 
ATOM      9  C   UNL     1       4.968  -0.185  -2.149  1.00  0.00     0.027 C 
ATOM     10  C   UNL     1       2.499  -0.950  -0.572  1.00  0.00     0.316 C 
ATOM     11  C   UNL     1       5.822   0.415  -0.674  1.00  0.00     0.019 A 
ATOM     12  O   UNL     1       3.355  -0.240   1.014  1.00  0.00    -0.475 OA
ATOM     13  C   UNL     1       7.070   0.956  -0.804  1.00  0.00     0.034 A 
ATOM     14  C   UNL     1       5.035   0.481   0.872  1.00  0.00     0.129 A 
ATOM     15  C   UNL     1       7.565   1.601   0.343  1.00  0.00     0.060 A 
ATOM     16  C   UNL     1       5.535   1.234   1.895  1.00  0.00     0.069 A 
ATOM     17  Cl  UNL     1       9.187   2.224   0.173  1.00  0.00    -0.083 Cl
ATOM     18  C   UNL     1       6.816   1.786   1.592  1.00  0.00     0.063 A 
ATOM     19  Cl  UNL     1       7.508   2.852   2.782  1.00  0.00    -0.083 Cl
BRANCH  10  20
ATOM     20  C   UNL     1       2.031  -2.436  -0.968  1.00  0.00     0.430 C 
ATOM     21  F   UNL     1       1.129  -3.007  -0.150  1.00  0.00    -0.167 F 
ATOM     22  F   UNL     1       1.394  -2.349  -2.175  1.00  0.00    -0.167 F 
ATOM     23  F   UNL     1       3.034  -3.319  -1.178  1.00  0.00    -0.167 F 
ENDBRANCH  10  20
ENDBRANCH   6   8
ENDBRANCH   5   6
ENDBRANCH   4   5
ENDBRANCH   3   4
ENDBRANCH   2   3
ENDBRANCH   1   2
BRANCH   1  24
ATOM     24  C   UNL     1       2.852  -2.702   3.188  1.00  0.00     0.261 C 
BRANCH  24  25
ATOM     25  O   UNL     1       3.348  -1.517   3.790  1.00  0.00    -0.460 OA
BRANCH  25  26
ATOM     26  C   UNL     1       4.678  -1.569   4.004  1.00  0.00     0.338 C 
ATOM     27  O   UNL     1       5.459  -2.435   3.649  1.00  0.00    -0.246 OA
BRANCH  26  28
ATOM     28  C   UNL     1       5.082  -0.398   4.791  1.00  0.00     0.060 A 
ATOM     29  C   UNL     1       6.428  -0.034   4.718  1.00  0.00     0.016 A 
ATOM     30  C   UNL     1       4.181   0.311   5.600  1.00  0.00     0.016 A 
ATOM     31  C   UNL     1       6.882   1.034   5.468  1.00  0.00     0.010 A 
ATOM     32  C   UNL     1       4.640   1.380   6.362  1.00  0.00     0.010 A 
ATOM     33  C   UNL     1       5.998   1.719   6.310  1.00  0.00    -0.014 A 
BRANCH  33  34
ATOM     34  C   UNL     1       6.600   2.594   7.324  1.00  0.00     0.031 A 
ATOM     35  C   UNL     1       7.027   1.945   8.603  1.00  0.00     0.074 A 
ATOM     36  C   UNL     1       6.884   3.873   7.043  1.00  0.00     0.049 A 
ATOM     37  N   UNL     1       7.713   2.441   9.594  1.00  0.00    -0.248 NA
ATOM     38  C   UNL     1       6.641   0.532   8.778  1.00  0.00     0.031 C 
ATOM     39  C   UNL     1       6.559   4.557   5.793  1.00  0.00     0.029 A 
ATOM     40  N   UNL     1       7.546   4.814   7.783  1.00  0.00    -0.354 N 
ATOM     41  C   UNL     1       7.855   1.400  10.500  1.00  0.00     0.074 A 
ATOM     42  C   UNL     1       7.156   0.257   9.963  1.00  0.00     0.031 C 
ATOM     43  C   UNL     1       7.054   5.806   5.840  1.00  0.00     0.029 A 
ATOM     44  C   UNL     1       7.686   6.017   7.139  1.00  0.00     0.049 A 
ATOM     45  H   UNL     1       7.888   4.644   8.690  1.00  0.00     0.167 HD
ATOM     46  C   UNL     1       8.520   1.405  11.676  1.00  0.00     0.037 A 
ATOM     47  C   UNL     1       8.255   7.156   7.571  1.00  0.00     0.037 A 
ATOM     48  C   UNL     1       9.176   2.568  12.204  1.00  0.00     0.049 A 
ATOM     49  C   UNL     1       8.889   7.163   8.938  1.00  0.00     0.074 A 
ATOM     50  C   UNL     1       9.853   2.706  13.400  1.00  0.00     0.029 A 
ATOM     51  N   UNL     1       9.215   3.804  11.572  1.00  0.00    -0.354 N 
ATOM     52  N   UNL     1       9.029   6.178   9.795  1.00  0.00    -0.248 NA
ATOM     53  C   UNL     1       9.451   8.439   9.396  1.00  0.00     0.031 C 
ATOM     54  C   UNL     1      10.231   4.046  13.528  1.00  0.00     0.029 A 
ATOM     55  C   UNL     1       9.875   4.721  12.370  1.00  0.00     0.049 A 
ATOM     56  H   UNL     1       8.830   3.998  10.687  1.00  0.00     0.167 HD
ATOM     57  C   UNL     1       9.733   6.703  10.872  1.00  0.00     0.074 A 
ATOM     58  C   UNL     1       9.999   8.091  10.551  1.00  0.00     0.031 C 
ATOM     59  C   UNL     1      10.132   6.096  12.019  1.00  0.00     0.037 A 
BRANCH  46  60
ATOM     60  C   UNL     1       8.489   0.141  12.482  1.00  0.00     0.057 A 
ATOM     61  C   UNL     1       9.145  -1.028  12.072  1.00  0.00     0.134 A 
ATOM     62  C   UNL     1       7.768   0.090  13.680  1.00  0.00     0.134 A 
ATOM     63  F   UNL     1       9.828  -1.057  10.917  1.00  0.00    -0.206 F 
ATOM     64  C   UNL     1       9.058  -2.210  12.810  1.00  0.00     0.040 A 
ATOM     65  C   UNL     1       7.702  -1.075  14.444  1.00  0.00     0.040 A 
ATOM     66  F   UNL     1       7.108   1.170  14.125  1.00  0.00    -0.206 F 
ATOM     67  C   UNL     1       8.341  -2.232  14.005  1.00  0.00     0.006 A 
ENDBRANCH  46  60
BRANCH  47  68
ATOM     68  C   UNL     1       8.238   8.379   6.727  1.00  0.00     0.057 A 
ATOM     69  C   UNL     1       9.420   8.964   6.258  1.00  0.00     0.134 A 
ATOM     70  C   UNL     1       7.035   9.023   6.410  1.00  0.00     0.134 A 
ATOM     71  F   UNL     1      10.608   8.409   6.540  1.00  0.00    -0.206 F 
ATOM     72  C   UNL     1       9.410  10.160   5.537  1.00  0.00     0.040 A 
ATOM     73  C   UNL     1       7.008  10.201   5.662  1.00  0.00     0.040 A 
ATOM     74  F   UNL     1       5.864   8.517   6.824  1.00  0.00    -0.206 F 
ATOM     75  C   UNL     1       8.200  10.781   5.235  1.00  0.00     0.006 A 
ENDBRANCH  47  68
BRANCH  59  76
ATOM     76  C   UNL     1      10.958   6.912  12.974  1.00  0.00     0.057 A 
ATOM     77  C   UNL     1      10.436   8.004  13.678  1.00  0.00     0.134 A 
ATOM     78  C   UNL     1      12.298   6.574  13.209  1.00  0.00     0.134 A 
ATOM     79  F   UNL     1       9.162   8.385  13.498  1.00  0.00    -0.206 F 
ATOM     80  C   UNL     1      11.229   8.759  14.544  1.00  0.00     0.040 A 
ATOM     81  C   UNL     1      13.088   7.294  14.104  1.00  0.00     0.040 A 
ATOM     82  F   UNL     1      12.858   5.527  12.583  1.00  0.00    -0.206 F 
ATOM     83  C   UNL     1      12.557   8.400  14.763  1.00  0.00     0.006 A 
ENDBRANCH  59  76
ENDBRANCH  33  34
ENDBRANCH  26  28
ENDBRANCH  25  26
ENDBRANCH  24  25
ENDBRANCH   1  24
TORSDOF 15
