REMARK SMILES C[NH+](C)[C@H]1CCN(C(=O)C(=O)c2ccccc2)C[C@H]1CCC(=O)OCCOCCOC(=O)c1ccc(-c2c3nc(c(-c4c(F)cccc4F)c4ccc([nH]4)c(-c4c(F)cccc4F)c4nc(c(-c5c(F)cccc5F)c5ccc2[nH]5)C=C4)C=C3)cc1
REMARK SMILES IDX 25 1 24 2 22 3 23 4 21 5 20 6 19 7 4 8 5 9 6 10 18 11 7 12
REMARK SMILES IDX 2 13 1 14 3 15 8 17 9 18 10 19 11 20 12 21 13 22 17 23 14 24
REMARK SMILES IDX 16 25 15 26 26 27 27 28 28 29 29 30 30 31 31 32 32 33 33 34
REMARK SMILES IDX 34 35 86 36 35 37 85 38 36 39 37 40 38 41 79 42 39 43 84 44
REMARK SMILES IDX 78 45 80 46 40 47 83 48 77 49 76 50 41 52 67 53 50 54 66 55
REMARK SMILES IDX 51 56 54 57 65 58 81 59 52 60 53 61 64 63 82 64 55 65 42 66
REMARK SMILES IDX 43 67 48 68 44 69 45 70 47 71 49 72 46 73 68 74 69 75 74 76
REMARK SMILES IDX 70 77 71 78 73 79 75 80 72 81 56 82 57 83 62 84 58 85 59 86
REMARK SMILES IDX 61 87 63 88 60 89
REMARK H PARENT 2 16 80 51 54 62
REMARK Flexibility Score: inf
ROOT
ATOM      1  C   UNL     1       2.577  -2.159   3.541  1.00  0.00     0.261 C 
ENDROOT
BRANCH   1   2
ATOM      2  O   UNL     1       2.496  -0.738   3.343  1.00  0.00    -0.463 OA
BRANCH   2   3
ATOM      3  C   UNL     1       1.795  -0.055   4.281  1.00  0.00     0.305 C 
ATOM      4  O   UNL     1       1.135  -0.580   5.172  1.00  0.00    -0.252 OA
BRANCH   3   5
ATOM      5  C   UNL     1       1.997   1.444   4.200  1.00  0.00     0.123 C 
BRANCH   5   6
ATOM      6  C   UNL     1       2.770   2.031   3.018  1.00  0.00     0.023 C 
BRANCH   6   7
ATOM      7  C   UNL     1       2.273   1.780   1.567  1.00  0.00     0.067 C 
ATOM      8  C   UNL     1       0.781   2.126   1.273  1.00  0.00     0.190 C 
ATOM      9  C   UNL     1       0.590   3.653   1.383  1.00  0.00     0.087 C 
ATOM     10  C   UNL     1       1.535   4.390   0.441  1.00  0.00     0.126 C 
ATOM     11  C   UNL     1       3.196   2.571   0.608  1.00  0.00     0.129 C 
ATOM     12  N   UNL     1       2.927   4.011   0.647  1.00  0.00    -0.335 N 
BRANCH   8  13
ATOM     13  N   UNL     1      -0.120   1.308   2.117  1.00  0.00    -0.337 N 
ATOM     14  C   UNL     1      -0.317  -0.039   1.566  1.00  0.00     0.332 C 
ATOM     15  C   UNL     1      -1.425   1.901   2.405  1.00  0.00     0.332 C 
ATOM     16  H   UNL     1       0.377   1.259   3.006  1.00  0.00     0.347 HD
ENDBRANCH   8  13
BRANCH  12  17
ATOM     17  C   UNL     1       3.882   5.036   0.677  1.00  0.00     0.294 C 
ATOM     18  O   UNL     1       3.572   6.226   0.683  1.00  0.00    -0.265 OA
BRANCH  17  19
ATOM     19  C   UNL     1       5.382   4.703   0.661  1.00  0.00     0.250 C 
ATOM     20  O   UNL     1       5.793   3.717   0.058  1.00  0.00    -0.283 OA
BRANCH  19  21
ATOM     21  C   UNL     1       6.354   5.655   1.277  1.00  0.00     0.028 A 
ATOM     22  C   UNL     1       7.668   5.663   0.784  1.00  0.00     0.012 A 
ATOM     23  C   UNL     1       6.002   6.553   2.292  1.00  0.00     0.012 A 
ATOM     24  C   UNL     1       8.603   6.581   1.270  1.00  0.00     0.001 A 
ATOM     25  C   UNL     1       6.941   7.470   2.778  1.00  0.00     0.001 A 
ATOM     26  C   UNL     1       8.236   7.489   2.262  1.00  0.00     0.000 A 
ENDBRANCH  19  21
ENDBRANCH  17  19
ENDBRANCH  12  17
ENDBRANCH   6   7
ENDBRANCH   5   6
ENDBRANCH   3   5
ENDBRANCH   2   3
ENDBRANCH   1   2
BRANCH   1  27
ATOM     27  C   UNL     1       3.926  -2.683   3.046  1.00  0.00     0.202 C 
BRANCH  27  28
ATOM     28  O   UNL     1       5.068  -2.253   3.790  1.00  0.00    -0.374 OA
BRANCH  28  29
ATOM     29  C   UNL     1       5.438  -0.878   3.697  1.00  0.00     0.202 C 
BRANCH  29  30
ATOM     30  C   UNL     1       6.147  -0.446   2.407  1.00  0.00     0.261 C 
BRANCH  30  31
ATOM     31  O   UNL     1       5.342  -0.609   1.223  1.00  0.00    -0.460 OA
BRANCH  31  32
ATOM     32  C   UNL     1       5.784  -1.563   0.371  1.00  0.00     0.338 C 
ATOM     33  O   UNL     1       6.769  -2.277   0.499  1.00  0.00    -0.246 OA
BRANCH  32  34
ATOM     34  C   UNL     1       4.831  -1.760  -0.735  1.00  0.00     0.060 A 
ATOM     35  C   UNL     1       4.330  -3.053  -0.940  1.00  0.00     0.016 A 
ATOM     36  C   UNL     1       4.543  -0.736  -1.641  1.00  0.00     0.016 A 
ATOM     37  C   UNL     1       3.577  -3.338  -2.078  1.00  0.00     0.010 A 
ATOM     38  C   UNL     1       3.792  -1.028  -2.786  1.00  0.00     0.010 A 
ATOM     39  C   UNL     1       3.336  -2.337  -3.028  1.00  0.00    -0.014 A 
BRANCH  39  40
ATOM     40  C   UNL     1       2.724  -2.692  -4.333  1.00  0.00     0.031 A 
ATOM     41  C   UNL     1       3.610  -2.894  -5.532  1.00  0.00     0.074 A 
ATOM     42  C   UNL     1       1.395  -2.858  -4.447  1.00  0.00     0.049 A 
ATOM     43  N   UNL     1       3.281  -3.154  -6.772  1.00  0.00    -0.248 NA
ATOM     44  C   UNL     1       5.059  -2.789  -5.302  1.00  0.00     0.031 C 
ATOM     45  C   UNL     1       0.432  -2.741  -3.354  1.00  0.00     0.029 A 
ATOM     46  N   UNL     1       0.626  -3.155  -5.545  1.00  0.00    -0.354 N 
ATOM     47  C   UNL     1       4.479  -3.237  -7.471  1.00  0.00     0.074 A 
ATOM     48  C   UNL     1       5.541  -2.978  -6.522  1.00  0.00     0.031 C 
ATOM     49  C   UNL     1      -0.804  -2.949  -3.840  1.00  0.00     0.029 A 
ATOM     50  C   UNL     1      -0.721  -3.182  -5.281  1.00  0.00     0.049 A 
ATOM     51  H   UNL     1       1.004  -3.331  -6.437  1.00  0.00     0.167 HD
ATOM     52  C   UNL     1       4.678  -3.510  -8.783  1.00  0.00     0.037 A 
ATOM     53  C   UNL     1      -1.768  -3.351  -6.111  1.00  0.00     0.037 A 
ATOM     54  C   UNL     1       3.626  -3.773  -9.729  1.00  0.00     0.049 A 
ATOM     55  C   UNL     1      -1.526  -3.577  -7.579  1.00  0.00     0.074 A 
ATOM     56  C   UNL     1       3.732  -4.078 -11.075  1.00  0.00     0.029 A 
ATOM     57  N   UNL     1       2.273  -3.756  -9.429  1.00  0.00    -0.354 N 
ATOM     58  N   UNL     1      -0.390  -3.668  -8.226  1.00  0.00    -0.248 NA
ATOM     59  C   UNL     1      -2.715  -3.722  -8.434  1.00  0.00     0.031 C 
ATOM     60  C   UNL     1       2.441  -4.205 -11.599  1.00  0.00     0.029 A 
ATOM     61  C   UNL     1       1.533  -4.020 -10.570  1.00  0.00     0.049 A 
ATOM     62  H   UNL     1       1.894  -3.581  -8.537  1.00  0.00     0.167 HD
ATOM     63  C   UNL     1      -0.724  -3.905  -9.554  1.00  0.00     0.074 A 
ATOM     64  C   UNL     1      -2.169  -3.953  -9.620  1.00  0.00     0.031 C 
ATOM     65  C   UNL     1       0.094  -4.072 -10.621  1.00  0.00     0.037 A 
BRANCH  52  66
ATOM     66  C   UNL     1       6.093  -3.516  -9.280  1.00  0.00     0.057 A 
ATOM     67  C   UNL     1       6.975  -4.562  -8.983  1.00  0.00     0.134 A 
ATOM     68  C   UNL     1       6.565  -2.482 -10.097  1.00  0.00     0.134 A 
ATOM     69  F   UNL     1       6.587  -5.577  -8.197  1.00  0.00    -0.206 F 
ATOM     70  C   UNL     1       8.285  -4.569  -9.466  1.00  0.00     0.040 A 
ATOM     71  C   UNL     1       7.865  -2.488 -10.604  1.00  0.00     0.040 A 
ATOM     72  F   UNL     1       5.767  -1.453 -10.423  1.00  0.00    -0.206 F 
ATOM     73  C   UNL     1       8.731  -3.532 -10.284  1.00  0.00     0.006 A 
ENDBRANCH  52  66
BRANCH  53  74
ATOM     74  C   UNL     1      -3.152  -3.291  -5.579  1.00  0.00     0.057 A 
ATOM     75  C   UNL     1      -3.952  -4.437  -5.509  1.00  0.00     0.134 A 
ATOM     76  C   UNL     1      -3.712  -2.083  -5.145  1.00  0.00     0.134 A 
ATOM     77  F   UNL     1      -3.479  -5.617  -5.933  1.00  0.00    -0.206 F 
ATOM     78  C   UNL     1      -5.266  -4.382  -5.039  1.00  0.00     0.040 A 
ATOM     79  C   UNL     1      -5.016  -2.018  -4.653  1.00  0.00     0.040 A 
ATOM     80  F   UNL     1      -2.995  -0.951  -5.187  1.00  0.00    -0.206 F 
ATOM     81  C   UNL     1      -5.799  -3.169  -4.605  1.00  0.00     0.006 A 
ENDBRANCH  53  74
BRANCH  65  82
ATOM     82  C   UNL     1      -0.549  -4.353 -11.947  1.00  0.00     0.057 A 
ATOM     83  C   UNL     1      -1.194  -3.351 -12.681  1.00  0.00     0.134 A 
ATOM     84  C   UNL     1      -0.478  -5.631 -12.517  1.00  0.00     0.134 A 
ATOM     85  F   UNL     1      -1.307  -2.110 -12.185  1.00  0.00    -0.206 F 
ATOM     86  C   UNL     1      -1.761  -3.614 -13.930  1.00  0.00     0.040 A 
ATOM     87  C   UNL     1      -1.022  -5.900 -13.773  1.00  0.00     0.040 A 
ATOM     88  F   UNL     1       0.134  -6.633 -11.868  1.00  0.00    -0.206 F 
ATOM     89  C   UNL     1      -1.669  -4.890 -14.482  1.00  0.00     0.006 A 
ENDBRANCH  65  82
ENDBRANCH  39  40
ENDBRANCH  32  34
ENDBRANCH  31  32
ENDBRANCH  30  31
ENDBRANCH  29  30
ENDBRANCH  28  29
ENDBRANCH  27  28
ENDBRANCH   1  27
TORSDOF 20
