REMARK SMILES CCN1C(=O)CC[C@H](C(=O)OCCOCCOC(=O)c2ccc(-c3c4nc(c(-c5c(F)cccc5F)c5ccc([nH]5)c(-c5c(F)cccc5F)c5nc(c(-c6c(F)cccc6F)c6ccc3[nH]6)C=C5)C=C4)cc2)[C@@H]1c1ccc(OC)cc1
REMARK SMILES IDX 14 1 13 2 12 3 11 4 9 5 10 6 8 7 3 8 4 9 74 10 5 11 6 12
REMARK SMILES IDX 7 13 2 14 1 15 75 16 76 17 82 18 77 19 81 20 78 21 79 22
REMARK SMILES IDX 80 23 15 24 16 25 17 26 18 27 19 28 20 29 21 30 73 31 22 32
REMARK SMILES IDX 72 33 23 34 24 35 25 36 66 37 26 38 71 39 65 40 67 41 27 42
REMARK SMILES IDX 70 43 64 44 63 45 28 47 54 48 37 49 53 50 38 51 41 52 52 53
REMARK SMILES IDX 68 54 39 55 40 56 51 58 69 59 42 60 29 61 30 62 35 63 31 64
REMARK SMILES IDX 32 65 34 66 36 67 33 68 55 69 56 70 61 71 57 72 58 73 60 74
REMARK SMILES IDX 62 75 59 76 43 77 44 78 49 79 45 80 46 81 48 82 50 83 47 84
REMARK H PARENT 67 46 41 57
REMARK Flexibility Score: inf
ROOT
ATOM      1  O   UNL     1      -0.448   8.862  -1.835  1.00  0.00    -0.374 OA
ENDROOT
BRANCH   1   2
ATOM      2  C   UNL     1       0.190   9.058  -0.577  1.00  0.00     0.202 C 
BRANCH   2   3
ATOM      3  C   UNL     1       0.143   7.887   0.407  1.00  0.00     0.261 C 
BRANCH   3   4
ATOM      4  O   UNL     1       0.681   6.673  -0.142  1.00  0.00    -0.463 OA
BRANCH   4   5
ATOM      5  C   UNL     1      -0.188   5.632  -0.224  1.00  0.00     0.311 C 
ATOM      6  O   UNL     1      -1.357   5.661   0.146  1.00  0.00    -0.252 OA
BRANCH   5   7
ATOM      7  C   UNL     1       0.435   4.367  -0.767  1.00  0.00     0.127 C 
ATOM      8  N   UNL     1       1.013   2.027  -0.188  1.00  0.00    -0.335 N 
ATOM      9  C   UNL     1       1.832   1.915  -1.306  1.00  0.00     0.223 C 
ATOM     10  C   UNL     1       0.614   3.341   0.358  1.00  0.00     0.129 C 
ATOM     11  O   UNL     1       2.310   0.852  -1.702  1.00  0.00    -0.275 OA
ATOM     12  C   UNL     1       2.085   3.159  -2.151  1.00  0.00     0.101 C 
ATOM     13  C   UNL     1       1.736   4.504  -1.538  1.00  0.00     0.028 C 
BRANCH   8  14
ATOM     14  C   UNL     1       0.551   0.872   0.599  1.00  0.00     0.117 C 
ATOM     15  C   UNL     1       1.031  -0.523   0.237  1.00  0.00     0.027 C 
ENDBRANCH   8  14
BRANCH  10  16
ATOM     16  C   UNL     1       1.550   3.818   1.477  1.00  0.00    -0.024 A 
ATOM     17  C   UNL     1       2.895   3.429   1.559  1.00  0.00     0.010 A 
ATOM     18  C   UNL     1       1.067   4.717   2.444  1.00  0.00     0.010 A 
ATOM     19  C   UNL     1       3.734   3.960   2.543  1.00  0.00     0.047 A 
ATOM     20  C   UNL     1       1.914   5.268   3.410  1.00  0.00     0.047 A 
ATOM     21  C   UNL     1       3.256   4.901   3.453  1.00  0.00     0.118 A 
BRANCH  21  22
ATOM     22  O   UNL     1       4.181   5.366   4.345  1.00  0.00    -0.497 OA
ATOM     23  C   UNL     1       3.846   6.570   5.020  1.00  0.00     0.278 C 
ENDBRANCH  21  22
ENDBRANCH  10  16
ENDBRANCH   5   7
ENDBRANCH   4   5
ENDBRANCH   3   4
ENDBRANCH   2   3
ENDBRANCH   1   2
BRANCH   1  24
ATOM     24  C   UNL     1       0.184   7.994  -2.776  1.00  0.00     0.202 C 
BRANCH  24  25
ATOM     25  C   UNL     1       1.543   8.441  -3.331  1.00  0.00     0.261 C 
BRANCH  25  26
ATOM     26  O   UNL     1       2.587   8.446  -2.335  1.00  0.00    -0.460 OA
BRANCH  26  27
ATOM     27  C   UNL     1       3.241   9.627  -2.217  1.00  0.00     0.338 C 
ATOM     28  O   UNL     1       3.066  10.637  -2.886  1.00  0.00    -0.246 OA
BRANCH  27  29
ATOM     29  C   UNL     1       4.149   9.633  -1.057  1.00  0.00     0.060 A 
ATOM     30  C   UNL     1       3.928  10.600  -0.067  1.00  0.00     0.016 A 
ATOM     31  C   UNL     1       5.303   8.848  -1.034  1.00  0.00     0.016 A 
ATOM     32  C   UNL     1       4.893  10.830   0.913  1.00  0.00     0.010 A 
ATOM     33  C   UNL     1       6.274   9.086  -0.051  1.00  0.00     0.010 A 
ATOM     34  C   UNL     1       6.095  10.109   0.898  1.00  0.00    -0.014 A 
BRANCH  34  35
ATOM     35  C   UNL     1       7.214  10.537   1.777  1.00  0.00     0.031 A 
ATOM     36  C   UNL     1       8.306  11.406   1.214  1.00  0.00     0.074 A 
ATOM     37  C   UNL     1       7.242  10.197   3.078  1.00  0.00     0.049 A 
ATOM     38  N   UNL     1       9.371  11.885   1.806  1.00  0.00    -0.248 NA
ATOM     39  C   UNL     1       8.179  11.793  -0.200  1.00  0.00     0.031 C 
ATOM     40  C   UNL     1       6.229   9.397   3.762  1.00  0.00     0.029 A 
ATOM     41  N   UNL     1       8.165  10.481   4.054  1.00  0.00    -0.354 N 
ATOM     42  C   UNL     1      10.040  12.627   0.842  1.00  0.00     0.074 A 
ATOM     43  C   UNL     1       9.275  12.516  -0.383  1.00  0.00     0.031 C 
ATOM     44  C   UNL     1       6.599   9.237   5.044  1.00  0.00     0.029 A 
ATOM     45  C   UNL     1       7.885   9.893   5.262  1.00  0.00     0.049 A 
ATOM     46  H   UNL     1       8.953  11.052   3.902  1.00  0.00     0.167 HD
ATOM     47  C   UNL     1      11.180  13.347   0.966  1.00  0.00     0.037 A 
ATOM     48  C   UNL     1       8.591   9.862   6.408  1.00  0.00     0.037 A 
ATOM     49  C   UNL     1      11.939  13.476   2.182  1.00  0.00     0.049 A 
ATOM     50  C   UNL     1       9.890  10.613   6.502  1.00  0.00     0.074 A 
ATOM     51  C   UNL     1      13.086  14.220   2.406  1.00  0.00     0.029 A 
ATOM     52  N   UNL     1      11.634  12.842   3.374  1.00  0.00    -0.354 N 
ATOM     53  N   UNL     1      10.486  11.345   5.594  1.00  0.00    -0.248 NA
ATOM     54  C   UNL     1      10.607  10.545   7.785  1.00  0.00     0.031 C 
ATOM     55  C   UNL     1      13.495  14.006   3.727  1.00  0.00     0.029 A 
ATOM     56  C   UNL     1      12.582  13.159   4.333  1.00  0.00     0.049 A 
ATOM     57  H   UNL     1      10.857  12.254   3.520  1.00  0.00     0.167 HD
ATOM     58  C   UNL     1      11.628  11.850   6.203  1.00  0.00     0.074 A 
ATOM     59  C   UNL     1      11.639  11.345   7.560  1.00  0.00     0.031 C 
ATOM     60  C   UNL     1      12.578  12.664   5.684  1.00  0.00     0.037 A 
BRANCH  47  61
ATOM     61  C   UNL     1      11.690  14.052  -0.253  1.00  0.00     0.057 A 
ATOM     62  C   UNL     1      11.106  15.238  -0.715  1.00  0.00     0.134 A 
ATOM     63  C   UNL     1      12.815  13.573  -0.935  1.00  0.00     0.134 A 
ATOM     64  F   UNL     1      10.019  15.741  -0.110  1.00  0.00    -0.206 F 
ATOM     65  C   UNL     1      11.619  15.920  -1.819  1.00  0.00     0.040 A 
ATOM     66  C   UNL     1      13.348  14.255  -2.029  1.00  0.00     0.040 A 
ATOM     67  F   UNL     1      13.421  12.444  -0.539  1.00  0.00    -0.206 F 
ATOM     68  C   UNL     1      12.749  15.432  -2.475  1.00  0.00     0.006 A 
ENDBRANCH  47  61
BRANCH  48  69
ATOM     69  C   UNL     1       8.102   9.065   7.561  1.00  0.00     0.057 A 
ATOM     70  C   UNL     1       7.628   9.678   8.726  1.00  0.00     0.134 A 
ATOM     71  C   UNL     1       8.133   7.665   7.533  1.00  0.00     0.134 A 
ATOM     72  F   UNL     1       7.596  11.015   8.819  1.00  0.00    -0.206 F 
ATOM     73  C   UNL     1       7.221   8.928   9.831  1.00  0.00     0.040 A 
ATOM     74  C   UNL     1       7.708   6.903   8.621  1.00  0.00     0.040 A 
ATOM     75  F   UNL     1       8.578   7.020   6.445  1.00  0.00    -0.206 F 
ATOM     76  C   UNL     1       7.258   7.535   9.778  1.00  0.00     0.006 A 
ENDBRANCH  48  69
BRANCH  60  77
ATOM     77  C   UNL     1      13.684  13.097   6.598  1.00  0.00     0.057 A 
ATOM     78  C   UNL     1      14.720  12.230   6.965  1.00  0.00     0.134 A 
ATOM     79  C   UNL     1      13.727  14.407   7.091  1.00  0.00     0.134 A 
ATOM     80  F   UNL     1      14.727  10.959   6.536  1.00  0.00    -0.206 F 
ATOM     81  C   UNL     1      15.752  12.646   7.808  1.00  0.00     0.040 A 
ATOM     82  C   UNL     1      14.765  14.840   7.918  1.00  0.00     0.040 A 
ATOM     83  F   UNL     1      12.767  15.288   6.771  1.00  0.00    -0.206 F 
ATOM     84  C   UNL     1      15.778  13.956   8.282  1.00  0.00     0.006 A 
ENDBRANCH  60  77
ENDBRANCH  34  35
ENDBRANCH  27  29
ENDBRANCH  26  27
ENDBRANCH  25  26
ENDBRANCH  24  25
ENDBRANCH   1  24
TORSDOF 17
