REMARK SMILES C[C@H](C(=O)OCCOCCOC(=O)c1ccc(-c2c3nc(c(-c4c(F)cccc4F)c4ccc([nH]4)c(-c4c(F)cccc4F)c4nc(c(-c5c(F)cccc5F)c5ccc2[nH]5)C=C4)C=C3)cc1)c1ccc2c3cc(Cl)ccc3n(C(=O)c3cocn3)c2c1
REMARK SMILES IDX 7 1 6 2 5 3 3 4 4 5 2 6 1 7 68 8 69 9 88 10 70 11 87 12
REMARK SMILES IDX 71 13 79 14 72 15 78 16 73 17 77 18 74 19 76 20 75 21 80 22
REMARK SMILES IDX 81 23 82 24 83 25 86 26 84 27 85 28 8 29 9 30 10 31 11 32
REMARK SMILES IDX 12 33 13 34 14 35 15 36 67 37 16 38 66 39 17 40 18 41 19 42
REMARK SMILES IDX 60 43 20 44 65 45 59 46 61 47 21 48 64 49 58 50 57 51 22 53
REMARK SMILES IDX 48 54 31 55 47 56 32 57 35 58 46 59 62 60 33 61 34 62 45 64
REMARK SMILES IDX 63 65 36 66 23 67 24 68 29 69 25 70 26 71 28 72 30 73 27 74
REMARK SMILES IDX 49 75 50 76 55 77 51 78 52 79 54 80 56 81 53 82 37 83 38 84
REMARK SMILES IDX 43 85 39 86 40 87 42 88 44 89 41 90
REMARK H PARENT 61 52 35 63
REMARK Flexibility Score: inf
ROOT
ATOM      1  C   UNL     1       1.719  -1.699   2.034  1.00  0.00     0.202 C 
ENDROOT
BRANCH   1   2
ATOM      2  C   UNL     1       1.353  -0.217   2.153  1.00  0.00     0.261 C 
BRANCH   2   3
ATOM      3  O   UNL     1       0.567   0.246   1.038  1.00  0.00    -0.463 OA
BRANCH   3   4
ATOM      4  C   UNL     1       1.211   1.075   0.176  1.00  0.00     0.313 C 
ATOM      5  O   UNL     1       2.366   1.465   0.329  1.00  0.00    -0.252 OA
BRANCH   4   6
ATOM      6  C   UNL     1       0.418   1.433  -1.070  1.00  0.00     0.126 C 
ATOM      7  C   UNL     1       0.994   0.751  -2.315  1.00  0.00     0.025 C 
BRANCH   6   8
ATOM      8  C   UNL     1      -1.101   1.302  -1.044  1.00  0.00    -0.032 A 
ATOM      9  C   UNL     1      -1.843   2.475  -1.210  1.00  0.00     0.005 A 
ATOM     10  C   UNL     1      -1.774   0.061  -0.988  1.00  0.00     0.032 A 
ATOM     11  C   UNL     1      -3.223   2.435  -1.378  1.00  0.00     0.011 A 
ATOM     12  C   UNL     1      -3.188   0.024  -1.130  1.00  0.00     0.058 A 
ATOM     13  C   UNL     1      -3.899   1.202  -1.341  1.00  0.00     0.008 A 
ATOM     14  N   UNL     1      -4.125  -1.043  -1.153  1.00  0.00    -0.274 N 
ATOM     15  C   UNL     1      -5.272   0.873  -1.424  1.00  0.00     0.009 A 
ATOM     16  C   UNL     1      -5.404  -0.465  -1.037  1.00  0.00     0.057 A 
ATOM     17  C   UNL     1      -6.413   1.661  -1.676  1.00  0.00     0.031 A 
ATOM     18  C   UNL     1      -6.670  -0.952  -0.662  1.00  0.00     0.029 A 
ATOM     19  C   UNL     1      -7.670   1.132  -1.418  1.00  0.00     0.041 A 
ATOM     20  C   UNL     1      -7.796  -0.136  -0.868  1.00  0.00     0.023 A 
ATOM     21  Cl  UNL     1      -9.066   2.089  -1.724  1.00  0.00    -0.084 Cl
BRANCH  14  22
ATOM     22  C   UNL     1      -3.766  -2.420  -1.303  1.00  0.00     0.284 C 
ATOM     23  O   UNL     1      -2.570  -2.627  -1.504  1.00  0.00    -0.266 OA
BRANCH  22  24
ATOM     24  C   UNL     1      -4.646  -3.598  -1.256  1.00  0.00     0.167 A 
ATOM     25  C   UNL     1      -5.929  -3.809  -1.706  1.00  0.00     0.231 A 
ATOM     26  N   UNL     1      -4.163  -4.822  -0.785  1.00  0.00    -0.211 NA
ATOM     27  O   UNL     1      -6.276  -5.110  -1.465  1.00  0.00    -0.451 OA
ATOM     28  C   UNL     1      -5.160  -5.658  -0.924  1.00  0.00     0.308 A 
ENDBRANCH  22  24
ENDBRANCH  14  22
ENDBRANCH   6   8
ENDBRANCH   4   6
ENDBRANCH   3   4
ENDBRANCH   2   3
ENDBRANCH   1   2
BRANCH   1  29
ATOM     29  O   UNL     1       2.559  -2.086   0.946  1.00  0.00    -0.374 OA
BRANCH  29  30
ATOM     30  C   UNL     1       1.967  -2.152  -0.349  1.00  0.00     0.202 C 
BRANCH  30  31
ATOM     31  C   UNL     1       1.125  -3.387  -0.683  1.00  0.00     0.261 C 
BRANCH  31  32
ATOM     32  O   UNL     1       0.002  -3.520   0.196  1.00  0.00    -0.460 OA
BRANCH  32  33
ATOM     33  C   UNL     1       0.146  -4.433   1.184  1.00  0.00     0.338 C 
ATOM     34  O   UNL     1       1.102  -5.169   1.380  1.00  0.00    -0.246 OA
BRANCH  33  35
ATOM     35  C   UNL     1      -0.989  -4.321   2.122  1.00  0.00     0.060 A 
ATOM     36  C   UNL     1      -0.763  -4.469   3.492  1.00  0.00     0.016 A 
ATOM     37  C   UNL     1      -2.282  -4.118   1.647  1.00  0.00     0.016 A 
ATOM     38  C   UNL     1      -1.845  -4.500   4.372  1.00  0.00     0.010 A 
ATOM     39  C   UNL     1      -3.367  -4.147   2.519  1.00  0.00     0.010 A 
ATOM     40  C   UNL     1      -3.155  -4.391   3.880  1.00  0.00    -0.014 A 
BRANCH  40  41
ATOM     41  C   UNL     1      -4.310  -4.640   4.769  1.00  0.00     0.031 A 
ATOM     42  C   UNL     1      -4.990  -5.981   4.738  1.00  0.00     0.074 A 
ATOM     43  C   UNL     1      -4.755  -3.667   5.579  1.00  0.00     0.049 A 
ATOM     44  N   UNL     1      -5.984  -6.421   5.466  1.00  0.00    -0.248 NA
ATOM     45  C   UNL     1      -4.495  -6.950   3.747  1.00  0.00     0.031 C 
ATOM     46  C   UNL     1      -4.195  -2.319   5.662  1.00  0.00     0.029 A 
ATOM     47  N   UNL     1      -5.787  -3.662   6.480  1.00  0.00    -0.354 N 
ATOM     48  C   UNL     1      -6.222  -7.720   5.035  1.00  0.00     0.074 A 
ATOM     49  C   UNL     1      -5.307  -7.979   3.945  1.00  0.00     0.031 C 
ATOM     50  C   UNL     1      -4.891  -1.615   6.569  1.00  0.00     0.029 A 
ATOM     51  C   UNL     1      -5.950  -2.459   7.119  1.00  0.00     0.049 A 
ATOM     52  H   UNL     1      -6.357  -4.447   6.652  1.00  0.00     0.167 HD
ATOM     53  C   UNL     1      -7.113  -8.619   5.520  1.00  0.00     0.037 A 
ATOM     54  C   UNL     1      -6.854  -2.085   8.043  1.00  0.00     0.037 A 
ATOM     55  C   UNL     1      -8.029  -8.344   6.597  1.00  0.00     0.049 A 
ATOM     56  C   UNL     1      -7.857  -3.091   8.540  1.00  0.00     0.074 A 
ATOM     57  C   UNL     1      -8.933  -9.200   7.201  1.00  0.00     0.029 A 
ATOM     58  N   UNL     1      -8.172  -7.111   7.218  1.00  0.00    -0.354 N 
ATOM     59  N   UNL     1      -8.011  -4.347   8.196  1.00  0.00    -0.248 NA
ATOM     60  C   UNL     1      -8.802  -2.631   9.567  1.00  0.00     0.031 C 
ATOM     61  C   UNL     1      -9.667  -8.470   8.141  1.00  0.00     0.029 A 
ATOM     62  C   UNL     1      -9.175  -7.175   8.172  1.00  0.00     0.049 A 
ATOM     63  H   UNL     1      -7.639  -6.310   7.012  1.00  0.00     0.167 HD
ATOM     64  C   UNL     1      -9.044  -4.836   8.986  1.00  0.00     0.074 A 
ATOM     65  C   UNL     1      -9.470  -3.743   9.836  1.00  0.00     0.031 C 
ATOM     66  C   UNL     1      -9.589  -6.078   9.010  1.00  0.00     0.037 A 
BRANCH  53  67
ATOM     67  C   UNL     1      -7.147  -9.982   4.888  1.00  0.00     0.057 A 
ATOM     68  C   UNL     1      -6.098 -10.898   5.043  1.00  0.00     0.134 A 
ATOM     69  C   UNL     1      -8.269 -10.408   4.164  1.00  0.00     0.134 A 
ATOM     70  F   UNL     1      -4.990 -10.555   5.718  1.00  0.00    -0.206 F 
ATOM     71  C   UNL     1      -6.152 -12.176   4.483  1.00  0.00     0.040 A 
ATOM     72  C   UNL     1      -8.348 -11.693   3.625  1.00  0.00     0.040 A 
ATOM     73  F   UNL     1      -9.314  -9.586   3.981  1.00  0.00    -0.206 F 
ATOM     74  C   UNL     1      -7.285 -12.580   3.779  1.00  0.00     0.006 A 
ENDBRANCH  53  67
BRANCH  54  75
ATOM     75  C   UNL     1      -6.831  -0.702   8.580  1.00  0.00     0.057 A 
ATOM     76  C   UNL     1      -6.458  -0.445   9.904  1.00  0.00     0.134 A 
ATOM     77  C   UNL     1      -7.182   0.395   7.784  1.00  0.00     0.134 A 
ATOM     78  F   UNL     1      -6.127  -1.457  10.720  1.00  0.00    -0.206 F 
ATOM     79  C   UNL     1      -6.456   0.849  10.425  1.00  0.00     0.040 A 
ATOM     80  C   UNL     1      -7.157   1.698   8.283  1.00  0.00     0.040 A 
ATOM     81  F   UNL     1      -7.540   0.217   6.503  1.00  0.00    -0.206 F 
ATOM     82  C   UNL     1      -6.801   1.926   9.611  1.00  0.00     0.006 A 
ENDBRANCH  54  75
BRANCH  66  83
ATOM     83  C   UNL     1     -10.682  -6.331  10.011  1.00  0.00     0.057 A 
ATOM     84  C   UNL     1     -11.955  -5.761   9.882  1.00  0.00     0.134 A 
ATOM     85  C   UNL     1     -10.465  -7.185  11.101  1.00  0.00     0.134 A 
ATOM     86  F   UNL     1     -12.227  -4.925   8.868  1.00  0.00    -0.206 F 
ATOM     87  C   UNL     1     -12.963  -6.006  10.816  1.00  0.00     0.040 A 
ATOM     88  C   UNL     1     -11.474  -7.464  12.023  1.00  0.00     0.040 A 
ATOM     89  F   UNL     1      -9.273  -7.774  11.279  1.00  0.00    -0.206 F 
ATOM     90  C   UNL     1     -12.725  -6.866  11.887  1.00  0.00     0.006 A 
ENDBRANCH  66  83
ENDBRANCH  40  41
ENDBRANCH  33  35
ENDBRANCH  32  33
ENDBRANCH  31  32
ENDBRANCH  30  31
ENDBRANCH  29  30
ENDBRANCH   1  29
TORSDOF 17
