REMARK SMILES COc1ccc(-c2ccc(C(=O)NCc3ccc(C(=O)OCCOCCOC(=O)c4ccc(-c5c6nc(c(-c7c(F)cccc7F)c7ccc([nH]7)c(-c7c(F)cccc7F)c7nc(c(-c8c(F)cccc8F)c8ccc5[nH]8)C=C7)C=C6)cc4)cc3)o2)c([N+](=O)[O-])c1
REMARK SMILES IDX 22 1 21 2 19 3 20 4 18 5 15 6 16 7 85 8 17 9 84 10 14 11
REMARK SMILES IDX 13 12 11 13 12 14 10 16 7 17 8 18 86 19 9 20 6 21 3 22 4 23
REMARK SMILES IDX 91 24 5 25 87 26 2 27 1 28 88 29 89 30 90 31 23 32 24 33
REMARK SMILES IDX 25 34 26 35 27 36 28 37 29 38 30 39 31 40 83 41 32 42 82 43
REMARK SMILES IDX 33 44 34 45 35 46 76 47 36 48 81 49 75 50 77 51 37 52 80 53
REMARK SMILES IDX 74 54 73 55 38 57 64 58 47 59 63 60 48 61 51 62 62 63 78 64
REMARK SMILES IDX 49 65 50 66 61 68 79 69 52 70 39 71 40 72 45 73 41 74 42 75
REMARK SMILES IDX 44 76 46 77 43 78 65 79 66 80 71 81 67 82 68 83 70 84 72 85
REMARK SMILES IDX 69 86 53 87 54 88 59 89 55 90 56 91 58 92 60 93 57 94
REMARK H PARENT 13 15 77 56 51 67
REMARK Flexibility Score: inf
ROOT
ATOM      1  C   UNL     1       1.271 -17.583   2.789  1.00  0.00     0.261 C 
ENDROOT
BRANCH   1   2
ATOM      2  O   UNL     1       1.556 -16.620   1.760  1.00  0.00    -0.460 OA
BRANCH   2   3
ATOM      3  C   UNL     1       1.030 -15.392   1.972  1.00  0.00     0.338 C 
ATOM      4  O   UNL     1       0.238 -15.076   2.849  1.00  0.00    -0.246 OA
BRANCH   3   5
ATOM      5  C   UNL     1       1.668 -14.396   1.082  1.00  0.00     0.060 A 
ATOM      6  C   UNL     1       2.797 -12.369  -0.508  1.00  0.00    -0.029 A 
ATOM      7  C   UNL     1       2.363 -12.098   0.795  1.00  0.00     0.006 A 
ATOM      8  C   UNL     1       2.683 -13.682  -0.996  1.00  0.00     0.006 A 
ATOM      9  C   UNL     1       1.803 -13.099   1.583  1.00  0.00     0.016 A 
ATOM     10  C   UNL     1       2.130 -14.696  -0.203  1.00  0.00     0.016 A 
BRANCH   6  11
ATOM     11  C   UNL     1       3.290 -11.254  -1.399  1.00  0.00     0.152 C 
BRANCH  11  12
ATOM     12  N   UNL     1       2.173 -10.589  -2.031  1.00  0.00    -0.345 N 
ATOM     13  C   UNL     1       1.568  -9.371  -1.843  1.00  0.00     0.287 C 
ATOM     14  O   UNL     1       0.637  -9.133  -2.620  1.00  0.00    -0.266 OA
ATOM     15  H   UNL     1       1.758 -11.122  -2.747  1.00  0.00     0.164 HD
BRANCH  13  16
ATOM     16  C   UNL     1       1.985  -8.430  -0.818  1.00  0.00     0.192 A 
ATOM     17  C   UNL     1       1.944  -6.415   0.113  1.00  0.00     0.142 A 
ATOM     18  C   UNL     1       2.780  -7.176   0.892  1.00  0.00     0.052 A 
ATOM     19  O   UNL     1       1.429  -7.167  -0.894  1.00  0.00    -0.451 OA
ATOM     20  C   UNL     1       2.821  -8.455   0.285  1.00  0.00     0.057 A 
BRANCH  17  21
ATOM     21  C   UNL     1       1.540  -5.022   0.145  1.00  0.00     0.095 A 
ATOM     22  C   UNL     1       0.697  -2.337   0.441  1.00  0.00     0.125 A 
ATOM     23  C   UNL     1      -0.208  -3.389   0.596  1.00  0.00     0.047 A 
ATOM     24  C   UNL     1       2.025  -2.615   0.130  1.00  0.00     0.132 A 
ATOM     25  C   UNL     1       0.203  -4.717   0.436  1.00  0.00     0.023 A 
ATOM     26  C   UNL     1       2.435  -3.952  -0.019  1.00  0.00     0.284 A 
BRANCH  22  27
ATOM     27  O   UNL     1       0.180  -1.091   0.661  1.00  0.00    -0.497 OA
ATOM     28  C   UNL     1       0.851  -0.011   0.019  1.00  0.00     0.278 C 
ENDBRANCH  22  27
BRANCH  26  29
ATOM     29  N   UNL     1       3.841  -4.183  -0.344  1.00  0.00     0.063 N 
ATOM     30  O   UNL     1       4.115  -5.032  -1.202  1.00  0.00    -0.258 OA
ATOM     31  O   UNL     1       4.675  -3.480   0.245  1.00  0.00    -0.258 OA
ENDBRANCH  26  29
ENDBRANCH  17  21
ENDBRANCH  13  16
ENDBRANCH  11  12
ENDBRANCH   6  11
ENDBRANCH   3   5
ENDBRANCH   2   3
ENDBRANCH   1   2
BRANCH   1  32
ATOM     32  C   UNL     1       2.546 -17.966   3.544  1.00  0.00     0.202 C 
BRANCH  32  33
ATOM     33  O   UNL     1       3.151 -16.922   4.307  1.00  0.00    -0.374 OA
BRANCH  33  34
ATOM     34  C   UNL     1       4.008 -16.021   3.603  1.00  0.00     0.202 C 
BRANCH  34  35
ATOM     35  C   UNL     1       5.432 -16.527   3.336  1.00  0.00     0.261 C 
BRANCH  35  36
ATOM     36  O   UNL     1       5.442 -17.592   2.367  1.00  0.00    -0.460 OA
BRANCH  36  37
ATOM     37  C   UNL     1       5.763 -18.810   2.859  1.00  0.00     0.338 C 
ATOM     38  O   UNL     1       6.135 -19.080   3.993  1.00  0.00    -0.246 OA
BRANCH  37  39
ATOM     39  C   UNL     1       5.430 -19.852   1.870  1.00  0.00     0.060 A 
ATOM     40  C   UNL     1       4.634 -20.921   2.300  1.00  0.00     0.016 A 
ATOM     41  C   UNL     1       5.933 -19.820   0.567  1.00  0.00     0.016 A 
ATOM     42  C   UNL     1       4.374 -21.988   1.442  1.00  0.00     0.010 A 
ATOM     43  C   UNL     1       5.679 -20.896  -0.290  1.00  0.00     0.010 A 
ATOM     44  C   UNL     1       4.927 -21.999   0.155  1.00  0.00    -0.014 A 
BRANCH  44  45
ATOM     45  C   UNL     1       4.832 -23.227  -0.671  1.00  0.00     0.031 A 
ATOM     46  C   UNL     1       6.007 -24.163  -0.725  1.00  0.00     0.074 A 
ATOM     47  C   UNL     1       3.705 -23.517  -1.345  1.00  0.00     0.049 A 
ATOM     48  N   UNL     1       6.155 -25.272  -1.405  1.00  0.00    -0.248 NA
ATOM     49  C   UNL     1       7.171 -23.801   0.099  1.00  0.00     0.031 C 
ATOM     50  C   UNL     1       2.487 -22.710  -1.343  1.00  0.00     0.029 A 
ATOM     51  N   UNL     1       3.409 -24.575  -2.168  1.00  0.00    -0.354 N 
ATOM     52  C   UNL     1       7.427 -25.736  -1.096  1.00  0.00     0.074 A 
ATOM     53  C   UNL     1       8.021 -24.775  -0.192  1.00  0.00     0.031 C 
ATOM     54  C   UNL     1       1.575 -23.297  -2.137  1.00  0.00     0.029 A 
ATOM     55  C   UNL     1       2.156 -24.503  -2.724  1.00  0.00     0.049 A 
ATOM     56  H   UNL     1       4.036 -25.314  -2.343  1.00  0.00     0.167 HD
ATOM     57  C   UNL     1       8.041 -26.866  -1.519  1.00  0.00     0.037 A 
ATOM     58  C   UNL     1       1.556 -25.309  -3.621  1.00  0.00     0.037 A 
ATOM     59  C   UNL     1       7.450 -27.823  -2.417  1.00  0.00     0.049 A 
ATOM     60  C   UNL     1       2.286 -26.523  -4.132  1.00  0.00     0.074 A 
ATOM     61  C   UNL     1       7.986 -29.008  -2.890  1.00  0.00     0.029 A 
ATOM     62  N   UNL     1       6.191 -27.698  -2.985  1.00  0.00    -0.354 N 
ATOM     63  N   UNL     1       3.479 -26.965  -3.816  1.00  0.00    -0.248 NA
ATOM     64  C   UNL     1       1.585 -27.349  -5.125  1.00  0.00     0.031 C 
ATOM     65  C   UNL     1       7.069 -29.578  -3.780  1.00  0.00     0.029 A 
ATOM     66  C   UNL     1       5.942 -28.773  -3.823  1.00  0.00     0.049 A 
ATOM     67  H   UNL     1       5.566 -26.956  -2.817  1.00  0.00     0.167 HD
ATOM     68  C   UNL     1       3.659 -28.133  -4.547  1.00  0.00     0.074 A 
ATOM     69  C   UNL     1       2.449 -28.337  -5.315  1.00  0.00     0.031 C 
ATOM     70  C   UNL     1       4.730 -28.965  -4.577  1.00  0.00     0.037 A 
BRANCH  57  71
ATOM     71  C   UNL     1       9.438 -27.117  -1.031  1.00  0.00     0.057 A 
ATOM     72  C   UNL     1       9.703 -27.494   0.291  1.00  0.00     0.134 A 
ATOM     73  C   UNL     1      10.528 -27.007  -1.903  1.00  0.00     0.134 A 
ATOM     74  F   UNL     1       8.704 -27.602   1.181  1.00  0.00    -0.206 F 
ATOM     75  C   UNL     1      11.005 -27.732   0.735  1.00  0.00     0.040 A 
ATOM     76  C   UNL     1      11.832 -27.266  -1.478  1.00  0.00     0.040 A 
ATOM     77  F   UNL     1      10.343 -26.653  -3.184  1.00  0.00    -0.206 F 
ATOM     78  C   UNL     1      12.073 -27.624  -0.153  1.00  0.00     0.006 A 
ENDBRANCH  57  71
BRANCH  58  79
ATOM     79  C   UNL     1       0.190 -24.992  -4.106  1.00  0.00     0.057 A 
ATOM     80  C   UNL     1      -0.907 -25.790  -3.760  1.00  0.00     0.134 A 
ATOM     81  C   UNL     1      -0.049 -23.896  -4.944  1.00  0.00     0.134 A 
ATOM     82  F   UNL     1      -0.737 -26.868  -2.981  1.00  0.00    -0.206 F 
ATOM     83  C   UNL     1      -2.189 -25.519  -4.242  1.00  0.00     0.040 A 
ATOM     84  C   UNL     1      -1.329 -23.599  -5.414  1.00  0.00     0.040 A 
ATOM     85  F   UNL     1       0.961 -23.093  -5.312  1.00  0.00    -0.206 F 
ATOM     86  C   UNL     1      -2.403 -24.417  -5.068  1.00  0.00     0.006 A 
ENDBRANCH  58  79
BRANCH  70  87
ATOM     87  C   UNL     1       4.628 -30.188  -5.441  1.00  0.00     0.057 A 
ATOM     88  C   UNL     1       4.691 -30.114  -6.838  1.00  0.00     0.134 A 
ATOM     89  C   UNL     1       4.508 -31.459  -4.865  1.00  0.00     0.134 A 
ATOM     90  F   UNL     1       4.794 -28.926  -7.452  1.00  0.00    -0.206 F 
ATOM     91  C   UNL     1       4.616 -31.260  -7.632  1.00  0.00     0.040 A 
ATOM     92  C   UNL     1       4.457 -32.613  -5.647  1.00  0.00     0.040 A 
ATOM     93  F   UNL     1       4.452 -31.600  -3.532  1.00  0.00    -0.206 F 
ATOM     94  C   UNL     1       4.506 -32.515  -7.036  1.00  0.00     0.006 A 
ENDBRANCH  70  87
ENDBRANCH  44  45
ENDBRANCH  37  39
ENDBRANCH  36  37
ENDBRANCH  35  36
ENDBRANCH  34  35
ENDBRANCH  33  34
ENDBRANCH  32  33
ENDBRANCH   1  32
TORSDOF 20
