REMARK SMILES CC(=O)NCCNC(=O)C[N@H+]1CC[C@@H](C(=O)OCCOCCOC(=O)c2ccc(-c3c4nc(c(-c5c(F)cccc5F)c5ccc([nH]5)c(-c5c(F)cccc5F)c5nc(c(-c6c(F)cccc6F)c6ccc3[nH]6)C=C5)C=C4)cc2)[C@H]1C
REMARK SMILES IDX 18 1 17 2 15 3 16 4 14 5 11 6 12 7 80 8 13 10 81 11 10 12
REMARK SMILES IDX 8 13 7 14 9 16 6 17 5 18 4 19 1 20 2 21 3 22 19 24 20 25
REMARK SMILES IDX 21 26 22 27 23 28 24 29 25 30 26 31 27 32 79 33 28 34 78 35
REMARK SMILES IDX 29 36 30 37 31 38 72 39 32 40 77 41 71 42 73 43 33 44 76 45
REMARK SMILES IDX 70 46 69 47 34 49 60 50 43 51 59 52 44 53 47 54 58 55 74 56
REMARK SMILES IDX 45 57 46 58 57 60 75 61 48 62 35 63 36 64 41 65 37 66 38 67
REMARK SMILES IDX 40 68 42 69 39 70 61 71 62 72 67 73 63 74 64 75 66 76 68 77
REMARK SMILES IDX 65 78 49 79 50 80 55 81 51 82 52 83 54 84 56 85 53 86
REMARK H PARENT 11 9 7 15 4 23 73 48 47 59
REMARK Flexibility Score: inf
ROOT
ATOM      1  C   UNL     1       5.433   9.328   4.312  1.00  0.00     0.261 C 
ENDROOT
BRANCH   1   2
ATOM      2  O   UNL     1       5.153   8.330   3.314  1.00  0.00    -0.463 OA
BRANCH   2   3
ATOM      3  C   UNL     1       4.205   7.423   3.636  1.00  0.00     0.315 C 
ATOM      4  O   UNL     1       3.742   7.271   4.760  1.00  0.00    -0.252 OA
BRANCH   3   5
ATOM      5  C   UNL     1       3.784   6.552   2.475  1.00  0.00     0.162 C 
ATOM      6  N   UNL     1       3.611   5.778   0.251  1.00  0.00    -0.324 N 
ATOM      7  C   UNL     1       4.240   4.730   1.067  1.00  0.00     0.264 C 
ATOM      8  C   UNL     1       3.620   7.056   1.024  1.00  0.00     0.195 C 
ATOM      9  H   UNL     1       2.623   5.581   0.090  1.00  0.00     0.348 HD
ATOM     10  C   UNL     1       4.729   5.385   2.336  1.00  0.00     0.083 C 
ATOM     11  C   UNL     1       4.625   8.108   0.541  1.00  0.00     0.076 C 
BRANCH   6  12
ATOM     12  C   UNL     1       4.064   5.787  -1.150  1.00  0.00     0.363 C 
BRANCH  12  13
ATOM     13  C   UNL     1       2.940   5.439  -2.133  1.00  0.00     0.275 C 
ATOM     14  N   UNL     1       2.563   4.139  -2.322  1.00  0.00    -0.349 N 
ATOM     15  H   UNL     1       2.027   3.961  -3.128  1.00  0.00     0.163 HD
ATOM     16  O   UNL     1       2.406   6.305  -2.831  1.00  0.00    -0.269 OA
BRANCH  14  17
ATOM     17  C   UNL     1       2.850   2.986  -1.488  1.00  0.00     0.137 C 
BRANCH  17  18
ATOM     18  C   UNL     1       1.680   2.701  -0.536  1.00  0.00     0.137 C 
BRANCH  18  19
ATOM     19  N   UNL     1       0.622   1.980  -1.228  1.00  0.00    -0.355 N 
ATOM     20  C   UNL     1       0.917  -0.128   0.008  1.00  0.00     0.114 C 
ATOM     21  C   UNL     1       0.277   0.667  -1.097  1.00  0.00     0.216 C 
ATOM     22  O   UNL     1      -0.545   0.172  -1.865  1.00  0.00    -0.275 OA
ATOM     23  H   UNL     1       0.089   2.505  -1.869  1.00  0.00     0.163 HD
ENDBRANCH  18  19
ENDBRANCH  17  18
ENDBRANCH  14  17
ENDBRANCH  12  13
ENDBRANCH   6  12
ENDBRANCH   3   5
ENDBRANCH   2   3
ENDBRANCH   1   2
BRANCH   1  24
ATOM     24  C   UNL     1       4.712  10.634   3.971  1.00  0.00     0.202 C 
BRANCH  24  25
ATOM     25  O   UNL     1       3.299  10.635   4.170  1.00  0.00    -0.374 OA
BRANCH  25  26
ATOM     26  C   UNL     1       2.483  10.154   3.101  1.00  0.00     0.202 C 
BRANCH  26  27
ATOM     27  C   UNL     1       2.213  11.135   1.953  1.00  0.00     0.261 C 
BRANCH  27  28
ATOM     28  O   UNL     1       3.404  11.405   1.189  1.00  0.00    -0.460 OA
BRANCH  28  29
ATOM     29  C   UNL     1       3.975  12.608   1.431  1.00  0.00     0.338 C 
ATOM     30  O   UNL     1       3.539  13.501   2.144  1.00  0.00    -0.246 OA
BRANCH  29  31
ATOM     31  C   UNL     1       5.341  12.642   0.869  1.00  0.00     0.060 A 
ATOM     32  C   UNL     1       6.365  13.113   1.701  1.00  0.00     0.016 A 
ATOM     33  C   UNL     1       5.615  12.276  -0.450  1.00  0.00     0.016 A 
ATOM     34  C   UNL     1       7.654  13.281   1.200  1.00  0.00     0.010 A 
ATOM     35  C   UNL     1       6.910  12.451  -0.954  1.00  0.00     0.010 A 
ATOM     36  C   UNL     1       7.925  12.994  -0.143  1.00  0.00    -0.014 A 
BRANCH  36  37
ATOM     37  C   UNL     1       9.217  13.424  -0.737  1.00  0.00     0.031 A 
ATOM     38  C   UNL     1       9.248  14.673  -1.578  1.00  0.00     0.074 A 
ATOM     39  C   UNL     1      10.355  12.749  -0.495  1.00  0.00     0.049 A 
ATOM     40  N   UNL     1      10.248  15.215  -2.226  1.00  0.00    -0.248 NA
ATOM     41  C   UNL     1       7.980  15.411  -1.703  1.00  0.00     0.031 C 
ATOM     42  C   UNL     1      10.473  11.562   0.349  1.00  0.00     0.029 A 
ATOM     43  N   UNL     1      11.634  12.973  -0.942  1.00  0.00    -0.354 N 
ATOM     44  C   UNL     1       9.731  16.354  -2.833  1.00  0.00     0.074 A 
ATOM     45  C   UNL     1       8.322  16.402  -2.511  1.00  0.00     0.031 C 
ATOM     46  C   UNL     1      11.756  11.156   0.354  1.00  0.00     0.029 A 
ATOM     47  C   UNL     1      12.540  12.032  -0.515  1.00  0.00     0.049 A 
ATOM     48  H   UNL     1      11.879  13.735  -1.516  1.00  0.00     0.167 HD
ATOM     49  C   UNL     1      10.374  17.285  -3.577  1.00  0.00     0.037 A 
ATOM     50  C   UNL     1      13.846  11.885  -0.811  1.00  0.00     0.037 A 
ATOM     51  C   UNL     1      11.776  17.236  -3.902  1.00  0.00     0.049 A 
ATOM     52  C   UNL     1      14.514  12.875  -1.733  1.00  0.00     0.074 A 
ATOM     53  C   UNL     1      12.516  18.127  -4.659  1.00  0.00     0.029 A 
ATOM     54  N   UNL     1      12.647  16.241  -3.490  1.00  0.00    -0.354 N 
ATOM     55  N   UNL     1      14.018  13.951  -2.294  1.00  0.00    -0.248 NA
ATOM     56  C   UNL     1      15.926  12.627  -2.061  1.00  0.00     0.031 C 
ATOM     57  C   UNL     1      13.825  17.644  -4.746  1.00  0.00     0.029 A 
ATOM     58  C   UNL     1      13.914  16.484  -3.994  1.00  0.00     0.049 A 
ATOM     59  H   UNL     1      12.403  15.474  -2.923  1.00  0.00     0.167 HD
ATOM     60  C   UNL     1      15.066  14.529  -3.003  1.00  0.00     0.074 A 
ATOM     61  C   UNL     1      16.226  13.689  -2.794  1.00  0.00     0.031 C 
ATOM     62  C   UNL     1      15.068  15.655  -3.758  1.00  0.00     0.037 A 
BRANCH  49  63
ATOM     63  C   UNL     1       9.563  18.432  -4.105  1.00  0.00     0.057 A 
ATOM     64  C   UNL     1       9.078  19.442  -3.264  1.00  0.00     0.134 A 
ATOM     65  C   UNL     1       9.299  18.551  -5.475  1.00  0.00     0.134 A 
ATOM     66  F   UNL     1       9.283  19.380  -1.939  1.00  0.00    -0.206 F 
ATOM     67  C   UNL     1       8.342  20.518  -3.764  1.00  0.00     0.040 A 
ATOM     68  C   UNL     1       8.589  19.637  -5.991  1.00  0.00     0.040 A 
ATOM     69  F   UNL     1       9.739  17.622  -6.338  1.00  0.00    -0.206 F 
ATOM     70  C   UNL     1       8.104  20.622  -5.133  1.00  0.00     0.006 A 
ENDBRANCH  49  63
BRANCH  50  71
ATOM     71  C   UNL     1      14.623  10.746  -0.254  1.00  0.00     0.057 A 
ATOM     72  C   UNL     1      15.681  10.957   0.639  1.00  0.00     0.134 A 
ATOM     73  C   UNL     1      14.367   9.426  -0.646  1.00  0.00     0.134 A 
ATOM     74  F   UNL     1      15.993  12.201   1.033  1.00  0.00    -0.206 F 
ATOM     75  C   UNL     1      16.475   9.904   1.096  1.00  0.00     0.040 A 
ATOM     76  C   UNL     1      15.134   8.360  -0.173  1.00  0.00     0.040 A 
ATOM     77  F   UNL     1      13.368   9.153  -1.498  1.00  0.00    -0.206 F 
ATOM     78  C   UNL     1      16.200   8.600   0.691  1.00  0.00     0.006 A 
ENDBRANCH  50  71
BRANCH  62  79
ATOM     79  C   UNL     1      16.374  16.083  -4.365  1.00  0.00     0.057 A 
ATOM     80  C   UNL     1      16.966  15.389  -5.427  1.00  0.00     0.134 A 
ATOM     81  C   UNL     1      17.024  17.237  -3.907  1.00  0.00     0.134 A 
ATOM     82  F   UNL     1      16.402  14.269  -5.906  1.00  0.00    -0.206 F 
ATOM     83  C   UNL     1      18.169  15.812  -5.995  1.00  0.00     0.040 A 
ATOM     84  C   UNL     1      18.211  17.687  -4.486  1.00  0.00     0.040 A 
ATOM     85  F   UNL     1      16.506  17.957  -2.899  1.00  0.00    -0.206 F 
ATOM     86  C   UNL     1      18.791  16.970  -5.529  1.00  0.00     0.006 A 
ENDBRANCH  62  79
ENDBRANCH  36  37
ENDBRANCH  29  31
ENDBRANCH  28  29
ENDBRANCH  27  28
ENDBRANCH  26  27
ENDBRANCH  25  26
ENDBRANCH  24  25
ENDBRANCH   1  24
TORSDOF 19
