REMARK SMILES O=C(OCCOCCOC(=O)c1cccnc1C(=O)Nc1ccc([N+](=O)[O-])cc1)c1ccc(-c2c3nc(c(-c4c(F)cccc4F)c4ccc([nH]4)c(-c4c(F)cccc4F)c4nc(c(-c5c(F)cccc5F)c5ccc2[nH]5)C=C4)C=C3)cc1
REMARK SMILES IDX 7 1 6 2 5 3 4 4 3 5 2 6 1 7 30 8 31 9 83 10 32 11 82 12
REMARK SMILES IDX 33 13 34 14 35 15 76 16 36 17 81 18 75 19 77 20 37 21 80 22
REMARK SMILES IDX 74 23 73 24 38 26 64 27 47 28 63 29 48 30 51 31 62 32 78 33
REMARK SMILES IDX 49 34 50 35 61 37 79 38 52 39 39 40 40 41 45 42 41 43 42 44
REMARK SMILES IDX 44 45 46 46 43 47 65 48 66 49 71 50 67 51 68 52 70 53 72 54
REMARK SMILES IDX 69 55 53 56 54 57 59 58 55 59 56 60 58 61 60 62 57 63 8 64
REMARK SMILES IDX 9 65 10 66 11 67 12 68 13 69 17 70 14 71 16 72 15 73 18 74
REMARK SMILES IDX 19 75 20 76 21 78 22 79 29 80 23 81 28 82 24 83 25 84 26 85
REMARK SMILES IDX 27 86
REMARK H PARENT 77 25 51 36 20 77
REMARK Flexibility Score: inf
ROOT
ATOM      1  C   UNL     1       2.039   1.338   0.002  1.00  0.00     0.202 C 
ENDROOT
BRANCH   1   2
ATOM      2  O   UNL     1       3.408   0.987   0.184  1.00  0.00    -0.374 OA
BRANCH   2   3
ATOM      3  C   UNL     1       4.107   0.311  -0.859  1.00  0.00     0.202 C 
BRANCH   3   4
ATOM      4  C   UNL     1       3.345  -0.341  -2.018  1.00  0.00     0.261 C 
BRANCH   4   5
ATOM      5  O   UNL     1       2.626  -1.562  -1.737  1.00  0.00    -0.460 OA
BRANCH   5   6
ATOM      6  C   UNL     1       1.744  -1.640  -0.714  1.00  0.00     0.338 C 
ATOM      7  O   UNL     1       0.590  -1.258  -0.705  1.00  0.00    -0.246 OA
BRANCH   6   8
ATOM      8  C   UNL     1       2.385  -2.461   0.322  1.00  0.00     0.060 A 
ATOM      9  C   UNL     1       3.204  -1.832   1.249  1.00  0.00     0.016 A 
ATOM     10  C   UNL     1       2.352  -3.849   0.235  1.00  0.00     0.016 A 
ATOM     11  C   UNL     1       4.183  -2.558   1.890  1.00  0.00     0.010 A 
ATOM     12  C   UNL     1       3.210  -4.596   1.044  1.00  0.00     0.010 A 
ATOM     13  C   UNL     1       4.186  -3.952   1.826  1.00  0.00    -0.014 A 
BRANCH  13  14
ATOM     14  C   UNL     1       5.271  -4.694   2.517  1.00  0.00     0.031 A 
ATOM     15  C   UNL     1       6.120  -5.659   1.738  1.00  0.00     0.074 A 
ATOM     16  C   UNL     1       5.555  -4.429   3.809  1.00  0.00     0.049 A 
ATOM     17  N   UNL     1       6.963  -6.554   2.178  1.00  0.00    -0.248 NA
ATOM     18  C   UNL     1       5.991  -5.629   0.271  1.00  0.00     0.031 C 
ATOM     19  C   UNL     1       4.857  -3.453   4.653  1.00  0.00     0.029 A 
ATOM     20  N   UNL     1       6.530  -4.928   4.634  1.00  0.00    -0.354 N 
ATOM     21  C   UNL     1       7.397  -7.247   1.055  1.00  0.00     0.074 A 
ATOM     22  C   UNL     1       6.735  -6.664  -0.090  1.00  0.00     0.031 C 
ATOM     23  C   UNL     1       5.479  -3.360   5.836  1.00  0.00     0.029 A 
ATOM     24  C   UNL     1       6.514  -4.379   5.895  1.00  0.00     0.049 A 
ATOM     25  H   UNL     1       7.178  -5.612   4.351  1.00  0.00     0.167 HD
ATOM     26  C   UNL     1       8.264  -8.285   0.998  1.00  0.00     0.037 A 
ATOM     27  C   UNL     1       7.204  -4.712   7.001  1.00  0.00     0.037 A 
ATOM     28  C   UNL     1       8.953  -8.804   2.150  1.00  0.00     0.049 A 
ATOM     29  C   UNL     1       8.134  -5.887   6.918  1.00  0.00     0.074 A 
ATOM     30  C   UNL     1       9.812  -9.884   2.236  1.00  0.00     0.029 A 
ATOM     31  N   UNL     1       8.880  -8.247   3.420  1.00  0.00    -0.354 N 
ATOM     32  N   UNL     1       8.437  -6.629   5.879  1.00  0.00    -0.248 NA
ATOM     33  C   UNL     1       8.786  -6.298   8.166  1.00  0.00     0.031 C 
ATOM     34  C   UNL     1      10.239  -9.995   3.564  1.00  0.00     0.029 A 
ATOM     35  C   UNL     1       9.681  -8.958   4.296  1.00  0.00     0.049 A 
ATOM     36  H   UNL     1       8.338  -7.462   3.662  1.00  0.00     0.167 HD
ATOM     37  C   UNL     1       9.309  -7.600   6.348  1.00  0.00     0.074 A 
ATOM     38  C   UNL     1       9.521  -7.321   7.756  1.00  0.00     0.031 C 
ATOM     39  C   UNL     1       9.870  -8.643   5.688  1.00  0.00     0.037 A 
BRANCH  26  40
ATOM     40  C   UNL     1       8.466  -8.948  -0.333  1.00  0.00     0.057 A 
ATOM     41  C   UNL     1       9.176  -8.339  -1.375  1.00  0.00     0.134 A 
ATOM     42  C   UNL     1       7.936 -10.223  -0.574  1.00  0.00     0.134 A 
ATOM     43  F   UNL     1       9.687  -7.108  -1.221  1.00  0.00    -0.206 F 
ATOM     44  C   UNL     1       9.333  -8.964  -2.615  1.00  0.00     0.040 A 
ATOM     45  C   UNL     1       8.108 -10.869  -1.800  1.00  0.00     0.040 A 
ATOM     46  F   UNL     1       7.242 -10.863   0.379  1.00  0.00    -0.206 F 
ATOM     47  C   UNL     1       8.804 -10.236  -2.827  1.00  0.00     0.006 A 
ENDBRANCH  26  40
BRANCH  27  48
ATOM     48  C   UNL     1       6.964  -4.002   8.286  1.00  0.00     0.057 A 
ATOM     49  C   UNL     1       7.978  -3.273   8.918  1.00  0.00     0.134 A 
ATOM     50  C   UNL     1       5.718  -4.052   8.928  1.00  0.00     0.134 A 
ATOM     51  F   UNL     1       9.201  -3.204   8.372  1.00  0.00    -0.206 F 
ATOM     52  C   UNL     1       7.769  -2.638  10.145  1.00  0.00     0.040 A 
ATOM     53  C   UNL     1       5.483  -3.388  10.132  1.00  0.00     0.040 A 
ATOM     54  F   UNL     1       4.702  -4.737   8.383  1.00  0.00    -0.206 F 
ATOM     55  C   UNL     1       6.514  -2.687  10.750  1.00  0.00     0.006 A 
ENDBRANCH  27  48
BRANCH  39  56
ATOM     56  C   UNL     1      10.781  -9.522   6.487  1.00  0.00     0.057 A 
ATOM     57  C   UNL     1      10.289 -10.413   7.449  1.00  0.00     0.134 A 
ATOM     58  C   UNL     1      12.166  -9.479   6.284  1.00  0.00     0.134 A 
ATOM     59  F   UNL     1       8.973 -10.485   7.699  1.00  0.00    -0.206 F 
ATOM     60  C   UNL     1      11.147 -11.209   8.206  1.00  0.00     0.040 A 
ATOM     61  C   UNL     1      13.031 -10.291   7.016  1.00  0.00     0.040 A 
ATOM     62  F   UNL     1      12.696  -8.652   5.372  1.00  0.00    -0.206 F 
ATOM     63  C   UNL     1      12.522 -11.153   7.986  1.00  0.00     0.006 A 
ENDBRANCH  39  56
ENDBRANCH  13  14
ENDBRANCH   6   8
ENDBRANCH   5   6
ENDBRANCH   4   5
ENDBRANCH   3   4
ENDBRANCH   2   3
ENDBRANCH   1   2
BRANCH   1  64
ATOM     64  C   UNL     1       1.815   2.715   0.585  1.00  0.00     0.261 C 
BRANCH  64  65
ATOM     65  O   UNL     1       2.790   3.559  -0.039  1.00  0.00    -0.460 OA
BRANCH  65  66
ATOM     66  C   UNL     1       3.260   4.516   0.779  1.00  0.00     0.340 C 
ATOM     67  O   UNL     1       2.791   4.888   1.828  1.00  0.00    -0.246 OA
BRANCH  66  68
ATOM     68  C   UNL     1       4.365   5.202   0.117  1.00  0.00     0.091 A 
ATOM     69  C   UNL     1       4.061   6.532  -0.224  1.00  0.00     0.020 A 
ATOM     70  C   UNL     1       5.606   4.680  -0.226  1.00  0.00     0.142 A 
ATOM     71  C   UNL     1       4.957   7.285  -0.965  1.00  0.00     0.021 A 
ATOM     72  N   UNL     1       6.500   5.450  -0.930  1.00  0.00    -0.250 NA
ATOM     73  C   UNL     1       6.154   6.698  -1.306  1.00  0.00     0.112 A 
BRANCH  70  74
ATOM     74  C   UNL     1       6.117   3.275  -0.163  1.00  0.00     0.275 C 
ATOM     75  O   UNL     1       6.500   2.793  -1.242  1.00  0.00    -0.267 OA
ATOM     76  N   UNL     1       6.375   2.469   0.923  1.00  0.00    -0.321 N 
ATOM     77  H   UNL     1       7.105   1.838   0.729  1.00  0.00     0.170 HD
BRANCH  76  78
ATOM     78  C   UNL     1       5.894   2.292   2.223  1.00  0.00     0.042 A 
ATOM     79  C   UNL     1       6.171   1.045   2.814  1.00  0.00     0.033 A 
ATOM     80  C   UNL     1       5.050   3.162   2.887  1.00  0.00     0.033 A 
ATOM     81  C   UNL     1       5.449   0.596   3.923  1.00  0.00     0.088 A 
ATOM     82  C   UNL     1       4.264   2.705   3.953  1.00  0.00     0.088 A 
ATOM     83  C   UNL     1       4.433   1.403   4.433  1.00  0.00     0.269 A 
BRANCH  83  84
ATOM     84  N   UNL     1       3.507   0.864   5.432  1.00  0.00     0.062 N 
ATOM     85  O   UNL     1       3.843  -0.169   6.030  1.00  0.00    -0.258 OA
ATOM     86  O   UNL     1       2.430   1.453   5.593  1.00  0.00    -0.258 OA
ENDBRANCH  83  84
ENDBRANCH  76  78
ENDBRANCH  70  74
ENDBRANCH  66  68
ENDBRANCH  65  66
ENDBRANCH  64  65
ENDBRANCH   1  64
TORSDOF 17
