REMARK SMILES O=C(CCN/C(=[NH+]\S(=O)(=O)c1ccccc1)c1ccccc1)OCCOCCOC(=O)c1ccc(-c2c3nc(c(-c4c(F)cccc4F)c4ccc([nH]4)c(-c4c(F)cccc4F)c4nc(c(-c5c(F)cccc5F)c5ccc2[nH]5)C=C4)C=C3)cc1
REMARK SMILES IDX 25 1 24 2 23 3 2 4 1 5 3 6 4 7 5 8 6 9 7 11 17 13 18 14
REMARK SMILES IDX 22 15 19 16 21 17 20 18 8 19 9 20 10 21 11 22 12 23 16 24
REMARK SMILES IDX 13 25 15 26 14 27 26 28 27 29 28 30 29 31 30 32 31 33 32 34
REMARK SMILES IDX 33 35 85 36 34 37 84 38 35 39 36 40 37 41 78 42 38 43 83 44
REMARK SMILES IDX 77 45 79 46 39 47 82 48 76 49 75 50 40 52 66 53 49 54 65 55
REMARK SMILES IDX 50 56 53 57 64 58 80 59 51 60 52 61 63 63 81 64 54 65 41 66
REMARK SMILES IDX 42 67 47 68 43 69 44 70 46 71 48 72 45 73 67 74 68 75 73 76
REMARK SMILES IDX 69 77 70 78 72 79 74 80 71 81 55 82 56 83 61 84 57 85 58 86
REMARK SMILES IDX 60 87 62 88 59 89
REMARK H PARENT 5 10 7 12 79 51 53 62
REMARK Flexibility Score: inf
ROOT
ATOM      1  C   UNL     1       4.397  -0.698  -1.007  1.00  0.00     0.202 C 
ENDROOT
BRANCH   1   2
ATOM      2  C   UNL     1       3.474  -1.048   0.168  1.00  0.00     0.261 C 
BRANCH   2   3
ATOM      3  O   UNL     1       2.224  -0.346   0.265  1.00  0.00    -0.463 OA
BRANCH   3   4
ATOM      4  C   UNL     1       2.106   0.930   0.672  1.00  0.00     0.309 C 
ATOM      5  O   UNL     1       1.110   1.289   1.297  1.00  0.00    -0.252 OA
BRANCH   4   6
ATOM      6  C   UNL     1       3.145   1.926   0.253  1.00  0.00     0.168 C 
BRANCH   6   7
ATOM      7  C   UNL     1       3.994   2.400   1.414  1.00  0.00     0.245 C 
BRANCH   7   8
ATOM      8  N   UNL     1       5.090   1.502   1.760  1.00  0.00    -0.273 N 
ATOM      9  C   UNL     1       6.417   1.481   1.346  1.00  0.00     0.290 C 
ATOM     10  H   UNL     1       4.849   0.789   2.395  1.00  0.00     0.305 HD
ATOM     11  N   UNL     1       7.270   0.524   1.588  1.00  0.00    -0.162 N 
ATOM     12  H   UNL     1       8.216   0.646   1.342  1.00  0.00     0.327 HD
BRANCH   9  13
ATOM     13  C   UNL     1       6.971   2.619   0.534  1.00  0.00     0.064 A 
ATOM     14  C   UNL     1       7.722   2.338  -0.614  1.00  0.00     0.016 A 
ATOM     15  C   UNL     1       6.750   3.950   0.904  1.00  0.00     0.016 A 
ATOM     16  C   UNL     1       8.191   3.382  -1.417  1.00  0.00     0.001 A 
ATOM     17  C   UNL     1       7.190   4.990   0.083  1.00  0.00     0.001 A 
ATOM     18  C   UNL     1       7.905   4.705  -1.079  1.00  0.00     0.000 A 
ENDBRANCH   9  13
BRANCH  11  19
ATOM     19  S   UNL     1       6.804  -0.861   2.285  1.00  0.00     0.328 S 
ATOM     20  O   UNL     1       6.024  -0.568   3.474  1.00  0.00    -0.179 OA
ATOM     21  O   UNL     1       6.231  -1.694   1.242  1.00  0.00    -0.179 OA
BRANCH  19  22
ATOM     22  C   UNL     1       8.245  -1.744   2.833  1.00  0.00     0.109 A 
ATOM     23  C   UNL     1       8.214  -3.144   2.760  1.00  0.00     0.024 A 
ATOM     24  C   UNL     1       9.370  -1.087   3.326  1.00  0.00     0.024 A 
ATOM     25  C   UNL     1       9.301  -3.896   3.195  1.00  0.00     0.001 A 
ATOM     26  C   UNL     1      10.459  -1.849   3.765  1.00  0.00     0.001 A 
ATOM     27  C   UNL     1      10.423  -3.247   3.703  1.00  0.00     0.000 A 
ENDBRANCH  19  22
ENDBRANCH  11  19
ENDBRANCH   7   8
ENDBRANCH   6   7
ENDBRANCH   4   6
ENDBRANCH   3   4
ENDBRANCH   2   3
ENDBRANCH   1   2
BRANCH   1  28
ATOM     28  O   UNL     1       3.825  -0.164  -2.198  1.00  0.00    -0.374 OA
BRANCH  28  29
ATOM     29  C   UNL     1       2.603  -0.701  -2.686  1.00  0.00     0.202 C 
BRANCH  29  30
ATOM     30  C   UNL     1       2.688  -2.051  -3.391  1.00  0.00     0.261 C 
BRANCH  30  31
ATOM     31  O   UNL     1       3.205  -3.079  -2.537  1.00  0.00    -0.460 OA
BRANCH  31  32
ATOM     32  C   UNL     1       4.486  -3.437  -2.801  1.00  0.00     0.338 C 
ATOM     33  O   UNL     1       5.213  -2.994  -3.672  1.00  0.00    -0.246 OA
BRANCH  32  34
ATOM     34  C   UNL     1       4.953  -4.395  -1.782  1.00  0.00     0.060 A 
ATOM     35  C   UNL     1       6.253  -4.237  -1.288  1.00  0.00     0.016 A 
ATOM     36  C   UNL     1       4.160  -5.470  -1.370  1.00  0.00     0.016 A 
ATOM     37  C   UNL     1       6.783  -5.186  -0.420  1.00  0.00     0.010 A 
ATOM     38  C   UNL     1       4.695  -6.425  -0.503  1.00  0.00     0.010 A 
ATOM     39  C   UNL     1       6.020  -6.304  -0.056  1.00  0.00    -0.014 A 
BRANCH  39  40
ATOM     40  C   UNL     1       6.674  -7.409   0.678  1.00  0.00     0.031 A 
ATOM     41  C   UNL     1       7.244  -8.558  -0.102  1.00  0.00     0.074 A 
ATOM     42  C   UNL     1       6.806  -7.352   2.013  1.00  0.00     0.049 A 
ATOM     43  N   UNL     1       7.902  -9.604   0.327  1.00  0.00    -0.248 NA
ATOM     44  C   UNL     1       7.036  -8.530  -1.559  1.00  0.00     0.031 C 
ATOM     45  C   UNL     1       6.282  -6.288   2.865  1.00  0.00     0.029 A 
ATOM     46  N   UNL     1       7.437  -8.202   2.884  1.00  0.00    -0.354 N 
ATOM     47  C   UNL     1       8.186 -10.358  -0.805  1.00  0.00     0.074 A 
ATOM     48  C   UNL     1       7.606  -9.666  -1.935  1.00  0.00     0.031 C 
ATOM     49  C   UNL     1       6.645  -6.529   4.137  1.00  0.00     0.029 A 
ATOM     50  C   UNL     1       7.389  -7.785   4.191  1.00  0.00     0.049 A 
ATOM     51  H   UNL     1       7.882  -9.033   2.599  1.00  0.00     0.167 HD
ATOM     52  C   UNL     1       8.872 -11.522  -0.891  1.00  0.00     0.037 A 
ATOM     53  C   UNL     1       7.884  -8.364   5.302  1.00  0.00     0.037 A 
ATOM     54  C   UNL     1       9.428 -12.216   0.241  1.00  0.00     0.049 A 
ATOM     55  C   UNL     1       8.621  -9.672   5.177  1.00  0.00     0.074 A 
ATOM     56  C   UNL     1      10.123 -13.412   0.264  1.00  0.00     0.029 A 
ATOM     57  N   UNL     1       9.344 -11.775   1.554  1.00  0.00    -0.354 N 
ATOM     58  N   UNL     1       8.906 -10.365   4.099  1.00  0.00    -0.248 NA
ATOM     59  C   UNL     1       9.101 -10.281   6.425  1.00  0.00     0.031 C 
ATOM     60  C   UNL     1      10.424 -13.716   1.596  1.00  0.00     0.029 A 
ATOM     61  C   UNL     1       9.963 -12.683   2.397  1.00  0.00     0.049 A 
ATOM     62  H   UNL     1       8.910 -10.941   1.843  1.00  0.00     0.167 HD
ATOM     63  C   UNL     1       9.604 -11.483   4.539  1.00  0.00     0.074 A 
ATOM     64  C   UNL     1       9.736 -11.354   5.975  1.00  0.00     0.031 C 
ATOM     65  C   UNL     1      10.080 -12.534   3.825  1.00  0.00     0.037 A 
BRANCH  52  66
ATOM     66  C   UNL     1       9.037 -12.127  -2.253  1.00  0.00     0.057 A 
ATOM     67  C   UNL     1       9.896 -11.570  -3.209  1.00  0.00     0.134 A 
ATOM     68  C   UNL     1       8.356 -13.300  -2.603  1.00  0.00     0.134 A 
ATOM     69  F   UNL     1      10.564 -10.437  -2.944  1.00  0.00    -0.206 F 
ATOM     70  C   UNL     1      10.061 -12.149  -4.468  1.00  0.00     0.040 A 
ATOM     71  C   UNL     1       8.531 -13.902  -3.850  1.00  0.00     0.040 A 
ATOM     72  F   UNL     1       7.517 -13.885  -1.734  1.00  0.00    -0.206 F 
ATOM     73  C   UNL     1       9.383 -13.324  -4.788  1.00  0.00     0.006 A 
ENDBRANCH  52  66
BRANCH  53  74
ATOM     74  C   UNL     1       7.692  -7.730   6.632  1.00  0.00     0.057 A 
ATOM     75  C   UNL     1       8.780  -7.256   7.376  1.00  0.00     0.134 A 
ATOM     76  C   UNL     1       6.423  -7.627   7.215  1.00  0.00     0.134 A 
ATOM     77  F   UNL     1      10.024  -7.346   6.883  1.00  0.00    -0.206 F 
ATOM     78  C   UNL     1       8.617  -6.734   8.661  1.00  0.00     0.040 A 
ATOM     79  C   UNL     1       6.242  -7.076   8.484  1.00  0.00     0.040 A 
ATOM     80  F   UNL     1       5.338  -8.060   6.556  1.00  0.00    -0.206 F 
ATOM     81  C   UNL     1       7.343  -6.640   9.216  1.00  0.00     0.006 A 
ENDBRANCH  53  74
BRANCH  65  82
ATOM     82  C   UNL     1      10.798 -13.608   4.591  1.00  0.00     0.057 A 
ATOM     83  C   UNL     1      10.121 -14.475   5.459  1.00  0.00     0.134 A 
ATOM     84  C   UNL     1      12.180 -13.787   4.447  1.00  0.00     0.134 A 
ATOM     85  F   UNL     1       8.799 -14.351   5.649  1.00  0.00    -0.206 F 
ATOM     86  C   UNL     1      10.798 -15.456   6.186  1.00  0.00     0.040 A 
ATOM     87  C   UNL     1      12.863 -14.784   5.145  1.00  0.00     0.040 A 
ATOM     88  F   UNL     1      12.888 -13.000   3.623  1.00  0.00    -0.206 F 
ATOM     89  C   UNL     1      12.173 -15.615   6.026  1.00  0.00     0.006 A 
ENDBRANCH  65  82
ENDBRANCH  39  40
ENDBRANCH  32  34
ENDBRANCH  31  32
ENDBRANCH  30  31
ENDBRANCH  29  30
ENDBRANCH  28  29
ENDBRANCH   1  28
TORSDOF 19
