REMARK SMILES CC[C@@H](C(=O)OCCOCCOC(=O)c1ccc(-c2c3nc(c(-c4c(F)cccc4F)c4ccc([nH]4)c(-c4c(F)cccc4F)c4nc(c(-c5c(F)cccc5F)c5ccc2[nH]5)C=C4)C=C3)cc1)N(C)C(=O)N(C)CC(C)(C)O
REMARK SMILES IDX 7 1 6 2 4 3 5 4 3 5 2 6 1 7 69 8 70 9 71 10 72 11 73 12
REMARK SMILES IDX 74 13 75 14 76 15 77 16 78 17 79 18 8 20 9 21 10 22 11 23
REMARK SMILES IDX 12 24 13 25 14 26 15 27 16 28 68 29 17 30 67 31 18 32 19 33
REMARK SMILES IDX 20 34 61 35 21 36 66 37 60 38 62 39 22 40 65 41 59 42 58 43
REMARK SMILES IDX 23 45 49 46 32 47 48 48 33 49 36 50 47 51 63 52 34 53 35 54
REMARK SMILES IDX 46 56 64 57 37 58 24 59 25 60 30 61 26 62 27 63 29 64 31 65
REMARK SMILES IDX 28 66 50 67 51 68 56 69 52 70 53 71 55 72 57 73 54 74 38 75
REMARK SMILES IDX 39 76 44 77 40 78 41 79 43 80 45 81 42 82
REMARK H PARENT 79 19 62 44 36 55
REMARK Flexibility Score: inf
ROOT
ATOM      1  C   UNL     1       0.886  -4.195  -0.775  1.00  0.00     0.261 C 
ENDROOT
BRANCH   1   2
ATOM      2  O   UNL     1       1.214  -2.821  -1.067  1.00  0.00    -0.462 OA
BRANCH   2   3
ATOM      3  C   UNL     1       1.050  -2.434  -2.363  1.00  0.00     0.328 C 
ATOM      4  O   UNL     1       0.901  -3.229  -3.287  1.00  0.00    -0.250 OA
BRANCH   3   5
ATOM      5  C   UNL     1       1.215  -0.903  -2.559  1.00  0.00     0.196 C 
BRANCH   5   6
ATOM      6  C   UNL     1       0.729   0.078  -1.461  1.00  0.00     0.034 C 
ATOM      7  C   UNL     1       1.389  -0.058  -0.092  1.00  0.00     0.007 C 
ENDBRANCH   5   6
BRANCH   5   8
ATOM      8  N   UNL     1       0.707  -0.576  -3.945  1.00  0.00    -0.314 N 
ATOM      9  C   UNL     1       1.726  -0.696  -4.970  1.00  0.00     0.149 C 
BRANCH   8  10
ATOM     10  C   UNL     1      -0.662  -0.471  -4.155  1.00  0.00     0.320 C 
ATOM     11  O   UNL     1      -1.404  -0.311  -3.177  1.00  0.00    -0.248 OA
BRANCH  10  12
ATOM     12  N   UNL     1      -1.259  -0.548  -5.403  1.00  0.00    -0.325 N 
ATOM     13  C   UNL     1      -0.690  -0.662  -6.741  1.00  0.00     0.148 C 
BRANCH  12  14
ATOM     14  C   UNL     1      -2.748  -0.473  -5.440  1.00  0.00     0.155 C 
BRANCH  14  15
ATOM     15  C   UNL     1      -3.527  -1.826  -5.347  1.00  0.00     0.077 C 
ATOM     16  C   UNL     1      -3.441  -2.470  -3.967  1.00  0.00     0.043 C 
ATOM     17  C   UNL     1      -5.006  -1.584  -5.682  1.00  0.00     0.043 C 
BRANCH  15  18
ATOM     18  O   UNL     1      -3.041  -2.751  -6.329  1.00  0.00    -0.389 OA
ATOM     19  H   UNL     1      -2.104  -2.939  -6.161  1.00  0.00     0.211 HD
ENDBRANCH  15  18
ENDBRANCH  14  15
ENDBRANCH  12  14
ENDBRANCH  10  12
ENDBRANCH   8  10
ENDBRANCH   5   8
ENDBRANCH   3   5
ENDBRANCH   2   3
ENDBRANCH   1   2
BRANCH   1  20
ATOM     20  C   UNL     1      -0.466  -4.310  -0.055  1.00  0.00     0.202 C 
BRANCH  20  21
ATOM     21  O   UNL     1      -1.605  -3.840  -0.779  1.00  0.00    -0.374 OA
BRANCH  21  22
ATOM     22  C   UNL     1      -1.673  -2.420  -0.903  1.00  0.00     0.202 C 
BRANCH  22  23
ATOM     23  C   UNL     1      -2.865  -1.766  -0.218  1.00  0.00     0.261 C 
BRANCH  23  24
ATOM     24  O   UNL     1      -2.546  -1.656   1.181  1.00  0.00    -0.460 OA
BRANCH  24  25
ATOM     25  C   UNL     1      -2.860  -2.758   1.894  1.00  0.00     0.338 C 
ATOM     26  O   UNL     1      -3.650  -3.635   1.583  1.00  0.00    -0.246 OA
BRANCH  25  27
ATOM     27  C   UNL     1      -1.953  -2.868   3.055  1.00  0.00     0.060 A 
ATOM     28  C   UNL     1      -1.611  -4.164   3.461  1.00  0.00     0.016 A 
ATOM     29  C   UNL     1      -1.446  -1.756   3.737  1.00  0.00     0.016 A 
ATOM     30  C   UNL     1      -0.841  -4.358   4.600  1.00  0.00     0.010 A 
ATOM     31  C   UNL     1      -0.669  -1.952   4.882  1.00  0.00     0.010 A 
ATOM     32  C   UNL     1      -0.411  -3.254   5.345  1.00  0.00    -0.014 A 
BRANCH  32  33
ATOM     33  C   UNL     1       0.139  -3.482   6.700  1.00  0.00     0.031 A 
ATOM     34  C   UNL     1      -0.758  -3.261   7.887  1.00  0.00     0.074 A 
ATOM     35  C   UNL     1       1.387  -3.950   6.865  1.00  0.00     0.049 A 
ATOM     36  N   UNL     1      -0.504  -3.414   9.161  1.00  0.00    -0.248 NA
ATOM     37  C   UNL     1      -2.129  -2.807   7.597  1.00  0.00     0.031 C 
ATOM     38  C   UNL     1       2.328  -4.246   5.787  1.00  0.00     0.029 A 
ATOM     39  N   UNL     1       2.074  -4.263   8.010  1.00  0.00    -0.354 N 
ATOM     40  C   UNL     1      -1.677  -3.071   9.822  1.00  0.00     0.074 A 
ATOM     41  C   UNL     1      -2.631  -2.664   8.814  1.00  0.00     0.031 C 
ATOM     42  C   UNL     1       3.474  -4.700   6.322  1.00  0.00     0.029 A 
ATOM     43  C   UNL     1       3.357  -4.694   7.779  1.00  0.00     0.049 A 
ATOM     44  H   UNL     1       1.685  -4.187   8.911  1.00  0.00     0.167 HD
ATOM     45  C   UNL     1      -1.939  -3.105  11.150  1.00  0.00     0.037 A 
ATOM     46  C   UNL     1       4.328  -5.028   8.649  1.00  0.00     0.037 A 
ATOM     47  C   UNL     1      -0.985  -3.512  12.147  1.00  0.00     0.049 A 
ATOM     48  C   UNL     1       4.036  -4.984  10.126  1.00  0.00     0.074 A 
ATOM     49  C   UNL     1      -1.151  -3.594  13.518  1.00  0.00     0.029 A 
ATOM     50  N   UNL     1       0.321  -3.897  11.878  1.00  0.00    -0.354 N 
ATOM     51  N   UNL     1       2.919  -4.678  10.742  1.00  0.00    -0.248 NA
ATOM     52  C   UNL     1       5.140  -5.337  11.029  1.00  0.00     0.031 C 
ATOM     53  C   UNL     1       0.071  -3.972  14.084  1.00  0.00     0.029 A 
ATOM     54  C   UNL     1       0.980  -4.190  13.061  1.00  0.00     0.049 A 
ATOM     55  H   UNL     1       0.720  -3.954  10.980  1.00  0.00     0.167 HD
ATOM     56  C   UNL     1       3.175  -4.833  12.099  1.00  0.00     0.074 A 
ATOM     57  C   UNL     1       4.550  -5.274  12.214  1.00  0.00     0.031 C 
ATOM     58  C   UNL     1       2.349  -4.631  13.156  1.00  0.00     0.037 A 
BRANCH  45  59
ATOM     59  C   UNL     1      -3.302  -2.660  11.598  1.00  0.00     0.057 A 
ATOM     60  C   UNL     1      -4.455  -3.411  11.334  1.00  0.00     0.134 A 
ATOM     61  C   UNL     1      -3.458  -1.472  12.324  1.00  0.00     0.134 A 
ATOM     62  F   UNL     1      -4.379  -4.550  10.630  1.00  0.00    -0.206 F 
ATOM     63  C   UNL     1      -5.717  -2.983  11.752  1.00  0.00     0.040 A 
ATOM     64  C   UNL     1      -4.710  -1.049  12.773  1.00  0.00     0.040 A 
ATOM     65  F   UNL     1      -2.396  -0.706  12.614  1.00  0.00    -0.206 F 
ATOM     66  C   UNL     1      -5.846  -1.802  12.481  1.00  0.00     0.006 A 
ENDBRANCH  45  59
BRANCH  46  67
ATOM     67  C   UNL     1       5.670  -5.423   8.151  1.00  0.00     0.057 A 
ATOM     68  C   UNL     1       6.150  -6.728   8.308  1.00  0.00     0.134 A 
ATOM     69  C   UNL     1       6.513  -4.499   7.522  1.00  0.00     0.134 A 
ATOM     70  F   UNL     1       5.399  -7.655   8.922  1.00  0.00    -0.206 F 
ATOM     71  C   UNL     1       7.426  -7.095   7.877  1.00  0.00     0.040 A 
ATOM     72  C   UNL     1       7.779  -4.859   7.060  1.00  0.00     0.040 A 
ATOM     73  F   UNL     1       6.112  -3.232   7.337  1.00  0.00    -0.206 F 
ATOM     74  C   UNL     1       8.242  -6.159   7.245  1.00  0.00     0.006 A 
ENDBRANCH  46  67
BRANCH  58  75
ATOM     75  C   UNL     1       2.897  -4.926  14.523  1.00  0.00     0.057 A 
ATOM     76  C   UNL     1       3.876  -4.123  15.122  1.00  0.00     0.134 A 
ATOM     77  C   UNL     1       2.413  -6.014  15.263  1.00  0.00     0.134 A 
ATOM     78  F   UNL     1       4.390  -3.073  14.465  1.00  0.00    -0.206 F 
ATOM     79  C   UNL     1       4.377  -4.410  16.394  1.00  0.00     0.040 A 
ATOM     80  C   UNL     1       2.882  -6.291  16.548  1.00  0.00     0.040 A 
ATOM     81  F   UNL     1       1.466  -6.817  14.755  1.00  0.00    -0.206 F 
ATOM     82  C   UNL     1       3.875  -5.493  17.113  1.00  0.00     0.006 A 
ENDBRANCH  58  75
ENDBRANCH  32  33
ENDBRANCH  25  27
ENDBRANCH  24  25
ENDBRANCH  23  24
ENDBRANCH  22  23
ENDBRANCH  21  22
ENDBRANCH  20  21
ENDBRANCH   1  20
TORSDOF 21
