REMARK SMILES O=C(OCCOCCOC(=O)c1ccc(-c2c3nc(c(-c4c(F)cccc4F)c4ccc([nH]4)c(-c4c(F)cccc4F)c4nc(c(-c5c(F)cccc5F)c5ccc2[nH]5)C=C4)C=C3)cc1)C1=Cc2c(cc(Cl)c(Cl)c2Cl)O[C@H]1C(F)(F)F
REMARK SMILES IDX 7 1 6 2 5 3 4 4 3 5 2 6 1 7 66 8 67 9 78 10 68 11 77 12
REMARK SMILES IDX 69 13 75 14 70 15 73 16 76 17 71 18 74 19 72 20 79 21 80 22
REMARK SMILES IDX 81 23 82 24 8 25 9 26 10 27 11 28 12 29 13 30 65 31 14 32
REMARK SMILES IDX 64 33 15 34 16 35 17 36 58 37 18 38 63 39 57 40 59 41 19 42
REMARK SMILES IDX 62 43 56 44 55 45 20 47 46 48 29 49 45 50 30 51 33 52 44 53
REMARK SMILES IDX 60 54 31 55 32 56 43 58 61 59 34 60 21 61 22 62 27 63 23 64
REMARK SMILES IDX 24 65 26 66 28 67 25 68 47 69 48 70 53 71 49 72 50 73 52 74
REMARK SMILES IDX 54 75 51 76 35 77 36 78 41 79 37 80 38 81 40 82 42 83 39 84
REMARK H PARENT 59 46 33 57
REMARK Flexibility Score: inf
ROOT
ATOM      1  C   UNL     1       1.638  -3.147  -1.213  1.00  0.00     0.202 C 
ENDROOT
BRANCH   1   2
ATOM      2  O   UNL     1       2.359  -1.993  -0.792  1.00  0.00    -0.374 OA
BRANCH   2   3
ATOM      3  C   UNL     1       2.360  -1.814   0.625  1.00  0.00     0.202 C 
BRANCH   3   4
ATOM      4  C   UNL     1       2.022  -0.373   1.013  1.00  0.00     0.261 C 
BRANCH   4   5
ATOM      5  O   UNL     1       1.623   0.436  -0.110  1.00  0.00    -0.460 OA
BRANCH   5   6
ATOM      6  C   UNL     1       2.429   1.016  -1.030  1.00  0.00     0.338 C 
ATOM      7  O   UNL     1       1.939   1.771  -1.868  1.00  0.00    -0.246 OA
BRANCH   6   8
ATOM      8  C   UNL     1       3.907   0.941  -0.941  1.00  0.00     0.087 C 
ATOM      9  C   UNL     1       4.609   0.077  -0.202  1.00  0.00     0.029 C 
ATOM     10  C   UNL     1       4.654   1.947  -1.793  1.00  0.00     0.316 C 
ATOM     11  C   UNL     1       5.799   0.610   0.438  1.00  0.00     0.038 A 
ATOM     12  O   UNL     1       6.080   2.073  -1.466  1.00  0.00    -0.475 OA
ATOM     13  C   UNL     1       6.484   1.611  -0.243  1.00  0.00     0.131 A 
ATOM     14  C   UNL     1       6.186   0.247   1.746  1.00  0.00     0.072 A 
ATOM     15  C   UNL     1       7.620   2.175   0.322  1.00  0.00     0.069 A 
ATOM     16  C   UNL     1       7.300   0.853   2.342  1.00  0.00     0.079 A 
ATOM     17  Cl  UNL     1       5.230  -0.884   2.657  1.00  0.00    -0.082 Cl
ATOM     18  C   UNL     1       8.025   1.802   1.610  1.00  0.00     0.064 A 
ATOM     19  Cl  UNL     1       7.753   0.459   3.975  1.00  0.00    -0.081 Cl
ATOM     20  Cl  UNL     1       9.427   2.582   2.255  1.00  0.00    -0.083 Cl
BRANCH  10  21
ATOM     21  C   UNL     1       4.501   1.607  -3.307  1.00  0.00     0.430 C 
ATOM     22  F   UNL     1       3.751   0.502  -3.537  1.00  0.00    -0.167 F 
ATOM     23  F   UNL     1       3.938   2.632  -3.989  1.00  0.00    -0.167 F 
ATOM     24  F   UNL     1       5.703   1.366  -3.890  1.00  0.00    -0.167 F 
ENDBRANCH  10  21
ENDBRANCH   6   8
ENDBRANCH   5   6
ENDBRANCH   4   5
ENDBRANCH   3   4
ENDBRANCH   2   3
ENDBRANCH   1   2
BRANCH   1  25
ATOM     25  C   UNL     1       2.478  -4.427  -1.175  1.00  0.00     0.261 C 
BRANCH  25  26
ATOM     26  O   UNL     1       3.102  -4.626   0.110  1.00  0.00    -0.460 OA
BRANCH  26  27
ATOM     27  C   UNL     1       4.442  -4.415   0.159  1.00  0.00     0.338 C 
ATOM     28  O   UNL     1       5.162  -4.123  -0.789  1.00  0.00    -0.246 OA
BRANCH  27  29
ATOM     29  C   UNL     1       4.956  -4.500   1.555  1.00  0.00     0.060 A 
ATOM     30  C   UNL     1       6.275  -4.086   1.802  1.00  0.00     0.016 A 
ATOM     31  C   UNL     1       4.176  -4.963   2.622  1.00  0.00     0.016 A 
ATOM     32  C   UNL     1       6.814  -4.148   3.094  1.00  0.00     0.010 A 
ATOM     33  C   UNL     1       4.715  -5.023   3.915  1.00  0.00     0.010 A 
ATOM     34  C   UNL     1       6.044  -4.638   4.157  1.00  0.00    -0.014 A 
BRANCH  34  35
ATOM     35  C   UNL     1       6.683  -4.927   5.470  1.00  0.00     0.031 A 
ATOM     36  C   UNL     1       7.182  -6.323   5.729  1.00  0.00     0.074 A 
ATOM     37  C   UNL     1       6.835  -3.984   6.419  1.00  0.00     0.049 A 
ATOM     38  N   UNL     1       7.786  -6.812   6.782  1.00  0.00    -0.248 NA
ATOM     39  C   UNL     1       6.965  -7.301   4.650  1.00  0.00     0.031 C 
ATOM     40  C   UNL     1       6.407  -2.592   6.311  1.00  0.00     0.029 A 
ATOM     41  N   UNL     1       7.393  -4.067   7.674  1.00  0.00    -0.354 N 
ATOM     42  C   UNL     1       8.044  -8.144   6.483  1.00  0.00     0.074 A 
ATOM     43  C   UNL     1       7.477  -8.402   5.177  1.00  0.00     0.031 C 
ATOM     44  C   UNL     1       6.712  -1.952   7.455  1.00  0.00     0.029 A 
ATOM     45  C   UNL     1       7.340  -2.890   8.384  1.00  0.00     0.049 A 
ATOM     46  H   UNL     1       7.793  -4.892   8.031  1.00  0.00     0.167 HD
ATOM     47  C   UNL     1       8.710  -9.068   7.215  1.00  0.00     0.037 A 
ATOM     48  C   UNL     1       7.744  -2.609   9.640  1.00  0.00     0.037 A 
ATOM     49  C   UNL     1       9.238  -8.840   8.534  1.00  0.00     0.049 A 
ATOM     50  C   UNL     1       8.404  -3.683  10.474  1.00  0.00     0.074 A 
ATOM     51  C   UNL     1       9.907  -9.727   9.360  1.00  0.00     0.029 A 
ATOM     52  N   UNL     1       9.144  -7.643   9.226  1.00  0.00    -0.354 N 
ATOM     53  N   UNL     1       8.689  -4.924  10.160  1.00  0.00    -0.248 NA
ATOM     54  C   UNL     1       8.809  -3.310  11.840  1.00  0.00     0.031 C 
ATOM     55  C   UNL     1      10.174  -9.081  10.572  1.00  0.00     0.029 A 
ATOM     56  C   UNL     1       9.725  -7.774  10.477  1.00  0.00     0.049 A 
ATOM     57  H   UNL     1       8.725  -6.822   8.880  1.00  0.00     0.167 HD
ATOM     58  C   UNL     1       9.336  -5.463  11.268  1.00  0.00     0.074 A 
ATOM     59  C   UNL     1       9.418  -4.410  12.257  1.00  0.00     0.031 C 
ATOM     60  C   UNL     1       9.818  -6.717  11.452  1.00  0.00     0.037 A 
BRANCH  47  61
ATOM     61  C   UNL     1       8.889 -10.423   6.595  1.00  0.00     0.057 A 
ATOM     62  C   UNL     1       9.750 -10.620   5.506  1.00  0.00     0.134 A 
ATOM     63  C   UNL     1       8.207 -11.539   7.091  1.00  0.00     0.134 A 
ATOM     64  F   UNL     1      10.420  -9.587   4.973  1.00  0.00    -0.206 F 
ATOM     65  C   UNL     1       9.902 -11.875   4.915  1.00  0.00     0.040 A 
ATOM     66  C   UNL     1       8.373 -12.804   6.526  1.00  0.00     0.040 A 
ATOM     67  F   UNL     1       7.370 -11.420   8.133  1.00  0.00    -0.206 F 
ATOM     68  C   UNL     1       9.216 -12.973   5.429  1.00  0.00     0.006 A 
ENDBRANCH  47  61
BRANCH  48  69
ATOM     69  C   UNL     1       7.534  -1.253  10.219  1.00  0.00     0.057 A 
ATOM     70  C   UNL     1       8.614  -0.429  10.562  1.00  0.00     0.134 A 
ATOM     71  C   UNL     1       6.250  -0.782  10.521  1.00  0.00     0.134 A 
ATOM     72  F   UNL     1       9.872  -0.833  10.329  1.00  0.00    -0.206 F 
ATOM     73  C   UNL     1       8.429   0.792  11.214  1.00  0.00     0.040 A 
ATOM     74  C   UNL     1       6.048   0.451  11.145  1.00  0.00     0.040 A 
ATOM     75  F   UNL     1       5.171  -1.521  10.226  1.00  0.00    -0.206 F 
ATOM     76  C   UNL     1       7.141   1.236  11.506  1.00  0.00     0.006 A 
ENDBRANCH  48  69
BRANCH  60  77
ATOM     77  C   UNL     1      10.522  -7.012  12.748  1.00  0.00     0.057 A 
ATOM     78  C   UNL     1       9.840  -7.081  13.971  1.00  0.00     0.134 A 
ATOM     79  C   UNL     1      11.901  -7.264  12.767  1.00  0.00     0.134 A 
ATOM     80  F   UNL     1       8.521  -6.843  14.028  1.00  0.00    -0.206 F 
ATOM     81  C   UNL     1      10.508  -7.357  15.166  1.00  0.00     0.040 A 
ATOM     82  C   UNL     1      12.574  -7.572  13.951  1.00  0.00     0.040 A 
ATOM     83  F   UNL     1      12.616  -7.228  11.633  1.00  0.00    -0.206 F 
ATOM     84  C   UNL     1      11.879  -7.610  15.157  1.00  0.00     0.006 A 
ENDBRANCH  60  77
ENDBRANCH  34  35
ENDBRANCH  27  29
ENDBRANCH  26  27
ENDBRANCH  25  26
ENDBRANCH   1  25
TORSDOF 15
