REMARK SMILES CC(=O)N[C@@H](C[NH2+]CCc1ccc(F)cc1C)C(=O)OCCOCCOC(=O)c1ccc(-c2c3nc(c(-c4c(F)cccc4F)c4ccc([nH]4)c(-c4c(F)cccc4F)c4nc(c(-c5c(F)cccc5F)c5ccc2[nH]5)C=C4)C=C3)cc1
REMARK SMILES IDX 21 1 20 2 18 3 19 4 5 5 4 6 1 7 2 8 3 9 6 11 7 12 8 15 9 16
REMARK SMILES IDX 10 17 11 18 16 19 12 20 15 21 17 22 13 23 14 24 22 25 23 26
REMARK SMILES IDX 24 27 25 28 26 29 27 30 28 31 29 32 30 33 82 34 31 35 81 36
REMARK SMILES IDX 32 37 33 38 34 39 75 40 35 41 80 42 74 43 76 44 36 45 79 46
REMARK SMILES IDX 73 47 72 48 37 50 63 51 46 52 62 53 47 54 50 55 61 56 77 57
REMARK SMILES IDX 48 58 49 59 60 61 78 62 51 63 38 64 39 65 44 66 40 67 41 68
REMARK SMILES IDX 43 69 45 70 42 71 64 72 65 73 70 74 66 75 67 76 69 77 71 78
REMARK SMILES IDX 68 79 52 80 53 81 58 82 54 83 55 84 57 85 59 86 56 87
REMARK H PARENT 4 10 7 13 7 14 76 49 50 60
REMARK Flexibility Score: inf
ROOT
ATOM      1  C   UNL     1       0.304   6.056   0.450  1.00  0.00     0.261 C 
ENDROOT
BRANCH   1   2
ATOM      2  O   UNL     1       0.748   4.863  -0.207  1.00  0.00    -0.462 OA
BRANCH   2   3
ATOM      3  C   UNL     1       1.857   4.270   0.321  1.00  0.00     0.334 C 
ATOM      4  O   UNL     1       2.558   4.744   1.210  1.00  0.00    -0.250 OA
BRANCH   3   5
ATOM      5  C   UNL     1       2.182   2.938  -0.371  1.00  0.00     0.247 C 
BRANCH   5   6
ATOM      6  N   UNL     1       1.073   2.386  -1.168  1.00  0.00    -0.338 N 
ATOM      7  C   UNL     1       1.063   0.160  -0.116  1.00  0.00     0.114 C 
ATOM      8  C   UNL     1       0.514   1.147  -1.110  1.00  0.00     0.217 C 
ATOM      9  O   UNL     1      -0.439   0.872  -1.835  1.00  0.00    -0.275 OA
ATOM     10  H   UNL     1       0.683   2.998  -1.834  1.00  0.00     0.164 HD
ENDBRANCH   5   6
BRANCH   5  11
ATOM     11  C   UNL     1       3.417   3.172  -1.259  1.00  0.00     0.297 C 
BRANCH  11  12
ATOM     12  N   UNL     1       3.077   4.069  -2.372  1.00  0.00    -0.344 N 
ATOM     13  H   UNL     1       2.587   4.881  -1.995  1.00  0.00     0.346 HD
ATOM     14  H   UNL     1       2.498   3.538  -3.022  1.00  0.00     0.346 HD
BRANCH  12  15
ATOM     15  C   UNL     1       4.243   4.537  -3.115  1.00  0.00     0.265 C 
BRANCH  15  16
ATOM     16  C   UNL     1       4.865   3.517  -4.084  1.00  0.00     0.097 C 
BRANCH  16  17
ATOM     17  C   UNL     1       3.909   2.693  -4.930  1.00  0.00    -0.039 A 
ATOM     18  C   UNL     1       3.988   1.289  -4.814  1.00  0.00     0.007 A 
ATOM     19  C   UNL     1       2.982   3.250  -5.840  1.00  0.00    -0.045 A 
ATOM     20  C   UNL     1       3.167   0.452  -5.568  1.00  0.00     0.039 A 
ATOM     21  C   UNL     1       2.148   2.389  -6.578  1.00  0.00     0.043 A 
ATOM     22  C   UNL     1       2.786   4.728  -6.033  1.00  0.00     0.045 C 
ATOM     23  C   UNL     1       2.253   1.011  -6.444  1.00  0.00     0.123 A 
ATOM     24  F   UNL     1       1.466   0.213  -7.177  1.00  0.00    -0.207 F 
ENDBRANCH  16  17
ENDBRANCH  15  16
ENDBRANCH  12  15
ENDBRANCH  11  12
ENDBRANCH   5  11
ENDBRANCH   3   5
ENDBRANCH   2   3
ENDBRANCH   1   2
BRANCH   1  25
ATOM     25  C   UNL     1      -1.146   5.925   0.922  1.00  0.00     0.202 C 
BRANCH  25  26
ATOM     26  O   UNL     1      -1.442   4.826   1.781  1.00  0.00    -0.374 OA
BRANCH  26  27
ATOM     27  C   UNL     1      -1.498   3.521   1.203  1.00  0.00     0.202 C 
BRANCH  27  28
ATOM     28  C   UNL     1      -2.669   3.212   0.260  1.00  0.00     0.261 C 
BRANCH  28  29
ATOM     29  O   UNL     1      -2.647   4.003  -0.943  1.00  0.00    -0.460 OA
BRANCH  29  30
ATOM     30  C   UNL     1      -3.721   4.811  -1.112  1.00  0.00     0.338 C 
ATOM     31  O   UNL     1      -4.694   4.923  -0.380  1.00  0.00    -0.246 OA
BRANCH  30  32
ATOM     32  C   UNL     1      -3.500   5.709  -2.257  1.00  0.00     0.060 A 
ATOM     33  C   UNL     1      -3.466   7.088  -2.012  1.00  0.00     0.016 A 
ATOM     34  C   UNL     1      -3.433   5.214  -3.560  1.00  0.00     0.016 A 
ATOM     35  C   UNL     1      -3.390   7.983  -3.078  1.00  0.00     0.010 A 
ATOM     36  C   UNL     1      -3.372   6.115  -4.628  1.00  0.00     0.010 A 
ATOM     37  C   UNL     1      -3.374   7.502  -4.393  1.00  0.00    -0.014 A 
BRANCH  37  38
ATOM     38  C   UNL     1      -3.465   8.450  -5.529  1.00  0.00     0.031 A 
ATOM     39  C   UNL     1      -4.798   8.700  -6.176  1.00  0.00     0.074 A 
ATOM     40  C   UNL     1      -2.367   9.084  -5.975  1.00  0.00     0.049 A 
ATOM     41  N   UNL     1      -5.087   9.428  -7.224  1.00  0.00    -0.248 NA
ATOM     42  C   UNL     1      -5.960   8.042  -5.559  1.00  0.00     0.031 C 
ATOM     43  C   UNL     1      -1.029   8.960  -5.400  1.00  0.00     0.029 A 
ATOM     44  N   UNL     1      -2.205   9.951  -7.026  1.00  0.00    -0.354 N 
ATOM     45  C   UNL     1      -6.460   9.313  -7.396  1.00  0.00     0.074 A 
ATOM     46  C   UNL     1      -6.944   8.429  -6.357  1.00  0.00     0.031 C 
ATOM     47  C   UNL     1      -0.176   9.710  -6.119  1.00  0.00     0.029 A 
ATOM     48  C   UNL     1      -0.902  10.335  -7.223  1.00  0.00     0.049 A 
ATOM     49  H   UNL     1      -2.952  10.266  -7.585  1.00  0.00     0.167 HD
ATOM     50  C   UNL     1      -7.245   9.896  -8.333  1.00  0.00     0.037 A 
ATOM     51  C   UNL     1      -0.355  11.080  -8.203  1.00  0.00     0.037 A 
ATOM     52  C   UNL     1      -6.761  10.771  -9.368  1.00  0.00     0.049 A 
ATOM     53  C   UNL     1      -1.235  11.641  -9.287  1.00  0.00     0.074 A 
ATOM     54  C   UNL     1      -7.482  11.430 -10.348  1.00  0.00     0.029 A 
ATOM     55  N   UNL     1      -5.428  11.100  -9.562  1.00  0.00    -0.354 N 
ATOM     56  N   UNL     1      -2.535  11.545  -9.429  1.00  0.00    -0.248 NA
ATOM     57  C   UNL     1      -0.571  12.407 -10.352  1.00  0.00     0.031 C 
ATOM     58  C   UNL     1      -6.580  12.119 -11.166  1.00  0.00     0.029 A 
ATOM     59  C   UNL     1      -5.302  11.925 -10.667  1.00  0.00     0.049 A 
ATOM     60  H   UNL     1      -4.683  10.792  -8.999  1.00  0.00     0.167 HD
ATOM     61  C   UNL     1      -2.846  12.251 -10.584  1.00  0.00     0.074 A 
ATOM     62  C   UNL     1      -1.600  12.783 -11.098  1.00  0.00     0.031 C 
ATOM     63  C   UNL     1      -4.054  12.443 -11.168  1.00  0.00     0.037 A 
BRANCH  50  64
ATOM     64  C   UNL     1      -8.711   9.582  -8.297  1.00  0.00     0.057 A 
ATOM     65  C   UNL     1      -9.558  10.116  -7.318  1.00  0.00     0.134 A 
ATOM     66  C   UNL     1      -9.288   8.762  -9.275  1.00  0.00     0.134 A 
ATOM     67  F   UNL     1      -9.065  10.899  -6.346  1.00  0.00    -0.206 F 
ATOM     68  C   UNL     1     -10.925   9.831  -7.302  1.00  0.00     0.040 A 
ATOM     69  C   UNL     1     -10.656   8.487  -9.282  1.00  0.00     0.040 A 
ATOM     70  F   UNL     1      -8.533   8.223 -10.244  1.00  0.00    -0.206 F 
ATOM     71  C   UNL     1     -11.478   9.019  -8.290  1.00  0.00     0.006 A 
ENDBRANCH  50  64
BRANCH  51  72
ATOM     72  C   UNL     1       1.110  11.315  -8.224  1.00  0.00     0.057 A 
ATOM     73  C   UNL     1       1.645  12.583  -7.974  1.00  0.00     0.134 A 
ATOM     74  C   UNL     1       2.009  10.280  -8.514  1.00  0.00     0.134 A 
ATOM     75  F   UNL     1       0.833  13.619  -7.715  1.00  0.00    -0.206 F 
ATOM     76  C   UNL     1       3.020  12.818  -8.024  1.00  0.00     0.040 A 
ATOM     77  C   UNL     1       3.387  10.496  -8.545  1.00  0.00     0.040 A 
ATOM     78  F   UNL     1       1.559   9.041  -8.762  1.00  0.00    -0.206 F 
ATOM     79  C   UNL     1       3.896  11.771  -8.306  1.00  0.00     0.006 A 
ENDBRANCH  51  72
BRANCH  63  80
ATOM     80  C   UNL     1      -4.091  13.274 -12.416  1.00  0.00     0.057 A 
ATOM     81  C   UNL     1      -3.635  12.778 -13.643  1.00  0.00     0.134 A 
ATOM     82  C   UNL     1      -4.632  14.566 -12.399  1.00  0.00     0.134 A 
ATOM     83  F   UNL     1      -3.094  11.553 -13.723  1.00  0.00    -0.206 F 
ATOM     84  C   UNL     1      -3.701  13.545 -14.808  1.00  0.00     0.040 A 
ATOM     85  C   UNL     1      -4.724  15.333 -13.562  1.00  0.00     0.040 A 
ATOM     86  F   UNL     1      -5.093  15.097 -11.257  1.00  0.00    -0.206 F 
ATOM     87  C   UNL     1      -4.254  14.824 -14.770  1.00  0.00     0.006 A 
ENDBRANCH  63  80
ENDBRANCH  37  38
ENDBRANCH  30  32
ENDBRANCH  29  30
ENDBRANCH  28  29
ENDBRANCH  27  28
ENDBRANCH  26  27
ENDBRANCH  25  26
ENDBRANCH   1  25
TORSDOF 20
