REMARK SMILES CC1=C([C@H](NC(=O)[C@@H]2[C@H](C)c3cc(F)ccc3N2C)C(=O)OCCOCCOC(=O)c2ccc(-c3c4nc(c(-c5c(F)cccc5F)c5ccc([nH]5)c(-c5c(F)cccc5F)c5nc(c(-c6c(F)cccc6F)c6ccc3[nH]6)C=C5)C=C4)cc2)[C@@H](C)N=N1
REMARK SMILES IDX 25 1 24 2 23 3 22 4 20 5 21 6 4 7 3 8 1 9 2 10 88 11 85 12
REMARK SMILES IDX 87 13 86 14 5 15 6 16 7 18 8 19 9 20 18 21 11 22 10 23 17 24
REMARK SMILES IDX 19 25 12 26 16 27 13 28 15 29 14 30 26 31 27 32 28 33 29 34
REMARK SMILES IDX 30 35 31 36 32 37 84 38 33 39 83 40 34 41 35 42 36 43 77 44
REMARK SMILES IDX 37 45 82 46 76 47 78 48 38 49 81 50 75 51 74 52 39 54 65 55
REMARK SMILES IDX 48 56 64 57 49 58 52 59 63 60 79 61 50 62 51 63 62 65 80 66
REMARK SMILES IDX 53 67 40 68 41 69 46 70 42 71 43 72 45 73 47 74 44 75 66 76
REMARK SMILES IDX 67 77 72 78 68 79 69 80 71 81 73 82 70 83 54 84 55 85 60 86
REMARK SMILES IDX 56 87 57 88 59 89 61 90 58 91
REMARK H PARENT 5 17 78 53 52 64
REMARK Flexibility Score: inf
ROOT
ATOM      1  O   UNL     1      -2.055   4.093   1.770  1.00  0.00    -0.374 OA
ENDROOT
BRANCH   1   2
ATOM      2  C   UNL     1      -1.926   5.390   1.202  1.00  0.00     0.202 C 
BRANCH   2   3
ATOM      3  C   UNL     1      -0.551   5.844   0.699  1.00  0.00     0.261 C 
BRANCH   3   4
ATOM      4  O   UNL     1       0.200   4.820   0.043  1.00  0.00    -0.461 OA
BRANCH   4   5
ATOM      5  C   UNL     1       1.122   4.235   0.859  1.00  0.00     0.333 C 
ATOM      6  O   UNL     1       1.300   4.525   2.038  1.00  0.00    -0.249 OA
BRANCH   5   7
ATOM      7  C   UNL     1       2.026   3.247   0.105  1.00  0.00     0.223 C 
BRANCH   7   8
ATOM      8  C   UNL     1       3.099   3.936  -0.670  1.00  0.00     0.012 C 
ATOM      9  C   UNL     1       3.871   5.735   0.970  1.00  0.00     0.069 C 
ATOM     10  C   UNL     1       3.879   4.963  -0.305  1.00  0.00     0.064 C 
ATOM     11  N   UNL     1       4.843   5.247  -1.236  1.00  0.00    -0.160 NA
ATOM     12  C   UNL     1       3.610   3.529  -2.017  1.00  0.00     0.156 C 
ATOM     13  N   UNL     1       4.767   4.445  -2.204  1.00  0.00    -0.181 NA
ATOM     14  C   UNL     1       2.660   3.753  -3.190  1.00  0.00     0.040 C 
ENDBRANCH   7   8
BRANCH   7  15
ATOM     15  N   UNL     1       1.260   2.376  -0.774  1.00  0.00    -0.337 N 
ATOM     16  C   UNL     1       1.359   1.013  -0.914  1.00  0.00     0.244 C 
ATOM     17  H   UNL     1       0.587   2.819  -1.340  1.00  0.00     0.164 HD
ATOM     18  O   UNL     1       0.528   0.465  -1.639  1.00  0.00    -0.273 OA
BRANCH  16  19
ATOM     19  C   UNL     1       2.454   0.257  -0.122  1.00  0.00     0.178 C 
ATOM     20  C   UNL     1       3.260  -0.836  -0.889  1.00  0.00     0.050 C 
ATOM     21  N   UNL     1       1.891  -0.388   1.087  1.00  0.00    -0.362 N 
ATOM     22  C   UNL     1       3.440  -1.861   0.201  1.00  0.00    -0.016 A 
ATOM     23  C   UNL     1       2.640  -1.442  -2.138  1.00  0.00     0.015 C 
ATOM     24  C   UNL     1       2.634  -1.540   1.301  1.00  0.00     0.041 A 
ATOM     25  C   UNL     1       1.228   0.328   2.151  1.00  0.00     0.144 C 
ATOM     26  C   UNL     1       4.257  -2.982   0.197  1.00  0.00     0.045 A 
ATOM     27  C   UNL     1       2.641  -2.353   2.424  1.00  0.00     0.029 A 
ATOM     28  C   UNL     1       4.253  -3.789   1.329  1.00  0.00     0.123 A 
ATOM     29  C   UNL     1       3.460  -3.486   2.437  1.00  0.00     0.041 A 
ATOM     30  F   UNL     1       5.026  -4.883   1.358  1.00  0.00    -0.207 F 
ENDBRANCH  16  19
ENDBRANCH   7  15
ENDBRANCH   5   7
ENDBRANCH   4   5
ENDBRANCH   3   4
ENDBRANCH   2   3
ENDBRANCH   1   2
BRANCH   1  31
ATOM     31  C   UNL     1      -1.978   2.950   0.912  1.00  0.00     0.202 C 
BRANCH  31  32
ATOM     32  C   UNL     1      -2.932   2.836  -0.290  1.00  0.00     0.261 C 
BRANCH  32  33
ATOM     33  O   UNL     1      -2.679   3.871  -1.253  1.00  0.00    -0.460 OA
BRANCH  33  34
ATOM     34  C   UNL     1      -3.790   4.448  -1.780  1.00  0.00     0.338 C 
ATOM     35  O   UNL     1      -4.923   4.000  -1.817  1.00  0.00    -0.246 OA
BRANCH  34  36
ATOM     36  C   UNL     1      -3.452   5.878  -1.928  1.00  0.00     0.060 A 
ATOM     37  C   UNL     1      -2.257   6.255  -2.541  1.00  0.00     0.016 A 
ATOM     38  C   UNL     1      -4.198   6.788  -1.159  1.00  0.00     0.016 A 
ATOM     39  C   UNL     1      -1.770   7.532  -2.303  1.00  0.00     0.010 A 
ATOM     40  C   UNL     1      -3.687   8.056  -0.898  1.00  0.00     0.010 A 
ATOM     41  C   UNL     1      -2.457   8.417  -1.443  1.00  0.00    -0.014 A 
BRANCH  41  42
ATOM     42  C   UNL     1      -1.941   9.786  -1.368  1.00  0.00     0.031 A 
ATOM     43  C   UNL     1      -2.017  10.455  -2.689  1.00  0.00     0.074 A 
ATOM     44  C   UNL     1      -1.525  10.480  -0.288  1.00  0.00     0.049 A 
ATOM     45  N   UNL     1      -1.034  10.779  -3.459  1.00  0.00    -0.248 NA
ATOM     46  C   UNL     1      -3.347  10.625  -3.294  1.00  0.00     0.031 C 
ATOM     47  C   UNL     1      -1.681  10.130   1.124  1.00  0.00     0.029 A 
ATOM     48  N   UNL     1      -0.931  11.719  -0.236  1.00  0.00    -0.354 N 
ATOM     49  C   UNL     1      -1.617  11.388  -4.564  1.00  0.00     0.074 A 
ATOM     50  C   UNL     1      -3.027  11.111  -4.494  1.00  0.00     0.031 C 
ATOM     51  C   UNL     1      -1.393  11.213   1.886  1.00  0.00     0.029 A 
ATOM     52  C   UNL     1      -0.895  12.283   1.033  1.00  0.00     0.049 A 
ATOM     53  H   UNL     1      -0.563  12.168  -1.031  1.00  0.00     0.167 HD
ATOM     54  C   UNL     1      -0.930  12.315  -5.280  1.00  0.00     0.037 A 
ATOM     55  C   UNL     1      -0.513  13.543   1.363  1.00  0.00     0.037 A 
ATOM     56  C   UNL     1       0.479  12.269  -4.988  1.00  0.00     0.049 A 
ATOM     57  C   UNL     1       0.356  14.080   0.293  1.00  0.00     0.074 A 
ATOM     58  C   UNL     1       1.580  11.534  -5.364  1.00  0.00     0.029 A 
ATOM     59  N   UNL     1       0.821  12.968  -3.867  1.00  0.00    -0.354 N 
ATOM     60  N   UNL     1       1.564  13.653   0.059  1.00  0.00    -0.248 NA
ATOM     61  C   UNL     1      -0.206  14.961  -0.726  1.00  0.00     0.031 C 
ATOM     62  C   UNL     1       2.572  11.745  -4.357  1.00  0.00     0.029 A 
ATOM     63  C   UNL     1       2.054  12.610  -3.398  1.00  0.00     0.049 A 
ATOM     64  H   UNL     1       0.248  13.648  -3.446  1.00  0.00     0.167 HD
ATOM     65  C   UNL     1       1.731  13.848  -1.295  1.00  0.00     0.074 A 
ATOM     66  C   UNL     1       0.716  14.816  -1.681  1.00  0.00     0.031 C 
ATOM     67  C   UNL     1       2.424  12.945  -2.045  1.00  0.00     0.037 A 
BRANCH  54  68
ATOM     68  C   UNL     1      -1.550  13.592  -5.809  1.00  0.00     0.057 A 
ATOM     69  C   UNL     1      -2.730  14.172  -5.298  1.00  0.00     0.134 A 
ATOM     70  C   UNL     1      -0.762  14.444  -6.604  1.00  0.00     0.134 A 
ATOM     71  F   UNL     1      -3.544  13.528  -4.455  1.00  0.00    -0.206 F 
ATOM     72  C   UNL     1      -3.086  15.502  -5.537  1.00  0.00     0.040 A 
ATOM     73  C   UNL     1      -1.084  15.792  -6.806  1.00  0.00     0.040 A 
ATOM     74  F   UNL     1       0.392  14.015  -7.138  1.00  0.00    -0.206 F 
ATOM     75  C   UNL     1      -2.245  16.328  -6.264  1.00  0.00     0.006 A 
ENDBRANCH  54  68
BRANCH  55  76
ATOM     76  C   UNL     1      -0.957  14.418   2.474  1.00  0.00     0.057 A 
ATOM     77  C   UNL     1      -2.278  14.373   2.943  1.00  0.00     0.134 A 
ATOM     78  C   UNL     1      -0.191  15.520   2.891  1.00  0.00     0.134 A 
ATOM     79  F   UNL     1      -3.114  13.400   2.552  1.00  0.00    -0.206 F 
ATOM     80  C   UNL     1      -2.818  15.378   3.753  1.00  0.00     0.040 A 
ATOM     81  C   UNL     1      -0.721  16.536   3.697  1.00  0.00     0.040 A 
ATOM     82  F   UNL     1       1.072  15.674   2.468  1.00  0.00    -0.206 F 
ATOM     83  C   UNL     1      -2.045  16.474   4.119  1.00  0.00     0.006 A 
ENDBRANCH  55  76
BRANCH  67  84
ATOM     84  C   UNL     1       3.483  12.152  -1.355  1.00  0.00     0.057 A 
ATOM     85  C   UNL     1       4.811  12.342  -1.752  1.00  0.00     0.134 A 
ATOM     86  C   UNL     1       3.242  11.208  -0.348  1.00  0.00     0.134 A 
ATOM     87  F   UNL     1       5.106  13.208  -2.735  1.00  0.00    -0.206 F 
ATOM     88  C   UNL     1       5.862  11.640  -1.165  1.00  0.00     0.040 A 
ATOM     89  C   UNL     1       4.291  10.523   0.273  1.00  0.00     0.040 A 
ATOM     90  F   UNL     1       1.994  10.910   0.042  1.00  0.00    -0.206 F 
ATOM     91  C   UNL     1       5.605  10.736  -0.138  1.00  0.00     0.006 A 
ENDBRANCH  67  84
ENDBRANCH  41  42
ENDBRANCH  34  36
ENDBRANCH  33  34
ENDBRANCH  32  33
ENDBRANCH  31  32
ENDBRANCH   1  31
TORSDOF 17
