REMARK SMILES C[C@@H](CC(=O)OCCOCCOC(=O)c1ccc(-c2c3nc(c(-c4c(F)cccc4F)c4ccc([nH]4)c(-c4c(F)cccc4F)c4nc(c(-c5c(F)cccc5F)c5ccc2[nH]5)C=C4)C=C3)cc1)Cc1nnc(C2C(C)(C)C2(C)C)o1
REMARK SMILES IDX 8 1 7 2 6 3 4 4 5 5 3 6 2 7 1 8 69 9 70 10 71 11 81 12 72 13
REMARK SMILES IDX 73 14 74 15 75 16 78 17 76 18 77 19 79 20 80 21 9 22 10 23
REMARK SMILES IDX 11 24 12 25 13 26 14 27 15 28 16 29 68 30 17 31 67 32 18 33
REMARK SMILES IDX 19 34 20 35 61 36 21 37 66 38 60 39 62 40 22 41 65 42 59 43
REMARK SMILES IDX 58 44 23 46 49 47 32 48 48 49 33 50 36 51 47 52 63 53 34 54
REMARK SMILES IDX 35 55 46 57 64 58 37 59 24 60 25 61 30 62 26 63 27 64 29 65
REMARK SMILES IDX 31 66 28 67 50 68 51 69 56 70 52 71 53 72 55 73 57 74 54 75
REMARK SMILES IDX 38 76 39 77 44 78 40 79 41 80 43 81 45 82 42 83
REMARK H PARENT 62 45 36 56
REMARK Flexibility Score: inf
ROOT
ATOM      1  C   UNL     1      -0.532   1.811   4.256  1.00  0.00     0.202 C 
ENDROOT
BRANCH   1   2
ATOM      2  C   UNL     1       0.872   1.319   3.888  1.00  0.00     0.261 C 
BRANCH   2   3
ATOM      3  O   UNL     1       0.920   0.482   2.713  1.00  0.00    -0.463 OA
BRANCH   3   4
ATOM      4  C   UNL     1       1.196  -0.825   2.950  1.00  0.00     0.306 C 
ATOM      5  O   UNL     1       1.340  -1.306   4.070  1.00  0.00    -0.252 OA
BRANCH   4   6
ATOM      6  C   UNL     1       1.390  -1.681   1.710  1.00  0.00     0.126 C 
BRANCH   6   7
ATOM      7  C   UNL     1       0.875  -1.286   0.306  1.00  0.00     0.006 C 
ATOM      8  C   UNL     1       1.408   0.072  -0.150  1.00  0.00     0.009 C 
BRANCH   7   9
ATOM      9  C   UNL     1      -0.653  -1.414   0.183  1.00  0.00     0.103 C 
BRANCH   9  10
ATOM     10  C   UNL     1      -1.198  -1.346  -1.203  1.00  0.00     0.216 A 
ATOM     11  N   UNL     1      -1.863  -2.244  -1.896  1.00  0.00    -0.113 NA
ATOM     12  O   UNL     1      -1.202  -0.122  -1.802  1.00  0.00    -0.425 OA
ATOM     13  N   UNL     1      -2.370  -1.581  -3.006  1.00  0.00    -0.113 NA
ATOM     14  C   UNL     1      -1.988  -0.322  -2.910  1.00  0.00     0.220 A 
BRANCH  14  15
ATOM     15  C   UNL     1      -2.432   0.775  -3.893  1.00  0.00     0.090 C 
ATOM     16  C   UNL     1      -2.687   2.217  -3.417  1.00  0.00    -0.017 C 
ATOM     17  C   UNL     1      -1.478   1.909  -4.299  1.00  0.00    -0.017 C 
ATOM     18  C   UNL     1      -3.842   3.000  -4.010  1.00  0.00     0.012 C 
ATOM     19  C   UNL     1      -2.487   2.626  -1.986  1.00  0.00     0.012 C 
ATOM     20  C   UNL     1      -0.068   1.955  -3.748  1.00  0.00     0.012 C 
ATOM     21  C   UNL     1      -1.508   2.377  -5.743  1.00  0.00     0.012 C 
ENDBRANCH  14  15
ENDBRANCH   9  10
ENDBRANCH   7   9
ENDBRANCH   6   7
ENDBRANCH   4   6
ENDBRANCH   3   4
ENDBRANCH   2   3
ENDBRANCH   1   2
BRANCH   1  22
ATOM     22  O   UNL     1      -1.541   0.836   4.491  1.00  0.00    -0.374 OA
BRANCH  22  23
ATOM     23  C   UNL     1      -2.053   0.106   3.379  1.00  0.00     0.202 C 
BRANCH  23  24
ATOM     24  C   UNL     1      -2.891   0.886   2.359  1.00  0.00     0.261 C 
BRANCH  24  25
ATOM     25  O   UNL     1      -2.104   1.876   1.669  1.00  0.00    -0.460 OA
BRANCH  25  26
ATOM     26  C   UNL     1      -2.467   3.158   1.922  1.00  0.00     0.338 C 
ATOM     27  O   UNL     1      -3.444   3.520   2.565  1.00  0.00    -0.246 OA
BRANCH  26  28
ATOM     28  C   UNL     1      -1.475   4.131   1.404  1.00  0.00     0.060 A 
ATOM     29  C   UNL     1      -1.470   5.410   1.972  1.00  0.00     0.016 A 
ATOM     30  C   UNL     1      -0.636   3.855   0.325  1.00  0.00     0.016 A 
ATOM     31  C   UNL     1      -0.774   6.448   1.358  1.00  0.00     0.010 A 
ATOM     32  C   UNL     1       0.006   4.903  -0.335  1.00  0.00     0.010 A 
ATOM     33  C   UNL     1      -0.116   6.213   0.147  1.00  0.00    -0.014 A 
BRANCH  33  34
ATOM     34  C   UNL     1       0.368   7.345  -0.668  1.00  0.00     0.031 A 
ATOM     35  C   UNL     1      -0.588   8.083  -1.564  1.00  0.00     0.074 A 
ATOM     36  C   UNL     1       1.670   7.667  -0.642  1.00  0.00     0.049 A 
ATOM     37  N   UNL     1      -0.363   9.109  -2.345  1.00  0.00    -0.248 NA
ATOM     38  C   UNL     1      -1.978   7.598  -1.594  1.00  0.00     0.031 C 
ATOM     39  C   UNL     1       2.682   6.999   0.174  1.00  0.00     0.029 A 
ATOM     40  N   UNL     1       2.363   8.619  -1.339  1.00  0.00    -0.354 N 
ATOM     41  C   UNL     1      -1.583   9.410  -2.938  1.00  0.00     0.074 A 
ATOM     42  C   UNL     1      -2.538   8.433  -2.459  1.00  0.00     0.031 C 
ATOM     43  C   UNL     1       3.880   7.542  -0.096  1.00  0.00     0.029 A 
ATOM     44  C   UNL     1       3.713   8.589  -1.102  1.00  0.00     0.049 A 
ATOM     45  H   UNL     1       1.936   9.261  -1.951  1.00  0.00     0.167 HD
ATOM     46  C   UNL     1      -1.875  10.415  -3.799  1.00  0.00     0.037 A 
ATOM     47  C   UNL     1       4.703   9.320  -1.646  1.00  0.00     0.037 A 
ATOM     48  C   UNL     1      -0.902  11.352  -4.301  1.00  0.00     0.049 A 
ATOM     49  C   UNL     1       4.363  10.395  -2.640  1.00  0.00     0.074 A 
ATOM     50  C   UNL     1      -1.100  12.434  -5.141  1.00  0.00     0.029 A 
ATOM     51  N   UNL     1       0.458  11.299  -4.032  1.00  0.00    -0.354 N 
ATOM     52  N   UNL     1       3.191  10.742  -3.114  1.00  0.00    -0.248 NA
ATOM     53  C   UNL     1       5.481  11.194  -3.161  1.00  0.00     0.031 C 
ATOM     54  C   UNL     1       0.146  12.997  -5.430  1.00  0.00     0.029 A 
ATOM     55  C   UNL     1       1.114  12.310  -4.714  1.00  0.00     0.049 A 
ATOM     56  H   UNL     1       0.892  10.641  -3.442  1.00  0.00     0.167 HD
ATOM     57  C   UNL     1       3.423  11.829  -3.948  1.00  0.00     0.074 A 
ATOM     58  C   UNL     1       4.849  12.078  -3.921  1.00  0.00     0.031 C 
ATOM     59  C   UNL     1       2.532  12.560  -4.661  1.00  0.00     0.037 A 
BRANCH  46  60
ATOM     60  C   UNL     1      -3.297  10.557  -4.263  1.00  0.00     0.057 A 
ATOM     61  C   UNL     1      -4.315  10.984  -3.399  1.00  0.00     0.134 A 
ATOM     62  C   UNL     1      -3.642  10.341  -5.604  1.00  0.00     0.134 A 
ATOM     63  F   UNL     1      -4.056  11.208  -2.102  1.00  0.00    -0.206 F 
ATOM     64  C   UNL     1      -5.624  11.174  -3.847  1.00  0.00     0.040 A 
ATOM     65  C   UNL     1      -4.941  10.553  -6.070  1.00  0.00     0.040 A 
ATOM     66  F   UNL     1      -2.716   9.943  -6.490  1.00  0.00    -0.206 F 
ATOM     67  C   UNL     1      -5.938  10.967  -5.189  1.00  0.00     0.006 A 
ENDBRANCH  46  60
BRANCH  47  68
ATOM     68  C   UNL     1       6.104   9.074  -1.231  1.00  0.00     0.057 A 
ATOM     69  C   UNL     1       6.799  10.003  -0.450  1.00  0.00     0.134 A 
ATOM     70  C   UNL     1       6.776   7.900  -1.592  1.00  0.00     0.134 A 
ATOM     71  F   UNL     1       6.208  11.150  -0.081  1.00  0.00    -0.206 F 
ATOM     72  C   UNL     1       8.120   9.786  -0.061  1.00  0.00     0.040 A 
ATOM     73  C   UNL     1       8.089   7.657  -1.188  1.00  0.00     0.040 A 
ATOM     74  F   UNL     1       6.157   6.963  -2.325  1.00  0.00    -0.206 F 
ATOM     75  C   UNL     1       8.768   8.607  -0.427  1.00  0.00     0.006 A 
ENDBRANCH  47  68
BRANCH  59  76
ATOM     76  C   UNL     1       3.053  13.743  -5.425  1.00  0.00     0.057 A 
ATOM     77  C   UNL     1       3.807  13.604  -6.596  1.00  0.00     0.134 A 
ATOM     78  C   UNL     1       2.726  15.044  -5.017  1.00  0.00     0.134 A 
ATOM     79  F   UNL     1       4.165  12.387  -7.034  1.00  0.00    -0.206 F 
ATOM     80  C   UNL     1       4.226  14.716  -7.329  1.00  0.00     0.040 A 
ATOM     81  C   UNL     1       3.115  16.162  -5.756  1.00  0.00     0.040 A 
ATOM     82  F   UNL     1       2.000  15.248  -3.908  1.00  0.00    -0.206 F 
ATOM     83  C   UNL     1       3.870  15.999  -6.915  1.00  0.00     0.006 A 
ENDBRANCH  59  76
ENDBRANCH  33  34
ENDBRANCH  26  28
ENDBRANCH  25  26
ENDBRANCH  24  25
ENDBRANCH  23  24
ENDBRANCH  22  23
ENDBRANCH   1  22
TORSDOF 18
