REMARK SMILES CC(C)(C)OC(=O)N1C[C@H](Oc2ccncc2)C[C@H]1C(=O)OCCOCCOC(=O)c1ccc(-c2c3nc(c(-c4c(F)cccc4F)c4ccc([nH]4)c(-c4c(F)cccc4F)c4nc(c(-c5c(F)cccc5F)c5ccc2[nH]5)C=C4)C=C3)cc1
REMARK SMILES IDX 24 1 23 2 22 3 20 4 21 5 19 6 8 7 9 8 10 9 18 10 6 11 7 12
REMARK SMILES IDX 5 13 2 14 1 15 3 16 4 17 11 18 12 19 13 20 17 21 14 22 16 23
REMARK SMILES IDX 15 24 25 25 26 26 27 27 28 28 29 29 30 30 31 31 32 32 84 33
REMARK SMILES IDX 33 34 83 35 34 36 35 37 36 38 77 39 37 40 82 41 76 42 78 43
REMARK SMILES IDX 38 44 81 45 75 46 74 47 39 49 65 50 48 51 64 52 49 53 52 54
REMARK SMILES IDX 63 55 79 56 50 57 51 58 62 60 80 61 53 62 40 63 41 64 46 65
REMARK SMILES IDX 42 66 43 67 45 68 47 69 44 70 66 71 67 72 72 73 68 74 69 75
REMARK SMILES IDX 71 76 73 77 70 78 54 79 55 80 60 81 56 82 57 83 59 84 61 85
REMARK SMILES IDX 58 86
REMARK H PARENT 78 48 52 59
REMARK Flexibility Score: inf
ROOT
ATOM      1  C   UNL     1       0.225  -6.238  -6.903  1.00  0.00     0.202 C 
ENDROOT
BRANCH   1   2
ATOM      2  C   UNL     1      -1.001  -5.329  -6.736  1.00  0.00     0.261 C 
BRANCH   2   3
ATOM      3  O   UNL     1      -0.700  -3.929  -6.649  1.00  0.00    -0.462 OA
BRANCH   3   4
ATOM      4  C   UNL     1      -0.568  -3.487  -5.363  1.00  0.00     0.329 C 
ATOM      5  O   UNL     1      -0.711  -4.213  -4.386  1.00  0.00    -0.250 OA
BRANCH   4   6
ATOM      6  C   UNL     1      -0.214  -1.986  -5.295  1.00  0.00     0.202 C 
ATOM      7  N   UNL     1       0.632  -1.761  -4.121  1.00  0.00    -0.291 N 
ATOM      8  C   UNL     1       1.980  -1.367  -4.481  1.00  0.00     0.169 C 
ATOM      9  C   UNL     1       1.797  -0.687  -5.837  1.00  0.00     0.195 C 
ATOM     10  C   UNL     1       0.614  -1.439  -6.476  1.00  0.00     0.084 C 
BRANCH   7  11
ATOM     11  C   UNL     1       0.074  -1.768  -2.866  1.00  0.00     0.411 C 
ATOM     12  O   UNL     1      -1.103  -2.043  -2.674  1.00  0.00    -0.224 OA
BRANCH  11  13
ATOM     13  O   UNL     1       0.952  -1.384  -1.910  1.00  0.00    -0.444 OA
BRANCH  13  14
ATOM     14  C   UNL     1       0.600  -1.371  -0.498  1.00  0.00     0.106 C 
ATOM     15  C   UNL     1       1.389  -0.197   0.097  1.00  0.00     0.056 C 
ATOM     16  C   UNL     1       1.093  -2.687   0.109  1.00  0.00     0.056 C 
ATOM     17  C   UNL     1      -0.885  -1.153  -0.173  1.00  0.00     0.056 C 
ENDBRANCH  13  14
ENDBRANCH  11  13
ENDBRANCH   7  11
BRANCH   9  18
ATOM     18  O   UNL     1       1.663   0.749  -5.796  1.00  0.00    -0.488 OA
BRANCH  18  19
ATOM     19  C   UNL     1       0.580   1.247  -5.132  1.00  0.00     0.122 A 
ATOM     20  C   UNL     1       0.604   1.426  -3.756  1.00  0.00     0.066 A 
ATOM     21  C   UNL     1      -0.523   1.665  -5.863  1.00  0.00     0.066 A 
ATOM     22  C   UNL     1      -0.542   1.902  -3.145  1.00  0.00     0.115 A 
ATOM     23  C   UNL     1      -1.613   2.152  -5.164  1.00  0.00     0.115 A 
ATOM     24  N   UNL     1      -1.654   2.263  -3.819  1.00  0.00    -0.264 NA
ENDBRANCH  18  19
ENDBRANCH   9  18
ENDBRANCH   4   6
ENDBRANCH   3   4
ENDBRANCH   2   3
ENDBRANCH   1   2
BRANCH   1  25
ATOM     25  O   UNL     1       1.342  -6.074  -6.038  1.00  0.00    -0.374 OA
BRANCH  25  26
ATOM     26  C   UNL     1       2.204  -4.957  -6.232  1.00  0.00     0.202 C 
BRANCH  26  27
ATOM     27  C   UNL     1       3.039  -4.896  -7.516  1.00  0.00     0.261 C 
BRANCH  27  28
ATOM     28  O   UNL     1       2.218  -4.780  -8.693  1.00  0.00    -0.460 OA
BRANCH  28  29
ATOM     29  C   UNL     1       2.365  -5.800  -9.574  1.00  0.00     0.338 C 
ATOM     30  O   UNL     1       3.175  -6.711  -9.525  1.00  0.00    -0.246 OA
BRANCH  29  31
ATOM     31  C   UNL     1       1.259  -5.794 -10.548  1.00  0.00     0.060 A 
ATOM     32  C   UNL     1       0.466  -6.946 -10.623  1.00  0.00     0.016 A 
ATOM     33  C   UNL     1       1.070  -4.738 -11.441  1.00  0.00     0.016 A 
ATOM     34  C   UNL     1      -0.483  -7.074 -11.632  1.00  0.00     0.010 A 
ATOM     35  C   UNL     1       0.125  -4.875 -12.464  1.00  0.00     0.010 A 
ATOM     36  C   UNL     1      -0.622  -6.061 -12.589  1.00  0.00    -0.014 A 
BRANCH  36  37
ATOM     37  C   UNL     1      -1.407  -6.339 -13.815  1.00  0.00     0.031 A 
ATOM     38  C   UNL     1      -0.678  -6.770 -15.059  1.00  0.00     0.074 A 
ATOM     39  C   UNL     1      -2.750  -6.274 -13.806  1.00  0.00     0.049 A 
ATOM     40  N   UNL     1      -1.155  -7.071 -16.239  1.00  0.00    -0.248 NA
ATOM     41  C   UNL     1       0.787  -6.878 -14.956  1.00  0.00     0.031 C 
ATOM     42  C   UNL     1      -3.572  -5.917 -12.651  1.00  0.00     0.029 A 
ATOM     43  N   UNL     1      -3.658  -6.513 -14.807  1.00  0.00    -0.354 N 
ATOM     44  C   UNL     1      -0.052  -7.403 -17.018  1.00  0.00     0.074 A 
ATOM     45  C   UNL     1       1.120  -7.235 -16.188  1.00  0.00     0.031 C 
ATOM     46  C   UNL     1      -4.867  -5.953 -13.012  1.00  0.00     0.029 A 
ATOM     47  C   UNL     1      -4.961  -6.311 -14.426  1.00  0.00     0.049 A 
ATOM     48  H   UNL     1      -3.399  -6.802 -15.712  1.00  0.00     0.167 HD
ATOM     49  C   UNL     1      -0.021  -7.823 -18.304  1.00  0.00     0.037 A 
ATOM     50  C   UNL     1      -6.097  -6.390 -15.145  1.00  0.00     0.037 A 
ATOM     51  C   UNL     1      -1.187  -7.996 -19.129  1.00  0.00     0.049 A 
ATOM     52  C   UNL     1      -6.029  -6.790 -16.595  1.00  0.00     0.074 A 
ATOM     53  C   UNL     1      -1.258  -8.426 -20.442  1.00  0.00     0.029 A 
ATOM     54  N   UNL     1      -2.486  -7.744 -18.718  1.00  0.00    -0.354 N 
ATOM     55  N   UNL     1      -4.983  -7.120 -17.315  1.00  0.00    -0.248 NA
ATOM     56  C   UNL     1      -7.300  -6.832 -17.332  1.00  0.00     0.031 C 
ATOM     57  C   UNL     1      -2.599  -8.393 -20.840  1.00  0.00     0.029 A 
ATOM     58  C   UNL     1      -3.365  -7.987 -19.759  1.00  0.00     0.049 A 
ATOM     59  H   UNL     1      -2.746  -7.436 -17.819  1.00  0.00     0.167 HD
ATOM     60  C   UNL     1      -5.473  -7.436 -18.577  1.00  0.00     0.074 A 
ATOM     61  C   UNL     1      -6.910  -7.271 -18.521  1.00  0.00     0.031 C 
ATOM     62  C   UNL     1      -4.795  -7.829 -19.683  1.00  0.00     0.037 A 
BRANCH  49  63
ATOM     63  C   UNL     1       1.323  -8.107 -18.906  1.00  0.00     0.057 A 
ATOM     64  C   UNL     1       2.066  -9.241 -18.554  1.00  0.00     0.134 A 
ATOM     65  C   UNL     1       1.864  -7.255 -19.877  1.00  0.00     0.134 A 
ATOM     66  F   UNL     1       1.611 -10.088 -17.618  1.00  0.00    -0.206 F 
ATOM     67  C   UNL     1       3.307  -9.509 -19.134  1.00  0.00     0.040 A 
ATOM     68  C   UNL     1       3.093  -7.525 -20.482  1.00  0.00     0.040 A 
ATOM     69  F   UNL     1       1.203  -6.153 -20.261  1.00  0.00    -0.206 F 
ATOM     70  C   UNL     1       3.820  -8.653 -20.107  1.00  0.00     0.006 A 
ENDBRANCH  49  63
BRANCH  50  71
ATOM     71  C   UNL     1      -7.403  -6.070 -14.515  1.00  0.00     0.057 A 
ATOM     72  C   UNL     1      -8.370  -7.059 -14.301  1.00  0.00     0.134 A 
ATOM     73  C   UNL     1      -7.728  -4.759 -14.146  1.00  0.00     0.134 A 
ATOM     74  F   UNL     1      -8.127  -8.329 -14.656  1.00  0.00    -0.206 F 
ATOM     75  C   UNL     1      -9.622  -6.753 -13.763  1.00  0.00     0.040 A 
ATOM     76  C   UNL     1      -8.966  -4.443 -13.584  1.00  0.00     0.040 A 
ATOM     77  F   UNL     1      -6.845  -3.766 -14.325  1.00  0.00    -0.206 F 
ATOM     78  C   UNL     1      -9.921  -5.441 -13.399  1.00  0.00     0.006 A 
ENDBRANCH  50  71
BRANCH  62  79
ATOM     79  C   UNL     1      -5.600  -8.143 -20.910  1.00  0.00     0.057 A 
ATOM     80  C   UNL     1      -6.202  -7.137 -21.677  1.00  0.00     0.134 A 
ATOM     81  C   UNL     1      -5.737  -9.465 -21.352  1.00  0.00     0.134 A 
ATOM     82  F   UNL     1      -6.117  -5.852 -21.301  1.00  0.00    -0.206 F 
ATOM     83  C   UNL     1      -6.932  -7.438 -22.828  1.00  0.00     0.040 A 
ATOM     84  C   UNL     1      -6.443  -9.775 -22.515  1.00  0.00     0.040 A 
ATOM     85  F   UNL     1      -5.176 -10.474 -20.669  1.00  0.00    -0.206 F 
ATOM     86  C   UNL     1      -7.048  -8.760 -23.254  1.00  0.00     0.006 A 
ENDBRANCH  62  79
ENDBRANCH  36  37
ENDBRANCH  29  31
ENDBRANCH  28  29
ENDBRANCH  27  28
ENDBRANCH  26  27
ENDBRANCH  25  26
ENDBRANCH   1  25
TORSDOF 19
