REMARK SMILES O=C1C[C@H](c2cn[nH]c2C(=O)OCCOCCOC(=O)c2ccc(-c3c4nc(c(-c5c(F)cccc5F)c5ccc([nH]5)c(-c5c(F)cccc5F)c5nc(c(-c6c(F)cccc6F)c6ccc3[nH]6)C=C5)C=C4)cc2)c2c(-c3cccs3)n[nH]c2N1
REMARK SMILES IDX 15 1 14 2 13 3 12 4 10 5 11 6 9 7 5 8 6 9 7 10 8 11 4 13
REMARK SMILES IDX 1 14 2 15 3 16 85 17 84 18 75 20 83 21 76 22 82 23 77 25
REMARK SMILES IDX 78 26 81 27 79 28 80 29 16 30 17 31 18 32 19 33 20 34 21 35
REMARK SMILES IDX 22 36 74 37 23 38 73 39 24 40 25 41 26 42 67 43 27 44 72 45
REMARK SMILES IDX 66 46 68 47 28 48 71 49 65 50 64 51 29 53 55 54 38 55 54 56
REMARK SMILES IDX 39 57 42 58 53 59 69 60 40 61 41 62 52 64 70 65 43 66 30 67
REMARK SMILES IDX 31 68 36 69 32 70 33 71 35 72 37 73 34 74 56 75 57 76 62 77
REMARK SMILES IDX 58 78 59 79 61 80 63 81 60 82 44 83 45 84 50 85 46 86 47 87
REMARK SMILES IDX 49 88 51 89 48 90
REMARK H PARENT 8 12 85 19 83 24 68 52 42 63
REMARK Flexibility Score: inf
ROOT
ATOM      1  O   UNL     1       5.975  -2.657  -4.213  1.00  0.00    -0.374 OA
ENDROOT
BRANCH   1   2
ATOM      2  C   UNL     1       6.336  -2.844  -2.841  1.00  0.00     0.202 C 
BRANCH   2   3
ATOM      3  C   UNL     1       7.106  -1.700  -2.192  1.00  0.00     0.261 C 
BRANCH   3   4
ATOM      4  O   UNL     1       6.246  -0.570  -1.935  1.00  0.00    -0.459 OA
BRANCH   4   5
ATOM      5  C   UNL     1       6.616   0.586  -2.537  1.00  0.00     0.356 C 
ATOM      6  O   UNL     1       7.586   0.701  -3.285  1.00  0.00    -0.244 OA
BRANCH   5   7
ATOM      7  C   UNL     1       5.641   1.633  -2.384  1.00  0.00     0.147 A 
ATOM      8  C   UNL     1       4.767   2.125  -1.409  1.00  0.00     0.013 A 
ATOM      9  C   UNL     1       4.211   3.283  -2.039  1.00  0.00     0.140 A 
ATOM     10  N   UNL     1       4.625   3.466  -3.286  1.00  0.00    -0.183 NA
ATOM     11  N   UNL     1       5.505   2.482  -3.458  1.00  0.00    -0.271 N 
ATOM     12  H   UNL     1       6.020   2.370  -4.289  1.00  0.00     0.190 HD
BRANCH   8  13
ATOM     13  C   UNL     1       4.456   1.795   0.045  1.00  0.00     0.069 C 
ATOM     14  O   UNL     1       1.103   0.199   0.141  1.00  0.00    -0.275 OA
ATOM     15  C   UNL     1       2.304   0.351   0.362  1.00  0.00     0.226 C 
ATOM     16  C   UNL     1       2.934   1.734   0.326  1.00  0.00     0.114 C 
ATOM     17  N   UNL     1       3.077  -0.710   0.770  1.00  0.00    -0.311 N 
ATOM     18  C   UNL     1       4.425  -0.553   0.884  1.00  0.00     0.132 A 
ATOM     19  H   UNL     1       2.659  -1.576   0.979  1.00  0.00     0.171 HD
ATOM     20  C   UNL     1       5.115   0.591   0.604  1.00  0.00     0.031 A 
ATOM     21  N   UNL     1       5.337  -1.499   1.232  1.00  0.00    -0.262 N 
ATOM     22  C   UNL     1       6.455   0.277   0.927  1.00  0.00     0.108 A 
ATOM     23  N   UNL     1       6.600  -1.025   1.228  1.00  0.00    -0.173 NA
ATOM     24  H   UNL     1       5.102  -2.428   1.461  1.00  0.00     0.192 HD
BRANCH  22  25
ATOM     25  C   UNL     1       7.600   1.221   0.794  1.00  0.00     0.055 A 
ATOM     26  C   UNL     1       8.731   0.954   0.056  1.00  0.00     0.022 A 
ATOM     27  S   UNL     1       7.611   2.796   1.448  1.00  0.00    -0.142 S 
ATOM     28  C   UNL     1       9.555   2.110  -0.075  1.00  0.00     0.012 A 
ATOM     29  C   UNL     1       9.091   3.164   0.680  1.00  0.00     0.065 A 
ENDBRANCH  22  25
ENDBRANCH   8  13
ENDBRANCH   5   7
ENDBRANCH   4   5
ENDBRANCH   3   4
ENDBRANCH   2   3
ENDBRANCH   1   2
BRANCH   1  30
ATOM     30  C   UNL     1       5.007  -1.666  -4.541  1.00  0.00     0.202 C 
BRANCH  30  31
ATOM     31  C   UNL     1       3.563  -2.008  -4.234  1.00  0.00     0.261 C 
BRANCH  31  32
ATOM     32  O   UNL     1       3.420  -2.444  -2.899  1.00  0.00    -0.460 OA
BRANCH  32  33
ATOM     33  C   UNL     1       3.264  -3.769  -2.727  1.00  0.00     0.338 C 
ATOM     34  O   UNL     1       3.598  -4.683  -3.479  1.00  0.00    -0.246 OA
BRANCH  33  35
ATOM     35  C   UNL     1       2.452  -3.929  -1.527  1.00  0.00     0.060 A 
ATOM     36  C   UNL     1       2.188  -5.205  -1.029  1.00  0.00     0.016 A 
ATOM     37  C   UNL     1       1.747  -2.802  -1.083  1.00  0.00     0.016 A 
ATOM     38  C   UNL     1       1.052  -5.369  -0.263  1.00  0.00     0.010 A 
ATOM     39  C   UNL     1       0.692  -2.949  -0.243  1.00  0.00     0.010 A 
ATOM     40  C   UNL     1       0.271  -4.239   0.003  1.00  0.00    -0.014 A 
BRANCH  40  41
ATOM     41  C   UNL     1      -1.084  -4.351   0.472  1.00  0.00     0.031 A 
ATOM     42  C   UNL     1      -1.163  -4.704   1.895  1.00  0.00     0.074 A 
ATOM     43  C   UNL     1      -2.110  -3.932  -0.296  1.00  0.00     0.049 A 
ATOM     44  N   UNL     1      -1.443  -5.858   2.393  1.00  0.00    -0.248 NA
ATOM     45  C   UNL     1      -0.626  -3.739   2.868  1.00  0.00     0.031 C 
ATOM     46  C   UNL     1      -2.083  -3.234  -1.591  1.00  0.00     0.029 A 
ATOM     47  N   UNL     1      -3.433  -3.970  -0.007  1.00  0.00    -0.354 N 
ATOM     48  C   UNL     1      -1.373  -5.682   3.767  1.00  0.00     0.074 A 
ATOM     49  C   UNL     1      -0.615  -4.479   3.977  1.00  0.00     0.031 C 
ATOM     50  C   UNL     1      -3.308  -2.725  -1.857  1.00  0.00     0.029 A 
ATOM     51  C   UNL     1      -4.231  -3.198  -0.845  1.00  0.00     0.049 A 
ATOM     52  H   UNL     1      -3.800  -4.502   0.736  1.00  0.00     0.167 HD
ATOM     53  C   UNL     1      -2.204  -6.372   4.593  1.00  0.00     0.037 A 
ATOM     54  C   UNL     1      -5.548  -2.947  -0.639  1.00  0.00     0.037 A 
ATOM     55  C   UNL     1      -2.841  -7.458   3.883  1.00  0.00     0.049 A 
ATOM     56  C   UNL     1      -6.035  -3.978   0.322  1.00  0.00     0.074 A 
ATOM     57  C   UNL     1      -2.380  -8.581   3.223  1.00  0.00     0.029 A 
ATOM     58  N   UNL     1      -4.118  -7.243   3.415  1.00  0.00    -0.354 N 
ATOM     59  N   UNL     1      -6.099  -5.253   0.037  1.00  0.00    -0.248 NA
ATOM     60  C   UNL     1      -5.938  -3.665   1.742  1.00  0.00     0.031 C 
ATOM     61  C   UNL     1      -3.206  -8.696   2.066  1.00  0.00     0.029 A 
ATOM     62  C   UNL     1      -4.177  -7.694   2.120  1.00  0.00     0.049 A 
ATOM     63  H   UNL     1      -4.859  -6.838   3.921  1.00  0.00     0.167 HD
ATOM     64  C   UNL     1      -5.642  -5.903   1.177  1.00  0.00     0.074 A 
ATOM     65  C   UNL     1      -5.615  -4.874   2.216  1.00  0.00     0.031 C 
ATOM     66  C   UNL     1      -5.037  -7.127   1.102  1.00  0.00     0.037 A 
BRANCH  53  67
ATOM     67  C   UNL     1      -2.743  -5.839   5.896  1.00  0.00     0.057 A 
ATOM     68  C   UNL     1      -3.491  -6.702   6.714  1.00  0.00     0.134 A 
ATOM     69  C   UNL     1      -2.801  -4.476   6.256  1.00  0.00     0.134 A 
ATOM     70  F   UNL     1      -3.516  -8.023   6.479  1.00  0.00    -0.206 F 
ATOM     71  C   UNL     1      -4.303  -6.235   7.753  1.00  0.00     0.040 A 
ATOM     72  C   UNL     1      -3.567  -4.005   7.324  1.00  0.00     0.040 A 
ATOM     73  F   UNL     1      -2.208  -3.508   5.549  1.00  0.00    -0.206 F 
ATOM     74  C   UNL     1      -4.351  -4.880   8.054  1.00  0.00     0.006 A 
ENDBRANCH  53  67
BRANCH  54  75
ATOM     75  C   UNL     1      -6.290  -1.698  -0.924  1.00  0.00     0.057 A 
ATOM     76  C   UNL     1      -7.687  -1.679  -1.008  1.00  0.00     0.134 A 
ATOM     77  C   UNL     1      -5.658  -0.443  -0.855  1.00  0.00     0.134 A 
ATOM     78  F   UNL     1      -8.381  -2.827  -1.032  1.00  0.00    -0.206 F 
ATOM     79  C   UNL     1      -8.418  -0.482  -1.011  1.00  0.00     0.040 A 
ATOM     80  C   UNL     1      -6.373   0.759  -0.858  1.00  0.00     0.040 A 
ATOM     81  F   UNL     1      -4.330  -0.346  -0.693  1.00  0.00    -0.206 F 
ATOM     82  C   UNL     1      -7.761   0.743  -0.925  1.00  0.00     0.006 A 
ENDBRANCH  54  75
BRANCH  66  83
ATOM     83  C   UNL     1      -5.068  -7.851  -0.220  1.00  0.00     0.057 A 
ATOM     84  C   UNL     1      -4.398  -7.413  -1.374  1.00  0.00     0.134 A 
ATOM     85  C   UNL     1      -5.631  -9.130  -0.272  1.00  0.00     0.134 A 
ATOM     86  F   UNL     1      -3.746  -6.246  -1.394  1.00  0.00    -0.206 F 
ATOM     87  C   UNL     1      -4.316  -8.198  -2.530  1.00  0.00     0.040 A 
ATOM     88  C   UNL     1      -5.531  -9.938  -1.407  1.00  0.00     0.040 A 
ATOM     89  F   UNL     1      -6.237  -9.642   0.811  1.00  0.00    -0.206 F 
ATOM     90  C   UNL     1      -4.876  -9.471  -2.544  1.00  0.00     0.006 A 
ENDBRANCH  66  83
ENDBRANCH  40  41
ENDBRANCH  33  35
ENDBRANCH  32  33
ENDBRANCH  31  32
ENDBRANCH  30  31
ENDBRANCH   1  30
TORSDOF 16
