REMARK SMILES CCCCCCCNC(=O)Oc1cccc(-c2ccc([C@@H](C)C(=O)OCCOCCOC(=O)c3ccc(-c4c5nc(c(-c6c(F)cccc6F)c6ccc([nH]6)c(-c6c(F)cccc6F)c6nc(c(-c7c(F)cccc7F)c7ccc4[nH]7)C=C6)C=C5)cc3)cc2F)c1
REMARK SMILES IDX 23 1 24 2 21 3 22 4 20 5 17 6 18 7 89 8 19 9 88 10 90 11
REMARK SMILES IDX 16 12 12 13 13 14 91 15 14 16 15 17 11 18 9 19 8 20 10 22
REMARK SMILES IDX 7 23 6 24 5 25 4 26 3 27 2 28 1 29 25 30 26 31 27 32 28 33
REMARK SMILES IDX 29 34 30 35 31 36 32 37 33 38 34 39 35 40 87 41 36 42 86 43
REMARK SMILES IDX 37 44 38 45 39 46 80 47 40 48 85 49 79 50 81 51 41 52 84 53
REMARK SMILES IDX 78 54 77 55 42 57 68 58 51 59 67 60 52 61 55 62 66 63 82 64
REMARK SMILES IDX 53 65 54 66 65 68 83 69 56 70 43 71 44 72 49 73 45 74 46 75
REMARK SMILES IDX 48 76 50 77 47 78 69 79 70 80 75 81 71 82 72 83 74 84 76 85
REMARK SMILES IDX 73 86 57 87 58 88 63 89 59 90 60 91 62 92 64 93 61 94
REMARK H PARENT 8 21 81 56 55 67
REMARK Flexibility Score: inf
ROOT
ATOM      1  C   UNL     1     -11.008   1.686 -11.108  1.00  0.00     0.313 C 
ATOM      2  O   UNL     1     -12.077   1.088 -11.030  1.00  0.00    -0.252 OA
ENDROOT
BRANCH   1   3
ATOM      3  C   UNL     1     -10.792   3.028 -10.425  1.00  0.00     0.126 C 
ATOM      4  C   UNL     1     -11.432   4.126 -11.271  1.00  0.00     0.025 C 
BRANCH   3   5
ATOM      5  C   UNL     1      -9.376   3.396  -9.994  1.00  0.00    -0.031 A 
ATOM      6  C   UNL     1      -6.818   4.315  -9.109  1.00  0.00     0.018 A 
ATOM      7  C   UNL     1      -7.092   4.115 -10.472  1.00  0.00     0.012 A 
ATOM      8  C   UNL     1      -7.838   4.001  -8.202  1.00  0.00     0.131 A 
ATOM      9  C   UNL     1      -8.349   3.665 -10.909  1.00  0.00     0.005 A 
ATOM     10  C   UNL     1      -9.091   3.552  -8.628  1.00  0.00     0.044 A 
ATOM     11  F   UNL     1      -7.648   4.169  -6.884  1.00  0.00    -0.206 F 
BRANCH   6  12
ATOM     12  C   UNL     1      -5.534   4.886  -8.662  1.00  0.00    -0.012 A 
ATOM     13  C   UNL     1      -3.543   4.835  -7.271  1.00  0.00     0.133 A 
ATOM     14  C   UNL     1      -3.119   6.061  -7.777  1.00  0.00     0.047 A 
ATOM     15  C   UNL     1      -4.744   4.253  -7.689  1.00  0.00     0.056 A 
ATOM     16  C   UNL     1      -3.890   6.701  -8.741  1.00  0.00     0.004 A 
ATOM     17  C   UNL     1      -5.083   6.117  -9.180  1.00  0.00     0.009 A 
BRANCH  13  18
ATOM     18  O   UNL     1      -2.768   4.270  -6.247  1.00  0.00    -0.410 OA
BRANCH  18  19
ATOM     19  C   UNL     1      -2.271   2.995  -6.466  1.00  0.00     0.412 C 
ATOM     20  N   UNL     1      -1.486   2.538  -5.444  1.00  0.00    -0.321 N 
ATOM     21  H   UNL     1      -1.130   1.625  -5.540  1.00  0.00     0.167 HD
ATOM     22  O   UNL     1      -2.468   2.304  -7.461  1.00  0.00    -0.224 OA
BRANCH  20  23
ATOM     23  C   UNL     1      -1.118   3.249  -4.234  1.00  0.00     0.119 C 
BRANCH  23  24
ATOM     24  C   UNL     1      -1.573   2.515  -2.972  1.00  0.00     0.021 C 
BRANCH  24  25
ATOM     25  C   UNL     1      -0.961   1.121  -2.778  1.00  0.00     0.002 C 
BRANCH  25  26
ATOM     26  C   UNL     1       0.568   1.081  -2.672  1.00  0.00     0.000 C 
BRANCH  26  27
ATOM     27  C   UNL     1       1.164   1.849  -1.487  1.00  0.00    -0.000 C 
BRANCH  27  28
ATOM     28  C   UNL     1       0.716   1.372  -0.103  1.00  0.00    -0.003 C 
ATOM     29  C   UNL     1       1.092  -0.072   0.192  1.00  0.00     0.004 C 
ENDBRANCH  27  28
ENDBRANCH  26  27
ENDBRANCH  25  26
ENDBRANCH  24  25
ENDBRANCH  23  24
ENDBRANCH  20  23
ENDBRANCH  18  19
ENDBRANCH  13  18
ENDBRANCH   6  12
ENDBRANCH   3   5
ENDBRANCH   1   3
BRANCH   1  30
ATOM     30  O   UNL     1      -9.938   1.254 -11.824  1.00  0.00    -0.463 OA
BRANCH  30  31
ATOM     31  C   UNL     1     -10.048  -0.069 -12.380  1.00  0.00     0.261 C 
BRANCH  31  32
ATOM     32  C   UNL     1      -9.003  -1.013 -11.781  1.00  0.00     0.202 C 
BRANCH  32  33
ATOM     33  O   UNL     1      -9.143  -1.313 -10.393  1.00  0.00    -0.374 OA
BRANCH  33  34
ATOM     34  C   UNL     1      -8.734  -0.316  -9.457  1.00  0.00     0.202 C 
BRANCH  34  35
ATOM     35  C   UNL     1      -7.224  -0.147  -9.242  1.00  0.00     0.261 C 
BRANCH  35  36
ATOM     36  O   UNL     1      -6.555   0.354 -10.412  1.00  0.00    -0.460 OA
BRANCH  36  37
ATOM     37  C   UNL     1      -5.722  -0.533 -11.011  1.00  0.00     0.338 C 
ATOM     38  O   UNL     1      -5.450  -1.660 -10.643  1.00  0.00    -0.246 OA
BRANCH  37  39
ATOM     39  C   UNL     1      -5.306  -0.017 -12.330  1.00  0.00     0.060 A 
ATOM     40  C   UNL     1      -5.498  -0.856 -13.436  1.00  0.00     0.016 A 
ATOM     41  C   UNL     1      -4.669   1.217 -12.477  1.00  0.00     0.016 A 
ATOM     42  C   UNL     1      -5.005  -0.489 -14.686  1.00  0.00     0.010 A 
ATOM     43  C   UNL     1      -4.168   1.581 -13.732  1.00  0.00     0.010 A 
ATOM     44  C   UNL     1      -4.301   0.713 -14.833  1.00  0.00    -0.014 A 
BRANCH  44  45
ATOM     45  C   UNL     1      -3.575   0.982 -16.099  1.00  0.00     0.031 A 
ATOM     46  C   UNL     1      -2.095   0.720 -16.160  1.00  0.00     0.074 A 
ATOM     47  C   UNL     1      -4.227   1.416 -17.192  1.00  0.00     0.049 A 
ATOM     48  N   UNL     1      -1.257   0.914 -17.146  1.00  0.00    -0.248 NA
ATOM     49  C   UNL     1      -1.479   0.161 -14.946  1.00  0.00     0.031 C 
ATOM     50  C   UNL     1      -5.666   1.657 -17.277  1.00  0.00     0.029 A 
ATOM     51  N   UNL     1      -3.756   1.733 -18.441  1.00  0.00    -0.354 N 
ATOM     52  C   UNL     1      -0.016   0.510 -16.670  1.00  0.00     0.074 A 
ATOM     53  C   UNL     1      -0.205   0.086 -15.300  1.00  0.00     0.031 C 
ATOM     54  C   UNL     1      -5.960   2.096 -18.513  1.00  0.00     0.029 A 
ATOM     55  C   UNL     1      -4.728   2.197 -19.293  1.00  0.00     0.049 A 
ATOM     56  H   UNL     1      -2.812   1.638 -18.701  1.00  0.00     0.167 HD
ATOM     57  C   UNL     1       1.173   0.485 -17.319  1.00  0.00     0.037 A 
ATOM     58  C   UNL     1      -4.629   2.669 -20.551  1.00  0.00     0.037 A 
ATOM     59  C   UNL     1       1.361   0.906 -18.682  1.00  0.00     0.049 A 
ATOM     60  C   UNL     1      -3.283   2.712 -21.224  1.00  0.00     0.074 A 
ATOM     61  C   UNL     1       2.525   0.905 -19.432  1.00  0.00     0.029 A 
ATOM     62  N   UNL     1       0.360   1.410 -19.498  1.00  0.00    -0.354 N 
ATOM     63  N   UNL     1      -2.118   2.312 -20.771  1.00  0.00    -0.248 NA
ATOM     64  C   UNL     1      -3.237   3.272 -22.582  1.00  0.00     0.031 C 
ATOM     65  C   UNL     1       2.236   1.455 -20.686  1.00  0.00     0.029 A 
ATOM     66  C   UNL     1       0.883   1.749 -20.734  1.00  0.00     0.049 A 
ATOM     67  H   UNL     1      -0.584   1.511 -19.237  1.00  0.00     0.167 HD
ATOM     68  C   UNL     1      -1.210   2.544 -21.797  1.00  0.00     0.074 A 
ATOM     69  C   UNL     1      -1.959   3.112 -22.899  1.00  0.00     0.031 C 
ATOM     70  C   UNL     1       0.124   2.305 -21.825  1.00  0.00     0.037 A 
BRANCH  57  71
ATOM     71  C   UNL     1       2.369   0.011 -16.548  1.00  0.00     0.057 A 
ATOM     72  C   UNL     1       2.546  -1.337 -16.209  1.00  0.00     0.134 A 
ATOM     73  C   UNL     1       3.371   0.911 -16.162  1.00  0.00     0.134 A 
ATOM     74  F   UNL     1       1.618  -2.248 -16.538  1.00  0.00    -0.206 F 
ATOM     75  C   UNL     1       3.664  -1.769 -15.493  1.00  0.00     0.040 A 
ATOM     76  C   UNL     1       4.505   0.487 -15.468  1.00  0.00     0.040 A 
ATOM     77  F   UNL     1       3.266   2.215 -16.459  1.00  0.00    -0.206 F 
ATOM     78  C   UNL     1       4.651  -0.855 -15.126  1.00  0.00     0.006 A 
ENDBRANCH  57  71
BRANCH  58  79
ATOM     79  C   UNL     1      -5.840   3.159 -21.257  1.00  0.00     0.057 A 
ATOM     80  C   UNL     1      -6.370   2.469 -22.352  1.00  0.00     0.134 A 
ATOM     81  C   UNL     1      -6.484   4.338 -20.864  1.00  0.00     0.134 A 
ATOM     82  F   UNL     1      -5.782   1.346 -22.791  1.00  0.00    -0.206 F 
ATOM     83  C   UNL     1      -7.489   2.940 -23.041  1.00  0.00     0.040 A 
ATOM     84  C   UNL     1      -7.618   4.809 -21.528  1.00  0.00     0.040 A 
ATOM     85  F   UNL     1      -6.025   5.047 -19.822  1.00  0.00    -0.206 F 
ATOM     86  C   UNL     1      -8.119   4.111 -22.625  1.00  0.00     0.006 A 
ENDBRANCH  58  79
BRANCH  70  87
ATOM     87  C   UNL     1       0.857   2.620 -23.097  1.00  0.00     0.057 A 
ATOM     88  C   UNL     1       1.126   3.936 -23.491  1.00  0.00     0.134 A 
ATOM     89  C   UNL     1       1.342   1.589 -23.913  1.00  0.00     0.134 A 
ATOM     90  F   UNL     1       0.679   4.969 -22.761  1.00  0.00    -0.206 F 
ATOM     91  C   UNL     1       1.836   4.216 -24.660  1.00  0.00     0.040 A 
ATOM     92  C   UNL     1       2.075   1.855 -25.070  1.00  0.00     0.040 A 
ATOM     93  F   UNL     1       1.126   0.305 -23.588  1.00  0.00    -0.206 F 
ATOM     94  C   UNL     1       2.319   3.173 -25.449  1.00  0.00     0.006 A 
ENDBRANCH  70  87
ENDBRANCH  44  45
ENDBRANCH  37  39
ENDBRANCH  36  37
ENDBRANCH  35  36
ENDBRANCH  34  35
ENDBRANCH  33  34
ENDBRANCH  32  33
ENDBRANCH  31  32
ENDBRANCH  30  31
ENDBRANCH   1  30
TORSDOF 24
