REMARK SMILES CN(C)c1oc(/C=N/c2ccc(O)c(C(=O)OCCOCCOC(=O)c3ccc(-c4c5nc(c(-c6c(F)cccc6F)c6ccc([nH]6)c(-c6c(F)cccc6F)c6nc(c(-c7c(F)cccc7F)c7ccc4[nH]7)C=C6)C=C5)cc3)c2)cc1Br
REMARK SMILES IDX 19 1 18 2 17 3 15 4 16 5 14 6 9 7 10 8 80 9 11 10 12 11 8 12
REMARK SMILES IDX 7 13 6 14 4 15 5 16 82 17 81 18 83 19 2 20 1 21 3 22 13 23
REMARK SMILES IDX 20 25 21 26 22 27 23 28 24 29 25 30 26 31 27 32 79 33 28 34
REMARK SMILES IDX 78 35 29 36 30 37 31 38 72 39 32 40 77 41 71 42 73 43 33 44
REMARK SMILES IDX 76 45 70 46 69 47 34 49 60 50 43 51 59 52 44 53 47 54 58 55
REMARK SMILES IDX 74 56 45 57 46 58 57 60 75 61 48 62 35 63 36 64 41 65 37 66
REMARK SMILES IDX 38 67 40 68 42 69 39 70 61 71 62 72 67 73 63 74 64 75 66 76
REMARK SMILES IDX 68 77 65 78 49 79 50 80 55 81 51 82 52 83 54 84 56 85 53 86
REMARK H PARENT 13 24 73 48 47 59
REMARK Flexibility Score: inf
ROOT
ATOM      1  C   UNL     1       2.574   3.829 -13.638  1.00  0.00     0.202 C 
ENDROOT
BRANCH   1   2
ATOM      2  C   UNL     1       1.487   2.773 -13.425  1.00  0.00     0.261 C 
BRANCH   2   3
ATOM      3  O   UNL     1       0.621   3.171 -12.350  1.00  0.00    -0.460 OA
BRANCH   3   4
ATOM      4  C   UNL     1       0.448   2.262 -11.362  1.00  0.00     0.342 C 
ATOM      5  O   UNL     1       0.844   1.106 -11.359  1.00  0.00    -0.246 OA
BRANCH   4   6
ATOM      6  C   UNL     1      -0.123   2.904 -10.157  1.00  0.00     0.103 A 
ATOM      7  C   UNL     1       0.008   3.102  -7.736  1.00  0.00     0.064 A 
ATOM      8  C   UNL     1      -1.035   4.030  -7.768  1.00  0.00     0.032 A 
ATOM      9  C   UNL     1       0.459   2.544  -8.932  1.00  0.00     0.048 A 
ATOM     10  C   UNL     1      -1.623   4.397  -8.982  1.00  0.00     0.049 A 
ATOM     11  C   UNL     1      -1.161   3.840 -10.178  1.00  0.00     0.130 A 
BRANCH   7  12
ATOM     12  N   UNL     1       0.674   2.802  -6.545  1.00  0.00    -0.253 NA
ATOM     13  C   UNL     1       0.124   1.934  -5.756  1.00  0.00     0.158 C 
BRANCH  13  14
ATOM     14  C   UNL     1       0.776   1.575  -4.529  1.00  0.00     0.149 A 
ATOM     15  C   UNL     1       0.935   0.565  -2.566  1.00  0.00     0.210 A 
ATOM     16  O   UNL     1       0.148   0.708  -3.681  1.00  0.00    -0.438 OA
ATOM     17  C   UNL     1       2.082   1.315  -2.746  1.00  0.00     0.082 A 
ATOM     18  C   UNL     1       1.989   1.955  -3.996  1.00  0.00     0.070 A 
ATOM     19  Br  UNL     1       3.590   1.500  -1.645  1.00  0.00    -0.045 Br
BRANCH  15  20
ATOM     20  N   UNL     1       0.440  -0.219  -1.574  1.00  0.00    -0.348 N 
ATOM     21  C   UNL     1       0.909  -0.100  -0.208  1.00  0.00     0.146 C 
ATOM     22  C   UNL     1      -0.542  -1.244  -1.886  1.00  0.00     0.146 C 
ENDBRANCH  15  20
ENDBRANCH  13  14
ENDBRANCH   7  12
BRANCH  11  23
ATOM     23  O   UNL     1      -1.747   4.210 -11.355  1.00  0.00    -0.507 OA
ATOM     24  H   UNL     1      -2.442   4.838 -11.355  1.00  0.00     0.293 HD
ENDBRANCH  11  23
ENDBRANCH   4   6
ENDBRANCH   3   4
ENDBRANCH   2   3
ENDBRANCH   1   2
BRANCH   1  25
ATOM     25  O   UNL     1       3.527   3.940 -12.579  1.00  0.00    -0.374 OA
BRANCH  25  26
ATOM     26  C   UNL     1       3.125   4.694 -11.433  1.00  0.00     0.202 C 
BRANCH  26  27
ATOM     27  C   UNL     1       3.292   6.214 -11.557  1.00  0.00     0.261 C 
BRANCH  27  28
ATOM     28  O   UNL     1       2.405   6.776 -12.541  1.00  0.00    -0.460 OA
BRANCH  28  29
ATOM     29  C   UNL     1       3.006   7.194 -13.679  1.00  0.00     0.338 C 
ATOM     30  O   UNL     1       4.206   7.230 -13.916  1.00  0.00    -0.246 OA
BRANCH  29  31
ATOM     31  C   UNL     1       1.992   7.480 -14.712  1.00  0.00     0.060 A 
ATOM     32  C   UNL     1       2.174   6.901 -15.974  1.00  0.00     0.016 A 
ATOM     33  C   UNL     1       0.925   8.350 -14.478  1.00  0.00     0.016 A 
ATOM     34  C   UNL     1       1.316   7.228 -17.023  1.00  0.00     0.010 A 
ATOM     35  C   UNL     1       0.068   8.682 -15.534  1.00  0.00     0.010 A 
ATOM     36  C   UNL     1       0.280   8.149 -16.818  1.00  0.00    -0.014 A 
BRANCH  36  37
ATOM     37  C   UNL     1      -0.493   8.653 -17.979  1.00  0.00     0.031 A 
ATOM     38  C   UNL     1      -0.138   9.990 -18.570  1.00  0.00     0.074 A 
ATOM     39  C   UNL     1      -1.484   7.921 -18.518  1.00  0.00     0.049 A 
ATOM     40  N   UNL     1      -0.699  10.636 -19.560  1.00  0.00    -0.248 NA
ATOM     41  C   UNL     1       1.001  10.694 -17.960  1.00  0.00     0.031 C 
ATOM     42  C   UNL     1      -1.900   6.597 -18.061  1.00  0.00     0.029 A 
ATOM     43  N   UNL     1      -2.323   8.195 -19.569  1.00  0.00    -0.354 N 
ATOM     44  C   UNL     1       0.014  11.821 -19.690  1.00  0.00     0.074 A 
ATOM     45  C   UNL     1       1.028  11.820 -18.658  1.00  0.00     0.031 C 
ATOM     46  C   UNL     1      -2.925   6.176 -18.822  1.00  0.00     0.029 A 
ATOM     47  C   UNL     1      -3.254   7.213 -19.799  1.00  0.00     0.049 A 
ATOM     48  H   UNL     1      -2.263   9.018 -20.106  1.00  0.00     0.167 HD
ATOM     49  C   UNL     1      -0.155  12.816 -20.593  1.00  0.00     0.037 A 
ATOM     50  C   UNL     1      -4.267   7.165 -20.686  1.00  0.00     0.037 A 
ATOM     51  C   UNL     1      -1.161  12.817 -21.623  1.00  0.00     0.049 A 
ATOM     52  C   UNL     1      -4.475   8.313 -21.637  1.00  0.00     0.074 A 
ATOM     53  C   UNL     1      -1.396  13.770 -22.598  1.00  0.00     0.029 A 
ATOM     54  N   UNL     1      -2.103  11.816 -21.805  1.00  0.00    -0.354 N 
ATOM     55  N   UNL     1      -3.780   9.417 -21.767  1.00  0.00    -0.248 NA
ATOM     56  C   UNL     1      -5.610   8.207 -22.566  1.00  0.00     0.031 C 
ATOM     57  C   UNL     1      -2.510  13.368 -23.343  1.00  0.00     0.029 A 
ATOM     58  C   UNL     1      -2.938  12.142 -22.861  1.00  0.00     0.049 A 
ATOM     59  H   UNL     1      -2.169  10.997 -21.264  1.00  0.00     0.167 HD
ATOM     60  C   UNL     1      -4.374  10.122 -22.807  1.00  0.00     0.074 A 
ATOM     61  C   UNL     1      -5.480   9.316 -23.281  1.00  0.00     0.031 C 
ATOM     62  C   UNL     1      -4.032  11.327 -23.326  1.00  0.00     0.037 A 
BRANCH  49  63
ATOM     63  C   UNL     1       0.760  14.001 -20.494  1.00  0.00     0.057 A 
ATOM     64  C   UNL     1       2.109  13.927 -20.865  1.00  0.00     0.134 A 
ATOM     65  C   UNL     1       0.278  15.239 -20.050  1.00  0.00     0.134 A 
ATOM     66  F   UNL     1       2.636  12.767 -21.285  1.00  0.00    -0.206 F 
ATOM     67  C   UNL     1       2.951  15.037 -20.779  1.00  0.00     0.040 A 
ATOM     68  C   UNL     1       1.104  16.362 -19.983  1.00  0.00     0.040 A 
ATOM     69  F   UNL     1      -1.005  15.378 -19.684  1.00  0.00    -0.206 F 
ATOM     70  C   UNL     1       2.446  16.261 -20.342  1.00  0.00     0.006 A 
ENDBRANCH  49  63
BRANCH  50  71
ATOM     71  C   UNL     1      -5.175   5.991 -20.713  1.00  0.00     0.057 A 
ATOM     72  C   UNL     1      -5.168   5.093 -21.786  1.00  0.00     0.134 A 
ATOM     73  C   UNL     1      -6.085   5.752 -19.676  1.00  0.00     0.134 A 
ATOM     74  F   UNL     1      -4.336   5.284 -22.820  1.00  0.00    -0.206 F 
ATOM     75  C   UNL     1      -6.045   4.008 -21.836  1.00  0.00     0.040 A 
ATOM     76  C   UNL     1      -6.950   4.658 -19.701  1.00  0.00     0.040 A 
ATOM     77  F   UNL     1      -6.141   6.577 -18.620  1.00  0.00    -0.206 F 
ATOM     78  C   UNL     1      -6.936   3.785 -20.788  1.00  0.00     0.006 A 
ENDBRANCH  50  71
BRANCH  62  79
ATOM     79  C   UNL     1      -4.839  11.832 -24.486  1.00  0.00     0.057 A 
ATOM     80  C   UNL     1      -6.143  12.315 -24.325  1.00  0.00     0.134 A 
ATOM     81  C   UNL     1      -4.287  11.874 -25.773  1.00  0.00     0.134 A 
ATOM     82  F   UNL     1      -6.734  12.291 -23.121  1.00  0.00    -0.206 F 
ATOM     83  C   UNL     1      -6.878  12.803 -25.407  1.00  0.00     0.040 A 
ATOM     84  C   UNL     1      -5.003  12.383 -26.858  1.00  0.00     0.040 A 
ATOM     85  F   UNL     1      -3.039  11.435 -25.994  1.00  0.00    -0.206 F 
ATOM     86  C   UNL     1      -6.305  12.844 -26.677  1.00  0.00     0.006 A 
ENDBRANCH  62  79
ENDBRANCH  36  37
ENDBRANCH  29  31
ENDBRANCH  28  29
ENDBRANCH  27  28
ENDBRANCH  26  27
ENDBRANCH  25  26
ENDBRANCH   1  25
TORSDOF 18
