REMARK SMILES O=C(Cn1c(-c2nc(-c3ccc(C(F)(F)F)cc3)no2)cc2ccccc21)OCCOCCOC(=O)c1ccc(-c2c3nc(c(-c4c(F)cccc4F)c4ccc([nH]4)c(-c4c(F)cccc4F)c4nc(c(-c5c(F)cccc5F)c5ccc2[nH]5)C=C4)C=C3)cc1
REMARK SMILES IDX 30 1 29 2 28 3 2 4 1 5 3 6 4 7 5 8 27 9 21 10 22 11 26 12
REMARK SMILES IDX 23 13 25 14 24 15 6 16 7 17 20 18 8 19 19 20 9 21 10 22
REMARK SMILES IDX 18 23 11 24 17 25 12 26 13 27 14 28 15 29 16 30 31 31 32 32
REMARK SMILES IDX 33 33 34 34 35 35 36 36 37 37 38 38 90 39 39 40 89 41 40 42
REMARK SMILES IDX 41 43 42 44 83 45 43 46 88 47 82 48 84 49 44 50 87 51 81 52
REMARK SMILES IDX 80 53 45 55 71 56 54 57 70 58 55 59 58 60 69 61 85 62 56 63
REMARK SMILES IDX 57 64 68 66 86 67 59 68 46 69 47 70 52 71 48 72 49 73 51 74
REMARK SMILES IDX 53 75 50 76 72 77 73 78 78 79 74 80 75 81 77 82 79 83 76 84
REMARK SMILES IDX 60 85 61 86 66 87 62 88 63 89 65 90 67 91 64 92
REMARK H PARENT 84 54 58 65
REMARK Flexibility Score: inf
ROOT
ATOM      1  C   UNL     1       4.752   1.065  -0.166  1.00  0.00     0.202 C 
ENDROOT
BRANCH   1   2
ATOM      2  C   UNL     1       3.979  -0.250  -0.299  1.00  0.00     0.261 C 
BRANCH   2   3
ATOM      3  O   UNL     1       2.559  -0.206  -0.116  1.00  0.00    -0.462 OA
BRANCH   3   4
ATOM      4  C   UNL     1       1.912   0.133   1.014  1.00  0.00     0.326 C 
ATOM      5  O   UNL     1       0.686   0.253   0.983  1.00  0.00    -0.250 OA
BRANCH   4   6
ATOM      6  C   UNL     1       2.674   0.415   2.276  1.00  0.00     0.245 C 
BRANCH   6   7
ATOM      7  N   UNL     1       3.696  -0.554   2.650  1.00  0.00    -0.325 N 
ATOM      8  C   UNL     1       4.966  -0.267   3.133  1.00  0.00     0.109 A 
ATOM      9  C   UNL     1       3.504  -1.927   2.577  1.00  0.00     0.049 A 
ATOM     10  C   UNL     1       5.563  -1.480   3.422  1.00  0.00     0.042 A 
ATOM     11  C   UNL     1       4.645  -2.523   3.114  1.00  0.00     0.000 A 
ATOM     12  C   UNL     1       2.437  -2.693   2.064  1.00  0.00     0.027 A 
ATOM     13  C   UNL     1       4.678  -3.924   3.232  1.00  0.00     0.010 A 
ATOM     14  C   UNL     1       2.512  -4.076   2.143  1.00  0.00     0.002 A 
ATOM     15  C   UNL     1       3.595  -4.675   2.761  1.00  0.00     0.001 A 
BRANCH   8  16
ATOM     16  C   UNL     1       5.503   1.058   3.314  1.00  0.00     0.274 A 
ATOM     17  N   UNL     1       6.747   1.433   3.058  1.00  0.00    -0.185 NA
ATOM     18  O   UNL     1       4.737   2.096   3.770  1.00  0.00    -0.332 OA
ATOM     19  C   UNL     1       6.732   2.778   3.382  1.00  0.00     0.202 A 
ATOM     20  N   UNL     1       5.542   3.217   3.816  1.00  0.00    -0.057 NA
BRANCH  19  21
ATOM     21  C   UNL     1       7.877   3.682   3.341  1.00  0.00     0.023 A 
ATOM     22  C   UNL     1       8.294   4.292   4.535  1.00  0.00     0.013 A 
ATOM     23  C   UNL     1       8.454   4.099   2.135  1.00  0.00     0.013 A 
ATOM     24  C   UNL     1       9.222   5.338   4.524  1.00  0.00     0.014 A 
ATOM     25  C   UNL     1       9.382   5.157   2.123  1.00  0.00     0.014 A 
ATOM     26  C   UNL     1       9.755   5.804   3.314  1.00  0.00     0.056 A 
BRANCH  26  27
ATOM     27  C   UNL     1      10.660   7.016   3.320  1.00  0.00     0.416 C 
ATOM     28  F   UNL     1      10.028   8.130   3.786  1.00  0.00    -0.166 F 
ATOM     29  F   UNL     1      11.754   6.852   4.115  1.00  0.00    -0.166 F 
ATOM     30  F   UNL     1      11.140   7.350   2.090  1.00  0.00    -0.166 F 
ENDBRANCH  26  27
ENDBRANCH  19  21
ENDBRANCH   8  16
ENDBRANCH   6   7
ENDBRANCH   4   6
ENDBRANCH   3   4
ENDBRANCH   2   3
ENDBRANCH   1   2
BRANCH   1  31
ATOM     31  O   UNL     1       4.042   2.245   0.165  1.00  0.00    -0.374 OA
BRANCH  31  32
ATOM     32  C   UNL     1       2.998   2.687  -0.706  1.00  0.00     0.202 C 
BRANCH  32  33
ATOM     33  C   UNL     1       3.314   2.925  -2.189  1.00  0.00     0.261 C 
BRANCH  33  34
ATOM     34  O   UNL     1       3.780   1.728  -2.830  1.00  0.00    -0.460 OA
BRANCH  34  35
ATOM     35  C   UNL     1       4.908   1.855  -3.580  1.00  0.00     0.338 C 
ATOM     36  O   UNL     1       5.417   2.888  -3.985  1.00  0.00    -0.246 OA
BRANCH  35  37
ATOM     37  C   UNL     1       5.617   0.561  -3.476  1.00  0.00     0.060 A 
ATOM     38  C   UNL     1       4.934  -0.642  -3.651  1.00  0.00     0.016 A 
ATOM     39  C   UNL     1       6.888   0.589  -2.876  1.00  0.00     0.016 A 
ATOM     40  C   UNL     1       5.481  -1.801  -3.106  1.00  0.00     0.010 A 
ATOM     41  C   UNL     1       7.415  -0.567  -2.304  1.00  0.00     0.010 A 
ATOM     42  C   UNL     1       6.694  -1.758  -2.383  1.00  0.00    -0.014 A 
BRANCH  42  43
ATOM     43  C   UNL     1       7.302  -3.047  -2.028  1.00  0.00     0.031 A 
ATOM     44  C   UNL     1       7.622  -3.813  -3.263  1.00  0.00     0.074 A 
ATOM     45  C   UNL     1       7.678  -3.518  -0.818  1.00  0.00     0.049 A 
ATOM     46  N   UNL     1       7.079  -4.911  -3.668  1.00  0.00    -0.248 NA
ATOM     47  C   UNL     1       8.499  -3.168  -4.255  1.00  0.00     0.031 C 
ATOM     48  C   UNL     1       7.724  -2.812   0.461  1.00  0.00     0.029 A 
ATOM     49  N   UNL     1       8.193  -4.751  -0.498  1.00  0.00    -0.354 N 
ATOM     50  C   UNL     1       7.684  -5.196  -4.887  1.00  0.00     0.074 A 
ATOM     51  C   UNL     1       8.397  -4.012  -5.280  1.00  0.00     0.031 C 
ATOM     52  C   UNL     1       8.437  -3.545   1.353  1.00  0.00     0.029 A 
ATOM     53  C   UNL     1       8.802  -4.821   0.753  1.00  0.00     0.049 A 
ATOM     54  H   UNL     1       8.137  -5.524  -1.105  1.00  0.00     0.167 HD
ATOM     55  C   UNL     1       7.760  -6.473  -5.346  1.00  0.00     0.037 A 
ATOM     56  C   UNL     1       9.591  -5.822   1.238  1.00  0.00     0.037 A 
ATOM     57  C   UNL     1       6.791  -7.317  -4.695  1.00  0.00     0.049 A 
ATOM     58  C   UNL     1       9.393  -7.031   0.402  1.00  0.00     0.074 A 
ATOM     59  C   UNL     1       5.415  -7.314  -4.575  1.00  0.00     0.029 A 
ATOM     60  N   UNL     1       7.246  -8.178  -3.728  1.00  0.00    -0.354 N 
ATOM     61  N   UNL     1       8.347  -7.801   0.453  1.00  0.00    -0.248 NA
ATOM     62  C   UNL     1      10.197  -7.162  -0.801  1.00  0.00     0.031 C 
ATOM     63  C   UNL     1       5.158  -7.781  -3.253  1.00  0.00     0.029 A 
ATOM     64  C   UNL     1       6.381  -8.111  -2.670  1.00  0.00     0.049 A 
ATOM     65  H   UNL     1       8.050  -8.742  -3.786  1.00  0.00     0.167 HD
ATOM     66  C   UNL     1       8.077  -8.101  -0.871  1.00  0.00     0.074 A 
ATOM     67  C   UNL     1       9.313  -7.783  -1.584  1.00  0.00     0.031 C 
ATOM     68  C   UNL     1       6.794  -8.303  -1.299  1.00  0.00     0.037 A 
BRANCH  55  69
ATOM     69  C   UNL     1       8.986  -7.034  -6.027  1.00  0.00     0.057 A 
ATOM     70  C   UNL     1      10.276  -6.469  -5.941  1.00  0.00     0.134 A 
ATOM     71  C   UNL     1       8.946  -8.360  -6.492  1.00  0.00     0.134 A 
ATOM     72  F   UNL     1      10.502  -5.234  -5.481  1.00  0.00    -0.206 F 
ATOM     73  C   UNL     1      11.438  -7.190  -6.224  1.00  0.00     0.040 A 
ATOM     74  C   UNL     1      10.106  -9.106  -6.728  1.00  0.00     0.040 A 
ATOM     75  F   UNL     1       7.778  -9.007  -6.627  1.00  0.00    -0.206 F 
ATOM     76  C   UNL     1      11.358  -8.525  -6.576  1.00  0.00     0.006 A 
ENDBRANCH  55  69
BRANCH  56  77
ATOM     77  C   UNL     1      10.701  -5.786   2.226  1.00  0.00     0.057 A 
ATOM     78  C   UNL     1      11.532  -4.661   2.340  1.00  0.00     0.134 A 
ATOM     79  C   UNL     1      11.163  -6.953   2.860  1.00  0.00     0.134 A 
ATOM     80  F   UNL     1      11.229  -3.515   1.713  1.00  0.00    -0.206 F 
ATOM     81  C   UNL     1      12.757  -4.697   3.018  1.00  0.00     0.040 A 
ATOM     82  C   UNL     1      12.390  -7.005   3.538  1.00  0.00     0.040 A 
ATOM     83  F   UNL     1      10.466  -8.096   2.780  1.00  0.00    -0.206 F 
ATOM     84  C   UNL     1      13.198  -5.876   3.607  1.00  0.00     0.006 A 
ENDBRANCH  56  77
BRANCH  68  85
ATOM     85  C   UNL     1       5.716  -8.539  -0.269  1.00  0.00     0.057 A 
ATOM     86  C   UNL     1       4.799  -9.581  -0.485  1.00  0.00     0.134 A 
ATOM     87  C   UNL     1       5.506  -7.763   0.879  1.00  0.00     0.134 A 
ATOM     88  F   UNL     1       4.902 -10.364  -1.571  1.00  0.00    -0.206 F 
ATOM     89  C   UNL     1       3.740  -9.840   0.387  1.00  0.00     0.040 A 
ATOM     90  C   UNL     1       4.522  -8.093   1.814  1.00  0.00     0.040 A 
ATOM     91  F   UNL     1       6.204  -6.643   1.120  1.00  0.00    -0.206 F 
ATOM     92  C   UNL     1       3.612  -9.108   1.558  1.00  0.00     0.006 A 
ENDBRANCH  68  85
ENDBRANCH  42  43
ENDBRANCH  35  37
ENDBRANCH  34  35
ENDBRANCH  33  34
ENDBRANCH  32  33
ENDBRANCH  31  32
ENDBRANCH   1  31
TORSDOF 18
