REMARK SMILES C[C@H]1Oc2ccccc2C=C1/C=C/C(=O)N[C@H](C(=O)OCCOCCOC(=O)c1ccc(-c2c3nc(c(-c4c(F)cccc4F)c4ccc([nH]4)c(-c4c(F)cccc4F)c4nc(c(-c5c(F)cccc5F)c5ccc2[nH]5)C=C4)C=C3)cc1)c1ccccc1
REMARK SMILES IDX 22 1 21 2 20 3 18 4 19 5 17 6 16 7 14 8 15 9 13 11 12 12
REMARK SMILES IDX 11 13 1 14 2 15 3 16 4 17 10 18 5 19 9 20 6 21 8 22 7 23
REMARK SMILES IDX 83 24 84 25 88 26 85 27 87 28 86 29 23 30 24 31 25 32 26 33
REMARK SMILES IDX 27 34 28 35 29 36 30 37 82 38 31 39 81 40 32 41 33 42 34 43
REMARK SMILES IDX 75 44 35 45 80 46 74 47 76 48 36 49 79 50 73 51 72 52 37 54
REMARK SMILES IDX 63 55 46 56 62 57 47 58 50 59 61 60 77 61 48 62 49 63 60 65
REMARK SMILES IDX 78 66 51 67 38 68 39 69 44 70 40 71 41 72 43 73 45 74 42 75
REMARK SMILES IDX 64 76 65 77 70 78 66 79 67 80 69 81 71 82 68 83 52 84 53 85
REMARK SMILES IDX 58 86 54 87 55 88 57 89 59 90 56 91
REMARK H PARENT 16 10 76 53 50 64
REMARK Flexibility Score: inf
ROOT
ATOM      1  C   UNL     1      -3.073  -5.013  -1.828  1.00  0.00     0.202 C 
ENDROOT
BRANCH   1   2
ATOM      2  C   UNL     1      -2.409  -4.436  -0.566  1.00  0.00     0.261 C 
BRANCH   2   3
ATOM      3  O   UNL     1      -1.057  -3.945  -0.739  1.00  0.00    -0.461 OA
BRANCH   3   4
ATOM      4  C   UNL     1      -0.128  -4.713  -0.111  1.00  0.00     0.333 C 
ATOM      5  O   UNL     1      -0.463  -5.684   0.568  1.00  0.00    -0.249 OA
BRANCH   4   6
ATOM      6  C   UNL     1       1.351  -4.234  -0.225  1.00  0.00     0.223 C 
BRANCH   6   7
ATOM      7  N   UNL     1       2.042  -4.919   0.879  1.00  0.00    -0.335 N 
ATOM      8  C   UNL     1       2.224  -6.236   1.170  1.00  0.00     0.244 C 
ATOM      9  O   UNL     1       2.760  -6.497   2.251  1.00  0.00    -0.270 OA
ATOM     10  H   UNL     1       2.450  -4.307   1.532  1.00  0.00     0.165 HD
BRANCH   8  11
ATOM     11  C   UNL     1       1.909  -7.392   0.256  1.00  0.00     0.071 C 
ATOM     12  C   UNL     1       1.274  -7.458  -0.930  1.00  0.00     0.013 C 
BRANCH  12  13
ATOM     13  C   UNL     1       1.155  -8.597  -1.840  1.00  0.00    -0.007 C 
ATOM     14  C   UNL     1       1.369  -7.387  -4.097  1.00  0.00     0.058 C 
ATOM     15  C   UNL     1       0.529  -8.316  -3.215  1.00  0.00     0.200 C 
ATOM     16  O   UNL     1       0.228  -9.463  -4.035  1.00  0.00    -0.485 OA
ATOM     17  C   UNL     1       0.829 -10.644  -3.723  1.00  0.00     0.127 A 
ATOM     18  C   UNL     1       1.562  -9.830  -1.512  1.00  0.00     0.019 C 
ATOM     19  C   UNL     1       0.750 -11.649  -4.687  1.00  0.00     0.047 A 
ATOM     20  C   UNL     1       1.461 -10.886  -2.505  1.00  0.00     0.017 A 
ATOM     21  C   UNL     1       1.299 -12.905  -4.432  1.00  0.00     0.004 A 
ATOM     22  C   UNL     1       1.998 -12.151  -2.246  1.00  0.00     0.012 A 
ATOM     23  C   UNL     1       1.916 -13.158  -3.208  1.00  0.00     0.001 A 
ENDBRANCH  12  13
ENDBRANCH   8  11
ENDBRANCH   6   7
BRANCH   6  24
ATOM     24  C   UNL     1       2.177  -4.233  -1.527  1.00  0.00    -0.014 A 
ATOM     25  C   UNL     1       2.063  -3.198  -2.472  1.00  0.00     0.006 A 
ATOM     26  C   UNL     1       3.209  -5.167  -1.777  1.00  0.00     0.006 A 
ATOM     27  C   UNL     1       2.893  -3.150  -3.612  1.00  0.00     0.000 A 
ATOM     28  C   UNL     1       3.994  -5.161  -2.934  1.00  0.00     0.000 A 
ATOM     29  C   UNL     1       3.838  -4.145  -3.857  1.00  0.00     0.000 A 
ENDBRANCH   6  24
ENDBRANCH   4   6
ENDBRANCH   3   4
ENDBRANCH   2   3
ENDBRANCH   1   2
BRANCH   1  30
ATOM     30  O   UNL     1      -2.257  -5.584  -2.836  1.00  0.00    -0.374 OA
BRANCH  30  31
ATOM     31  C   UNL     1      -1.247  -4.784  -3.439  1.00  0.00     0.202 C 
BRANCH  31  32
ATOM     32  C   UNL     1      -1.585  -3.383  -3.971  1.00  0.00     0.261 C 
BRANCH  32  33
ATOM     33  O   UNL     1      -2.110  -2.485  -2.976  1.00  0.00    -0.460 OA
BRANCH  33  34
ATOM     34  C   UNL     1      -3.387  -2.073  -3.179  1.00  0.00     0.338 C 
ATOM     35  O   UNL     1      -4.114  -2.352  -4.121  1.00  0.00    -0.246 OA
BRANCH  34  36
ATOM     36  C   UNL     1      -3.879  -1.382  -1.972  1.00  0.00     0.060 A 
ATOM     37  C   UNL     1      -3.228  -0.252  -1.479  1.00  0.00     0.016 A 
ATOM     38  C   UNL     1      -5.048  -1.856  -1.358  1.00  0.00     0.016 A 
ATOM     39  C   UNL     1      -3.772   0.425  -0.386  1.00  0.00     0.010 A 
ATOM     40  C   UNL     1      -5.586  -1.183  -0.261  1.00  0.00     0.010 A 
ATOM     41  C   UNL     1      -4.966  -0.019   0.215  1.00  0.00    -0.014 A 
BRANCH  41  42
ATOM     42  C   UNL     1      -5.646   0.838   1.216  1.00  0.00     0.031 A 
ATOM     43  C   UNL     1      -5.648   0.507   2.677  1.00  0.00     0.074 A 
ATOM     44  C   UNL     1      -6.279   1.940   0.771  1.00  0.00     0.049 A 
ATOM     45  N   UNL     1      -6.094   1.222   3.679  1.00  0.00    -0.248 NA
ATOM     46  C   UNL     1      -5.089  -0.795   3.063  1.00  0.00     0.031 C 
ATOM     47  C   UNL     1      -6.394   2.331  -0.636  1.00  0.00     0.029 A 
ATOM     48  N   UNL     1      -6.930   2.938   1.449  1.00  0.00    -0.354 N 
ATOM     49  C   UNL     1      -5.846   0.472   4.821  1.00  0.00     0.074 A 
ATOM     50  C   UNL     1      -5.262  -0.779   4.379  1.00  0.00     0.031 C 
ATOM     51  C   UNL     1      -7.036   3.506  -0.713  1.00  0.00     0.029 A 
ATOM     52  C   UNL     1      -7.403   3.935   0.631  1.00  0.00     0.049 A 
ATOM     53  H   UNL     1      -7.046   2.940   2.426  1.00  0.00     0.167 HD
ATOM     54  C   UNL     1      -6.070   0.807   6.116  1.00  0.00     0.037 A 
ATOM     55  C   UNL     1      -8.054   5.072   0.934  1.00  0.00     0.037 A 
ATOM     56  C   UNL     1      -6.689   2.039   6.542  1.00  0.00     0.049 A 
ATOM     57  C   UNL     1      -8.330   5.394   2.375  1.00  0.00     0.074 A 
ATOM     58  C   UNL     1      -6.925   2.488   7.831  1.00  0.00     0.029 A 
ATOM     59  N   UNL     1      -7.195   3.009   5.688  1.00  0.00    -0.354 N 
ATOM     60  N   UNL     1      -7.995   4.726   3.453  1.00  0.00    -0.248 NA
ATOM     61  C   UNL     1      -9.068   6.635   2.640  1.00  0.00     0.031 C 
ATOM     62  C   UNL     1      -7.627   3.698   7.755  1.00  0.00     0.029 A 
ATOM     63  C   UNL     1      -7.773   4.036   6.420  1.00  0.00     0.049 A 
ATOM     64  H   UNL     1      -7.150   2.973   4.705  1.00  0.00     0.167 HD
ATOM     65  C   UNL     1      -8.462   5.477   4.524  1.00  0.00     0.074 A 
ATOM     66  C   UNL     1      -9.073   6.665   3.964  1.00  0.00     0.031 C 
ATOM     67  C   UNL     1      -8.394   5.207   5.851  1.00  0.00     0.037 A 
BRANCH  54  68
ATOM     68  C   UNL     1      -5.647  -0.181   7.168  1.00  0.00     0.057 A 
ATOM     69  C   UNL     1      -6.596  -0.843   7.958  1.00  0.00     0.134 A 
ATOM     70  C   UNL     1      -4.296  -0.452   7.424  1.00  0.00     0.134 A 
ATOM     71  F   UNL     1      -7.907  -0.624   7.777  1.00  0.00    -0.206 F 
ATOM     72  C   UNL     1      -6.216  -1.740   8.959  1.00  0.00     0.040 A 
ATOM     73  C   UNL     1      -3.905  -1.367   8.403  1.00  0.00     0.040 A 
ATOM     74  F   UNL     1      -3.334   0.144   6.702  1.00  0.00    -0.206 F 
ATOM     75  C   UNL     1      -4.867  -2.011   9.178  1.00  0.00     0.006 A 
ENDBRANCH  54  68
BRANCH  55  76
ATOM     76  C   UNL     1      -8.473   6.004  -0.143  1.00  0.00     0.057 A 
ATOM     77  C   UNL     1      -9.477   5.659  -1.056  1.00  0.00     0.134 A 
ATOM     78  C   UNL     1      -7.902   7.276  -0.264  1.00  0.00     0.134 A 
ATOM     79  F   UNL     1     -10.056   4.450  -1.001  1.00  0.00    -0.206 F 
ATOM     80  C   UNL     1      -9.901   6.545  -2.046  1.00  0.00     0.040 A 
ATOM     81  C   UNL     1      -8.338   8.185  -1.229  1.00  0.00     0.040 A 
ATOM     82  F   UNL     1      -6.946   7.671   0.590  1.00  0.00    -0.206 F 
ATOM     83  C   UNL     1      -9.340   7.818  -2.126  1.00  0.00     0.006 A 
ENDBRANCH  55  76
BRANCH  67  84
ATOM     84  C   UNL     1      -8.981   6.233   6.780  1.00  0.00     0.057 A 
ATOM     85  C   UNL     1      -8.155   7.003   7.609  1.00  0.00     0.134 A 
ATOM     86  C   UNL     1     -10.361   6.473   6.845  1.00  0.00     0.134 A 
ATOM     87  F   UNL     1      -6.825   6.822   7.606  1.00  0.00    -0.206 F 
ATOM     88  C   UNL     1      -8.677   7.978   8.460  1.00  0.00     0.040 A 
ATOM     89  C   UNL     1     -10.892   7.470   7.667  1.00  0.00     0.040 A 
ATOM     90  F   UNL     1     -11.208   5.784   6.066  1.00  0.00    -0.206 F 
ATOM     91  C   UNL     1     -10.048   8.223   8.480  1.00  0.00     0.006 A 
ENDBRANCH  67  84
ENDBRANCH  41  42
ENDBRANCH  34  36
ENDBRANCH  33  34
ENDBRANCH  32  33
ENDBRANCH  31  32
ENDBRANCH  30  31
ENDBRANCH   1  30
TORSDOF 18
