REMARK SMILES Cc1nc(-c2ccc(S(=O)(=O)N3CC[NH2+][C@H](C(=O)OCCOCCOC(=O)c4ccc(-c5c6nc(c(-c7c(F)cccc7F)c7ccc([nH]7)c(-c7c(F)cccc7F)c7nc(c(-c8c(F)cccc8F)c8ccc5[nH]8)C=C7)C=C6)cc4)C3)s2)cs1
REMARK SMILES IDX 21 1 20 2 19 3 17 4 18 5 16 6 12 7 13 8 82 9 14 10 15 11
REMARK SMILES IDX 9 14 10 15 11 16 8 17 5 18 6 19 83 20 7 21 4 22 1 23 2 24
REMARK SMILES IDX 3 25 85 26 84 27 22 28 23 29 24 30 25 31 26 32 27 33 28 34
REMARK SMILES IDX 29 35 81 36 30 37 80 38 31 39 32 40 33 41 74 42 34 43 79 44
REMARK SMILES IDX 73 45 75 46 35 47 78 48 72 49 71 50 36 52 62 53 45 54 61 55
REMARK SMILES IDX 46 56 49 57 60 58 76 59 47 60 48 61 59 63 77 64 50 65 37 66
REMARK SMILES IDX 38 67 43 68 39 69 40 70 42 71 44 72 41 73 63 74 64 75 69 76
REMARK SMILES IDX 65 77 66 78 68 79 70 80 67 81 51 82 52 83 57 84 53 85 54 86
REMARK SMILES IDX 56 87 58 88 55 89
REMARK H PARENT 15 12 15 13 75 51 49 62
REMARK Flexibility Score: inf
ROOT
ATOM      1  C   UNL     1       5.781  -4.688  -6.487  1.00  0.00     0.202 C 
ENDROOT
BRANCH   1   2
ATOM      2  C   UNL     1       6.108  -4.018  -5.151  1.00  0.00     0.261 C 
BRANCH   2   3
ATOM      3  O   UNL     1       5.873  -4.882  -4.023  1.00  0.00    -0.459 OA
BRANCH   3   4
ATOM      4  C   UNL     1       4.982  -4.378  -3.129  1.00  0.00     0.366 C 
ATOM      5  O   UNL     1       4.494  -3.253  -3.187  1.00  0.00    -0.245 OA
BRANCH   4   6
ATOM      6  C   UNL     1       4.611  -5.338  -2.019  1.00  0.00     0.308 C 
ATOM      7  N   UNL     1       5.146  -6.078   0.227  1.00  0.00    -0.185 NA
ATOM      8  C   UNL     1       4.363  -7.332   0.037  1.00  0.00     0.164 C 
ATOM      9  C   UNL     1       5.747  -5.572  -1.034  1.00  0.00     0.180 C 
ATOM     10  C   UNL     1       3.476  -7.332  -1.239  1.00  0.00     0.278 C 
ATOM     11  N   UNL     1       3.995  -6.631  -2.439  1.00  0.00    -0.332 N 
ATOM     12  H   UNL     1       3.228  -6.449  -3.087  1.00  0.00     0.347 HD
ATOM     13  H   UNL     1       4.694  -7.211  -2.902  1.00  0.00     0.347 HD
BRANCH   7  14
ATOM     14  S   UNL     1       4.697  -4.928   1.399  1.00  0.00     0.253 S 
ATOM     15  O   UNL     1       5.810  -4.016   1.518  1.00  0.00    -0.206 OA
ATOM     16  O   UNL     1       4.174  -5.648   2.543  1.00  0.00    -0.206 OA
BRANCH  14  17
ATOM     17  C   UNL     1       3.309  -3.928   0.846  1.00  0.00     0.135 A 
ATOM     18  C   UNL     1       1.818  -1.972   0.521  1.00  0.00     0.055 A 
ATOM     19  C   UNL     1       1.332  -3.104  -0.089  1.00  0.00     0.023 A 
ATOM     20  S   UNL     1       3.331  -2.250   1.255  1.00  0.00    -0.121 S 
ATOM     21  C   UNL     1       2.147  -4.234   0.161  1.00  0.00     0.034 A 
BRANCH  18  22
ATOM     22  C   UNL     1       1.010  -0.712   0.525  1.00  0.00     0.091 A 
ATOM     23  C   UNL     1      -2.347   0.617   0.019  1.00  0.00     0.079 C 
ATOM     24  C   UNL     1      -0.900   0.388   0.278  1.00  0.00     0.090 A 
ATOM     25  N   UNL     1      -0.314  -0.774   0.115  1.00  0.00    -0.241 NA
ATOM     26  S   UNL     1       0.124   1.650   0.831  1.00  0.00    -0.127 S 
ATOM     27  C   UNL     1       1.431   0.533   0.939  1.00  0.00     0.096 A 
ENDBRANCH  18  22
ENDBRANCH  14  17
ENDBRANCH   7  14
ENDBRANCH   4   6
ENDBRANCH   3   4
ENDBRANCH   2   3
ENDBRANCH   1   2
BRANCH   1  28
ATOM     28  O   UNL     1       4.454  -5.154  -6.711  1.00  0.00    -0.374 OA
BRANCH  28  29
ATOM     29  C   UNL     1       3.926  -6.155  -5.848  1.00  0.00     0.202 C 
BRANCH  29  30
ATOM     30  C   UNL     1       4.559  -7.556  -5.884  1.00  0.00     0.261 C 
BRANCH  30  31
ATOM     31  O   UNL     1       5.985  -7.561  -5.683  1.00  0.00    -0.460 OA
BRANCH  31  32
ATOM     32  C   UNL     1       6.692  -7.969  -6.769  1.00  0.00     0.338 C 
ATOM     33  O   UNL     1       6.249  -8.407  -7.818  1.00  0.00    -0.246 OA
BRANCH  32  34
ATOM     34  C   UNL     1       8.124  -7.655  -6.616  1.00  0.00     0.060 A 
ATOM     35  C   UNL     1       8.696  -6.810  -7.577  1.00  0.00     0.016 A 
ATOM     36  C   UNL     1       8.921  -8.283  -5.657  1.00  0.00     0.016 A 
ATOM     37  C   UNL     1      10.075  -6.637  -7.623  1.00  0.00     0.010 A 
ATOM     38  C   UNL     1      10.311  -8.120  -5.714  1.00  0.00     0.010 A 
ATOM     39  C   UNL     1      10.894  -7.337  -6.728  1.00  0.00    -0.014 A 
BRANCH  39  40
ATOM     40  C   UNL     1      12.349  -7.392  -7.007  1.00  0.00     0.031 A 
ATOM     41  C   UNL     1      12.894  -8.570  -7.770  1.00  0.00     0.074 A 
ATOM     42  C   UNL     1      13.155  -6.369  -6.675  1.00  0.00     0.049 A 
ATOM     43  N   UNL     1      14.113  -8.796  -8.191  1.00  0.00    -0.248 NA
ATOM     44  C   UNL     1      11.934  -9.632  -8.110  1.00  0.00     0.031 C 
ATOM     45  C   UNL     1      12.736  -5.157  -5.974  1.00  0.00     0.029 A 
ATOM     46  N   UNL     1      14.496  -6.185  -6.898  1.00  0.00    -0.354 N 
ATOM     47  C   UNL     1      14.064 -10.021  -8.845  1.00  0.00     0.074 A 
ATOM     48  C   UNL     1      12.706 -10.507  -8.737  1.00  0.00     0.031 C 
ATOM     49  C   UNL     1      13.801  -4.351  -5.826  1.00  0.00     0.029 A 
ATOM     50  C   UNL     1      14.977  -4.998  -6.405  1.00  0.00     0.049 A 
ATOM     51  H   UNL     1      15.059  -6.842  -7.367  1.00  0.00     0.167 HD
ATOM     52  C   UNL     1      15.057 -10.675  -9.492  1.00  0.00     0.037 A 
ATOM     53  C   UNL     1      16.226  -4.495  -6.419  1.00  0.00     0.037 A 
ATOM     54  C   UNL     1      16.407 -10.191  -9.603  1.00  0.00     0.049 A 
ATOM     55  C   UNL     1      17.327  -5.268  -7.096  1.00  0.00     0.074 A 
ATOM     56  C   UNL     1      17.485 -10.777 -10.245  1.00  0.00     0.029 A 
ATOM     57  N   UNL     1      16.865  -9.003  -9.054  1.00  0.00    -0.354 N 
ATOM     58  N   UNL     1      17.264  -6.413  -7.732  1.00  0.00    -0.248 NA
ATOM     59  C   UNL     1      18.670  -4.673  -7.065  1.00  0.00     0.031 C 
ATOM     60  C   UNL     1      18.605  -9.961 -10.048  1.00  0.00     0.029 A 
ATOM     61  C   UNL     1      18.214  -8.847  -9.324  1.00  0.00     0.049 A 
ATOM     62  H   UNL     1      16.312  -8.365  -8.548  1.00  0.00     0.167 HD
ATOM     63  C   UNL     1      18.549  -6.662  -8.198  1.00  0.00     0.074 A 
ATOM     64  C   UNL     1      19.367  -5.542  -7.783  1.00  0.00     0.031 C 
ATOM     65  C   UNL     1      19.011  -7.722  -8.907  1.00  0.00     0.037 A 
BRANCH  52  66
ATOM     66  C   UNL     1      14.720 -12.000 -10.110  1.00  0.00     0.057 A 
ATOM     67  C   UNL     1      13.939 -12.098 -11.269  1.00  0.00     0.134 A 
ATOM     68  C   UNL     1      15.198 -13.191  -9.550  1.00  0.00     0.134 A 
ATOM     69  F   UNL     1      13.436 -10.995 -11.845  1.00  0.00    -0.206 F 
ATOM     70  C   UNL     1      13.627 -13.335 -11.837  1.00  0.00     0.040 A 
ATOM     71  C   UNL     1      14.913 -14.432 -10.122  1.00  0.00     0.040 A 
ATOM     72  F   UNL     1      15.952 -13.168  -8.441  1.00  0.00    -0.206 F 
ATOM     73  C   UNL     1      14.121 -14.507 -11.266  1.00  0.00     0.006 A 
ENDBRANCH  52  66
BRANCH  53  74
ATOM     74  C   UNL     1      16.508  -3.189  -5.772  1.00  0.00     0.057 A 
ATOM     75  C   UNL     1      16.833  -2.057  -6.527  1.00  0.00     0.134 A 
ATOM     76  C   UNL     1      16.477  -3.050  -4.380  1.00  0.00     0.134 A 
ATOM     77  F   UNL     1      16.901  -2.134  -7.864  1.00  0.00    -0.206 F 
ATOM     78  C   UNL     1      17.133  -0.836  -5.921  1.00  0.00     0.040 A 
ATOM     79  C   UNL     1      16.751  -1.829  -3.761  1.00  0.00     0.040 A 
ATOM     80  F   UNL     1      16.172  -4.098  -3.601  1.00  0.00    -0.206 F 
ATOM     81  C   UNL     1      17.087  -0.719  -4.533  1.00  0.00     0.006 A 
ENDBRANCH  53  74
BRANCH  65  82
ATOM     82  C   UNL     1      20.458  -7.702  -9.304  1.00  0.00     0.057 A 
ATOM     83  C   UNL     1      21.483  -7.916  -8.374  1.00  0.00     0.134 A 
ATOM     84  C   UNL     1      20.827  -7.497 -10.640  1.00  0.00     0.134 A 
ATOM     85  F   UNL     1      21.195  -8.107  -7.078  1.00  0.00    -0.206 F 
ATOM     86  C   UNL     1      22.826  -7.902  -8.755  1.00  0.00     0.040 A 
ATOM     87  C   UNL     1      22.165  -7.506 -11.036  1.00  0.00     0.040 A 
ATOM     88  F   UNL     1      19.893  -7.296 -11.582  1.00  0.00    -0.206 F 
ATOM     89  C   UNL     1      23.169  -7.701 -10.090  1.00  0.00     0.006 A 
ENDBRANCH  65  82
ENDBRANCH  39  40
ENDBRANCH  32  34
ENDBRANCH  31  32
ENDBRANCH  30  31
ENDBRANCH  29  30
ENDBRANCH  28  29
ENDBRANCH   1  28
TORSDOF 17
