REMARK SMILES O=C(OCCOCCOC(=O)c1sccc1S(=O)(=O)Nc1ccccc1N1CCCCC1)c1ccc(-c2c3nc(c(-c4c(F)cccc4F)c4ccc([nH]4)c(-c4c(F)cccc4F)c4nc(c(-c5c(F)cccc5F)c5ccc2[nH]5)C=C4)C=C3)cc1
REMARK SMILES IDX 7 1 6 2 5 3 4 4 3 5 2 6 1 7 33 8 34 9 86 10 35 11 85 12
REMARK SMILES IDX 36 13 37 14 38 15 79 16 39 17 84 18 78 19 80 20 40 21 83 22
REMARK SMILES IDX 77 23 76 24 41 26 67 27 50 28 66 29 51 30 54 31 65 32 81 33
REMARK SMILES IDX 52 34 53 35 64 37 82 38 55 39 42 40 43 41 48 42 44 43 45 44
REMARK SMILES IDX 47 45 49 46 46 47 68 48 69 49 74 50 70 51 71 52 73 53 75 54
REMARK SMILES IDX 72 55 56 56 57 57 62 58 58 59 59 60 61 61 63 62 60 63 8 64
REMARK SMILES IDX 9 65 10 66 11 67 12 68 13 69 16 70 14 71 15 72 17 73 18 74
REMARK SMILES IDX 19 75 20 76 21 78 22 79 26 80 23 81 25 82 24 83 27 84 28 85
REMARK SMILES IDX 32 86 29 87 31 88 30 89
REMARK H PARENT 80 25 54 36 20 77
REMARK Flexibility Score: inf
ROOT
ATOM      1  C   UNL     1       1.495   1.152  -0.758  1.00  0.00     0.202 C 
ENDROOT
BRANCH   1   2
ATOM      2  O   UNL     1       2.817   0.611  -0.717  1.00  0.00    -0.374 OA
BRANCH   2   3
ATOM      3  C   UNL     1       3.397   0.324  -1.988  1.00  0.00     0.202 C 
BRANCH   3   4
ATOM      4  C   UNL     1       3.662  -1.176  -2.146  1.00  0.00     0.261 C 
BRANCH   4   5
ATOM      5  O   UNL     1       2.514  -1.968  -1.792  1.00  0.00    -0.460 OA
BRANCH   5   6
ATOM      6  C   UNL     1       2.007  -2.107  -0.539  1.00  0.00     0.338 C 
ATOM      7  O   UNL     1       0.794  -2.251  -0.396  1.00  0.00    -0.246 OA
BRANCH   6   8
ATOM      8  C   UNL     1       2.892  -2.328   0.651  1.00  0.00     0.060 A 
ATOM      9  C   UNL     1       4.101  -1.677   0.912  1.00  0.00     0.016 A 
ATOM     10  C   UNL     1       2.424  -3.253   1.603  1.00  0.00     0.016 A 
ATOM     11  C   UNL     1       4.886  -2.034   2.013  1.00  0.00     0.010 A 
ATOM     12  C   UNL     1       3.183  -3.582   2.731  1.00  0.00     0.010 A 
ATOM     13  C   UNL     1       4.447  -3.011   2.910  1.00  0.00    -0.014 A 
BRANCH  13  14
ATOM     14  C   UNL     1       5.374  -3.524   3.943  1.00  0.00     0.031 A 
ATOM     15  C   UNL     1       6.101  -4.813   3.683  1.00  0.00     0.074 A 
ATOM     16  C   UNL     1       5.635  -2.811   5.052  1.00  0.00     0.049 A 
ATOM     17  N   UNL     1       6.999  -5.421   4.415  1.00  0.00    -0.248 NA
ATOM     18  C   UNL     1       5.785  -5.502   2.421  1.00  0.00     0.031 C 
ATOM     19  C   UNL     1       5.033  -1.523   5.394  1.00  0.00     0.029 A 
ATOM     20  N   UNL     1       6.499  -3.065   6.087  1.00  0.00    -0.354 N 
ATOM     21  C   UNL     1       7.368  -6.548   3.694  1.00  0.00     0.074 A 
ATOM     22  C   UNL     1       6.575  -6.562   2.485  1.00  0.00     0.031 C 
ATOM     23  C   UNL     1       5.566  -1.086   6.548  1.00  0.00     0.029 A 
ATOM     24  C   UNL     1       6.531  -2.071   7.033  1.00  0.00     0.049 A 
ATOM     25  H   UNL     1       7.044  -3.883   6.145  1.00  0.00     0.167 HD
ATOM     26  C   UNL     1       8.296  -7.485   4.001  1.00  0.00     0.037 A 
ATOM     27  C   UNL     1       7.263  -1.970   8.158  1.00  0.00     0.037 A 
ATOM     28  C   UNL     1       9.066  -7.501   5.211  1.00  0.00     0.049 A 
ATOM     29  C   UNL     1       8.228  -3.065   8.518  1.00  0.00     0.074 A 
ATOM     30  C   UNL     1       9.966  -8.454   5.655  1.00  0.00     0.029 A 
ATOM     31  N   UNL     1       9.026  -6.506   6.174  1.00  0.00    -0.354 N 
ATOM     32  N   UNL     1       8.536  -4.148   7.848  1.00  0.00    -0.248 NA
ATOM     33  C   UNL     1       8.942  -2.924   9.796  1.00  0.00     0.031 C 
ATOM     34  C   UNL     1      10.463  -8.039   6.897  1.00  0.00     0.029 A 
ATOM     35  C   UNL     1       9.883  -6.821   7.214  1.00  0.00     0.049 A 
ATOM     36  H   UNL     1       8.470  -5.695   6.126  1.00  0.00     0.167 HD
ATOM     37  C   UNL     1       9.476  -4.818   8.619  1.00  0.00     0.074 A 
ATOM     38  C   UNL     1       9.704  -4.010   9.800  1.00  0.00     0.031 C 
ATOM     39  C   UNL     1      10.090  -6.001   8.377  1.00  0.00     0.037 A 
BRANCH  26  40
ATOM     40  C   UNL     1       8.505  -8.568   2.992  1.00  0.00     0.057 A 
ATOM     41  C   UNL     1       9.306  -8.357   1.863  1.00  0.00     0.134 A 
ATOM     42  C   UNL     1       7.876  -9.810   3.125  1.00  0.00     0.134 A 
ATOM     43  F   UNL     1       9.912  -7.175   1.671  1.00  0.00    -0.206 F 
ATOM     44  C   UNL     1       9.460  -9.343   0.888  1.00  0.00     0.040 A 
ATOM     45  C   UNL     1       8.031 -10.807   2.161  1.00  0.00     0.040 A 
ATOM     46  F   UNL     1       7.087 -10.064   4.179  1.00  0.00    -0.206 F 
ATOM     47  C   UNL     1       8.821 -10.573   1.036  1.00  0.00     0.006 A 
ENDBRANCH  26  40
BRANCH  27  48
ATOM     48  C   UNL     1       7.120  -0.781   9.028  1.00  0.00     0.057 A 
ATOM     49  C   UNL     1       8.103   0.214   9.055  1.00  0.00     0.134 A 
ATOM     50  C   UNL     1       6.006  -0.617   9.860  1.00  0.00     0.134 A 
ATOM     51  F   UNL     1       9.200   0.098   8.294  1.00  0.00    -0.206 F 
ATOM     52  C   UNL     1       7.988   1.329   9.886  1.00  0.00     0.040 A 
ATOM     53  C   UNL     1       5.872   0.499  10.686  1.00  0.00     0.040 A 
ATOM     54  F   UNL     1       5.035  -1.541   9.879  1.00  0.00    -0.206 F 
ATOM     55  C   UNL     1       6.867   1.475  10.702  1.00  0.00     0.006 A 
ENDBRANCH  27  48
BRANCH  39  56
ATOM     56  C   UNL     1      11.054  -6.490   9.411  1.00  0.00     0.057 A 
ATOM     57  C   UNL     1      10.607  -7.145  10.565  1.00  0.00     0.134 A 
ATOM     58  C   UNL     1      12.434  -6.343   9.235  1.00  0.00     0.134 A 
ATOM     59  F   UNL     1       9.294  -7.304  10.790  1.00  0.00    -0.206 F 
ATOM     60  C   UNL     1      11.503  -7.632  11.515  1.00  0.00     0.040 A 
ATOM     61  C   UNL     1      13.341  -6.835  10.174  1.00  0.00     0.040 A 
ATOM     62  F   UNL     1      12.919  -5.725   8.148  1.00  0.00    -0.206 F 
ATOM     63  C   UNL     1      12.875  -7.481  11.319  1.00  0.00     0.006 A 
ENDBRANCH  39  56
ENDBRANCH  13  14
ENDBRANCH   6   8
ENDBRANCH   5   6
ENDBRANCH   4   5
ENDBRANCH   3   4
ENDBRANCH   2   3
ENDBRANCH   1   2
BRANCH   1  64
ATOM     64  C   UNL     1       1.462   2.528  -0.093  1.00  0.00     0.261 C 
BRANCH  64  65
ATOM     65  O   UNL     1       1.973   3.564  -0.951  1.00  0.00    -0.459 OA
BRANCH  65  66
ATOM     66  C   UNL     1       3.327   3.679  -0.999  1.00  0.00     0.349 C 
ATOM     67  O   UNL     1       4.131   2.940  -0.449  1.00  0.00    -0.245 OA
BRANCH  66  68
ATOM     68  C   UNL     1       3.680   4.788  -1.838  1.00  0.00     0.133 A 
ATOM     69  S   UNL     1       4.245   4.467  -3.422  1.00  0.00    -0.136 S 
ATOM     70  C   UNL     1       3.690   6.136  -1.551  1.00  0.00     0.113 A 
ATOM     71  C   UNL     1       4.473   6.132  -3.745  1.00  0.00     0.067 A 
ATOM     72  C   UNL     1       4.140   6.917  -2.663  1.00  0.00     0.035 A 
BRANCH  70  73
ATOM     73  S   UNL     1       3.144   6.841  -0.074  1.00  0.00     0.263 S 
ATOM     74  O   UNL     1       4.039   7.940   0.208  1.00  0.00    -0.201 OA
ATOM     75  O   UNL     1       1.758   7.134  -0.394  1.00  0.00    -0.201 OA
BRANCH  73  76
ATOM     76  N   UNL     1       3.046   5.793   1.199  1.00  0.00    -0.277 N 
ATOM     77  H   UNL     1       2.130   5.618   1.517  1.00  0.00     0.180 HD
BRANCH  76  78
ATOM     78  C   UNL     1       4.071   5.095   1.918  1.00  0.00     0.072 A 
ATOM     79  C   UNL     1       3.535   4.314   2.969  1.00  0.00     0.029 A 
ATOM     80  C   UNL     1       5.437   4.948   1.577  1.00  0.00     0.061 A 
ATOM     81  C   UNL     1       4.305   3.398   3.680  1.00  0.00     0.002 A 
ATOM     82  C   UNL     1       6.187   4.008   2.321  1.00  0.00     0.028 A 
ATOM     83  C   UNL     1       5.636   3.239   3.349  1.00  0.00     0.002 A 
BRANCH  80  84
ATOM     84  N   UNL     1       6.078   5.707   0.595  1.00  0.00    -0.370 N 
ATOM     85  C   UNL     1       6.845   5.037  -0.466  1.00  0.00     0.116 C 
ATOM     86  C   UNL     1       6.604   7.006   1.043  1.00  0.00     0.116 C 
ATOM     87  C   UNL     1       8.350   4.996  -0.196  1.00  0.00     0.021 C 
ATOM     88  C   UNL     1       8.079   6.897   1.426  1.00  0.00     0.021 C 
ATOM     89  C   UNL     1       8.895   6.344   0.262  1.00  0.00     0.004 C 
ENDBRANCH  80  84
ENDBRANCH  76  78
ENDBRANCH  73  76
ENDBRANCH  70  73
ENDBRANCH  66  68
ENDBRANCH  65  66
ENDBRANCH  64  65
ENDBRANCH   1  64
TORSDOF 18
