REMARK SMILES O=C(OCCOCCOC(=O)[C@H]1CSCN1C(=O)c1occc1-c1ccccc1)c1ccc(-c2c3nc(c(-c4c(F)cccc4F)c4ccc([nH]4)c(-c4c(F)cccc4F)c4nc(c(-c5c(F)cccc5F)c5ccc2[nH]5)C=C4)C=C3)cc1
REMARK SMILES IDX 7 1 6 2 5 3 4 4 3 5 2 6 1 7 30 8 31 9 83 10 32 11 82 12
REMARK SMILES IDX 33 13 34 14 35 15 76 16 36 17 81 18 75 19 77 20 37 21 80 22
REMARK SMILES IDX 74 23 73 24 38 26 64 27 47 28 63 29 48 30 51 31 62 32 78 33
REMARK SMILES IDX 49 34 50 35 61 37 79 38 52 39 39 40 40 41 45 42 41 43 42 44
REMARK SMILES IDX 44 45 46 46 43 47 65 48 66 49 71 50 67 51 68 52 70 53 72 54
REMARK SMILES IDX 69 55 53 56 54 57 59 58 55 59 56 60 58 61 60 62 57 63 8 64
REMARK SMILES IDX 9 65 10 66 11 67 12 68 13 69 16 70 14 71 15 72 17 73 18 74
REMARK SMILES IDX 19 75 20 76 23 77 21 78 22 79 24 80 25 81 29 82 26 83 28 84
REMARK SMILES IDX 27 85
REMARK H PARENT 77 25 51 36
REMARK Flexibility Score: inf
ROOT
ATOM      1  C   UNL     1       2.471   2.319  -0.791  1.00  0.00     0.202 C 
ENDROOT
BRANCH   1   2
ATOM      2  O   UNL     1       3.745   1.785  -0.445  1.00  0.00    -0.374 OA
BRANCH   2   3
ATOM      3  C   UNL     1       4.109   0.595  -1.131  1.00  0.00     0.202 C 
BRANCH   3   4
ATOM      4  C   UNL     1       3.799  -0.711  -0.403  1.00  0.00     0.261 C 
BRANCH   4   5
ATOM      5  O   UNL     1       2.381  -0.807  -0.151  1.00  0.00    -0.460 OA
BRANCH   5   6
ATOM      6  C   UNL     1       1.746  -0.591   1.031  1.00  0.00     0.338 C 
ATOM      7  O   UNL     1       0.534  -0.692   1.123  1.00  0.00    -0.246 OA
BRANCH   6   8
ATOM      8  C   UNL     1       2.542  -0.302   2.245  1.00  0.00     0.060 A 
ATOM      9  C   UNL     1       3.578   0.617   2.224  1.00  0.00     0.016 A 
ATOM     10  C   UNL     1       2.237  -0.932   3.451  1.00  0.00     0.016 A 
ATOM     11  C   UNL     1       4.454   0.757   3.262  1.00  0.00     0.010 A 
ATOM     12  C   UNL     1       3.007  -0.650   4.584  1.00  0.00     0.010 A 
ATOM     13  C   UNL     1       4.131   0.185   4.476  1.00  0.00    -0.014 A 
BRANCH  13  14
ATOM     14  C   UNL     1       5.049   0.482   5.580  1.00  0.00     0.031 A 
ATOM     15  C   UNL     1       5.852  -0.637   6.142  1.00  0.00     0.074 A 
ATOM     16  C   UNL     1       5.253   1.770   5.923  1.00  0.00     0.049 A 
ATOM     17  N   UNL     1       6.623  -0.644   7.189  1.00  0.00    -0.248 NA
ATOM     18  C   UNL     1       5.778  -1.925   5.430  1.00  0.00     0.031 C 
ATOM     19  C   UNL     1       4.618   2.934   5.284  1.00  0.00     0.029 A 
ATOM     20  N   UNL     1       6.082   2.326   6.855  1.00  0.00    -0.354 N 
ATOM     21  C   UNL     1       7.069  -1.951   7.307  1.00  0.00     0.074 A 
ATOM     22  C   UNL     1       6.499  -2.708   6.217  1.00  0.00     0.031 C 
ATOM     23  C   UNL     1       5.117   4.059   5.812  1.00  0.00     0.029 A 
ATOM     24  C   UNL     1       5.996   3.697   6.910  1.00  0.00     0.049 A 
ATOM     25  H   UNL     1       6.681   1.798   7.430  1.00  0.00     0.167 HD
ATOM     26  C   UNL     1       7.868  -2.456   8.272  1.00  0.00     0.037 A 
ATOM     27  C   UNL     1       6.517   4.552   7.806  1.00  0.00     0.037 A 
ATOM     28  C   UNL     1       8.416  -1.641   9.321  1.00  0.00     0.049 A 
ATOM     29  C   UNL     1       7.321   3.952   8.920  1.00  0.00     0.074 A 
ATOM     30  C   UNL     1       9.184  -2.020  10.403  1.00  0.00     0.029 A 
ATOM     31  N   UNL     1       8.249  -0.262   9.404  1.00  0.00    -0.354 N 
ATOM     32  N   UNL     1       7.652   2.695   9.111  1.00  0.00    -0.248 NA
ATOM     33  C   UNL     1       7.800   4.869   9.956  1.00  0.00     0.031 C 
ATOM     34  C   UNL     1       9.441  -0.875  11.167  1.00  0.00     0.029 A 
ATOM     35  C   UNL     1       8.886   0.226  10.528  1.00  0.00     0.049 A 
ATOM     36  H   UNL     1       7.750   0.286   8.755  1.00  0.00     0.167 HD
ATOM     37  C   UNL     1       8.392   2.669  10.281  1.00  0.00     0.074 A 
ATOM     38  C   UNL     1       8.478   4.044  10.741  1.00  0.00     0.031 C 
ATOM     39  C   UNL     1       8.946   1.612  10.927  1.00  0.00     0.037 A 
BRANCH  26  40
ATOM     40  C   UNL     1       8.083  -3.938   8.269  1.00  0.00     0.057 A 
ATOM     41  C   UNL     1       8.845  -4.590   7.291  1.00  0.00     0.134 A 
ATOM     42  C   UNL     1       7.457  -4.736   9.236  1.00  0.00     0.134 A 
ATOM     43  F   UNL     1       9.438  -3.890   6.312  1.00  0.00    -0.206 F 
ATOM     44  C   UNL     1       8.954  -5.983   7.259  1.00  0.00     0.040 A 
ATOM     45  C   UNL     1       7.581  -6.126   9.230  1.00  0.00     0.040 A 
ATOM     46  F   UNL     1       6.697  -4.179  10.191  1.00  0.00    -0.206 F 
ATOM     47  C   UNL     1       8.324  -6.754   8.234  1.00  0.00     0.006 A 
ENDBRANCH  26  40
BRANCH  27  48
ATOM     48  C   UNL     1       6.215   6.005   7.734  1.00  0.00     0.057 A 
ATOM     49  C   UNL     1       7.223   6.951   7.524  1.00  0.00     0.134 A 
ATOM     50  C   UNL     1       4.905   6.489   7.877  1.00  0.00     0.134 A 
ATOM     51  F   UNL     1       8.499   6.560   7.392  1.00  0.00    -0.206 F 
ATOM     52  C   UNL     1       6.947   8.320   7.478  1.00  0.00     0.040 A 
ATOM     53  C   UNL     1       4.610   7.851   7.800  1.00  0.00     0.040 A 
ATOM     54  F   UNL     1       3.885   5.641   8.075  1.00  0.00    -0.206 F 
ATOM     55  C   UNL     1       5.635   8.773   7.611  1.00  0.00     0.006 A 
ENDBRANCH  27  48
BRANCH  39  56
ATOM     56  C   UNL     1       9.728   1.928  12.163  1.00  0.00     0.057 A 
ATOM     57  C   UNL     1       9.105   2.308  13.357  1.00  0.00     0.134 A 
ATOM     58  C   UNL     1      11.123   1.803  12.162  1.00  0.00     0.134 A 
ATOM     59  F   UNL     1       7.773   2.461  13.411  1.00  0.00    -0.206 F 
ATOM     60  C   UNL     1       9.847   2.577  14.505  1.00  0.00     0.040 A 
ATOM     61  C   UNL     1      11.871   2.036  13.312  1.00  0.00     0.040 A 
ATOM     62  F   UNL     1      11.773   1.434  11.048  1.00  0.00    -0.206 F 
ATOM     63  C   UNL     1      11.233   2.431  14.487  1.00  0.00     0.006 A 
ENDBRANCH  39  56
ENDBRANCH  13  14
ENDBRANCH   6   8
ENDBRANCH   5   6
ENDBRANCH   4   5
ENDBRANCH   3   4
ENDBRANCH   2   3
ENDBRANCH   1   2
BRANCH   1  64
ATOM     64  C   UNL     1       2.668   3.521  -1.708  1.00  0.00     0.261 C 
BRANCH  64  65
ATOM     65  O   UNL     1       3.332   3.119  -2.924  1.00  0.00    -0.462 OA
BRANCH  65  66
ATOM     66  C   UNL     1       4.699   3.038  -2.874  1.00  0.00     0.329 C 
ATOM     67  O   UNL     1       5.397   3.433  -1.948  1.00  0.00    -0.250 OA
BRANCH  66  68
ATOM     68  C   UNL     1       5.242   2.410  -4.166  1.00  0.00     0.206 C 
ATOM     69  C   UNL     1       6.073   3.512  -4.833  1.00  0.00     0.108 C 
ATOM     70  N   UNL     1       6.061   1.172  -4.020  1.00  0.00    -0.312 N 
ATOM     71  S   UNL     1       7.795   2.982  -4.720  1.00  0.00    -0.138 SA
ATOM     72  C   UNL     1       7.343   1.253  -4.659  1.00  0.00     0.191 C 
BRANCH  70  73
ATOM     73  C   UNL     1       5.442  -0.074  -3.885  1.00  0.00     0.291 C 
ATOM     74  O   UNL     1       4.226  -0.140  -4.087  1.00  0.00    -0.265 OA
BRANCH  73  75
ATOM     75  C   UNL     1       6.201  -1.281  -3.538  1.00  0.00     0.199 A 
ATOM     76  O   UNL     1       5.668  -2.445  -4.062  1.00  0.00    -0.459 OA
ATOM     77  C   UNL     1       7.294  -1.642  -2.745  1.00  0.00     0.033 A 
ATOM     78  C   UNL     1       6.412  -3.494  -3.649  1.00  0.00     0.196 A 
ATOM     79  C   UNL     1       7.433  -3.060  -2.849  1.00  0.00     0.051 A 
BRANCH  77  80
ATOM     80  C   UNL     1       8.120  -0.800  -1.900  1.00  0.00    -0.014 A 
ATOM     81  C   UNL     1       9.404  -0.436  -2.325  1.00  0.00     0.009 A 
ATOM     82  C   UNL     1       7.717  -0.470  -0.603  1.00  0.00     0.009 A 
ATOM     83  C   UNL     1      10.228   0.338  -1.508  1.00  0.00     0.001 A 
ATOM     84  C   UNL     1       8.548   0.292   0.223  1.00  0.00     0.001 A 
ATOM     85  C   UNL     1       9.796   0.711  -0.238  1.00  0.00     0.000 A 
ENDBRANCH  77  80
ENDBRANCH  73  75
ENDBRANCH  70  73
ENDBRANCH  66  68
ENDBRANCH  65  66
ENDBRANCH  64  65
ENDBRANCH   1  64
TORSDOF 17
