REMARK SMILES COc1ccc([C@H](NC(=O)[C@H]2CC(C)=C(C)C[C@@H]2C(=O)OCCOCCOC(=O)c2ccc(-c3c4nc(c(-c5c(F)cccc5F)c5ccc([nH]5)c(-c5c(F)cccc5F)c5nc(c(-c6c(F)cccc6F)c6ccc3[nH]6)C=C5)C=C4)cc2)c2ccccc2)cc1
REMARK SMILES IDX 23 1 22 2 21 3 19 4 20 5 18 6 11 7 12 8 13 9 17 10 14 11
REMARK SMILES IDX 15 12 16 13 9 14 8 15 10 17 7 18 6 19 3 20 4 21 91 22 5 23
REMARK SMILES IDX 90 24 2 25 1 26 84 27 85 28 89 29 86 30 88 31 87 32 24 33
REMARK SMILES IDX 25 34 26 35 27 36 28 37 29 38 30 39 31 40 83 41 32 42 82 43
REMARK SMILES IDX 33 44 34 45 35 46 76 47 36 48 81 49 75 50 77 51 37 52 80 53
REMARK SMILES IDX 74 54 73 55 38 57 64 58 47 59 63 60 48 61 51 62 62 63 78 64
REMARK SMILES IDX 49 65 50 66 61 68 79 69 52 70 39 71 40 72 45 73 41 74 42 75
REMARK SMILES IDX 44 76 46 77 43 78 65 79 66 80 71 81 67 82 68 83 70 84 72 85
REMARK SMILES IDX 69 86 53 87 54 88 59 89 55 90 56 91 58 92 60 93 57 94
REMARK H PARENT 8 16 77 56 51 67
REMARK Flexibility Score: inf
ROOT
ATOM      1  C   UNL     1      -3.380  -5.760   4.581  1.00  0.00     0.202 C 
ENDROOT
BRANCH   1   2
ATOM      2  C   UNL     1      -2.529  -5.373   3.371  1.00  0.00     0.261 C 
BRANCH   2   3
ATOM      3  O   UNL     1      -1.209  -5.025   3.819  1.00  0.00    -0.463 OA
BRANCH   3   4
ATOM      4  C   UNL     1      -0.919  -3.704   3.894  1.00  0.00     0.310 C 
ATOM      5  O   UNL     1      -1.609  -2.818   3.407  1.00  0.00    -0.252 OA
BRANCH   4   6
ATOM      6  C   UNL     1       0.318  -3.416   4.751  1.00  0.00     0.116 C 
ATOM      7  C   UNL     1       1.274  -2.553   3.929  1.00  0.00     0.097 C 
ATOM      8  C   UNL     1       2.737  -2.959   3.837  1.00  0.00     0.045 C 
ATOM      9  C   UNL     1       3.243  -3.965   4.829  1.00  0.00    -0.074 C 
ATOM     10  C   UNL     1       0.918  -4.665   5.421  1.00  0.00     0.046 C 
ATOM     11  C   UNL     1       4.745  -4.074   4.856  1.00  0.00     0.039 C 
ATOM     12  C   UNL     1       2.416  -4.740   5.554  1.00  0.00    -0.073 C 
ATOM     13  C   UNL     1       2.910  -5.798   6.509  1.00  0.00     0.039 C 
BRANCH   7  14
ATOM     14  C   UNL     1       1.093  -1.067   4.210  1.00  0.00     0.225 C 
ATOM     15  N   UNL     1       1.198  -0.423   5.387  1.00  0.00    -0.345 N 
ATOM     16  H   UNL     1       0.661   0.402   5.375  1.00  0.00     0.164 HD
ATOM     17  O   UNL     1       0.798  -0.324   3.261  1.00  0.00    -0.275 OA
BRANCH  15  18
ATOM     18  C   UNL     1       1.873  -0.578   6.688  1.00  0.00     0.143 C 
BRANCH  18  19
ATOM     19  C   UNL     1       1.942   0.769   7.480  1.00  0.00    -0.021 A 
ATOM     20  C   UNL     1       1.718   3.053   9.169  1.00  0.00     0.118 A 
ATOM     21  C   UNL     1       2.331   1.892   9.630  1.00  0.00     0.047 A 
ATOM     22  C   UNL     1       1.308   3.112   7.843  1.00  0.00     0.047 A 
ATOM     23  C   UNL     1       2.452   0.770   8.797  1.00  0.00     0.010 A 
ATOM     24  C   UNL     1       1.423   1.991   7.010  1.00  0.00     0.010 A 
BRANCH  20  25
ATOM     25  O   UNL     1       1.588   4.066  10.077  1.00  0.00    -0.497 OA
ATOM     26  C   UNL     1       0.519   4.977   9.827  1.00  0.00     0.278 C 
ENDBRANCH  20  25
ENDBRANCH  18  19
BRANCH  18  27
ATOM     27  C   UNL     1       1.222  -1.628   7.591  1.00  0.00    -0.021 A 
ATOM     28  C   UNL     1      -0.064  -1.433   8.127  1.00  0.00     0.006 A 
ATOM     29  C   UNL     1       1.975  -2.716   8.059  1.00  0.00     0.006 A 
ATOM     30  C   UNL     1      -0.572  -2.298   9.099  1.00  0.00     0.000 A 
ATOM     31  C   UNL     1       1.450  -3.603   9.003  1.00  0.00     0.000 A 
ATOM     32  C   UNL     1       0.179  -3.390   9.527  1.00  0.00     0.000 A 
ENDBRANCH  18  27
ENDBRANCH  15  18
ENDBRANCH   7  14
ENDBRANCH   4   6
ENDBRANCH   3   4
ENDBRANCH   2   3
ENDBRANCH   1   2
BRANCH   1  33
ATOM     33  O   UNL     1      -3.836  -4.668   5.378  1.00  0.00    -0.374 OA
BRANCH  33  34
ATOM     34  C   UNL     1      -2.970  -4.221   6.424  1.00  0.00     0.202 C 
BRANCH  34  35
ATOM     35  C   UNL     1      -3.005  -5.054   7.710  1.00  0.00     0.261 C 
BRANCH  35  36
ATOM     36  O   UNL     1      -2.333  -6.316   7.535  1.00  0.00    -0.460 OA
BRANCH  36  37
ATOM     37  C   UNL     1      -3.148  -7.394   7.494  1.00  0.00     0.338 C 
ATOM     38  O   UNL     1      -4.356  -7.420   7.684  1.00  0.00    -0.246 OA
BRANCH  37  39
ATOM     39  C   UNL     1      -2.409  -8.559   6.980  1.00  0.00     0.060 A 
ATOM     40  C   UNL     1      -2.931  -9.211   5.854  1.00  0.00     0.016 A 
ATOM     41  C   UNL     1      -1.271  -9.051   7.622  1.00  0.00     0.016 A 
ATOM     42  C   UNL     1      -2.344 -10.385   5.392  1.00  0.00     0.010 A 
ATOM     43  C   UNL     1      -0.690 -10.237   7.162  1.00  0.00     0.010 A 
ATOM     44  C   UNL     1      -1.243 -10.926   6.066  1.00  0.00    -0.014 A 
BRANCH  44  45
ATOM     45  C   UNL     1      -0.753 -12.279   5.707  1.00  0.00     0.031 A 
ATOM     46  C   UNL     1      -1.110 -13.444   6.587  1.00  0.00     0.074 A 
ATOM     47  C   UNL     1      -0.007 -12.470   4.606  1.00  0.00     0.049 A 
ATOM     48  N   UNL     1      -0.726 -14.693   6.509  1.00  0.00    -0.248 NA
ATOM     49  C   UNL     1      -2.017 -13.161   7.710  1.00  0.00     0.031 C 
ATOM     50  C   UNL     1       0.371 -11.429   3.652  1.00  0.00     0.029 A 
ATOM     51  N   UNL     1       0.581 -13.608   4.115  1.00  0.00    -0.354 N 
ATOM     52  C   UNL     1      -1.329 -15.340   7.580  1.00  0.00     0.074 A 
ATOM     53  C   UNL     1      -2.083 -14.341   8.308  1.00  0.00     0.031 C 
ATOM     54  C   UNL     1       1.148 -11.973   2.701  1.00  0.00     0.029 A 
ATOM     55  C   UNL     1       1.354 -13.389   3.002  1.00  0.00     0.049 A 
ATOM     56  H   UNL     1       0.460 -14.497   4.522  1.00  0.00     0.167 HD
ATOM     57  C   UNL     1      -1.263 -16.649   7.923  1.00  0.00     0.037 A 
ATOM     58  C   UNL     1       2.164 -14.226   2.325  1.00  0.00     0.037 A 
ATOM     59  C   UNL     1      -0.514 -17.639   7.192  1.00  0.00     0.049 A 
ATOM     60  C   UNL     1       2.277 -15.662   2.763  1.00  0.00     0.074 A 
ATOM     61  C   UNL     1      -0.410 -18.997   7.439  1.00  0.00     0.029 A 
ATOM     62  N   UNL     1       0.271 -17.374   6.079  1.00  0.00    -0.354 N 
ATOM     63  N   UNL     1       1.682 -16.273   3.759  1.00  0.00    -0.248 NA
ATOM     64  C   UNL     1       3.171 -16.526   1.979  1.00  0.00     0.031 C 
ATOM     65  C   UNL     1       0.489 -19.541   6.517  1.00  0.00     0.029 A 
ATOM     66  C   UNL     1       0.890 -18.537   5.650  1.00  0.00     0.049 A 
ATOM     67  H   UNL     1       0.372 -16.491   5.656  1.00  0.00     0.167 HD
ATOM     68  C   UNL     1       2.104 -17.596   3.704  1.00  0.00     0.074 A 
ATOM     69  C   UNL     1       2.999 -17.701   2.570  1.00  0.00     0.031 C 
ATOM     70  C   UNL     1       1.776 -18.631   4.516  1.00  0.00     0.037 A 
BRANCH  57  71
ATOM     71  C   UNL     1      -1.988 -17.078   9.167  1.00  0.00     0.057 A 
ATOM     72  C   UNL     1      -3.386 -17.112   9.244  1.00  0.00     0.134 A 
ATOM     73  C   UNL     1      -1.271 -17.486  10.299  1.00  0.00     0.134 A 
ATOM     74  F   UNL     1      -4.135 -16.722   8.200  1.00  0.00    -0.206 F 
ATOM     75  C   UNL     1      -4.044 -17.506  10.411  1.00  0.00     0.040 A 
ATOM     76  C   UNL     1      -1.917 -17.912  11.461  1.00  0.00     0.040 A 
ATOM     77  F   UNL     1       0.071 -17.485  10.293  1.00  0.00    -0.206 F 
ATOM     78  C   UNL     1      -3.308 -17.914  11.521  1.00  0.00     0.006 A 
ENDBRANCH  57  71
BRANCH  58  79
ATOM     79  C   UNL     1       2.956 -13.716   1.177  1.00  0.00     0.057 A 
ATOM     80  C   UNL     1       2.687 -14.124  -0.133  1.00  0.00     0.134 A 
ATOM     81  C   UNL     1       4.005 -12.807   1.366  1.00  0.00     0.134 A 
ATOM     82  F   UNL     1       1.709 -15.010  -0.377  1.00  0.00    -0.206 F 
ATOM     83  C   UNL     1       3.441 -13.661  -1.213  1.00  0.00     0.040 A 
ATOM     84  C   UNL     1       4.749 -12.314   0.294  1.00  0.00     0.040 A 
ATOM     85  F   UNL     1       4.313 -12.374   2.598  1.00  0.00    -0.206 F 
ATOM     86  C   UNL     1       4.471 -12.747  -1.001  1.00  0.00     0.006 A 
ENDBRANCH  58  79
BRANCH  70  87
ATOM     87  C   UNL     1       2.350 -19.981   4.188  1.00  0.00     0.057 A 
ATOM     88  C   UNL     1       3.706 -20.280   4.376  1.00  0.00     0.134 A 
ATOM     89  C   UNL     1       1.521 -21.011   3.724  1.00  0.00     0.134 A 
ATOM     90  F   UNL     1       4.558 -19.337   4.806  1.00  0.00    -0.206 F 
ATOM     91  C   UNL     1       4.218 -21.549   4.095  1.00  0.00     0.040 A 
ATOM     92  C   UNL     1       2.016 -22.291   3.469  1.00  0.00     0.040 A 
ATOM     93  F   UNL     1       0.211 -20.796   3.532  1.00  0.00    -0.206 F 
ATOM     94  C   UNL     1       3.370 -22.560   3.648  1.00  0.00     0.006 A 
ENDBRANCH  70  87
ENDBRANCH  44  45
ENDBRANCH  37  39
ENDBRANCH  36  37
ENDBRANCH  35  36
ENDBRANCH  34  35
ENDBRANCH  33  34
ENDBRANCH   1  33
TORSDOF 19
