REMARK SMILES CCOc1ccc2[nH]c(C)c/c(=N\c3cccc(C(=O)OCCOCCOC(=O)c4ccc(-c5c6nc(c(-c7c(F)cccc7F)c7ccc([nH]7)c(-c7c(F)cccc7F)c7nc(c(-c8c(F)cccc8F)c8ccc5[nH]8)C=C7)C=C6)cc4)c3)c2c1
REMARK SMILES IDX 23 1 22 2 21 3 19 4 20 5 18 6 14 7 15 8 84 9 16 10 17 11
REMARK SMILES IDX 13 12 4 13 5 14 86 15 6 16 85 17 7 18 12 19 8 20 11 21 9 22
REMARK SMILES IDX 10 24 3 25 2 26 1 27 24 28 25 29 26 30 27 31 28 32 29 33
REMARK SMILES IDX 30 34 31 35 83 36 32 37 82 38 33 39 34 40 35 41 76 42 36 43
REMARK SMILES IDX 81 44 75 45 77 46 37 47 80 48 74 49 73 50 38 52 64 53 47 54
REMARK SMILES IDX 63 55 48 56 51 57 62 58 78 59 49 60 50 61 61 63 79 64 52 65
REMARK SMILES IDX 39 66 40 67 45 68 41 69 42 70 44 71 46 72 43 73 65 74 66 75
REMARK SMILES IDX 71 76 67 77 68 78 70 79 72 80 69 81 53 82 54 83 59 84 55 85
REMARK SMILES IDX 56 86 58 87 60 88 57 89
REMARK H PARENT 8 23 77 51 51 62
REMARK Flexibility Score: inf
ROOT
ATOM      1  C   UNL     1       6.333  10.113   4.946  1.00  0.00     0.202 C 
ENDROOT
BRANCH   1   2
ATOM      2  C   UNL     1       4.973  10.417   4.308  1.00  0.00     0.261 C 
BRANCH   2   3
ATOM      3  O   UNL     1       4.775   9.677   3.093  1.00  0.00    -0.460 OA
BRANCH   3   4
ATOM      4  C   UNL     1       4.748  10.434   1.968  1.00  0.00     0.338 C 
ATOM      5  O   UNL     1       4.746  11.654   1.915  1.00  0.00    -0.246 OA
BRANCH   4   6
ATOM      6  C   UNL     1       4.907   9.588   0.761  1.00  0.00     0.062 A 
ATOM      7  C   UNL     1       4.604   7.540  -0.503  1.00  0.00     0.065 A 
ATOM      8  C   UNL     1       5.221   8.159  -1.603  1.00  0.00     0.028 A 
ATOM      9  C   UNL     1       4.428   8.273   0.676  1.00  0.00     0.044 A 
ATOM     10  C   UNL     1       5.750   9.445  -1.503  1.00  0.00     0.003 A 
ATOM     11  C   UNL     1       5.594  10.158  -0.320  1.00  0.00     0.016 A 
BRANCH   7  12
ATOM     12  N   UNL     1       4.109   6.226  -0.587  1.00  0.00    -0.248 NA
ATOM     13  C   UNL     1       2.410   2.328  -0.980  1.00  0.00     0.120 A 
ATOM     14  C   UNL     1       3.235   1.287  -1.403  1.00  0.00     0.048 A 
ATOM     15  C   UNL     1       2.926   3.614  -0.803  1.00  0.00     0.059 A 
ATOM     16  C   UNL     1       4.594   1.512  -1.603  1.00  0.00     0.030 A 
ATOM     17  C   UNL     1       4.295   3.844  -1.010  1.00  0.00     0.027 A 
ATOM     18  C   UNL     1       5.134   2.787  -1.414  1.00  0.00     0.048 A 
ATOM     19  C   UNL     1       4.893   5.217  -0.849  1.00  0.00     0.075 A 
ATOM     20  N   UNL     1       6.497   3.003  -1.642  1.00  0.00    -0.359 N 
ATOM     21  C   UNL     1       6.385   5.295  -1.027  1.00  0.00     0.050 A 
ATOM     22  C   UNL     1       7.084   4.225  -1.435  1.00  0.00     0.014 A 
ATOM     23  H   UNL     1       7.051   2.255  -1.962  1.00  0.00     0.166 HD
ATOM     24  C   UNL     1       8.561   4.319  -1.696  1.00  0.00     0.064 C 
BRANCH  13  25
ATOM     25  O   UNL     1       1.061   2.127  -0.875  1.00  0.00    -0.494 OA
BRANCH  25  26
ATOM     26  C   UNL     1       0.681   1.423   0.316  1.00  0.00     0.226 C 
ATOM     27  C   UNL     1       0.722  -0.089   0.138  1.00  0.00     0.049 C 
ENDBRANCH  25  26
ENDBRANCH  13  25
ENDBRANCH   7  12
ENDBRANCH   4   6
ENDBRANCH   3   4
ENDBRANCH   2   3
ENDBRANCH   1   2
BRANCH   1  28
ATOM     28  O   UNL     1       7.500  10.423   4.188  1.00  0.00    -0.374 OA
BRANCH  28  29
ATOM     29  C   UNL     1       7.854   9.549   3.117  1.00  0.00     0.202 C 
BRANCH  29  30
ATOM     30  C   UNL     1       8.489   8.200   3.480  1.00  0.00     0.261 C 
BRANCH  30  31
ATOM     31  O   UNL     1       7.598   7.344   4.213  1.00  0.00    -0.460 OA
BRANCH  31  32
ATOM     32  C   UNL     1       7.883   7.212   5.532  1.00  0.00     0.338 C 
ATOM     33  O   UNL     1       8.825   7.697   6.139  1.00  0.00    -0.246 OA
BRANCH  32  34
ATOM     34  C   UNL     1       6.761   6.529   6.206  1.00  0.00     0.060 A 
ATOM     35  C   UNL     1       6.240   5.333   5.712  1.00  0.00     0.016 A 
ATOM     36  C   UNL     1       6.244   7.101   7.376  1.00  0.00     0.016 A 
ATOM     37  C   UNL     1       5.212   4.696   6.411  1.00  0.00     0.010 A 
ATOM     38  C   UNL     1       5.221   6.459   8.076  1.00  0.00     0.010 A 
ATOM     39  C   UNL     1       4.708   5.242   7.607  1.00  0.00    -0.014 A 
BRANCH  39  40
ATOM     40  C   UNL     1       3.720   4.475   8.406  1.00  0.00     0.031 A 
ATOM     41  C   UNL     1       2.283   4.897   8.490  1.00  0.00     0.074 A 
ATOM     42  C   UNL     1       4.136   3.372   9.056  1.00  0.00     0.049 A 
ATOM     43  N   UNL     1       1.275   4.276   9.052  1.00  0.00    -0.248 NA
ATOM     44  C   UNL     1       1.932   6.183   7.872  1.00  0.00     0.031 C 
ATOM     45  C   UNL     1       5.516   2.884   9.086  1.00  0.00     0.029 A 
ATOM     46  N   UNL     1       3.441   2.453   9.800  1.00  0.00    -0.354 N 
ATOM     47  C   UNL     1       0.164   5.080   8.832  1.00  0.00     0.074 A 
ATOM     48  C   UNL     1       0.636   6.264   8.142  1.00  0.00     0.031 C 
ATOM     49  C   UNL     1       5.558   1.732   9.773  1.00  0.00     0.029 A 
ATOM     50  C   UNL     1       4.218   1.417  10.257  1.00  0.00     0.049 A 
ATOM     51  H   UNL     1       2.477   2.528   9.987  1.00  0.00     0.167 HD
ATOM     52  C   UNL     1      -1.131   4.842   9.154  1.00  0.00     0.037 A 
ATOM     53  C   UNL     1       3.886   0.332  10.980  1.00  0.00     0.037 A 
ATOM     54  C   UNL     1      -1.592   3.679   9.873  1.00  0.00     0.049 A 
ATOM     55  C   UNL     1       2.450   0.127  11.380  1.00  0.00     0.074 A 
ATOM     56  C   UNL     1      -2.886   3.341  10.233  1.00  0.00     0.029 A 
ATOM     57  N   UNL     1      -0.770   2.674  10.362  1.00  0.00    -0.354 N 
ATOM     58  N   UNL     1       1.396   0.852  11.093  1.00  0.00    -0.248 NA
ATOM     59  C   UNL     1       2.160  -1.058  12.199  1.00  0.00     0.031 C 
ATOM     60  C   UNL     1      -2.840   2.162  10.985  1.00  0.00     0.029 A 
ATOM     61  C   UNL     1      -1.526   1.729  11.040  1.00  0.00     0.049 A 
ATOM     62  H   UNL     1       0.207   2.636  10.244  1.00  0.00     0.167 HD
ATOM     63  C   UNL     1       0.315   0.192  11.664  1.00  0.00     0.074 A 
ATOM     64  C   UNL     1       0.840  -1.000  12.295  1.00  0.00     0.031 C 
ATOM     65  C   UNL     1      -0.995   0.542  11.665  1.00  0.00     0.037 A 
BRANCH  52  66
ATOM     66  C   UNL     1      -2.143   5.870   8.732  1.00  0.00     0.057 A 
ATOM     67  C   UNL     1      -2.824   6.645   9.678  1.00  0.00     0.134 A 
ATOM     68  C   UNL     1      -2.463   6.076   7.382  1.00  0.00     0.134 A 
ATOM     69  F   UNL     1      -2.579   6.493  10.989  1.00  0.00    -0.206 F 
ATOM     70  C   UNL     1      -3.778   7.592   9.299  1.00  0.00     0.040 A 
ATOM     71  C   UNL     1      -3.393   7.040   6.988  1.00  0.00     0.040 A 
ATOM     72  F   UNL     1      -1.846   5.370   6.422  1.00  0.00    -0.206 F 
ATOM     73  C   UNL     1      -4.057   7.799   7.949  1.00  0.00     0.006 A 
ENDBRANCH  52  66
BRANCH  53  74
ATOM     74  C   UNL     1       4.920  -0.664  11.360  1.00  0.00     0.057 A 
ATOM     75  C   UNL     1       5.928  -0.354  12.281  1.00  0.00     0.134 A 
ATOM     76  C   UNL     1       4.893  -1.967  10.848  1.00  0.00     0.134 A 
ATOM     77  F   UNL     1       6.014   0.878  12.802  1.00  0.00    -0.206 F 
ATOM     78  C   UNL     1       6.866  -1.305  12.684  1.00  0.00     0.040 A 
ATOM     79  C   UNL     1       5.806  -2.937  11.267  1.00  0.00     0.040 A 
ATOM     80  F   UNL     1       3.942  -2.330   9.975  1.00  0.00    -0.206 F 
ATOM     81  C   UNL     1       6.798  -2.605  12.187  1.00  0.00     0.006 A 
ENDBRANCH  53  74
BRANCH  65  82
ATOM     82  C   UNL     1      -1.954  -0.406  12.329  1.00  0.00     0.057 A 
ATOM     83  C   UNL     1      -2.879  -1.132  11.567  1.00  0.00     0.134 A 
ATOM     84  C   UNL     1      -1.966  -0.608  13.716  1.00  0.00     0.134 A 
ATOM     85  F   UNL     1      -2.931  -0.984  10.235  1.00  0.00    -0.206 F 
ATOM     86  C   UNL     1      -3.774  -2.026  12.157  1.00  0.00     0.040 A 
ATOM     87  C   UNL     1      -2.833  -1.525  14.315  1.00  0.00     0.040 A 
ATOM     88  F   UNL     1      -1.098   0.043  14.506  1.00  0.00    -0.206 F 
ATOM     89  C   UNL     1      -3.744  -2.234  13.534  1.00  0.00     0.006 A 
ENDBRANCH  65  82
ENDBRANCH  39  40
ENDBRANCH  32  34
ENDBRANCH  31  32
ENDBRANCH  30  31
ENDBRANCH  29  30
ENDBRANCH  28  29
ENDBRANCH   1  28
TORSDOF 17
