REMARK SMILES Cc1cscc1-c1ncc(C(=O)OCCOCCOC(=O)c2ccc(-c3c4nc(c(-c5c(F)cccc5F)c5ccc([nH]5)c(-c5c(F)cccc5F)c5nc(c(-c6c(F)cccc6F)c6ccc3[nH]6)C=C5)C=C4)cc2)c(=O)[nH]1
REMARK SMILES IDX 17 1 16 2 15 3 14 4 13 5 11 6 12 7 10 8 7 9 8 10 78 11 9 12
REMARK SMILES IDX 76 13 77 15 6 16 1 17 2 18 3 19 4 20 5 21 18 22 19 23 20 24
REMARK SMILES IDX 21 25 22 26 23 27 75 28 24 29 74 30 25 31 26 32 27 33 68 34
REMARK SMILES IDX 28 35 73 36 67 37 69 38 29 39 72 40 66 41 65 42 30 44 56 45
REMARK SMILES IDX 39 46 55 47 40 48 43 49 54 50 70 51 41 52 42 53 53 55 71 56
REMARK SMILES IDX 44 57 31 58 32 59 37 60 33 61 34 62 36 63 38 64 35 65 57 66
REMARK SMILES IDX 58 67 63 68 59 69 60 70 62 71 64 72 61 73 45 74 46 75 51 76
REMARK SMILES IDX 47 77 48 78 50 79 52 80 49 81
REMARK H PARENT 78 14 69 43 43 54
REMARK Flexibility Score: inf
ROOT
ATOM      1  C   UNL     1       5.661   5.963   0.091  1.00  0.00     0.202 C 
ENDROOT
BRANCH   1   2
ATOM      2  O   UNL     1       5.772   7.305  -0.388  1.00  0.00    -0.374 OA
BRANCH   2   3
ATOM      3  C   UNL     1       4.972   8.291   0.269  1.00  0.00     0.202 C 
BRANCH   3   4
ATOM      4  C   UNL     1       3.525   8.378  -0.219  1.00  0.00     0.261 C 
BRANCH   4   5
ATOM      5  O   UNL     1       2.807   7.179   0.123  1.00  0.00    -0.459 OA
BRANCH   5   6
ATOM      6  C   UNL     1       2.381   6.431  -0.921  1.00  0.00     0.345 C 
ATOM      7  O   UNL     1       2.444   6.749  -2.101  1.00  0.00    -0.246 OA
BRANCH   6   8
ATOM      8  C   UNL     1       1.949   5.098  -0.480  1.00  0.00     0.143 A 
ATOM      9  C   UNL     1       1.117   2.536  -0.043  1.00  0.00     0.141 A 
ATOM     10  N   UNL     1       1.863   2.759  -1.074  1.00  0.00    -0.237 NA
ATOM     11  N   UNL     1       0.799   3.493   0.882  1.00  0.00    -0.306 N 
ATOM     12  C   UNL     1       2.246   4.061  -1.279  1.00  0.00     0.135 A 
ATOM     13  C   UNL     1       1.214   4.793   0.760  1.00  0.00     0.265 A 
ATOM     14  H   UNL     1       0.253   3.239   1.661  1.00  0.00     0.171 HD
ATOM     15  O   UNL     1       0.955   5.624   1.622  1.00  0.00    -0.269 OA
BRANCH   9  16
ATOM     16  C   UNL     1       0.527   1.220   0.134  1.00  0.00     0.031 A 
ATOM     17  C   UNL     1       2.674  -0.246  -0.084  1.00  0.00     0.046 C 
ATOM     18  C   UNL     1       1.200  -0.058   0.074  1.00  0.00    -0.029 A 
ATOM     19  C   UNL     1       0.300  -1.103   0.186  1.00  0.00     0.069 A 
ATOM     20  S   UNL     1      -1.311  -0.579   0.382  1.00  0.00    -0.151 S 
ATOM     21  C   UNL     1      -0.837   1.058   0.310  1.00  0.00     0.077 A 
ENDBRANCH   9  16
ENDBRANCH   6   8
ENDBRANCH   5   6
ENDBRANCH   4   5
ENDBRANCH   3   4
ENDBRANCH   2   3
ENDBRANCH   1   2
BRANCH   1  22
ATOM     22  C   UNL     1       6.504   5.630   1.326  1.00  0.00     0.261 C 
BRANCH  22  23
ATOM     23  O   UNL     1       6.050   6.352   2.485  1.00  0.00    -0.460 OA
BRANCH  23  24
ATOM     24  C   UNL     1       6.888   7.325   2.906  1.00  0.00     0.338 C 
ATOM     25  O   UNL     1       8.014   7.564   2.484  1.00  0.00    -0.246 OA
BRANCH  24  26
ATOM     26  C   UNL     1       6.214   8.211   3.873  1.00  0.00     0.060 A 
ATOM     27  C   UNL     1       6.371   9.590   3.687  1.00  0.00     0.016 A 
ATOM     28  C   UNL     1       5.515   7.721   4.980  1.00  0.00     0.016 A 
ATOM     29  C   UNL     1       5.898  10.481   4.645  1.00  0.00     0.010 A 
ATOM     30  C   UNL     1       5.042   8.620   5.945  1.00  0.00     0.010 A 
ATOM     31  C   UNL     1       5.274   9.999   5.803  1.00  0.00    -0.014 A 
BRANCH  31  32
ATOM     32  C   UNL     1       5.028  10.942   6.922  1.00  0.00     0.031 A 
ATOM     33  C   UNL     1       6.020  11.009   8.051  1.00  0.00     0.074 A 
ATOM     34  C   UNL     1       3.982  11.786   6.894  1.00  0.00     0.049 A 
ATOM     35  N   UNL     1       6.050  11.812   9.085  1.00  0.00    -0.248 NA
ATOM     36  C   UNL     1       7.130  10.043   8.008  1.00  0.00     0.031 C 
ATOM     37  C   UNL     1       2.968  11.840   5.842  1.00  0.00     0.029 A 
ATOM     38  N   UNL     1       3.611  12.771   7.774  1.00  0.00    -0.354 N 
ATOM     39  C   UNL     1       7.181  11.454   9.808  1.00  0.00     0.074 A 
ATOM     40  C   UNL     1       7.789  10.337   9.119  1.00  0.00     0.031 C 
ATOM     41  C   UNL     1       2.091  12.816   6.135  1.00  0.00     0.029 A 
ATOM     42  C   UNL     1       2.473  13.443   7.399  1.00  0.00     0.049 A 
ATOM     43  H   UNL     1       4.112  12.977   8.595  1.00  0.00     0.167 HD
ATOM     44  C   UNL     1       7.678  12.015  10.936  1.00  0.00     0.037 A 
ATOM     45  C   UNL     1       1.817  14.449   8.008  1.00  0.00     0.037 A 
ATOM     46  C   UNL     1       7.077  13.126  11.624  1.00  0.00     0.049 A 
ATOM     47  C   UNL     1       2.362  15.023   9.288  1.00  0.00     0.074 A 
ATOM     48  C   UNL     1       7.511  13.770  12.769  1.00  0.00     0.029 A 
ATOM     49  N   UNL     1       5.905  13.755  11.231  1.00  0.00    -0.354 N 
ATOM     50  N   UNL     1       3.449  14.698   9.945  1.00  0.00    -0.248 NA
ATOM     51  C   UNL     1       1.592  16.112   9.906  1.00  0.00     0.031 C 
ATOM     52  C   UNL     1       6.581  14.765  13.091  1.00  0.00     0.029 A 
ATOM     53  C   UNL     1       5.592  14.769  12.121  1.00  0.00     0.049 A 
ATOM     54  H   UNL     1       5.375  13.516  10.437  1.00  0.00     0.167 HD
ATOM     55  C   UNL     1       3.511  15.561  11.032  1.00  0.00     0.074 A 
ATOM     56  C   UNL     1       2.355  16.429  10.943  1.00  0.00     0.031 C 
ATOM     57  C   UNL     1       4.444  15.632  12.013  1.00  0.00     0.037 A 
BRANCH  44  58
ATOM     58  C   UNL     1       8.933  11.420  11.502  1.00  0.00     0.057 A 
ATOM     59  C   UNL     1      10.180  11.606  10.890  1.00  0.00     0.134 A 
ATOM     60  C   UNL     1       8.898  10.671  12.685  1.00  0.00     0.134 A 
ATOM     61  F   UNL     1      10.278  12.301   9.747  1.00  0.00    -0.206 F 
ATOM     62  C   UNL     1      11.344  11.050  11.423  1.00  0.00     0.040 A 
ATOM     63  C   UNL     1      10.059  10.130  13.240  1.00  0.00     0.040 A 
ATOM     64  F   UNL     1       7.737  10.459  13.323  1.00  0.00    -0.206 F 
ATOM     65  C   UNL     1      11.286  10.313  12.605  1.00  0.00     0.006 A 
ENDBRANCH  44  58
BRANCH  45  66
ATOM     66  C   UNL     1       0.576  14.994   7.406  1.00  0.00     0.057 A 
ATOM     67  C   UNL     1       0.546  16.272   6.836  1.00  0.00     0.134 A 
ATOM     68  C   UNL     1      -0.613  14.256   7.400  1.00  0.00     0.134 A 
ATOM     69  F   UNL     1       1.649  17.036   6.832  1.00  0.00    -0.206 F 
ATOM     70  C   UNL     1      -0.626  16.803   6.294  1.00  0.00     0.040 A 
ATOM     71  C   UNL     1      -1.786  14.765   6.842  1.00  0.00     0.040 A 
ATOM     72  F   UNL     1      -0.648  13.025   7.932  1.00  0.00    -0.206 F 
ATOM     73  C   UNL     1      -1.796  16.045   6.292  1.00  0.00     0.006 A 
ENDBRANCH  45  66
BRANCH  57  74
ATOM     74  C   UNL     1       4.277  16.708  13.045  1.00  0.00     0.057 A 
ATOM     75  C   UNL     1       3.296  16.633  14.041  1.00  0.00     0.134 A 
ATOM     76  C   UNL     1       5.134  17.816  13.062  1.00  0.00     0.134 A 
ATOM     77  F   UNL     1       2.436  15.603  14.073  1.00  0.00    -0.206 F 
ATOM     78  C   UNL     1       3.158  17.634  15.005  1.00  0.00     0.040 A 
ATOM     79  C   UNL     1       5.021  18.811  14.034  1.00  0.00     0.040 A 
ATOM     80  F   UNL     1       6.101  17.943  12.141  1.00  0.00    -0.206 F 
ATOM     81  C   UNL     1       4.026  18.724  15.006  1.00  0.00     0.006 A 
ENDBRANCH  57  74
ENDBRANCH  31  32
ENDBRANCH  24  26
ENDBRANCH  23  24
ENDBRANCH  22  23
ENDBRANCH   1  22
TORSDOF 15
