REMARK SMILES Cn1ccc(-c2n[nH]c(=O)n2-c2ccc(C(=O)OCCOCCOC(=O)c3ccc(-c4c5nc(c(-c6c(F)cccc6F)c6ccc([nH]6)c(-c6c(F)cccc6F)c6nc(c(-c7c(F)cccc7F)c7ccc4[nH]7)C=C6)C=C5)cc3)cc2)n1
REMARK SMILES IDX 21 1 20 2 19 3 18 4 16 5 17 6 15 7 12 8 13 9 82 10 14 11
REMARK SMILES IDX 81 12 11 13 6 14 7 15 8 16 9 17 10 19 5 20 1 21 2 22 3 23
REMARK SMILES IDX 83 24 4 25 22 26 23 27 24 28 25 29 26 30 27 31 28 32 80 33
REMARK SMILES IDX 29 34 79 35 30 36 31 37 32 38 73 39 33 40 78 41 72 42 74 43
REMARK SMILES IDX 34 44 77 45 71 46 70 47 35 49 61 50 44 51 60 52 45 53 48 54
REMARK SMILES IDX 59 55 75 56 46 57 47 58 58 60 76 61 49 62 36 63 37 64 42 65
REMARK SMILES IDX 38 66 39 67 41 68 43 69 40 70 62 71 63 72 68 73 64 74 65 75
REMARK SMILES IDX 67 76 69 77 66 78 50 79 51 80 56 81 52 82 53 83 55 84 57 85
REMARK SMILES IDX 54 86
REMARK H PARENT 8 18 74 48 48 59
REMARK Flexibility Score: inf
ROOT
ATOM      1  O   UNL     1      -0.461   5.106   8.009  1.00  0.00    -0.374 OA
ENDROOT
BRANCH   1   2
ATOM      2  C   UNL     1      -0.905   3.800   8.377  1.00  0.00     0.202 C 
BRANCH   2   3
ATOM      3  C   UNL     1      -1.555   2.925   7.304  1.00  0.00     0.261 C 
BRANCH   3   4
ATOM      4  O   UNL     1      -0.651   2.598   6.237  1.00  0.00    -0.460 OA
BRANCH   4   5
ATOM      5  C   UNL     1      -0.926   3.223   5.066  1.00  0.00     0.338 C 
ATOM      6  O   UNL     1      -1.866   3.961   4.828  1.00  0.00    -0.246 OA
BRANCH   5   7
ATOM      7  C   UNL     1       0.183   3.026   4.112  1.00  0.00     0.060 A 
ATOM      8  C   UNL     1       2.016   2.693   2.035  1.00  0.00     0.052 A 
ATOM      9  C   UNL     1       1.537   3.970   2.335  1.00  0.00     0.028 A 
ATOM     10  C   UNL     1       1.670   1.612   2.866  1.00  0.00     0.028 A 
ATOM     11  C   UNL     1       0.593   4.128   3.349  1.00  0.00     0.018 A 
ATOM     12  C   UNL     1       0.766   1.776   3.916  1.00  0.00     0.018 A 
BRANCH   8  13
ATOM     13  N   UNL     1       2.766   2.479   0.869  1.00  0.00    -0.242 N 
ATOM     14  C   UNL     1       2.629   1.481  -0.052  1.00  0.00     0.189 A 
ATOM     15  N   UNL     1       3.533   1.471  -0.994  1.00  0.00    -0.150 NA
ATOM     16  N   UNL     1       4.287   2.583  -0.722  1.00  0.00    -0.226 N 
ATOM     17  C   UNL     1       3.808   3.248   0.409  1.00  0.00     0.348 A 
ATOM     18  H   UNL     1       5.064   2.873  -1.252  1.00  0.00     0.195 HD
ATOM     19  O   UNL     1       4.285   4.271   0.873  1.00  0.00    -0.246 OA
BRANCH  14  20
ATOM     20  C   UNL     1       1.506   0.558  -0.062  1.00  0.00     0.130 A 
ATOM     21  C   UNL     1      -1.952   0.007   0.000  1.00  0.00     0.173 C 
ATOM     22  N   UNL     1      -0.513  -0.110  -0.018  1.00  0.00    -0.275 N 
ATOM     23  C   UNL     1       0.220  -1.252  -0.141  1.00  0.00     0.109 A 
ATOM     24  N   UNL     1       0.240   0.998   0.067  1.00  0.00    -0.170 NA
ATOM     25  C   UNL     1       1.534  -0.851  -0.212  1.00  0.00     0.054 A 
ENDBRANCH  14  20
ENDBRANCH   8  13
ENDBRANCH   5   7
ENDBRANCH   4   5
ENDBRANCH   3   4
ENDBRANCH   2   3
ENDBRANCH   1   2
BRANCH   1  26
ATOM     26  C   UNL     1       0.660   5.257   7.147  1.00  0.00     0.202 C 
BRANCH  26  27
ATOM     27  C   UNL     1       2.042   4.921   7.684  1.00  0.00     0.261 C 
BRANCH  27  28
ATOM     28  O   UNL     1       2.141   3.587   8.154  1.00  0.00    -0.460 OA
BRANCH  28  29
ATOM     29  C   UNL     1       2.071   3.492   9.502  1.00  0.00     0.338 C 
ATOM     30  O   UNL     1       1.620   4.312  10.280  1.00  0.00    -0.246 OA
BRANCH  29  31
ATOM     31  C   UNL     1       2.814   2.303   9.923  1.00  0.00     0.060 A 
ATOM     32  C   UNL     1       2.919   2.105  11.301  1.00  0.00     0.016 A 
ATOM     33  C   UNL     1       3.629   1.625   9.004  1.00  0.00     0.016 A 
ATOM     34  C   UNL     1       3.992   1.387  11.771  1.00  0.00     0.010 A 
ATOM     35  C   UNL     1       4.712   0.926   9.476  1.00  0.00     0.010 A 
ATOM     36  C   UNL     1       4.920   0.885  10.851  1.00  0.00    -0.014 A 
BRANCH  36  37
ATOM     37  C   UNL     1       6.059   0.172  11.378  1.00  0.00     0.031 A 
ATOM     38  C   UNL     1       5.681  -1.158  11.905  1.00  0.00     0.074 A 
ATOM     39  C   UNL     1       7.315   0.647  11.293  1.00  0.00     0.049 A 
ATOM     40  N   UNL     1       5.712  -1.558  13.130  1.00  0.00    -0.248 NA
ATOM     41  C   UNL     1       4.998  -2.084  10.984  1.00  0.00     0.031 C 
ATOM     42  C   UNL     1       7.798   1.810  10.546  1.00  0.00     0.029 A 
ATOM     43  N   UNL     1       8.458   0.114  11.798  1.00  0.00    -0.354 N 
ATOM     44  C   UNL     1       5.253  -2.871  13.100  1.00  0.00     0.074 A 
ATOM     45  C   UNL     1       4.639  -3.061  11.816  1.00  0.00     0.031 C 
ATOM     46  C   UNL     1       9.148   1.757  10.465  1.00  0.00     0.029 A 
ATOM     47  C   UNL     1       9.626   0.634  11.254  1.00  0.00     0.049 A 
ATOM     48  H   UNL     1       8.459  -0.584  12.493  1.00  0.00     0.167 HD
ATOM     49  C   UNL     1       5.681  -3.771  14.024  1.00  0.00     0.037 A 
ATOM     50  C   UNL     1      10.869   0.106  11.397  1.00  0.00     0.037 A 
ATOM     51  C   UNL     1       6.171  -3.099  15.203  1.00  0.00     0.049 A 
ATOM     52  C   UNL     1      10.825  -0.826  12.554  1.00  0.00     0.074 A 
ATOM     53  C   UNL     1       5.621  -2.226  16.122  1.00  0.00     0.029 A 
ATOM     54  N   UNL     1       7.532  -2.995  15.359  1.00  0.00    -0.354 N 
ATOM     55  N   UNL     1      10.704  -0.443  13.793  1.00  0.00    -0.248 NA
ATOM     56  C   UNL     1      10.459  -2.210  12.291  1.00  0.00     0.031 C 
ATOM     57  C   UNL     1       6.667  -1.312  16.442  1.00  0.00     0.029 A 
ATOM     58  C   UNL     1       7.813  -1.713  15.755  1.00  0.00     0.049 A 
ATOM     59  H   UNL     1       8.189  -3.713  15.213  1.00  0.00     0.167 HD
ATOM     60  C   UNL     1       9.844  -1.368  14.365  1.00  0.00     0.074 A 
ATOM     61  C   UNL     1       9.797  -2.481  13.418  1.00  0.00     0.031 C 
ATOM     62  C   UNL     1       9.027  -1.018  15.401  1.00  0.00     0.037 A 
BRANCH  49  63
ATOM     63  C   UNL     1       6.053  -5.196  13.677  1.00  0.00     0.057 A 
ATOM     64  C   UNL     1       6.481  -6.049  14.710  1.00  0.00     0.134 A 
ATOM     65  C   UNL     1       6.301  -5.676  12.372  1.00  0.00     0.134 A 
ATOM     66  F   UNL     1       6.304  -5.714  15.997  1.00  0.00    -0.206 F 
ATOM     67  C   UNL     1       7.190  -7.230  14.464  1.00  0.00     0.040 A 
ATOM     68  C   UNL     1       6.964  -6.878  12.116  1.00  0.00     0.040 A 
ATOM     69  F   UNL     1       6.010  -4.981  11.268  1.00  0.00    -0.206 F 
ATOM     70  C   UNL     1       7.445  -7.642  13.163  1.00  0.00     0.006 A 
ENDBRANCH  49  63
BRANCH  50  71
ATOM     71  C   UNL     1      12.005   0.091  10.445  1.00  0.00     0.057 A 
ATOM     72  C   UNL     1      13.285  -0.305  10.865  1.00  0.00     0.134 A 
ATOM     73  C   UNL     1      11.811   0.168   9.055  1.00  0.00     0.134 A 
ATOM     74  F   UNL     1      13.563  -0.441  12.170  1.00  0.00    -0.206 F 
ATOM     75  C   UNL     1      14.297  -0.649   9.958  1.00  0.00     0.040 A 
ATOM     76  C   UNL     1      12.816  -0.164   8.140  1.00  0.00     0.040 A 
ATOM     77  F   UNL     1      10.614   0.475   8.536  1.00  0.00    -0.206 F 
ATOM     78  C   UNL     1      14.058  -0.594   8.590  1.00  0.00     0.006 A 
ENDBRANCH  50  71
BRANCH  62  79
ATOM     79  C   UNL     1       9.284   0.303  16.076  1.00  0.00     0.057 A 
ATOM     80  C   UNL     1       9.211   1.550  15.435  1.00  0.00     0.134 A 
ATOM     81  C   UNL     1       9.495   0.317  17.459  1.00  0.00     0.134 A 
ATOM     82  F   UNL     1       8.909   1.647  14.133  1.00  0.00    -0.206 F 
ATOM     83  C   UNL     1       9.399   2.749  16.131  1.00  0.00     0.040 A 
ATOM     84  C   UNL     1       9.645   1.508  18.172  1.00  0.00     0.040 A 
ATOM     85  F   UNL     1       9.521  -0.834  18.150  1.00  0.00    -0.206 F 
ATOM     86  C   UNL     1       9.611   2.729  17.506  1.00  0.00     0.006 A 
ENDBRANCH  62  79
ENDBRANCH  36  37
ENDBRANCH  29  31
ENDBRANCH  28  29
ENDBRANCH  27  28
ENDBRANCH  26  27
ENDBRANCH   1  26
TORSDOF 16
