REMARK SMILES O=C(OCCOCCOC(=O)c1nccnc1C(=O)Nc1ccc(-n2cncn2)c(Cl)c1)c1ccc(-c2c3nc(c(-c4c(F)cccc4F)c4ccc([nH]4)c(-c4c(F)cccc4F)c4nc(c(-c5c(F)cccc5F)c5ccc2[nH]5)C=C4)C=C3)cc1
REMARK SMILES IDX 7 1 6 2 5 3 4 4 3 5 2 6 1 7 33 8 34 9 86 10 35 11 85 12
REMARK SMILES IDX 36 13 37 14 38 15 79 16 39 17 84 18 78 19 80 20 40 21 83 22
REMARK SMILES IDX 77 23 76 24 41 26 67 27 50 28 66 29 51 30 54 31 65 32 81 33
REMARK SMILES IDX 52 34 53 35 64 37 82 38 55 39 42 40 43 41 48 42 44 43 45 44
REMARK SMILES IDX 47 45 49 46 46 47 68 48 69 49 74 50 70 51 71 52 73 53 75 54
REMARK SMILES IDX 72 55 56 56 57 57 62 58 58 59 59 60 61 61 63 62 60 63 8 64
REMARK SMILES IDX 9 65 10 66 11 67 12 68 13 69 17 70 14 71 16 72 15 73 18 74
REMARK SMILES IDX 19 75 20 76 21 78 22 79 32 80 23 81 30 82 24 83 31 84 25 85
REMARK SMILES IDX 26 86 29 87 27 88 28 89
REMARK H PARENT 80 25 54 36 20 77
REMARK Flexibility Score: inf
ROOT
ATOM      1  C   UNL     1       2.302  -1.289   0.485  1.00  0.00     0.202 C 
ENDROOT
BRANCH   1   2
ATOM      2  O   UNL     1       3.499  -0.875  -0.174  1.00  0.00    -0.374 OA
BRANCH   2   3
ATOM      3  C   UNL     1       4.379   0.069   0.411  1.00  0.00     0.202 C 
BRANCH   3   4
ATOM      4  C   UNL     1       3.994   1.546   0.539  1.00  0.00     0.261 C 
BRANCH   4   5
ATOM      5  O   UNL     1       2.606   1.764   0.769  1.00  0.00    -0.460 OA
BRANCH   5   6
ATOM      6  C   UNL     1       1.605   1.615  -0.121  1.00  0.00     0.338 C 
ATOM      7  O   UNL     1       0.448   1.668   0.297  1.00  0.00    -0.246 OA
BRANCH   6   8
ATOM      8  C   UNL     1       1.809   1.411  -1.589  1.00  0.00     0.060 A 
ATOM      9  C   UNL     1       3.031   1.385  -2.267  1.00  0.00     0.016 A 
ATOM     10  C   UNL     1       0.625   1.333  -2.341  1.00  0.00     0.016 A 
ATOM     11  C   UNL     1       3.078   1.595  -3.625  1.00  0.00     0.010 A 
ATOM     12  C   UNL     1       0.659   1.486  -3.711  1.00  0.00     0.010 A 
ATOM     13  C   UNL     1       1.883   1.744  -4.310  1.00  0.00    -0.014 A 
BRANCH  13  14
ATOM     14  C   UNL     1       1.971   2.169  -5.686  1.00  0.00     0.031 A 
ATOM     15  C   UNL     1       2.603   1.173  -6.582  1.00  0.00     0.074 A 
ATOM     16  C   UNL     1       1.454   3.359  -6.045  1.00  0.00     0.049 A 
ATOM     17  N   UNL     1       3.659   1.309  -7.314  1.00  0.00    -0.248 NA
ATOM     18  C   UNL     1       2.084  -0.206  -6.527  1.00  0.00     0.031 C 
ATOM     19  C   UNL     1       0.640   4.269  -5.230  1.00  0.00     0.029 A 
ATOM     20  N   UNL     1       1.446   3.956  -7.262  1.00  0.00    -0.354 N 
ATOM     21  C   UNL     1       3.805   0.096  -7.981  1.00  0.00     0.074 A 
ATOM     22  C   UNL     1       2.932  -0.843  -7.331  1.00  0.00     0.031 C 
ATOM     23  C   UNL     1       0.013   5.150  -6.039  1.00  0.00     0.029 A 
ATOM     24  C   UNL     1       0.484   4.949  -7.395  1.00  0.00     0.049 A 
ATOM     25  H   UNL     1       2.065   3.708  -7.986  1.00  0.00     0.167 HD
ATOM     26  C   UNL     1       4.429   0.032  -9.187  1.00  0.00     0.037 A 
ATOM     27  C   UNL     1       0.047   5.465  -8.570  1.00  0.00     0.037 A 
ATOM     28  C   UNL     1       5.321   1.146  -9.373  1.00  0.00     0.049 A 
ATOM     29  C   UNL     1       1.064   5.130  -9.603  1.00  0.00     0.074 A 
ATOM     30  C   UNL     1       6.433   1.609  -8.697  1.00  0.00     0.029 A 
ATOM     31  N   UNL     1       4.898   2.189 -10.159  1.00  0.00    -0.354 N 
ATOM     32  N   UNL     1       2.263   5.644  -9.631  1.00  0.00    -0.248 NA
ATOM     33  C   UNL     1       0.913   3.865 -10.311  1.00  0.00     0.031 C 
ATOM     34  C   UNL     1       6.325   3.029  -8.738  1.00  0.00     0.029 A 
ATOM     35  C   UNL     1       5.198   3.351  -9.495  1.00  0.00     0.049 A 
ATOM     36  H   UNL     1       4.460   2.117 -11.038  1.00  0.00     0.167 HD
ATOM     37  C   UNL     1       3.095   4.589  -9.980  1.00  0.00     0.074 A 
ATOM     38  C   UNL     1       2.200   3.538 -10.459  1.00  0.00     0.031 C 
ATOM     39  C   UNL     1       4.398   4.551  -9.573  1.00  0.00     0.037 A 
BRANCH  26  40
ATOM     40  C   UNL     1       3.919  -0.814 -10.327  1.00  0.00     0.057 A 
ATOM     41  C   UNL     1       4.677  -0.908 -11.505  1.00  0.00     0.134 A 
ATOM     42  C   UNL     1       2.595  -1.294 -10.428  1.00  0.00     0.134 A 
ATOM     43  F   UNL     1       5.944  -0.470 -11.545  1.00  0.00    -0.206 F 
ATOM     44  C   UNL     1       4.135  -1.375 -12.710  1.00  0.00     0.040 A 
ATOM     45  C   UNL     1       2.060  -1.809 -11.610  1.00  0.00     0.040 A 
ATOM     46  F   UNL     1       1.712  -1.200  -9.427  1.00  0.00    -0.206 F 
ATOM     47  C   UNL     1       2.820  -1.820 -12.766  1.00  0.00     0.006 A 
ENDBRANCH  26  40
BRANCH  27  48
ATOM     48  C   UNL     1      -1.329   5.893  -8.911  1.00  0.00     0.057 A 
ATOM     49  C   UNL     1      -1.581   6.669 -10.049  1.00  0.00     0.134 A 
ATOM     50  C   UNL     1      -2.459   5.341  -8.279  1.00  0.00     0.134 A 
ATOM     51  F   UNL     1      -0.568   7.203 -10.746  1.00  0.00    -0.206 F 
ATOM     52  C   UNL     1      -2.878   6.870 -10.542  1.00  0.00     0.040 A 
ATOM     53  C   UNL     1      -3.759   5.542  -8.753  1.00  0.00     0.040 A 
ATOM     54  F   UNL     1      -2.337   4.516  -7.229  1.00  0.00    -0.206 F 
ATOM     55  C   UNL     1      -3.971   6.297  -9.898  1.00  0.00     0.006 A 
ENDBRANCH  27  48
BRANCH  39  56
ATOM     56  C   UNL     1       4.971   5.786  -8.930  1.00  0.00     0.057 A 
ATOM     57  C   UNL     1       4.514   6.324  -7.717  1.00  0.00     0.134 A 
ATOM     58  C   UNL     1       6.130   6.351  -9.473  1.00  0.00     0.134 A 
ATOM     59  F   UNL     1       3.477   5.782  -7.066  1.00  0.00    -0.206 F 
ATOM     60  C   UNL     1       5.154   7.403  -7.099  1.00  0.00     0.040 A 
ATOM     61  C   UNL     1       6.800   7.405  -8.847  1.00  0.00     0.040 A 
ATOM     62  F   UNL     1       6.663   5.849 -10.598  1.00  0.00    -0.206 F 
ATOM     63  C   UNL     1       6.306   7.942  -7.661  1.00  0.00     0.006 A 
ENDBRANCH  39  56
ENDBRANCH  13  14
ENDBRANCH   6   8
ENDBRANCH   5   6
ENDBRANCH   4   5
ENDBRANCH   3   4
ENDBRANCH   2   3
ENDBRANCH   1   2
BRANCH   1  64
ATOM     64  C   UNL     1       2.130  -1.312   2.013  1.00  0.00     0.261 C 
BRANCH  64  65
ATOM     65  O   UNL     1       3.127  -0.593   2.750  1.00  0.00    -0.458 OA
BRANCH  65  66
ATOM     66  C   UNL     1       3.303  -1.025   4.011  1.00  0.00     0.359 C 
ATOM     67  O   UNL     1       2.616  -1.880   4.572  1.00  0.00    -0.244 OA
BRANCH  66  68
ATOM     68  C   UNL     1       4.421  -0.350   4.710  1.00  0.00     0.179 A 
ATOM     69  N   UNL     1       4.030   0.056   5.967  1.00  0.00    -0.245 NA
ATOM     70  C   UNL     1       5.739  -0.198   4.278  1.00  0.00     0.161 A 
ATOM     71  C   UNL     1       4.948   0.668   6.736  1.00  0.00     0.132 A 
ATOM     72  N   UNL     1       6.654   0.423   5.100  1.00  0.00    -0.247 NA
ATOM     73  C   UNL     1       6.237   0.861   6.304  1.00  0.00     0.132 A 
BRANCH  70  74
ATOM     74  C   UNL     1       6.382  -0.449   2.954  1.00  0.00     0.276 C 
ATOM     75  O   UNL     1       6.938   0.530   2.428  1.00  0.00    -0.267 OA
ATOM     76  N   UNL     1       6.480  -1.610   2.213  1.00  0.00    -0.321 N 
ATOM     77  H   UNL     1       7.194  -1.564   1.538  1.00  0.00     0.170 HD
BRANCH  76  78
ATOM     78  C   UNL     1       5.808  -2.834   2.192  1.00  0.00     0.043 A 
ATOM     79  C   UNL     1       5.074  -3.325   3.254  1.00  0.00     0.028 A 
ATOM     80  C   UNL     1       5.783  -3.521   0.961  1.00  0.00     0.049 A 
ATOM     81  C   UNL     1       4.141  -4.335   3.039  1.00  0.00     0.032 A 
ATOM     82  C   UNL     1       4.863  -4.551   0.738  1.00  0.00     0.068 A 
ATOM     83  C   UNL     1       4.003  -4.911   1.770  1.00  0.00     0.085 A 
ATOM     84  Cl  UNL     1       4.886  -5.365  -0.783  1.00  0.00    -0.082 Cl
BRANCH  83  85
ATOM     85  N   UNL     1       2.885  -5.736   1.564  1.00  0.00    -0.220 N 
ATOM     86  C   UNL     1       2.453  -6.727   2.412  1.00  0.00     0.226 A 
ATOM     87  N   UNL     1       1.837  -5.286   0.828  1.00  0.00    -0.155 NA
ATOM     88  N   UNL     1       1.160  -6.905   2.291  1.00  0.00    -0.223 NA
ATOM     89  C   UNL     1       0.822  -5.987   1.341  1.00  0.00     0.246 A 
ENDBRANCH  83  85
ENDBRANCH  76  78
ENDBRANCH  70  74
ENDBRANCH  66  68
ENDBRANCH  65  66
ENDBRANCH  64  65
ENDBRANCH   1  64
TORSDOF 17
