REMARK SMILES CC[C@@H](C(=O)OCCOCCOC(=O)c1ccc(-c2c3nc(c(-c4c(F)cccc4F)c4ccc([nH]4)c(-c4c(F)cccc4F)c4nc(c(-c5c(F)cccc5F)c5ccc2[nH]5)C=C4)C=C3)cc1)[N@@H+]1CCc2ccc(N)cc2C1
REMARK SMILES IDX 9 1 8 2 7 3 6 4 4 5 5 6 3 7 2 8 1 9 69 10 70 11 79 12 71 14
REMARK SMILES IDX 78 15 72 16 77 17 73 18 75 19 74 20 76 21 10 24 11 25 12 26
REMARK SMILES IDX 13 27 14 28 15 29 16 30 68 31 17 32 67 33 18 34 19 35 20 36
REMARK SMILES IDX 61 37 21 38 66 39 60 40 62 41 22 42 65 43 59 44 58 45 23 47
REMARK SMILES IDX 49 48 32 49 48 50 33 51 36 52 47 53 63 54 34 55 35 56 46 58
REMARK SMILES IDX 64 59 37 60 24 61 25 62 30 63 26 64 27 65 29 66 31 67 28 68
REMARK SMILES IDX 50 69 51 70 56 71 52 72 53 73 55 74 57 75 54 76 38 77 39 78
REMARK SMILES IDX 44 79 40 80 41 81 43 82 45 83 42 84
REMARK H PARENT 69 13 76 22 76 23 62 46 36 57
REMARK Flexibility Score: inf
ROOT
ATOM      1  O   UNL     1      -1.246   4.126   2.905  1.00  0.00    -0.374 OA
ENDROOT
BRANCH   1   2
ATOM      2  C   UNL     1      -0.240   4.830   2.169  1.00  0.00     0.202 C 
BRANCH   2   3
ATOM      3  C   UNL     1       1.195   4.352   2.581  1.00  0.00     0.261 C 
BRANCH   3   4
ATOM      4  O   UNL     1       1.435   2.971   2.173  1.00  0.00    -0.459 OA
BRANCH   4   5
ATOM      5  C   UNL     1       2.238   2.194   2.960  1.00  0.00     0.364 C 
ATOM      6  O   UNL     1       3.200   2.661   3.566  1.00  0.00    -0.245 OA
BRANCH   5   7
ATOM      7  C   UNL     1       1.798   0.673   3.072  1.00  0.00     0.295 C 
BRANCH   7   8
ATOM      8  C   UNL     1       2.246  -0.321   1.962  1.00  0.00     0.074 C 
ATOM      9  C   UNL     1       2.925   0.192   0.706  1.00  0.00     0.011 C 
ENDBRANCH   7   8
BRANCH   7  10
ATOM     10  N   UNL     1       0.413   0.473   3.671  1.00  0.00    -0.319 N 
ATOM     11  C   UNL     1      -0.110  -0.918   3.720  1.00  0.00     0.268 C 
ATOM     12  C   UNL     1      -0.601   1.306   3.032  1.00  0.00     0.300 C 
ATOM     13  H   UNL     1       0.579   0.756   4.637  1.00  0.00     0.349 HD
ATOM     14  C   UNL     1      -1.334  -1.243   2.781  1.00  0.00     0.097 C 
ATOM     15  C   UNL     1      -0.822   0.854   1.614  1.00  0.00     0.012 A 
ATOM     16  C   UNL     1      -1.238  -0.473   1.484  1.00  0.00    -0.033 A 
ATOM     17  C   UNL     1      -0.433   1.565   0.478  1.00  0.00     0.035 A 
ATOM     18  C   UNL     1      -1.398  -1.026   0.217  1.00  0.00     0.006 A 
ATOM     19  C   UNL     1      -0.414   0.962  -0.774  1.00  0.00     0.032 A 
ATOM     20  C   UNL     1      -0.961  -0.311  -0.906  1.00  0.00     0.026 A 
BRANCH  19  21
ATOM     21  N   UNL     1       0.291   1.558  -1.805  1.00  0.00    -0.399 N 
ATOM     22  H   UNL     1       0.309   1.137  -2.695  1.00  0.00     0.156 HD
ATOM     23  H   UNL     1       0.773   2.401  -1.649  1.00  0.00     0.156 HD
ENDBRANCH  19  21
ENDBRANCH   7  10
ENDBRANCH   5   7
ENDBRANCH   4   5
ENDBRANCH   3   4
ENDBRANCH   2   3
ENDBRANCH   1   2
BRANCH   1  24
ATOM     24  C   UNL     1      -2.620   4.331   2.570  1.00  0.00     0.202 C 
BRANCH  24  25
ATOM     25  C   UNL     1      -3.133   3.630   1.306  1.00  0.00     0.261 C 
BRANCH  25  26
ATOM     26  O   UNL     1      -2.409   4.087   0.158  1.00  0.00    -0.460 OA
BRANCH  26  27
ATOM     27  C   UNL     1      -3.104   4.154  -0.996  1.00  0.00     0.338 C 
ATOM     28  O   UNL     1      -4.299   4.024  -1.165  1.00  0.00    -0.246 OA
BRANCH  27  29
ATOM     29  C   UNL     1      -2.129   4.324  -2.084  1.00  0.00     0.060 A 
ATOM     30  C   UNL     1      -1.426   5.520  -2.233  1.00  0.00     0.016 A 
ATOM     31  C   UNL     1      -1.946   3.271  -2.982  1.00  0.00     0.016 A 
ATOM     32  C   UNL     1      -0.574   5.682  -3.329  1.00  0.00     0.010 A 
ATOM     33  C   UNL     1      -1.048   3.414  -4.040  1.00  0.00     0.010 A 
ATOM     34  C   UNL     1      -0.396   4.639  -4.254  1.00  0.00    -0.014 A 
BRANCH  34  35
ATOM     35  C   UNL     1       0.321   4.889  -5.532  1.00  0.00     0.031 A 
ATOM     36  C   UNL     1      -0.480   4.971  -6.806  1.00  0.00     0.074 A 
ATOM     37  C   UNL     1       1.652   5.085  -5.566  1.00  0.00     0.049 A 
ATOM     38  N   UNL     1      -0.078   5.232  -8.024  1.00  0.00    -0.248 NA
ATOM     39  C   UNL     1      -1.927   4.720  -6.695  1.00  0.00     0.031 C 
ATOM     40  C   UNL     1       2.550   5.032  -4.413  1.00  0.00     0.029 A 
ATOM     41  N   UNL     1       2.481   5.381  -6.621  1.00  0.00    -0.354 N 
ATOM     42  C   UNL     1      -1.219   5.179  -8.815  1.00  0.00     0.074 A 
ATOM     43  C   UNL     1      -2.318   4.803  -7.956  1.00  0.00     0.031 C 
ATOM     44  C   UNL     1       3.802   5.305  -4.821  1.00  0.00     0.029 A 
ATOM     45  C   UNL     1       3.799   5.532  -6.266  1.00  0.00     0.049 A 
ATOM     46  H   UNL     1       2.159   5.475  -7.547  1.00  0.00     0.167 HD
ATOM     47  C   UNL     1      -1.353   5.450 -10.134  1.00  0.00     0.037 A 
ATOM     48  C   UNL     1       4.878   5.823  -7.019  1.00  0.00     0.037 A 
ATOM     49  C   UNL     1      -0.275   5.844 -10.996  1.00  0.00     0.049 A 
ATOM     50  C   UNL     1       4.713   6.067  -8.497  1.00  0.00     0.074 A 
ATOM     51  C   UNL     1      -0.322   6.174 -12.339  1.00  0.00     0.029 A 
ATOM     52  N   UNL     1       1.048   5.955 -10.600  1.00  0.00    -0.354 N 
ATOM     53  N   UNL     1       3.618   6.075  -9.218  1.00  0.00    -0.248 NA
ATOM     54  C   UNL     1       5.936   6.348  -9.266  1.00  0.00     0.031 C 
ATOM     55  C   UNL     1       0.981   6.445 -12.766  1.00  0.00     0.029 A 
ATOM     56  C   UNL     1       1.832   6.325 -11.679  1.00  0.00     0.049 A 
ATOM     57  H   UNL     1       1.381   5.796  -9.687  1.00  0.00     0.167 HD
ATOM     58  C   UNL     1       4.015   6.393 -10.512  1.00  0.00     0.074 A 
ATOM     59  C   UNL     1       5.450   6.577 -10.478  1.00  0.00     0.031 C 
ATOM     60  C   UNL     1       3.257   6.522 -11.628  1.00  0.00     0.037 A 
BRANCH  47  61
ATOM     61  C   UNL     1      -2.727   5.327 -10.720  1.00  0.00     0.057 A 
ATOM     62  C   UNL     1      -3.732   6.263 -10.442  1.00  0.00     0.134 A 
ATOM     63  C   UNL     1      -3.044   4.271 -11.582  1.00  0.00     0.134 A 
ATOM     64  F   UNL     1      -3.496   7.288  -9.609  1.00  0.00    -0.206 F 
ATOM     65  C   UNL     1      -5.013   6.138 -10.982  1.00  0.00     0.040 A 
ATOM     66  C   UNL     1      -4.313   4.149 -12.148  1.00  0.00     0.040 A 
ATOM     67  F   UNL     1      -2.125   3.343 -11.888  1.00  0.00    -0.206 F 
ATOM     68  C   UNL     1      -5.304   5.082 -11.843  1.00  0.00     0.006 A 
ENDBRANCH  47  61
BRANCH  48  69
ATOM     69  C   UNL     1       6.223   5.911  -6.397  1.00  0.00     0.057 A 
ATOM     70  C   UNL     1       6.891   7.136  -6.280  1.00  0.00     0.134 A 
ATOM     71  C   UNL     1       6.890   4.767  -5.942  1.00  0.00     0.134 A 
ATOM     72  F   UNL     1       6.315   8.264  -6.721  1.00  0.00    -0.206 F 
ATOM     73  C   UNL     1       8.182   7.218  -5.754  1.00  0.00     0.040 A 
ATOM     74  C   UNL     1       8.171   4.838  -5.393  1.00  0.00     0.040 A 
ATOM     75  F   UNL     1       6.304   3.564  -6.028  1.00  0.00    -0.206 F 
ATOM     76  C   UNL     1       8.824   6.066  -5.306  1.00  0.00     0.006 A 
ENDBRANCH  48  69
BRANCH  60  77
ATOM     77  C   UNL     1       3.949   6.915 -12.899  1.00  0.00     0.057 A 
ATOM     78  C   UNL     1       4.740   6.012 -13.619  1.00  0.00     0.134 A 
ATOM     79  C   UNL     1       3.762   8.192 -13.446  1.00  0.00     0.134 A 
ATOM     80  F   UNL     1       4.965   4.777 -13.144  1.00  0.00    -0.206 F 
ATOM     81  C   UNL     1       5.332   6.369 -14.832  1.00  0.00     0.040 A 
ATOM     82  C   UNL     1       4.329   8.552 -14.669  1.00  0.00     0.040 A 
ATOM     83  F   UNL     1       3.006   9.100 -12.811  1.00  0.00    -0.206 F 
ATOM     84  C   UNL     1       5.119   7.639 -15.364  1.00  0.00     0.006 A 
ENDBRANCH  60  77
ENDBRANCH  34  35
ENDBRANCH  27  29
ENDBRANCH  26  27
ENDBRANCH  25  26
ENDBRANCH  24  25
ENDBRANCH   1  24
TORSDOF 17
