REMARK SMILES CC(C)[C@@H](NS(=O)(=O)c1ccc(Cl)c([N+](=O)[O-])c1)C(=O)OCCOCCOC(=O)c1ccc(-c2c3nc(c(-c4c(F)cccc4F)c4ccc([nH]4)c(-c4c(F)cccc4F)c4nc(c(-c5c(F)cccc5F)c5ccc2[nH]5)C=C4)C=C3)cc1
REMARK SMILES IDX 23 1 22 2 21 3 19 4 20 5 4 6 2 7 1 8 3 9 5 10 6 12 7 13 8 14
REMARK SMILES IDX 9 15 10 16 18 17 11 18 14 19 12 20 13 21 15 22 16 23 17 24
REMARK SMILES IDX 24 25 25 26 26 27 27 28 28 29 29 30 30 31 31 32 83 33 32 34
REMARK SMILES IDX 82 35 33 36 34 37 35 38 76 39 36 40 81 41 75 42 77 43 37 44
REMARK SMILES IDX 80 45 74 46 73 47 38 49 64 50 47 51 63 52 48 53 51 54 62 55
REMARK SMILES IDX 78 56 49 57 50 58 61 60 79 61 52 62 39 63 40 64 45 65 41 66
REMARK SMILES IDX 42 67 44 68 46 69 43 70 65 71 66 72 71 73 67 74 68 75 70 76
REMARK SMILES IDX 72 77 69 78 53 79 54 80 59 81 55 82 56 83 58 84 60 85 57 86
REMARK H PARENT 5 11 77 48 51 59
REMARK Flexibility Score: inf
ROOT
ATOM      1  C   UNL     1      -1.717   4.510  -3.783  1.00  0.00     0.202 C 
ENDROOT
BRANCH   1   2
ATOM      2  C   UNL     1      -1.901   4.298  -2.277  1.00  0.00     0.261 C 
BRANCH   2   3
ATOM      3  O   UNL     1      -1.165   3.251  -1.629  1.00  0.00    -0.462 OA
BRANCH   3   4
ATOM      4  C   UNL     1      -1.799   2.042  -1.616  1.00  0.00     0.324 C 
ATOM      5  O   UNL     1      -2.763   1.764  -2.321  1.00  0.00    -0.250 OA
BRANCH   4   6
ATOM      6  C   UNL     1      -1.306   1.114  -0.504  1.00  0.00     0.182 C 
BRANCH   6   7
ATOM      7  C   UNL     1       0.225   1.112  -0.255  1.00  0.00     0.012 C 
ATOM      8  C   UNL     1       0.624  -0.090   0.619  1.00  0.00     0.009 C 
ATOM      9  C   UNL     1       1.047   1.040  -1.546  1.00  0.00     0.009 C 
ENDBRANCH   6   7
BRANCH   6  10
ATOM     10  N   UNL     1      -2.019   1.480   0.757  1.00  0.00    -0.197 NA
ATOM     11  H   UNL     1      -1.883   2.481   0.896  1.00  0.00     0.142 HD
BRANCH  10  12
ATOM     12  S   UNL     1      -3.677   1.185   0.881  1.00  0.00     0.241 S 
ATOM     13  O   UNL     1      -3.991   0.029   0.079  1.00  0.00    -0.207 OA
ATOM     14  O   UNL     1      -3.974   1.235   2.296  1.00  0.00    -0.207 OA
BRANCH  12  15
ATOM     15  C   UNL     1      -4.421   2.630   0.161  1.00  0.00     0.089 A 
ATOM     16  C   UNL     1      -4.185   3.879   0.742  1.00  0.00     0.024 A 
ATOM     17  C   UNL     1      -5.196   2.518  -0.998  1.00  0.00     0.109 A 
ATOM     18  C   UNL     1      -4.706   5.031   0.141  1.00  0.00     0.029 A 
ATOM     19  C   UNL     1      -5.670   3.686  -1.616  1.00  0.00     0.289 A 
ATOM     20  C   UNL     1      -5.446   4.945  -1.047  1.00  0.00     0.118 A 
ATOM     21  Cl  UNL     1      -6.022   6.432  -1.710  1.00  0.00    -0.077 Cl
BRANCH  19  22
ATOM     22  N   UNL     1      -6.315   3.543  -2.913  1.00  0.00     0.064 N 
ATOM     23  O   UNL     1      -7.163   2.646  -3.020  1.00  0.00    -0.258 OA
ATOM     24  O   UNL     1      -5.946   4.291  -3.827  1.00  0.00    -0.258 OA
ENDBRANCH  19  22
ENDBRANCH  12  15
ENDBRANCH  10  12
ENDBRANCH   6  10
ENDBRANCH   4   6
ENDBRANCH   3   4
ENDBRANCH   2   3
ENDBRANCH   1   2
BRANCH   1  25
ATOM     25  O   UNL     1      -1.709   3.376  -4.631  1.00  0.00    -0.374 OA
BRANCH  25  26
ATOM     26  C   UNL     1      -0.560   2.533  -4.625  1.00  0.00     0.202 C 
BRANCH  26  27
ATOM     27  C   UNL     1       0.783   3.188  -4.953  1.00  0.00     0.261 C 
BRANCH  27  28
ATOM     28  O   UNL     1       1.202   4.091  -3.908  1.00  0.00    -0.460 OA
BRANCH  28  29
ATOM     29  C   UNL     1       1.604   5.303  -4.360  1.00  0.00     0.338 C 
ATOM     30  O   UNL     1       1.762   5.641  -5.522  1.00  0.00    -0.246 OA
BRANCH  29  31
ATOM     31  C   UNL     1       1.683   6.281  -3.261  1.00  0.00     0.060 A 
ATOM     32  C   UNL     1       0.891   7.431  -3.372  1.00  0.00     0.016 A 
ATOM     33  C   UNL     1       2.663   6.182  -2.272  1.00  0.00     0.016 A 
ATOM     34  C   UNL     1       1.153   8.536  -2.567  1.00  0.00     0.010 A 
ATOM     35  C   UNL     1       2.929   7.295  -1.466  1.00  0.00     0.010 A 
ATOM     36  C   UNL     1       2.225   8.499  -1.666  1.00  0.00    -0.014 A 
BRANCH  36  37
ATOM     37  C   UNL     1       2.765   9.787  -1.160  1.00  0.00     0.031 A 
ATOM     38  C   UNL     1       3.947  10.397  -1.872  1.00  0.00     0.074 A 
ATOM     39  C   UNL     1       2.171  10.454  -0.156  1.00  0.00     0.049 A 
ATOM     40  N   UNL     1       4.572  11.523  -1.636  1.00  0.00    -0.248 NA
ATOM     41  C   UNL     1       4.495   9.635  -3.007  1.00  0.00     0.031 C 
ATOM     42  C   UNL     1       0.990  10.003   0.577  1.00  0.00     0.029 A 
ATOM     43  N   UNL     1       2.482  11.664   0.412  1.00  0.00    -0.354 N 
ATOM     44  C   UNL     1       5.584  11.600  -2.586  1.00  0.00     0.074 A 
ATOM     45  C   UNL     1       5.515  10.393  -3.380  1.00  0.00     0.031 C 
ATOM     46  C   UNL     1       0.675  10.928   1.502  1.00  0.00     0.029 A 
ATOM     47  C   UNL     1       1.644  12.021   1.439  1.00  0.00     0.049 A 
ATOM     48  H   UNL     1       3.234  12.223   0.112  1.00  0.00     0.167 HD
ATOM     49  C   UNL     1       6.483  12.591  -2.793  1.00  0.00     0.037 A 
ATOM     50  C   UNL     1       1.664  13.104   2.240  1.00  0.00     0.037 A 
ATOM     51  C   UNL     1       6.549  13.800  -2.019  1.00  0.00     0.049 A 
ATOM     52  C   UNL     1       2.712  14.166   2.031  1.00  0.00     0.074 A 
ATOM     53  C   UNL     1       7.421  14.866  -2.156  1.00  0.00     0.029 A 
ATOM     54  N   UNL     1       5.705  14.105  -0.963  1.00  0.00    -0.354 N 
ATOM     55  N   UNL     1       3.658  14.229   1.125  1.00  0.00    -0.248 NA
ATOM     56  C   UNL     1       2.689  15.311   2.954  1.00  0.00     0.031 C 
ATOM     57  C   UNL     1       7.129  15.800  -1.155  1.00  0.00     0.029 A 
ATOM     58  C   UNL     1       6.047  15.334  -0.426  1.00  0.00     0.049 A 
ATOM     59  H   UNL     1       4.971  13.532  -0.642  1.00  0.00     0.167 HD
ATOM     60  C   UNL     1       4.319  15.432   1.347  1.00  0.00     0.074 A 
ATOM     61  C   UNL     1       3.662  16.070   2.469  1.00  0.00     0.031 C 
ATOM     62  C   UNL     1       5.373  15.963   0.681  1.00  0.00     0.037 A 
BRANCH  49  63
ATOM     63  C   UNL     1       7.485  12.394  -3.893  1.00  0.00     0.057 A 
ATOM     64  C   UNL     1       7.127  12.481  -5.244  1.00  0.00     0.134 A 
ATOM     65  C   UNL     1       8.828  12.135  -3.594  1.00  0.00     0.134 A 
ATOM     66  F   UNL     1       5.853  12.710  -5.597  1.00  0.00    -0.206 F 
ATOM     67  C   UNL     1       8.067  12.297  -6.260  1.00  0.00     0.040 A 
ATOM     68  C   UNL     1       9.781  11.973  -4.600  1.00  0.00     0.040 A 
ATOM     69  F   UNL     1       9.236  12.041  -2.320  1.00  0.00    -0.206 F 
ATOM     70  C   UNL     1       9.400  12.049  -5.939  1.00  0.00     0.006 A 
ENDBRANCH  49  63
BRANCH  50  71
ATOM     71  C   UNL     1       0.660  13.243   3.325  1.00  0.00     0.057 A 
ATOM     72  C   UNL     1      -0.340  14.221   3.270  1.00  0.00     0.134 A 
ATOM     73  C   UNL     1       0.696  12.419   4.456  1.00  0.00     0.134 A 
ATOM     74  F   UNL     1      -0.410  15.056   2.224  1.00  0.00    -0.206 F 
ATOM     75  C   UNL     1      -1.257  14.386   4.309  1.00  0.00     0.040 A 
ATOM     76  C   UNL     1      -0.229  12.557   5.491  1.00  0.00     0.040 A 
ATOM     77  F   UNL     1       1.630  11.463   4.567  1.00  0.00    -0.206 F 
ATOM     78  C   UNL     1      -1.205  13.549   5.423  1.00  0.00     0.006 A 
ENDBRANCH  50  71
BRANCH  62  79
ATOM     79  C   UNL     1       5.855  17.316   1.114  1.00  0.00     0.057 A 
ATOM     80  C   UNL     1       6.570  17.502   2.303  1.00  0.00     0.134 A 
ATOM     81  C   UNL     1       5.637  18.440   0.306  1.00  0.00     0.134 A 
ATOM     82  F   UNL     1       6.803  16.468   3.125  1.00  0.00    -0.206 F 
ATOM     83  C   UNL     1       7.033  18.762   2.685  1.00  0.00     0.040 A 
ATOM     84  C   UNL     1       6.116  19.701   0.666  1.00  0.00     0.040 A 
ATOM     85  F   UNL     1       4.968  18.328  -0.851  1.00  0.00    -0.206 F 
ATOM     86  C   UNL     1       6.811  19.865   1.862  1.00  0.00     0.006 A 
ENDBRANCH  62  79
ENDBRANCH  36  37
ENDBRANCH  29  31
ENDBRANCH  28  29
ENDBRANCH  27  28
ENDBRANCH  26  27
ENDBRANCH  25  26
ENDBRANCH   1  25
TORSDOF 19
