REMARK SMILES COc1ccc(NC(=O)N[C@@H]2C=C[C@H](C(=O)OCCOCCOC(=O)c3ccc(-c4c5nc(c(-c6c(F)cccc6F)c6ccc([nH]6)c(-c6c(F)cccc6F)c6nc(c(-c7c(F)cccc7F)c7ccc4[nH]7)C=C6)C=C5)cc3)C2)c(C)c1
REMARK SMILES IDX 19 1 18 2 17 3 15 4 16 5 14 6 11 7 12 8 80 9 13 10 10 11
REMARK SMILES IDX 7 12 8 13 9 15 6 17 3 18 4 19 83 20 5 21 81 22 82 23 2 24
REMARK SMILES IDX 1 25 20 26 21 27 22 28 23 29 24 30 25 31 26 32 27 33 79 34
REMARK SMILES IDX 28 35 78 36 29 37 30 38 31 39 72 40 32 41 77 42 71 43 73 44
REMARK SMILES IDX 33 45 76 46 70 47 69 48 34 50 60 51 43 52 59 53 44 54 47 55
REMARK SMILES IDX 58 56 74 57 45 58 46 59 57 61 75 62 48 63 35 64 36 65 41 66
REMARK SMILES IDX 37 67 38 68 40 69 42 70 39 71 61 72 62 73 67 74 63 75 64 76
REMARK SMILES IDX 66 77 68 78 65 79 49 80 50 81 55 82 51 83 52 84 54 85 56 86
REMARK SMILES IDX 53 87
REMARK H PARENT 7 14 10 16 73 49 47 60
REMARK Flexibility Score: inf
ROOT
ATOM      1  C   UNL     1       3.379   0.859  -0.445  1.00  0.00     0.202 C 
ENDROOT
BRANCH   1   2
ATOM      2  C   UNL     1       2.454   0.039   0.406  1.00  0.00     0.261 C 
BRANCH   2   3
ATOM      3  O   UNL     1       2.936  -0.496   1.637  1.00  0.00    -0.463 OA
BRANCH   3   4
ATOM      4  C   UNL     1       2.594  -1.817   1.727  1.00  0.00     0.312 C 
ATOM      5  O   UNL     1       1.821  -2.342   0.925  1.00  0.00    -0.252 OA
BRANCH   4   6
ATOM      6  C   UNL     1       3.597  -2.738   2.716  1.00  0.00     0.124 C 
ATOM      7  C   UNL     1       4.931  -5.399   1.324  1.00  0.00     0.107 C 
ATOM      8  C   UNL     1       3.059  -5.602   1.860  1.00  0.00    -0.006 C 
ATOM      9  C   UNL     1       5.571  -3.655   2.116  1.00  0.00     0.048 C 
ATOM     10  C   UNL     1       2.377  -4.348   2.524  1.00  0.00    -0.014 C 
BRANCH   7  11
ATOM     11  N   UNL     1       4.964  -5.144  -0.296  1.00  0.00    -0.332 N 
ATOM     12  N   UNL     1       4.997  -2.667  -0.604  1.00  0.00    -0.308 N 
ATOM     13  C   UNL     1       4.923  -3.984  -1.128  1.00  0.00     0.319 C 
ATOM     14  H   UNL     1       5.287  -1.937  -1.197  1.00  0.00     0.171 HD
ATOM     15  O   UNL     1       4.815  -4.143  -2.348  1.00  0.00    -0.248 OA
ATOM     16  H   UNL     1       5.026  -5.980  -0.811  1.00  0.00     0.165 HD
BRANCH  12  17
ATOM     17  C   UNL     1       4.672  -2.367   0.729  1.00  0.00     0.046 A 
ATOM     18  C   UNL     1       5.128  -3.271   4.235  1.00  0.00     0.119 A 
ATOM     19  C   UNL     1       4.324  -4.359   3.199  1.00  0.00     0.048 A 
ATOM     20  C   UNL     1       5.610  -1.859   3.560  1.00  0.00     0.052 A 
ATOM     21  C   UNL     1       3.965  -3.731   1.301  1.00  0.00     0.030 A 
ATOM     22  C   UNL     1       5.425  -1.403   1.914  1.00  0.00    -0.024 A 
ATOM     23  C   UNL     1       5.786   0.057   1.809  1.00  0.00     0.047 C 
BRANCH  18  24
ATOM     24  O   UNL     1       5.145  -3.607   5.544  1.00  0.00    -0.497 OA
ATOM     25  C   UNL     1       5.980  -2.841   6.397  1.00  0.00     0.278 C 
ENDBRANCH  18  24
ENDBRANCH  12  17
ENDBRANCH   7  11
ENDBRANCH   4   6
ENDBRANCH   3   4
ENDBRANCH   2   3
ENDBRANCH   1   2
BRANCH   1  26
ATOM     26  O   UNL     1       4.606   0.384  -0.945  1.00  0.00    -0.374 OA
BRANCH  26  27
ATOM     27  C   UNL     1       5.410   1.480  -1.465  1.00  0.00     0.202 C 
BRANCH  27  28
ATOM     28  C   UNL     1       5.113   2.940  -0.958  1.00  0.00     0.261 C 
BRANCH  28  29
ATOM     29  O   UNL     1       3.789   3.389  -1.403  1.00  0.00    -0.460 OA
BRANCH  29  30
ATOM     30  C   UNL     1       2.962   4.002  -0.493  1.00  0.00     0.338 C 
ATOM     31  O   UNL     1       3.334   4.565   0.524  1.00  0.00    -0.246 OA
BRANCH  30  32
ATOM     32  C   UNL     1       1.532   3.546  -0.699  1.00  0.00     0.060 A 
ATOM     33  C   UNL     1       0.667   3.515   0.403  1.00  0.00     0.016 A 
ATOM     34  C   UNL     1       1.171   2.807  -1.823  1.00  0.00     0.016 A 
ATOM     35  C   UNL     1      -0.312   2.508   0.502  1.00  0.00     0.010 A 
ATOM     36  C   UNL     1       0.207   1.795  -1.701  1.00  0.00     0.010 A 
ATOM     37  C   UNL     1      -0.375   1.497  -0.460  1.00  0.00    -0.014 A 
BRANCH  37  38
ATOM     38  C   UNL     1      -0.725   0.075  -0.097  1.00  0.00     0.031 A 
ATOM     39  C   UNL     1      -1.036  -0.930  -1.153  1.00  0.00     0.074 A 
ATOM     40  C   UNL     1      -0.520  -0.471   1.136  1.00  0.00     0.049 A 
ATOM     41  N   UNL     1      -2.147  -1.589  -1.276  1.00  0.00    -0.248 NA
ATOM     42  C   UNL     1      -0.036  -1.268  -2.174  1.00  0.00     0.031 C 
ATOM     43  C   UNL     1      -0.588  -1.895   1.471  1.00  0.00     0.029 A 
ATOM     44  N   UNL     1      -0.099   0.094   2.337  1.00  0.00    -0.354 N 
ATOM     45  C   UNL     1      -1.910  -2.541  -2.259  1.00  0.00     0.074 A 
ATOM     46  C   UNL     1      -0.709  -2.119  -2.948  1.00  0.00     0.031 C 
ATOM     47  C   UNL     1      -0.339  -2.091   2.779  1.00  0.00     0.029 A 
ATOM     48  C   UNL     1      -0.255  -0.794   3.409  1.00  0.00     0.049 A 
ATOM     49  H   UNL     1       0.263   1.005   2.422  1.00  0.00     0.167 HD
ATOM     50  C   UNL     1      -2.322  -3.841  -2.161  1.00  0.00     0.037 A 
ATOM     51  C   UNL     1      -1.011  -0.431   4.486  1.00  0.00     0.037 A 
ATOM     52  C   UNL     1      -2.555  -4.203  -0.759  1.00  0.00     0.049 A 
ATOM     53  C   UNL     1      -2.355  -1.113   4.331  1.00  0.00     0.074 A 
ATOM     54  C   UNL     1      -1.836  -5.009   0.113  1.00  0.00     0.029 A 
ATOM     55  N   UNL     1      -3.456  -3.493   0.028  1.00  0.00    -0.354 N 
ATOM     56  N   UNL     1      -2.760  -1.572   3.174  1.00  0.00    -0.248 NA
ATOM     57  C   UNL     1      -3.247  -1.516   5.413  1.00  0.00     0.031 C 
ATOM     58  C   UNL     1      -2.304  -4.759   1.434  1.00  0.00     0.029 A 
ATOM     59  C   UNL     1      -3.304  -3.798   1.371  1.00  0.00     0.049 A 
ATOM     60  H   UNL     1      -4.117  -2.854  -0.325  1.00  0.00     0.167 HD
ATOM     61  C   UNL     1      -3.769  -2.455   3.355  1.00  0.00     0.074 A 
ATOM     62  C   UNL     1      -4.120  -2.308   4.756  1.00  0.00     0.031 C 
ATOM     63  C   UNL     1      -4.231  -3.268   2.365  1.00  0.00     0.037 A 
BRANCH  50  64
ATOM     64  C   UNL     1      -2.131  -4.867  -3.279  1.00  0.00     0.057 A 
ATOM     65  C   UNL     1      -2.279  -6.249  -3.052  1.00  0.00     0.134 A 
ATOM     66  C   UNL     1      -1.901  -4.535  -4.633  1.00  0.00     0.134 A 
ATOM     67  F   UNL     1      -2.639  -6.729  -1.855  1.00  0.00    -0.206 F 
ATOM     68  C   UNL     1      -2.113  -7.217  -4.058  1.00  0.00     0.040 A 
ATOM     69  C   UNL     1      -1.688  -5.493  -5.640  1.00  0.00     0.040 A 
ATOM     70  F   UNL     1      -1.921  -3.261  -5.056  1.00  0.00    -0.206 F 
ATOM     71  C   UNL     1      -1.789  -6.844  -5.353  1.00  0.00     0.006 A 
ENDBRANCH  50  64
BRANCH  51  72
ATOM     72  C   UNL     1      -0.622   0.941   4.931  1.00  0.00     0.057 A 
ATOM     73  C   UNL     1       0.677   1.037   5.486  1.00  0.00     0.134 A 
ATOM     74  C   UNL     1      -1.103   2.078   4.275  1.00  0.00     0.134 A 
ATOM     75  F   UNL     1       1.195  -0.002   6.162  1.00  0.00    -0.206 F 
ATOM     76  C   UNL     1       1.535   2.102   5.189  1.00  0.00     0.040 A 
ATOM     77  C   UNL     1      -0.254   3.163   3.996  1.00  0.00     0.040 A 
ATOM     78  F   UNL     1      -2.314   2.070   3.701  1.00  0.00    -0.206 F 
ATOM     79  C   UNL     1       1.085   3.144   4.389  1.00  0.00     0.006 A 
ENDBRANCH  51  72
BRANCH  63  80
ATOM     80  C   UNL     1      -5.676  -3.628   2.278  1.00  0.00     0.057 A 
ATOM     81  C   UNL     1      -6.672  -2.766   2.758  1.00  0.00     0.134 A 
ATOM     82  C   UNL     1      -6.113  -4.710   1.492  1.00  0.00     0.134 A 
ATOM     83  F   UNL     1      -6.370  -1.635   3.412  1.00  0.00    -0.206 F 
ATOM     84  C   UNL     1      -8.025  -2.998   2.526  1.00  0.00     0.040 A 
ATOM     85  C   UNL     1      -7.460  -4.917   1.205  1.00  0.00     0.040 A 
ATOM     86  F   UNL     1      -5.253  -5.575   0.935  1.00  0.00    -0.206 F 
ATOM     87  C   UNL     1      -8.422  -4.070   1.738  1.00  0.00     0.006 A 
ENDBRANCH  63  80
ENDBRANCH  37  38
ENDBRANCH  30  32
ENDBRANCH  29  30
ENDBRANCH  28  29
ENDBRANCH  27  28
ENDBRANCH  26  27
ENDBRANCH   1  26
TORSDOF 17
