REMARK SMILES CC[C@@H](C)[C@H](NC(=O)[C@H]1CCCN(S(=O)(=O)c2ccccc2)C1)C(=O)OCCOCCOC(=O)c1ccc(-c2c3nc(c(-c4c(F)cccc4F)c4ccc([nH]4)c(-c4c(F)cccc4F)c4nc(c(-c5c(F)cccc5F)c5ccc2[nH]5)C=C4)C=C3)cc1
REMARK SMILES IDX 28 1 27 2 26 3 24 4 25 5 5 6 3 7 4 8 2 9 1 10 6 11 7 12 8 14
REMARK SMILES IDX 9 15 10 16 23 17 11 18 13 19 12 20 14 21 15 22 16 23 17 24
REMARK SMILES IDX 18 25 22 26 19 27 21 28 20 29 29 30 30 31 31 32 32 33 33 34
REMARK SMILES IDX 34 35 35 36 36 37 88 38 37 39 87 40 38 41 39 42 40 43 81 44
REMARK SMILES IDX 41 45 86 46 80 47 82 48 42 49 85 50 79 51 78 52 43 54 69 55
REMARK SMILES IDX 52 56 68 57 53 58 56 59 67 60 83 61 54 62 55 63 66 65 84 66
REMARK SMILES IDX 57 67 44 68 45 69 50 70 46 71 47 72 49 73 51 74 48 75 70 76
REMARK SMILES IDX 71 77 76 78 72 79 73 80 75 81 77 82 74 83 58 84 59 85 64 86
REMARK SMILES IDX 60 87 61 88 63 89 65 90 62 91
REMARK H PARENT 6 13 82 53 56 64
REMARK Flexibility Score: inf
ROOT
ATOM      1  C   UNL     1       0.399  -0.115   4.633  1.00  0.00     0.202 C 
ENDROOT
BRANCH   1   2
ATOM      2  C   UNL     1       0.852   1.465   4.445  1.00  0.00     0.261 C 
BRANCH   2   3
ATOM      3  O   UNL     1       2.238   2.505   5.279  1.00  0.00    -0.462 OA
BRANCH   3   4
ATOM      4  C   UNL     1       3.084   3.172   6.229  1.00  0.00     0.328 C 
ATOM      5  O   UNL     1       2.776   3.458   7.387  1.00  0.00    -0.250 OA
BRANCH   4   6
ATOM      6  C   UNL     1       4.623   3.248   5.845  1.00  0.00     0.195 C 
BRANCH   6   7
ATOM      7  C   UNL     1       5.142   4.692   6.042  1.00  0.00     0.019 C 
ATOM      8  C   UNL     1       5.241   5.072   7.522  1.00  0.00     0.010 C 
BRANCH   7   9
ATOM      9  C   UNL     1       4.270   5.611   5.182  1.00  0.00     0.002 C 
ATOM     10  C   UNL     1       4.473   7.094   5.325  1.00  0.00     0.004 C 
ENDBRANCH   7   9
ENDBRANCH   6   7
BRANCH   6  11
ATOM     11  N   UNL     1       5.193   2.749   4.592  1.00  0.00    -0.342 N 
ATOM     12  C   UNL     1       4.554   2.240   3.521  1.00  0.00     0.225 C 
ATOM     13  H   UNL     1       6.174   2.791   4.523  1.00  0.00     0.164 HD
ATOM     14  O   UNL     1       5.137   2.114   2.448  1.00  0.00    -0.275 OA
BRANCH  12  15
ATOM     15  C   UNL     1       3.135   1.839   3.709  1.00  0.00     0.094 C 
ATOM     16  C   UNL     1       2.994   0.770   5.315  1.00  0.00     0.016 C 
ATOM     17  C   UNL     1       2.093   3.418   3.511  1.00  0.00     0.116 C 
ATOM     18  C   UNL     1       1.600   1.226   6.614  1.00  0.00     0.018 C 
ATOM     19  N   UNL     1       0.735   3.788   4.739  1.00  0.00    -0.197 NA
ATOM     20  C   UNL     1       0.544   2.831   6.352  1.00  0.00     0.102 C 
BRANCH  19  21
ATOM     21  S   UNL     1       0.293   5.448   4.765  1.00  0.00     0.243 S 
ATOM     22  O   UNL     1       0.839   6.062   5.962  1.00  0.00    -0.207 OA
ATOM     23  O   UNL     1       0.584   5.982   3.454  1.00  0.00    -0.207 OA
BRANCH  21  24
ATOM     24  C   UNL     1      -1.483   5.431   4.944  1.00  0.00     0.082 A 
ATOM     25  C   UNL     1      -2.292   5.882   3.897  1.00  0.00     0.022 A 
ATOM     26  C   UNL     1      -2.069   5.054   6.149  1.00  0.00     0.022 A 
ATOM     27  C   UNL     1      -3.683   5.872   4.013  1.00  0.00     0.001 A 
ATOM     28  C   UNL     1      -3.462   5.037   6.267  1.00  0.00     0.001 A 
ATOM     29  C   UNL     1      -4.268   5.431   5.196  1.00  0.00     0.000 A 
ENDBRANCH  21  24
ENDBRANCH  19  21
ENDBRANCH  12  15
ENDBRANCH   6  11
ENDBRANCH   4   6
ENDBRANCH   3   4
ENDBRANCH   2   3
ENDBRANCH   1   2
BRANCH   1  30
ATOM     30  O   UNL     1       1.202  -1.111   5.239  1.00  0.00    -0.374 OA
BRANCH  30  31
ATOM     31  C   UNL     1       1.871  -2.146   4.516  1.00  0.00     0.202 C 
BRANCH  31  32
ATOM     32  C   UNL     1       2.580  -1.901   3.163  1.00  0.00     0.261 C 
BRANCH  32  33
ATOM     33  O   UNL     1       2.049  -0.842   2.360  1.00  0.00    -0.460 OA
BRANCH  33  34
ATOM     34  C   UNL     1       1.024  -1.158   1.542  1.00  0.00     0.338 C 
ATOM     35  O   UNL     1       0.496  -2.249   1.427  1.00  0.00    -0.246 OA
BRANCH  34  36
ATOM     36  C   UNL     1       0.476   0.098   0.978  1.00  0.00     0.060 A 
ATOM     37  C   UNL     1      -0.848   0.427   1.294  1.00  0.00     0.016 A 
ATOM     38  C   UNL     1       1.225   0.930   0.141  1.00  0.00     0.016 A 
ATOM     39  C   UNL     1      -1.449   1.552   0.730  1.00  0.00     0.010 A 
ATOM     40  C   UNL     1       0.605   2.038  -0.460  1.00  0.00     0.010 A 
ATOM     41  C   UNL     1      -0.750   2.324  -0.207  1.00  0.00    -0.014 A 
BRANCH  41  42
ATOM     42  C   UNL     1      -1.531   3.217  -1.106  1.00  0.00     0.031 A 
ATOM     43  C   UNL     1      -2.042   2.643  -2.399  1.00  0.00     0.074 A 
ATOM     44  C   UNL     1      -1.825   4.492  -0.796  1.00  0.00     0.049 A 
ATOM     45  N   UNL     1      -2.767   3.208  -3.330  1.00  0.00    -0.248 NA
ATOM     46  C   UNL     1      -1.665   1.251  -2.689  1.00  0.00     0.031 C 
ATOM     47  C   UNL     1      -1.363   5.192   0.392  1.00  0.00     0.029 A 
ATOM     48  N   UNL     1      -2.581   5.426  -1.468  1.00  0.00    -0.354 N 
ATOM     49  C   UNL     1      -2.902   2.256  -4.330  1.00  0.00     0.074 A 
ATOM     50  C   UNL     1      -2.179   1.079  -3.896  1.00  0.00     0.031 C 
ATOM     51  C   UNL     1      -1.854   6.444   0.370  1.00  0.00     0.029 A 
ATOM     52  C   UNL     1      -2.678   6.633  -0.817  1.00  0.00     0.049 A 
ATOM     53  H   UNL     1      -3.013   5.247  -2.335  1.00  0.00     0.167 HD
ATOM     54  C   UNL     1      -3.558   2.352  -5.509  1.00  0.00     0.037 A 
ATOM     55  C   UNL     1      -3.348   7.761  -1.131  1.00  0.00     0.037 A 
ATOM     56  C   UNL     1      -4.269   3.521  -5.956  1.00  0.00     0.049 A 
ATOM     57  C   UNL     1      -4.089   7.838  -2.440  1.00  0.00     0.074 A 
ATOM     58  C   UNL     1      -4.976   3.697  -7.133  1.00  0.00     0.029 A 
ATOM     59  N   UNL     1      -4.352   4.715  -5.258  1.00  0.00    -0.354 N 
ATOM     60  N   UNL     1      -4.245   6.915  -3.357  1.00  0.00    -0.248 NA
ATOM     61  C   UNL     1      -4.721   9.125  -2.773  1.00  0.00     0.031 C 
ATOM     62  C   UNL     1      -5.438   5.016  -7.174  1.00  0.00     0.029 A 
ATOM     63  C   UNL     1      -5.079   5.641  -5.991  1.00  0.00     0.049 A 
ATOM     64  H   UNL     1      -3.954   4.882  -4.373  1.00  0.00     0.167 HD
ATOM     65  C   UNL     1      -4.991   7.506  -4.369  1.00  0.00     0.074 A 
ATOM     66  C   UNL     1      -5.293   8.854  -3.937  1.00  0.00     0.031 C 
ATOM     67  C   UNL     1      -5.376   6.982  -5.559  1.00  0.00     0.037 A 
BRANCH  54  68
ATOM     68  C   UNL     1      -3.490   1.166  -6.425  1.00  0.00     0.057 A 
ATOM     69  C   UNL     1      -4.149  -0.036  -6.139  1.00  0.00     0.134 A 
ATOM     70  C   UNL     1      -2.759   1.236  -7.619  1.00  0.00     0.134 A 
ATOM     71  F   UNL     1      -4.847  -0.175  -5.002  1.00  0.00    -0.206 F 
ATOM     72  C   UNL     1      -4.063  -1.135  -6.995  1.00  0.00     0.040 A 
ATOM     73  C   UNL     1      -2.692   0.155  -8.497  1.00  0.00     0.040 A 
ATOM     74  F   UNL     1      -2.104   2.358  -7.952  1.00  0.00    -0.206 F 
ATOM     75  C   UNL     1      -3.339  -1.038  -8.182  1.00  0.00     0.006 A 
ENDBRANCH  54  68
BRANCH  55  76
ATOM     76  C   UNL     1      -3.372   8.922  -0.195  1.00  0.00     0.057 A 
ATOM     77  C   UNL     1      -4.570   9.344   0.399  1.00  0.00     0.134 A 
ATOM     78  C   UNL     1      -2.220   9.658   0.105  1.00  0.00     0.134 A 
ATOM     79  F   UNL     1      -5.718   8.703   0.133  1.00  0.00    -0.206 F 
ATOM     80  C   UNL     1      -4.625  10.461   1.236  1.00  0.00     0.040 A 
ATOM     81  C   UNL     1      -2.252  10.752   0.973  1.00  0.00     0.040 A 
ATOM     82  F   UNL     1      -1.040   9.318  -0.434  1.00  0.00    -0.206 F 
ATOM     83  C   UNL     1      -3.459  11.164   1.532  1.00  0.00     0.006 A 
ENDBRANCH  55  76
BRANCH  67  84
ATOM     84  C   UNL     1      -6.188   7.857  -6.471  1.00  0.00     0.057 A 
ATOM     85  C   UNL     1      -5.635   8.967  -7.125  1.00  0.00     0.134 A 
ATOM     86  C   UNL     1      -7.534   7.564  -6.727  1.00  0.00     0.134 A 
ATOM     87  F   UNL     1      -4.355   9.311  -6.917  1.00  0.00    -0.206 F 
ATOM     88  C   UNL     1      -6.398   9.768  -7.976  1.00  0.00     0.040 A 
ATOM     89  C   UNL     1      -8.298   8.340  -7.601  1.00  0.00     0.040 A 
ATOM     90  F   UNL     1      -8.125   6.511  -6.144  1.00  0.00    -0.206 F 
ATOM     91  C   UNL     1      -7.732   9.451  -8.222  1.00  0.00     0.006 A 
ENDBRANCH  67  84
ENDBRANCH  41  42
ENDBRANCH  34  36
ENDBRANCH  33  34
ENDBRANCH  32  33
ENDBRANCH  31  32
ENDBRANCH  30  31
ENDBRANCH   1  30
TORSDOF 20
