REMARK SMILES Cc1nc(C)c(C(=O)N[C@@H](Cc2ccccc2)C(=O)OCCOCCOC(=O)c2ccc(-c3c4nc(c(-c5c(F)cccc5F)c5ccc([nH]5)c(-c5c(F)cccc5F)c5nc(c(-c6c(F)cccc6F)c6ccc3[nH]6)C=C5)C=C4)cc2)s1
REMARK SMILES IDX 23 1 22 2 21 3 20 4 18 5 19 6 10 7 9 8 7 9 8 10 6 12 1 13
REMARK SMILES IDX 2 14 3 15 83 16 4 17 5 18 11 19 12 20 13 21 17 22 14 23
REMARK SMILES IDX 16 24 15 25 24 26 25 27 26 28 27 29 28 30 29 31 30 32 82 33
REMARK SMILES IDX 31 34 81 35 32 36 33 37 34 38 75 39 35 40 80 41 74 42 76 43
REMARK SMILES IDX 36 44 79 45 73 46 72 47 37 49 63 50 46 51 62 52 47 53 50 54
REMARK SMILES IDX 61 55 77 56 48 57 49 58 60 60 78 61 51 62 38 63 39 64 44 65
REMARK SMILES IDX 40 66 41 67 43 68 45 69 42 70 64 71 65 72 70 73 66 74 67 75
REMARK SMILES IDX 69 76 71 77 68 78 52 79 53 80 58 81 54 82 55 83 57 84 59 85
REMARK SMILES IDX 56 86
REMARK H PARENT 9 11 76 48 50 59
REMARK Flexibility Score: inf
ROOT
ATOM      1  O   UNL     1       1.267  -4.268  -4.097  1.00  0.00    -0.374 OA
ENDROOT
BRANCH   1   2
ATOM      2  C   UNL     1       1.372  -5.643  -3.733  1.00  0.00     0.202 C 
BRANCH   2   3
ATOM      3  C   UNL     1       1.951  -5.933  -2.345  1.00  0.00     0.261 C 
BRANCH   3   4
ATOM      4  O   UNL     1       1.194  -5.289  -1.309  1.00  0.00    -0.462 OA
BRANCH   4   5
ATOM      5  C   UNL     1       1.921  -4.682  -0.328  1.00  0.00     0.329 C 
ATOM      6  O   UNL     1       3.138  -4.769  -0.205  1.00  0.00    -0.250 OA
BRANCH   5   7
ATOM      7  C   UNL     1       1.028  -3.964   0.699  1.00  0.00     0.197 C 
BRANCH   7   8
ATOM      8  N   UNL     1      -0.343  -3.717   0.221  1.00  0.00    -0.338 N 
ATOM      9  C   UNL     1      -1.047  -2.589  -0.131  1.00  0.00     0.263 C 
ATOM     10  O   UNL     1      -2.207  -2.806  -0.491  1.00  0.00    -0.268 OA
ATOM     11  H   UNL     1      -0.873  -4.542   0.134  1.00  0.00     0.164 HD
BRANCH   9  12
ATOM     12  C   UNL     1      -0.506  -1.239  -0.077  1.00  0.00     0.115 A 
ATOM     13  C   UNL     1       1.937   1.799  -0.100  1.00  0.00     0.079 C 
ATOM     14  C   UNL     1       0.832   0.802  -0.103  1.00  0.00     0.091 A 
ATOM     15  N   UNL     1      -0.427   1.104   0.103  1.00  0.00    -0.246 NA
ATOM     16  S   UNL     1       1.134  -0.850  -0.415  1.00  0.00    -0.113 S 
ATOM     17  C   UNL     1      -1.210  -0.044   0.075  1.00  0.00     0.061 A 
ATOM     18  C   UNL     1      -2.679   0.165   0.217  1.00  0.00     0.068 C 
ENDBRANCH   9  12
ENDBRANCH   7   8
BRANCH   7  19
ATOM     19  C   UNL     1       1.046  -4.755   2.020  1.00  0.00     0.072 C 
BRANCH  19  20
ATOM     20  C   UNL     1       0.484  -6.155   1.925  1.00  0.00    -0.045 A 
ATOM     21  C   UNL     1      -0.872  -6.394   2.179  1.00  0.00     0.004 A 
ATOM     22  C   UNL     1       1.310  -7.230   1.563  1.00  0.00     0.004 A 
ATOM     23  C   UNL     1      -1.393  -7.683   2.064  1.00  0.00     0.000 A 
ATOM     24  C   UNL     1       0.784  -8.517   1.443  1.00  0.00     0.000 A 
ATOM     25  C   UNL     1      -0.567  -8.743   1.693  1.00  0.00     0.000 A 
ENDBRANCH  19  20
ENDBRANCH   7  19
ENDBRANCH   5   7
ENDBRANCH   4   5
ENDBRANCH   3   4
ENDBRANCH   2   3
ENDBRANCH   1   2
BRANCH   1  26
ATOM     26  C   UNL     1       0.249  -3.493  -3.461  1.00  0.00     0.202 C 
BRANCH  26  27
ATOM     27  C   UNL     1      -1.203  -3.792  -3.858  1.00  0.00     0.261 C 
BRANCH  27  28
ATOM     28  O   UNL     1      -1.627  -5.118  -3.488  1.00  0.00    -0.460 OA
BRANCH  28  29
ATOM     29  C   UNL     1      -2.022  -5.894  -4.526  1.00  0.00     0.338 C 
ATOM     30  O   UNL     1      -2.092  -5.578  -5.706  1.00  0.00    -0.246 OA
BRANCH  29  31
ATOM     31  C   UNL     1      -2.230  -7.285  -4.090  1.00  0.00     0.060 A 
ATOM     32  C   UNL     1      -1.469  -8.281  -4.715  1.00  0.00     0.016 A 
ATOM     33  C   UNL     1      -3.246  -7.625  -3.195  1.00  0.00     0.016 A 
ATOM     34  C   UNL     1      -1.755  -9.625  -4.486  1.00  0.00     0.010 A 
ATOM     35  C   UNL     1      -3.538  -8.977  -2.974  1.00  0.00     0.010 A 
ATOM     36  C   UNL     1      -2.819  -9.982  -3.646  1.00  0.00    -0.014 A 
BRANCH  36  37
ATOM     37  C   UNL     1      -3.258 -11.398  -3.588  1.00  0.00     0.031 A 
ATOM     38  C   UNL     1      -4.412 -11.847  -4.442  1.00  0.00     0.074 A 
ATOM     39  C   UNL     1      -2.609 -12.286  -2.814  1.00  0.00     0.049 A 
ATOM     40  N   UNL     1      -4.962 -13.031  -4.539  1.00  0.00    -0.248 NA
ATOM     41  C   UNL     1      -5.027 -10.825  -5.304  1.00  0.00     0.031 C 
ATOM     42  C   UNL     1      -1.453 -11.988  -1.972  1.00  0.00     0.029 A 
ATOM     43  N   UNL     1      -2.838 -13.625  -2.614  1.00  0.00    -0.354 N 
ATOM     44  C   UNL     1      -5.985 -12.898  -5.470  1.00  0.00     0.074 A 
ATOM     45  C   UNL     1      -5.998 -11.512  -5.889  1.00  0.00     0.031 C 
ATOM     46  C   UNL     1      -1.075 -13.111  -1.338  1.00  0.00     0.029 A 
ATOM     47  C   UNL     1      -1.979 -14.199  -1.709  1.00  0.00     0.049 A 
ATOM     48  H   UNL     1      -3.549 -14.125  -3.074  1.00  0.00     0.167 HD
ATOM     49  C   UNL     1      -6.831 -13.845  -5.941  1.00  0.00     0.037 A 
ATOM     50  C   UNL     1      -1.940 -15.455  -1.224  1.00  0.00     0.037 A 
ATOM     51  C   UNL     1      -6.823 -15.223  -5.527  1.00  0.00     0.049 A 
ATOM     52  C   UNL     1      -2.938 -16.472  -1.709  1.00  0.00     0.074 A 
ATOM     53  C   UNL     1      -7.633 -16.259  -5.960  1.00  0.00     0.029 A 
ATOM     54  N   UNL     1      -5.964 -15.756  -4.579  1.00  0.00    -0.354 N 
ATOM     55  N   UNL     1      -3.886 -16.339  -2.605  1.00  0.00    -0.248 NA
ATOM     56  C   UNL     1      -2.861 -17.814  -1.113  1.00  0.00     0.031 C 
ATOM     57  C   UNL     1      -7.290 -17.411  -5.243  1.00  0.00     0.029 A 
ATOM     58  C   UNL     1      -6.239 -17.101  -4.395  1.00  0.00     0.049 A 
ATOM     59  H   UNL     1      -5.261 -15.253  -4.107  1.00  0.00     0.167 HD
ATOM     60  C   UNL     1      -4.500 -17.582  -2.697  1.00  0.00     0.074 A 
ATOM     61  C   UNL     1      -3.810 -18.460  -1.776  1.00  0.00     0.031 C 
ATOM     62  C   UNL     1      -5.541 -17.963  -3.477  1.00  0.00     0.037 A 
BRANCH  49  63
ATOM     63  C   UNL     1      -7.856 -13.415  -6.948  1.00  0.00     0.057 A 
ATOM     64  C   UNL     1      -7.511 -13.139  -8.277  1.00  0.00     0.134 A 
ATOM     65  C   UNL     1      -9.207 -13.312  -6.594  1.00  0.00     0.134 A 
ATOM     66  F   UNL     1      -6.233 -13.209  -8.677  1.00  0.00    -0.206 F 
ATOM     67  C   UNL     1      -8.473 -12.759  -9.215  1.00  0.00     0.040 A 
ATOM     68  C   UNL     1     -10.180 -12.953  -7.527  1.00  0.00     0.040 A 
ATOM     69  F   UNL     1      -9.602 -13.568  -5.338  1.00  0.00    -0.206 F 
ATOM     70  C   UNL     1      -9.813 -12.671  -8.841  1.00  0.00     0.006 A 
ENDBRANCH  49  63
BRANCH  50  71
ATOM     71  C   UNL     1      -0.927 -15.825  -0.205  1.00  0.00     0.057 A 
ATOM     72  C   UNL     1       0.127 -16.693  -0.511  1.00  0.00     0.134 A 
ATOM     73  C   UNL     1      -1.004 -15.340   1.106  1.00  0.00     0.134 A 
ATOM     74  F   UNL     1       0.239 -17.210  -1.744  1.00  0.00    -0.206 F 
ATOM     75  C   UNL     1       1.059 -17.079   0.454  1.00  0.00     0.040 A 
ATOM     76  C   UNL     1      -0.067 -15.699   2.075  1.00  0.00     0.040 A 
ATOM     77  F   UNL     1      -1.991 -14.504   1.461  1.00  0.00    -0.206 F 
ATOM     78  C   UNL     1       0.965 -16.577   1.750  1.00  0.00     0.006 A 
ENDBRANCH  50  71
BRANCH  62  79
ATOM     79  C   UNL     1      -5.981 -19.395  -3.387  1.00  0.00     0.057 A 
ATOM     80  C   UNL     1      -6.700 -19.877  -2.287  1.00  0.00     0.134 A 
ATOM     81  C   UNL     1      -5.716 -20.289  -4.432  1.00  0.00     0.134 A 
ATOM     82  F   UNL     1      -6.973 -19.074  -1.248  1.00  0.00    -0.206 F 
ATOM     83  C   UNL     1      -7.124 -21.206  -2.220  1.00  0.00     0.040 A 
ATOM     84  C   UNL     1      -6.155 -21.613  -4.387  1.00  0.00     0.040 A 
ATOM     85  F   UNL     1      -5.039 -19.888  -5.518  1.00  0.00    -0.206 F 
ATOM     86  C   UNL     1      -6.857 -22.076  -3.276  1.00  0.00     0.006 A 
ENDBRANCH  62  79
ENDBRANCH  36  37
ENDBRANCH  29  31
ENDBRANCH  28  29
ENDBRANCH  27  28
ENDBRANCH  26  27
ENDBRANCH   1  26
TORSDOF 18
