REMARK SMILES Cc1nc(C(=O)OCCOCCOC(=O)c2ccc(-c3c4nc(c(-c5c(F)cccc5F)c5ccc([nH]5)c(-c5c(F)cccc5F)c5nc(c(-c6c(F)cccc6F)c6ccc3[nH]6)C=C5)C=C4)cc2)nn1-c1cccc(C(F)(F)F)c1
REMARK SMILES IDX 10 1 9 2 8 3 7 4 5 5 6 6 4 7 1 8 2 9 3 10 71 11 70 12 72 13
REMARK SMILES IDX 73 14 81 15 74 16 76 17 75 18 77 19 78 20 79 21 80 22 11 23
REMARK SMILES IDX 12 24 13 25 14 26 15 27 16 28 17 29 69 30 18 31 68 32 19 33
REMARK SMILES IDX 20 34 21 35 62 36 22 37 67 38 61 39 63 40 23 41 66 42 60 43
REMARK SMILES IDX 59 44 24 46 50 47 33 48 49 49 34 50 37 51 48 52 64 53 35 54
REMARK SMILES IDX 36 55 47 57 65 58 38 59 25 60 26 61 31 62 27 63 28 64 30 65
REMARK SMILES IDX 32 66 29 67 51 68 52 69 57 70 53 71 54 72 56 73 58 74 55 75
REMARK SMILES IDX 39 76 40 77 45 78 41 79 42 80 44 81 46 82 43 83
REMARK H PARENT 63 45 37 56
REMARK Flexibility Score: inf
ROOT
ATOM      1  O   UNL     1      -2.243  -2.545   6.660  1.00  0.00    -0.374 OA
ENDROOT
BRANCH   1   2
ATOM      2  C   UNL     1      -1.997  -1.403   7.481  1.00  0.00     0.202 C 
BRANCH   2   3
ATOM      3  C   UNL     1      -0.601  -0.784   7.417  1.00  0.00     0.261 C 
BRANCH   3   4
ATOM      4  O   UNL     1      -0.387  -0.067   6.189  1.00  0.00    -0.457 OA
BRANCH   4   5
ATOM      5  C   UNL     1       0.454  -0.670   5.293  1.00  0.00     0.378 C 
ATOM      6  O   UNL     1       1.055  -1.720   5.513  1.00  0.00    -0.242 OA
BRANCH   5   7
ATOM      7  C   UNL     1       0.458  -0.007   3.978  1.00  0.00     0.260 A 
ATOM      8  C   UNL     1       0.760  -0.105   0.429  1.00  0.00     0.090 C 
ATOM      9  C   UNL     1       0.486   0.195   1.857  1.00  0.00     0.130 A 
ATOM     10  N   UNL     1       0.440  -0.722   2.800  1.00  0.00    -0.206 NA
ATOM     11  N   UNL     1       0.475   1.449   2.445  1.00  0.00    -0.217 N 
ATOM     12  N   UNL     1       0.489   1.324   3.797  1.00  0.00    -0.138 NA
BRANCH  11  13
ATOM     13  C   UNL     1       0.502   2.735   1.853  1.00  0.00     0.067 A 
ATOM     14  C   UNL     1       1.251   3.742   2.477  1.00  0.00     0.028 A 
ATOM     15  C   UNL     1      -0.222   3.023   0.689  1.00  0.00     0.041 A 
ATOM     16  C   UNL     1       1.334   5.009   1.902  1.00  0.00     0.003 A 
ATOM     17  C   UNL     1      -0.178   4.314   0.130  1.00  0.00     0.058 A 
ATOM     18  C   UNL     1       0.626   5.293   0.735  1.00  0.00     0.013 A 
BRANCH  17  19
ATOM     19  C   UNL     1      -1.001   4.674  -1.085  1.00  0.00     0.416 C 
ATOM     20  F   UNL     1      -1.863   5.700  -0.843  1.00  0.00    -0.166 F 
ATOM     21  F   UNL     1      -0.234   5.067  -2.138  1.00  0.00    -0.166 F 
ATOM     22  F   UNL     1      -1.767   3.645  -1.544  1.00  0.00    -0.166 F 
ENDBRANCH  17  19
ENDBRANCH  11  13
ENDBRANCH   5   7
ENDBRANCH   4   5
ENDBRANCH   3   4
ENDBRANCH   2   3
ENDBRANCH   1   2
BRANCH   1  23
ATOM     23  C   UNL     1      -2.417  -2.378   5.255  1.00  0.00     0.202 C 
BRANCH  23  24
ATOM     24  C   UNL     1      -3.762  -1.847   4.779  1.00  0.00     0.261 C 
BRANCH  24  25
ATOM     25  O   UNL     1      -4.003  -0.541   5.279  1.00  0.00    -0.460 OA
BRANCH  25  26
ATOM     26  C   UNL     1      -4.786  -0.484   6.375  1.00  0.00     0.338 C 
ATOM     27  O   UNL     1      -5.205  -1.425   7.045  1.00  0.00    -0.246 OA
BRANCH  26  28
ATOM     28  C   UNL     1      -5.212   0.907   6.548  1.00  0.00     0.060 A 
ATOM     29  C   UNL     1      -6.377   1.078   7.294  1.00  0.00     0.016 A 
ATOM     30  C   UNL     1      -4.722   1.896   5.678  1.00  0.00     0.016 A 
ATOM     31  C   UNL     1      -7.222   2.091   6.923  1.00  0.00     0.010 A 
ATOM     32  C   UNL     1      -5.577   2.898   5.293  1.00  0.00     0.010 A 
ATOM     33  C   UNL     1      -6.854   2.904   5.844  1.00  0.00    -0.014 A 
BRANCH  33  34
ATOM     34  C   UNL     1      -7.880   3.753   5.297  1.00  0.00     0.031 A 
ATOM     35  C   UNL     1      -8.139   4.964   6.092  1.00  0.00     0.074 A 
ATOM     36  C   UNL     1      -8.513   3.467   4.147  1.00  0.00     0.049 A 
ATOM     37  N   UNL     1      -9.193   5.241   6.781  1.00  0.00    -0.248 NA
ATOM     38  C   UNL     1      -7.026   5.906   6.261  1.00  0.00     0.031 C 
ATOM     39  C   UNL     1      -8.174   2.474   3.127  1.00  0.00     0.029 A 
ATOM     40  N   UNL     1      -9.578   4.112   3.611  1.00  0.00    -0.354 N 
ATOM     41  C   UNL     1      -8.945   6.481   7.353  1.00  0.00     0.074 A 
ATOM     42  C   UNL     1      -7.549   6.763   7.136  1.00  0.00     0.031 C 
ATOM     43  C   UNL     1      -8.878   2.746   2.003  1.00  0.00     0.029 A 
ATOM     44  C   UNL     1      -9.788   3.849   2.270  1.00  0.00     0.049 A 
ATOM     45  H   UNL     1     -10.154   4.716   4.133  1.00  0.00     0.167 HD
ATOM     46  C   UNL     1      -9.957   7.277   7.786  1.00  0.00     0.037 A 
ATOM     47  C   UNL     1     -10.575   4.584   1.448  1.00  0.00     0.037 A 
ATOM     48  C   UNL     1     -11.185   6.543   7.938  1.00  0.00     0.049 A 
ATOM     49  C   UNL     1     -11.519   5.357   2.305  1.00  0.00     0.074 A 
ATOM     50  C   UNL     1     -11.579   5.470   8.715  1.00  0.00     0.029 A 
ATOM     51  N   UNL     1     -12.135   6.657   6.952  1.00  0.00    -0.354 N 
ATOM     52  N   UNL     1     -12.488   4.816   2.993  1.00  0.00    -0.248 NA
ATOM     53  C   UNL     1     -11.103   6.678   2.761  1.00  0.00     0.031 C 
ATOM     54  C   UNL     1     -12.459   4.714   7.887  1.00  0.00     0.029 A 
ATOM     55  C   UNL     1     -12.575   5.388   6.671  1.00  0.00     0.049 A 
ATOM     56  H   UNL     1     -12.442   7.491   6.527  1.00  0.00     0.167 HD
ATOM     57  C   UNL     1     -12.516   5.519   4.191  1.00  0.00     0.074 A 
ATOM     58  C   UNL     1     -11.704   6.709   3.954  1.00  0.00     0.031 C 
ATOM     59  C   UNL     1     -12.948   4.938   5.350  1.00  0.00     0.037 A 
BRANCH  46  60
ATOM     60  C   UNL     1      -9.906   8.778   7.756  1.00  0.00     0.057 A 
ATOM     61  C   UNL     1     -10.907   9.513   8.411  1.00  0.00     0.134 A 
ATOM     62  C   UNL     1      -9.077   9.523   6.892  1.00  0.00     0.134 A 
ATOM     63  F   UNL     1     -11.771   8.911   9.242  1.00  0.00    -0.206 F 
ATOM     64  C   UNL     1     -11.106  10.877   8.176  1.00  0.00     0.040 A 
ATOM     65  C   UNL     1      -9.230  10.896   6.695  1.00  0.00     0.040 A 
ATOM     66  F   UNL     1      -8.146   8.951   6.117  1.00  0.00    -0.206 F 
ATOM     67  C   UNL     1     -10.268  11.573   7.313  1.00  0.00     0.006 A 
ENDBRANCH  46  60
BRANCH  47  68
ATOM     68  C   UNL     1     -10.332   4.906   0.022  1.00  0.00     0.057 A 
ATOM     69  C   UNL     1     -11.332   5.490  -0.768  1.00  0.00     0.134 A 
ATOM     70  C   UNL     1      -9.042   4.884  -0.542  1.00  0.00     0.134 A 
ATOM     71  F   UNL     1     -12.585   5.605  -0.304  1.00  0.00    -0.206 F 
ATOM     72  C   UNL     1     -11.063   6.032  -2.033  1.00  0.00     0.040 A 
ATOM     73  C   UNL     1      -8.763   5.407  -1.808  1.00  0.00     0.040 A 
ATOM     74  F   UNL     1      -7.985   4.432   0.146  1.00  0.00    -0.206 F 
ATOM     75  C   UNL     1      -9.774   5.997  -2.554  1.00  0.00     0.006 A 
ENDBRANCH  47  68
BRANCH  59  76
ATOM     76  C   UNL     1     -13.607   3.589   5.261  1.00  0.00     0.057 A 
ATOM     77  C   UNL     1     -12.950   2.435   4.808  1.00  0.00     0.134 A 
ATOM     78  C   UNL     1     -14.882   3.416   5.811  1.00  0.00     0.134 A 
ATOM     79  F   UNL     1     -11.686   2.484   4.371  1.00  0.00    -0.206 F 
ATOM     80  C   UNL     1     -13.554   1.175   4.855  1.00  0.00     0.040 A 
ATOM     81  C   UNL     1     -15.482   2.157   5.895  1.00  0.00     0.040 A 
ATOM     82  F   UNL     1     -15.545   4.463   6.325  1.00  0.00    -0.206 F 
ATOM     83  C   UNL     1     -14.822   1.032   5.407  1.00  0.00     0.006 A 
ENDBRANCH  59  76
ENDBRANCH  33  34
ENDBRANCH  26  28
ENDBRANCH  25  26
ENDBRANCH  24  25
ENDBRANCH  23  24
ENDBRANCH   1  23
TORSDOF 16
