REMARK SMILES Nc1ccc(C(=O)NC[C@@H]2CC[C@@H](C(=O)OCCOCCOC(=O)c3ccc(-c4c5nc(c(-c6c(F)cccc6F)c6ccc([nH]6)c(-c6c(F)cccc6F)c6nc(c(-c7c(F)cccc7F)c7ccc4[nH]7)C=C6)C=C5)cc3)O2)cc1Cl
REMARK SMILES IDX 18 1 17 2 16 3 14 4 15 5 13 6 10 7 11 8 79 9 12 10 9 11 8 12
REMARK SMILES IDX 6 13 7 14 5 16 2 17 3 18 81 19 4 20 80 21 82 22 1 23 19 26
REMARK SMILES IDX 20 27 21 28 22 29 23 30 24 31 25 32 26 33 78 34 27 35 77 36
REMARK SMILES IDX 28 37 29 38 30 39 71 40 31 41 76 42 70 43 72 44 32 45 75 46
REMARK SMILES IDX 69 47 68 48 33 50 59 51 42 52 58 53 43 54 46 55 57 56 73 57
REMARK SMILES IDX 44 58 45 59 56 61 74 62 47 63 34 64 35 65 40 66 36 67 37 68
REMARK SMILES IDX 39 69 41 70 38 71 60 72 61 73 66 74 62 75 63 76 65 77 67 78
REMARK SMILES IDX 64 79 48 80 49 81 54 82 50 83 51 84 53 85 55 86 52 87
REMARK H PARENT 8 15 1 24 1 25 72 49 46 60
REMARK Flexibility Score: inf
ROOT
ATOM      1  C   UNL     1       7.202  -3.209  -5.620  1.00  0.00     0.202 C 
ENDROOT
BRANCH   1   2
ATOM      2  C   UNL     1       7.819  -2.625  -4.346  1.00  0.00     0.261 C 
BRANCH   2   3
ATOM      3  O   UNL     1       6.781  -2.029  -3.555  1.00  0.00    -0.461 OA
BRANCH   3   4
ATOM      4  C   UNL     1       7.070  -0.811  -3.021  1.00  0.00     0.335 C 
ATOM      5  O   UNL     1       8.193  -0.336  -2.910  1.00  0.00    -0.249 OA
BRANCH   4   6
ATOM      6  C   UNL     1       5.772  -0.082  -2.664  1.00  0.00     0.228 C 
ATOM      7  C   UNL     1       5.794   1.432  -0.910  1.00  0.00     0.138 C 
ATOM      8  C   UNL     1       5.301   2.194  -2.130  1.00  0.00     0.037 C 
ATOM      9  O   UNL     1       5.606   0.048  -1.248  1.00  0.00    -0.361 OA
ATOM     10  C   UNL     1       5.766   1.321  -3.269  1.00  0.00     0.047 C 
BRANCH   7  11
ATOM     11  C   UNL     1       5.119   1.754   0.435  1.00  0.00     0.148 C 
BRANCH  11  12
ATOM     12  N   UNL     1       3.992   2.668   0.342  1.00  0.00    -0.349 N 
ATOM     13  C   UNL     1       2.642   2.545   0.174  1.00  0.00     0.251 C 
ATOM     14  O   UNL     1       2.020   3.609   0.096  1.00  0.00    -0.269 OA
ATOM     15  H   UNL     1       4.271   3.609   0.419  1.00  0.00     0.163 HD
BRANCH  13  16
ATOM     16  C   UNL     1       1.874   1.268   0.086  1.00  0.00     0.041 A 
ATOM     17  C   UNL     1       0.186  -1.024  -0.028  1.00  0.00     0.050 A 
ATOM     18  C   UNL     1       1.575  -1.142  -0.106  1.00  0.00     0.028 A 
ATOM     19  C   UNL     1      -0.355   0.267   0.043  1.00  0.00     0.064 A 
ATOM     20  C   UNL     1       2.410  -0.012  -0.046  1.00  0.00     0.016 A 
ATOM     21  C   UNL     1       0.473   1.390   0.113  1.00  0.00     0.036 A 
ATOM     22  Cl  UNL     1      -2.069   0.505   0.069  1.00  0.00    -0.082 Cl
BRANCH  17  23
ATOM     23  N   UNL     1      -0.611  -2.157  -0.161  1.00  0.00    -0.398 N 
ATOM     24  H   UNL     1      -0.196  -3.048  -0.207  1.00  0.00     0.156 HD
ATOM     25  H   UNL     1      -1.591  -2.067  -0.208  1.00  0.00     0.156 HD
ENDBRANCH  17  23
ENDBRANCH  13  16
ENDBRANCH  11  12
ENDBRANCH   7  11
ENDBRANCH   4   6
ENDBRANCH   3   4
ENDBRANCH   2   3
ENDBRANCH   1   2
BRANCH   1  26
ATOM     26  O   UNL     1       6.684  -2.255  -6.551  1.00  0.00    -0.374 OA
BRANCH  26  27
ATOM     27  C   UNL     1       5.472  -1.581  -6.215  1.00  0.00     0.202 C 
BRANCH  27  28
ATOM     28  C   UNL     1       4.168  -2.373  -6.376  1.00  0.00     0.261 C 
BRANCH  28  29
ATOM     29  O   UNL     1       4.122  -3.546  -5.545  1.00  0.00    -0.460 OA
BRANCH  29  30
ATOM     30  C   UNL     1       4.141  -4.717  -6.225  1.00  0.00     0.338 C 
ATOM     31  O   UNL     1       4.115  -4.871  -7.438  1.00  0.00    -0.246 OA
BRANCH  30  32
ATOM     32  C   UNL     1       4.371  -5.842  -5.304  1.00  0.00     0.060 A 
ATOM     33  C   UNL     1       5.474  -6.666  -5.562  1.00  0.00     0.016 A 
ATOM     34  C   UNL     1       3.485  -6.145  -4.268  1.00  0.00     0.016 A 
ATOM     35  C   UNL     1       5.672  -7.821  -4.810  1.00  0.00     0.010 A 
ATOM     36  C   UNL     1       3.680  -7.313  -3.519  1.00  0.00     0.010 A 
ATOM     37  C   UNL     1       4.757  -8.171  -3.808  1.00  0.00    -0.014 A 
BRANCH  37  38
ATOM     38  C   UNL     1       4.876  -9.500  -3.159  1.00  0.00     0.031 A 
ATOM     39  C   UNL     1       4.031 -10.641  -3.654  1.00  0.00     0.074 A 
ATOM     40  C   UNL     1       5.778  -9.703  -2.182  1.00  0.00     0.049 A 
ATOM     41  N   UNL     1       4.003 -11.887  -3.252  1.00  0.00    -0.248 NA
ATOM     42  C   UNL     1       3.095 -10.340  -4.749  1.00  0.00     0.031 C 
ATOM     43  C   UNL     1       6.675  -8.687  -1.635  1.00  0.00     0.029 A 
ATOM     44  N   UNL     1       6.087 -10.840  -1.478  1.00  0.00    -0.354 N 
ATOM     45  C   UNL     1       3.061 -12.521  -4.053  1.00  0.00     0.074 A 
ATOM     46  C   UNL     1       2.511 -11.515  -4.936  1.00  0.00     0.031 C 
ATOM     47  C   UNL     1       7.431  -9.245  -0.673  1.00  0.00     0.029 A 
ATOM     48  C   UNL     1       7.057 -10.650  -0.525  1.00  0.00     0.049 A 
ATOM     49  H   UNL     1       5.654 -11.709  -1.640  1.00  0.00     0.167 HD
ATOM     50  C   UNL     1       2.699 -13.825  -4.063  1.00  0.00     0.037 A 
ATOM     51  C   UNL     1       7.575 -11.510   0.372  1.00  0.00     0.037 A 
ATOM     52  C   UNL     1       3.236 -14.827  -3.180  1.00  0.00     0.049 A 
ATOM     53  C   UNL     1       7.110 -12.941   0.382  1.00  0.00     0.074 A 
ATOM     54  C   UNL     1       2.924 -16.174  -3.111  1.00  0.00     0.029 A 
ATOM     55  N   UNL     1       4.197 -14.589  -2.210  1.00  0.00    -0.354 N 
ATOM     56  N   UNL     1       6.233 -13.532  -0.394  1.00  0.00    -0.248 NA
ATOM     57  C   UNL     1       7.713 -13.829   1.388  1.00  0.00     0.031 C 
ATOM     58  C   UNL     1       3.672 -16.744  -2.075  1.00  0.00     0.029 A 
ATOM     59  C   UNL     1       4.479 -15.761  -1.527  1.00  0.00     0.049 A 
ATOM     60  H   UNL     1       4.617 -13.717  -2.033  1.00  0.00     0.167 HD
ATOM     61  C   UNL     1       6.196 -14.859   0.015  1.00  0.00     0.074 A 
ATOM     62  C   UNL     1       7.152 -14.993   1.093  1.00  0.00     0.031 C 
ATOM     63  C   UNL     1       5.436 -15.877  -0.458  1.00  0.00     0.037 A 
BRANCH  50  64
ATOM     64  C   UNL     1       1.663 -14.247  -5.062  1.00  0.00     0.057 A 
ATOM     65  C   UNL     1       1.967 -14.371  -6.424  1.00  0.00     0.134 A 
ATOM     66  C   UNL     1       0.365 -14.578  -4.655  1.00  0.00     0.134 A 
ATOM     67  F   UNL     1       3.189 -14.056  -6.879  1.00  0.00    -0.206 F 
ATOM     68  C   UNL     1       1.012 -14.798  -7.348  1.00  0.00     0.040 A 
ATOM     69  C   UNL     1      -0.592 -15.026  -5.566  1.00  0.00     0.040 A 
ATOM     70  F   UNL     1       0.011 -14.483  -3.364  1.00  0.00    -0.206 F 
ATOM     71  C   UNL     1      -0.270 -15.135  -6.918  1.00  0.00     0.006 A 
ENDBRANCH  50  64
BRANCH  51  72
ATOM     72  C   UNL     1       8.585 -11.043   1.355  1.00  0.00     0.057 A 
ATOM     73  C   UNL     1       9.914 -11.477   1.299  1.00  0.00     0.134 A 
ATOM     74  C   UNL     1       8.230 -10.182   2.401  1.00  0.00     0.134 A 
ATOM     75  F   UNL     1      10.308 -12.322   0.336  1.00  0.00    -0.206 F 
ATOM     76  C   UNL     1      10.850 -11.090   2.260  1.00  0.00     0.040 A 
ATOM     77  C   UNL     1       9.161  -9.767   3.354  1.00  0.00     0.040 A 
ATOM     78  F   UNL     1       6.972  -9.730   2.509  1.00  0.00    -0.206 F 
ATOM     79  C   UNL     1      10.474 -10.229   3.290  1.00  0.00     0.006 A 
ENDBRANCH  51  72
BRANCH  63  80
ATOM     80  C   UNL     1       5.627 -17.225   0.173  1.00  0.00     0.057 A 
ATOM     81  C   UNL     1       5.157 -17.510   1.461  1.00  0.00     0.134 A 
ATOM     82  C   UNL     1       6.268 -18.257  -0.525  1.00  0.00     0.134 A 
ATOM     83  F   UNL     1       4.545 -16.561   2.187  1.00  0.00    -0.206 F 
ATOM     84  C   UNL     1       5.339 -18.765   2.043  1.00  0.00     0.040 A 
ATOM     85  C   UNL     1       6.435 -19.523   0.037  1.00  0.00     0.040 A 
ATOM     86  F   UNL     1       6.734 -18.052  -1.766  1.00  0.00    -0.206 F 
ATOM     87  C   UNL     1       5.976 -19.778   1.328  1.00  0.00     0.006 A 
ENDBRANCH  63  80
ENDBRANCH  37  38
ENDBRANCH  30  32
ENDBRANCH  29  30
ENDBRANCH  28  29
ENDBRANCH  27  28
ENDBRANCH  26  27
ENDBRANCH   1  26
TORSDOF 18
