REMARK SMILES NC(=O)C1CC[NH+](CC[C@H]2CN(C(=O)c3ccccc3)CC[C@H]2CC(=O)OCCOCCOC(=O)c2ccc(-c3c4nc(c(-c5c(F)cccc5F)c5ccc([nH]5)c(-c5c(F)cccc5F)c5nc(c(-c6c(F)cccc6F)c6ccc3[nH]6)C=C5)C=C4)cc2)CC1
REMARK SMILES IDX 28 1 27 2 25 3 26 4 24 5 23 6 10 7 11 8 12 9 22 10 21 11
REMARK SMILES IDX 9 12 8 13 7 14 4 15 5 16 91 17 6 18 90 19 2 21 1 22 3 25
REMARK SMILES IDX 13 26 14 27 15 28 16 29 20 30 17 31 19 32 18 33 29 34 30 35
REMARK SMILES IDX 31 36 32 37 33 38 34 39 35 40 36 41 37 42 89 43 38 44 88 45
REMARK SMILES IDX 39 46 40 47 41 48 82 49 42 50 87 51 81 52 83 53 43 54 86 55
REMARK SMILES IDX 80 56 79 57 44 59 70 60 53 61 69 62 54 63 57 64 68 65 84 66
REMARK SMILES IDX 55 67 56 68 67 70 85 71 58 72 45 73 46 74 51 75 47 76 48 77
REMARK SMILES IDX 50 78 52 79 49 80 71 81 72 82 77 83 73 84 74 85 76 86 78 87
REMARK SMILES IDX 75 88 59 89 60 90 65 91 61 92 62 93 64 94 66 95 63 96
REMARK H PARENT 7 20 1 23 1 24 83 58 57 69
REMARK Flexibility Score: inf
ROOT
ATOM      1  C   UNL     1      -1.061   0.312  -3.704  1.00  0.00     0.261 C 
ENDROOT
BRANCH   1   2
ATOM      2  O   UNL     1      -1.748  -0.593  -2.815  1.00  0.00    -0.463 OA
BRANCH   2   3
ATOM      3  C   UNL     1      -1.560  -0.351  -1.488  1.00  0.00     0.306 C 
ATOM      4  O   UNL     1      -0.972   0.630  -1.043  1.00  0.00    -0.252 OA
BRANCH   3   5
ATOM      5  C   UNL     1      -2.064  -1.454  -0.577  1.00  0.00     0.126 C 
BRANCH   5   6
ATOM      6  C   UNL     1      -3.266  -2.322  -1.001  1.00  0.00     0.007 C 
ATOM      7  C   UNL     1      -2.963  -3.494  -1.994  1.00  0.00     0.018 C 
ATOM      8  C   UNL     1      -4.306  -4.226  -2.272  1.00  0.00     0.124 C 
ATOM      9  N   UNL     1      -4.883  -4.748  -1.025  1.00  0.00    -0.338 N 
ATOM     10  C   UNL     1      -3.926  -2.885   0.282  1.00  0.00     0.026 C 
ATOM     11  C   UNL     1      -5.154  -3.744  -0.003  1.00  0.00     0.120 C 
BRANCH   7  12
ATOM     12  C   UNL     1      -1.912  -4.525  -1.482  1.00  0.00     0.067 C 
BRANCH  12  13
ATOM     13  C   UNL     1      -0.885  -5.016  -2.533  1.00  0.00     0.262 C 
BRANCH  13  14
ATOM     14  N   UNL     1       0.451  -4.379  -2.545  1.00  0.00    -0.335 N 
ATOM     15  C   UNL     1       2.487  -2.424  -1.656  1.00  0.00     0.089 C 
ATOM     16  C   UNL     1       1.746  -2.289  -2.989  1.00  0.00     0.075 C 
ATOM     17  C   UNL     1       2.538  -3.898  -1.251  1.00  0.00     0.075 C 
ATOM     18  C   UNL     1       0.384  -2.984  -2.958  1.00  0.00     0.263 C 
ATOM     19  C   UNL     1       1.158  -4.562  -1.268  1.00  0.00     0.263 C 
ATOM     20  H   UNL     1       1.008  -4.859  -3.251  1.00  0.00     0.348 HD
BRANCH  15  21
ATOM     21  C   UNL     1       1.862  -1.545  -0.575  1.00  0.00     0.220 C 
ATOM     22  N   UNL     1       2.007  -0.203  -0.762  1.00  0.00    -0.369 N 
ATOM     23  H   UNL     1       1.631   0.429  -0.107  1.00  0.00     0.159 HD
ATOM     24  H   UNL     1       2.487   0.135  -1.552  1.00  0.00     0.159 HD
ATOM     25  O   UNL     1       1.260  -1.967   0.405  1.00  0.00    -0.275 OA
ENDBRANCH  15  21
ENDBRANCH  13  14
ENDBRANCH  12  13
ENDBRANCH   7  12
BRANCH   9  26
ATOM     26  C   UNL     1      -5.004  -6.132  -0.874  1.00  0.00     0.253 C 
ATOM     27  O   UNL     1      -4.762  -6.927  -1.781  1.00  0.00    -0.269 OA
BRANCH  26  28
ATOM     28  C   UNL     1      -5.333  -6.717   0.447  1.00  0.00     0.040 A 
ATOM     29  C   UNL     1      -4.392  -7.578   1.027  1.00  0.00     0.014 A 
ATOM     30  C   UNL     1      -6.566  -6.505   1.071  1.00  0.00     0.014 A 
ATOM     31  C   UNL     1      -4.666  -8.195   2.248  1.00  0.00     0.001 A 
ATOM     32  C   UNL     1      -6.832  -7.118   2.299  1.00  0.00     0.001 A 
ATOM     33  C   UNL     1      -5.883  -7.959   2.887  1.00  0.00     0.000 A 
ENDBRANCH  26  28
ENDBRANCH   9  26
ENDBRANCH   5   6
ENDBRANCH   3   5
ENDBRANCH   2   3
ENDBRANCH   1   2
BRANCH   1  34
ATOM     34  C   UNL     1      -1.975   1.205  -4.546  1.00  0.00     0.202 C 
BRANCH  34  35
ATOM     35  O   UNL     1      -2.887   2.045  -3.852  1.00  0.00    -0.374 OA
BRANCH  35  36
ATOM     36  C   UNL     1      -3.948   1.426  -3.130  1.00  0.00     0.202 C 
BRANCH  36  37
ATOM     37  C   UNL     1      -4.970   0.613  -3.936  1.00  0.00     0.261 C 
BRANCH  37  38
ATOM     38  O   UNL     1      -4.407  -0.553  -4.573  1.00  0.00    -0.460 OA
BRANCH  38  39
ATOM     39  C   UNL     1      -4.593  -0.600  -5.917  1.00  0.00     0.338 C 
ATOM     40  O   UNL     1      -5.183   0.210  -6.611  1.00  0.00    -0.246 OA
BRANCH  39  41
ATOM     41  C   UNL     1      -3.876  -1.739  -6.518  1.00  0.00     0.060 A 
ATOM     42  C   UNL     1      -2.833  -1.465  -7.413  1.00  0.00     0.016 A 
ATOM     43  C   UNL     1      -4.363  -3.038  -6.370  1.00  0.00     0.016 A 
ATOM     44  C   UNL     1      -2.307  -2.487  -8.205  1.00  0.00     0.010 A 
ATOM     45  C   UNL     1      -3.841  -4.058  -7.174  1.00  0.00     0.010 A 
ATOM     46  C   UNL     1      -2.842  -3.779  -8.124  1.00  0.00    -0.014 A 
BRANCH  46  47
ATOM     47  C   UNL     1      -2.467  -4.806  -9.129  1.00  0.00     0.031 A 
ATOM     48  C   UNL     1      -3.354  -5.026 -10.325  1.00  0.00     0.074 A 
ATOM     49  C   UNL     1      -1.349  -5.537  -8.984  1.00  0.00     0.049 A 
ATOM     50  N   UNL     1      -3.272  -5.934 -11.264  1.00  0.00    -0.248 NA
ATOM     51  C   UNL     1      -4.482  -4.094 -10.485  1.00  0.00     0.031 C 
ATOM     52  C   UNL     1      -0.376  -5.388  -7.904  1.00  0.00     0.029 A 
ATOM     53  N   UNL     1      -0.856  -6.566  -9.747  1.00  0.00    -0.354 N 
ATOM     54  C   UNL     1      -4.338  -5.690 -12.121  1.00  0.00     0.074 A 
ATOM     55  C   UNL     1      -5.061  -4.556 -11.585  1.00  0.00     0.031 C 
ATOM     56  C   UNL     1       0.588  -6.312  -8.059  1.00  0.00     0.029 A 
ATOM     57  C   UNL     1       0.278  -7.138  -9.226  1.00  0.00     0.049 A 
ATOM     58  H   UNL     1      -1.274  -6.864 -10.587  1.00  0.00     0.167 HD
ATOM     59  C   UNL     1      -4.682  -6.349 -13.253  1.00  0.00     0.037 A 
ATOM     60  C   UNL     1       0.962  -8.229  -9.620  1.00  0.00     0.037 A 
ATOM     61  C   UNL     1      -3.969  -7.478 -13.790  1.00  0.00     0.049 A 
ATOM     62  C   UNL     1       0.496  -9.012 -10.819  1.00  0.00     0.074 A 
ATOM     63  C   UNL     1      -4.229  -8.193 -14.947  1.00  0.00     0.029 A 
ATOM     64  N   UNL     1      -2.862  -8.063 -13.198  1.00  0.00    -0.354 N 
ATOM     65  N   UNL     1      -0.505  -8.769 -11.628  1.00  0.00    -0.248 NA
ATOM     66  C   UNL     1       1.250 -10.231 -11.148  1.00  0.00     0.031 C 
ATOM     67  C   UNL     1      -3.303  -9.238 -15.033  1.00  0.00     0.029 A 
ATOM     68  C   UNL     1      -2.446  -9.151 -13.948  1.00  0.00     0.049 A 
ATOM     69  H   UNL     1      -2.434  -7.752 -12.368  1.00  0.00     0.167 HD
ATOM     70  C   UNL     1      -0.496  -9.794 -12.565  1.00  0.00     0.074 A 
ATOM     71  C   UNL     1       0.621 -10.655 -12.235  1.00  0.00     0.031 C 
ATOM     72  C   UNL     1      -1.338 -10.004 -13.606  1.00  0.00     0.037 A 
BRANCH  59  73
ATOM     73  C   UNL     1      -5.904  -5.879 -13.982  1.00  0.00     0.057 A 
ATOM     74  C   UNL     1      -5.894  -4.718 -14.765  1.00  0.00     0.134 A 
ATOM     75  C   UNL     1      -7.091  -6.621 -13.936  1.00  0.00     0.134 A 
ATOM     76  F   UNL     1      -4.790  -3.959 -14.840  1.00  0.00    -0.206 F 
ATOM     77  C   UNL     1      -7.027  -4.304 -15.467  1.00  0.00     0.040 A 
ATOM     78  C   UNL     1      -8.225  -6.227 -14.647  1.00  0.00     0.040 A 
ATOM     79  F   UNL     1      -7.163  -7.745 -13.207  1.00  0.00    -0.206 F 
ATOM     80  C   UNL     1      -8.195  -5.063 -15.414  1.00  0.00     0.006 A 
ENDBRANCH  59  73
BRANCH  60  81
ATOM     81  C   UNL     1       2.141  -8.683  -8.843  1.00  0.00     0.057 A 
ATOM     82  C   UNL     1       3.435  -8.572  -9.360  1.00  0.00     0.134 A 
ATOM     83  C   UNL     1       1.995  -9.261  -7.577  1.00  0.00     0.134 A 
ATOM     84  F   UNL     1       3.633  -8.054 -10.581  1.00  0.00    -0.206 F 
ATOM     85  C   UNL     1       4.546  -9.029  -8.648  1.00  0.00     0.040 A 
ATOM     86  C   UNL     1       3.098  -9.701  -6.844  1.00  0.00     0.040 A 
ATOM     87  F   UNL     1       0.777  -9.401  -7.033  1.00  0.00    -0.206 F 
ATOM     88  C   UNL     1       4.378  -9.590  -7.383  1.00  0.00     0.006 A 
ENDBRANCH  60  81
BRANCH  72  89
ATOM     89  C   UNL     1      -1.080 -11.202 -14.470  1.00  0.00     0.057 A 
ATOM     90  C   UNL     1      -1.411 -12.495 -14.046  1.00  0.00     0.134 A 
ATOM     91  C   UNL     1      -0.537 -11.058 -15.752  1.00  0.00     0.134 A 
ATOM     92  F   UNL     1      -1.922 -12.699 -12.823  1.00  0.00    -0.206 F 
ATOM     93  C   UNL     1      -1.197 -13.605 -14.864  1.00  0.00     0.040 A 
ATOM     94  C   UNL     1      -0.337 -12.159 -16.587  1.00  0.00     0.040 A 
ATOM     95  F   UNL     1      -0.205  -9.845 -16.220  1.00  0.00    -0.206 F 
ATOM     96  C   UNL     1      -0.665 -13.438 -16.142  1.00  0.00     0.006 A 
ENDBRANCH  72  89
ENDBRANCH  46  47
ENDBRANCH  39  41
ENDBRANCH  38  39
ENDBRANCH  37  38
ENDBRANCH  36  37
ENDBRANCH  35  36
ENDBRANCH  34  35
ENDBRANCH   1  34
TORSDOF 21
