REMARK SMILES C[NH+]1CCC([NH+]2CCC(Oc3ccc4ccccc4c3)(C(=O)OCCOCCOC(=O)c3ccc(-c4c5nc(c(-c6c(F)cccc6F)c6ccc([nH]6)c(-c6c(F)cccc6F)c6nc(c(-c7c(F)cccc7F)c7ccc4[nH]7)C=C6)C=C5)cc3)CC2)CC1
REMARK SMILES IDX 26 1 25 2 24 3 23 4 21 5 22 6 9 7 6 8 7 9 87 10 8 12 86 13
REMARK SMILES IDX 5 14 1 15 2 16 3 17 89 18 4 20 88 21 10 22 11 23 12 24 20 25
REMARK SMILES IDX 13 26 19 27 14 28 18 29 15 30 17 31 16 32 27 33 28 34 29 35
REMARK SMILES IDX 30 36 31 37 32 38 33 39 85 40 34 41 84 42 35 43 36 44 37 45
REMARK SMILES IDX 78 46 38 47 83 48 77 49 79 50 39 51 82 52 76 53 75 54 40 56
REMARK SMILES IDX 66 57 49 58 65 59 50 60 53 61 64 62 80 63 51 64 52 65 63 67
REMARK SMILES IDX 81 68 54 69 41 70 42 71 47 72 43 73 44 74 46 75 48 76 45 77
REMARK SMILES IDX 67 78 68 79 73 80 69 81 70 82 72 83 74 84 71 85 55 86 56 87
REMARK SMILES IDX 61 88 57 89 58 90 60 91 62 92 59 93
REMARK H PARENT 6 11 2 19 79 55 53 66
REMARK Flexibility Score: inf
ROOT
ATOM      1  O   UNL     1       3.110  -5.163   2.958  1.00  0.00    -0.374 OA
ENDROOT
BRANCH   1   2
ATOM      2  C   UNL     1       4.072  -4.805   3.949  1.00  0.00     0.202 C 
BRANCH   2   3
ATOM      3  C   UNL     1       5.340  -4.067   3.502  1.00  0.00     0.261 C 
BRANCH   3   4
ATOM      4  O   UNL     1       5.117  -2.697   3.088  1.00  0.00    -0.460 OA
BRANCH   4   5
ATOM      5  C   UNL     1       5.587  -2.364   1.848  1.00  0.00     0.351 C 
ATOM      6  O   UNL     1       5.997  -3.200   1.044  1.00  0.00    -0.247 OA
BRANCH   5   7
ATOM      7  C   UNL     1       5.639  -0.839   1.572  1.00  0.00     0.216 C 
ATOM      8  N   UNL     1       3.232   0.187   0.119  1.00  0.00    -0.332 N 
ATOM      9  C   UNL     1       3.297   0.368   1.568  1.00  0.00     0.267 C 
ATOM     10  C   UNL     1       4.086  -0.871  -0.408  1.00  0.00     0.267 C 
ATOM     11  H   UNL     1       3.654   1.046  -0.232  1.00  0.00     0.348 HD
ATOM     12  C   UNL     1       4.584  -0.010   2.321  1.00  0.00     0.122 C 
ATOM     13  C   UNL     1       5.527  -0.643   0.050  1.00  0.00     0.122 C 
BRANCH   8  14
ATOM     14  C   UNL     1       1.856   0.198  -0.459  1.00  0.00     0.195 C 
ATOM     15  C   UNL     1      -2.484   0.240  -0.414  1.00  0.00     0.332 C 
ATOM     16  N   UNL     1      -1.056   0.218  -0.112  1.00  0.00    -0.337 N 
ATOM     17  C   UNL     1      -0.381   1.436  -0.572  1.00  0.00     0.268 C 
ATOM     18  C   UNL     1      -0.411  -0.964  -0.686  1.00  0.00     0.268 C 
ATOM     19  H   UNL     1      -0.971   0.176   0.904  1.00  0.00     0.347 HD
ATOM     20  C   UNL     1       1.064   1.465  -0.063  1.00  0.00     0.126 C 
ATOM     21  C   UNL     1       1.015  -1.054  -0.149  1.00  0.00     0.126 C 
ENDBRANCH   8  14
BRANCH   7  22
ATOM     22  O   UNL     1       6.963  -0.593   2.144  1.00  0.00    -0.475 OA
BRANCH  22  23
ATOM     23  C   UNL     1       7.705   0.427   1.622  1.00  0.00     0.121 A 
ATOM     24  C   UNL     1       7.516   1.739   2.040  1.00  0.00     0.047 A 
ATOM     25  C   UNL     1       8.770   0.111   0.778  1.00  0.00     0.055 A 
ATOM     26  C   UNL     1       8.337   2.756   1.551  1.00  0.00     0.012 A 
ATOM     27  C   UNL     1       9.625   1.120   0.298  1.00  0.00    -0.015 A 
ATOM     28  C   UNL     1       9.394   2.462   0.680  1.00  0.00    -0.018 A 
ATOM     29  C   UNL     1      10.716   0.832  -0.540  1.00  0.00     0.009 A 
ATOM     30  C   UNL     1      10.238   3.476   0.202  1.00  0.00     0.009 A 
ATOM     31  C   UNL     1      11.555   1.850  -0.998  1.00  0.00     0.001 A 
ATOM     32  C   UNL     1      11.313   3.171  -0.632  1.00  0.00     0.001 A 
ENDBRANCH  22  23
ENDBRANCH   7  22
ENDBRANCH   5   7
ENDBRANCH   4   5
ENDBRANCH   3   4
ENDBRANCH   2   3
ENDBRANCH   1   2
BRANCH   1  33
ATOM     33  C   UNL     1       2.655  -4.143   2.088  1.00  0.00     0.202 C 
BRANCH  33  34
ATOM     34  C   UNL     1       1.840  -3.000   2.696  1.00  0.00     0.261 C 
BRANCH  34  35
ATOM     35  O   UNL     1       2.130  -2.683   4.054  1.00  0.00    -0.460 OA
BRANCH  35  36
ATOM     36  C   UNL     1       1.100  -2.864   4.910  1.00  0.00     0.338 C 
ATOM     37  O   UNL     1      -0.046  -3.184   4.661  1.00  0.00    -0.246 OA
BRANCH  36  38
ATOM     38  C   UNL     1       1.616  -2.722   6.275  1.00  0.00     0.060 A 
ATOM     39  C   UNL     1       1.800  -3.887   7.024  1.00  0.00     0.016 A 
ATOM     40  C   UNL     1       1.839  -1.460   6.828  1.00  0.00     0.016 A 
ATOM     41  C   UNL     1       2.172  -3.789   8.360  1.00  0.00     0.010 A 
ATOM     42  C   UNL     1       2.214  -1.364   8.170  1.00  0.00     0.010 A 
ATOM     43  C   UNL     1       2.346  -2.527   8.948  1.00  0.00    -0.014 A 
BRANCH  43  44
ATOM     44  C   UNL     1       2.532  -2.442  10.413  1.00  0.00     0.031 A 
ATOM     45  C   UNL     1       1.341  -2.150  11.282  1.00  0.00     0.074 A 
ATOM     46  C   UNL     1       3.736  -2.682  10.958  1.00  0.00     0.049 A 
ATOM     47  N   UNL     1       1.264  -2.086  12.586  1.00  0.00    -0.248 NA
ATOM     48  C   UNL     1       0.067  -1.901  10.588  1.00  0.00     0.031 C 
ATOM     49  C   UNL     1       4.953  -2.996  10.211  1.00  0.00     0.029 A 
ATOM     50  N   UNL     1       4.129  -2.706  12.271  1.00  0.00    -0.354 N 
ATOM     51  C   UNL     1      -0.065  -1.796  12.869  1.00  0.00     0.074 A 
ATOM     52  C   UNL     1      -0.750  -1.660  11.602  1.00  0.00     0.031 C 
ATOM     53  C   UNL     1       5.960  -3.187  11.080  1.00  0.00     0.029 A 
ATOM     54  C   UNL     1       5.462  -2.988  12.439  1.00  0.00     0.049 A 
ATOM     55  H   UNL     1       3.515  -2.537  13.022  1.00  0.00     0.167 HD
ATOM     56  C   UNL     1      -0.661  -1.668  14.078  1.00  0.00     0.037 A 
ATOM     57  C   UNL     1       6.194  -3.071  13.566  1.00  0.00     0.037 A 
ATOM     58  C   UNL     1       0.027  -1.802  15.334  1.00  0.00     0.049 A 
ATOM     59  C   UNL     1       5.519  -2.873  14.895  1.00  0.00     0.074 A 
ATOM     60  C   UNL     1      -0.487  -1.705  16.615  1.00  0.00     0.029 A 
ATOM     61  N   UNL     1       1.385  -2.053  15.463  1.00  0.00    -0.354 N 
ATOM     62  N   UNL     1       4.255  -2.635  15.153  1.00  0.00    -0.248 NA
ATOM     63  C   UNL     1       6.370  -2.961  16.090  1.00  0.00     0.031 C 
ATOM     64  C   UNL     1       0.569  -1.858  17.520  1.00  0.00     0.029 A 
ATOM     65  C   UNL     1       1.732  -2.092  16.803  1.00  0.00     0.049 A 
ATOM     66  H   UNL     1       2.009  -2.184  14.714  1.00  0.00     0.167 HD
ATOM     67  C   UNL     1       4.154  -2.567  16.537  1.00  0.00     0.074 A 
ATOM     68  C   UNL     1       5.483  -2.803  17.064  1.00  0.00     0.031 C 
ATOM     69  C   UNL     1       3.062  -2.332  17.304  1.00  0.00     0.037 A 
BRANCH  56  70
ATOM     70  C   UNL     1      -2.127  -1.351  14.092  1.00  0.00     0.057 A 
ATOM     71  C   UNL     1      -3.092  -2.305  13.747  1.00  0.00     0.134 A 
ATOM     72  C   UNL     1      -2.579  -0.083  14.475  1.00  0.00     0.134 A 
ATOM     73  F   UNL     1      -2.724  -3.535  13.355  1.00  0.00    -0.206 F 
ATOM     74  C   UNL     1      -4.455  -2.003  13.762  1.00  0.00     0.040 A 
ATOM     75  C   UNL     1      -3.940   0.225  14.516  1.00  0.00     0.040 A 
ATOM     76  F   UNL     1      -1.707   0.877  14.819  1.00  0.00    -0.206 F 
ATOM     77  C   UNL     1      -4.882  -0.735  14.153  1.00  0.00     0.006 A 
ENDBRANCH  56  70
BRANCH  57  78
ATOM     78  C   UNL     1       7.648  -3.357  13.485  1.00  0.00     0.057 A 
ATOM     79  C   UNL     1       8.175  -4.579  13.915  1.00  0.00     0.134 A 
ATOM     80  C   UNL     1       8.546  -2.409  12.978  1.00  0.00     0.134 A 
ATOM     81  F   UNL     1       7.367  -5.518  14.429  1.00  0.00    -0.206 F 
ATOM     82  C   UNL     1       9.544  -4.846  13.859  1.00  0.00     0.040 A 
ATOM     83  C   UNL     1       9.915  -2.671  12.894  1.00  0.00     0.040 A 
ATOM     84  F   UNL     1       8.104  -1.219  12.547  1.00  0.00    -0.206 F 
ATOM     85  C   UNL     1      10.417  -3.891  13.341  1.00  0.00     0.006 A 
ENDBRANCH  57  78
BRANCH  69  86
ATOM     86  C   UNL     1       3.255  -2.342  18.791  1.00  0.00     0.057 A 
ATOM     87  C   UNL     1       3.893  -1.290  19.458  1.00  0.00     0.134 A 
ATOM     88  C   UNL     1       2.761  -3.398  19.566  1.00  0.00     0.134 A 
ATOM     89  F   UNL     1       4.399  -0.255  18.769  1.00  0.00    -0.206 F 
ATOM     90  C   UNL     1       4.052  -1.297  20.844  1.00  0.00     0.040 A 
ATOM     91  C   UNL     1       2.893  -3.406  20.955  1.00  0.00     0.040 A 
ATOM     92  F   UNL     1       2.132  -4.432  18.988  1.00  0.00    -0.206 F 
ATOM     93  C   UNL     1       3.545  -2.355  21.597  1.00  0.00     0.006 A 
ENDBRANCH  69  86
ENDBRANCH  43  44
ENDBRANCH  36  38
ENDBRANCH  35  36
ENDBRANCH  34  35
ENDBRANCH  33  34
ENDBRANCH   1  33
TORSDOF 17
