REMARK SMILES C[NH2+][C@@]1(C(=O)OCCOCCOC(=O)c2ccc(-c3c4nc(c(-c5c(F)cccc5F)c5ccc([nH]5)c(-c5c(F)cccc5F)c5nc(c(-c6c(F)cccc6F)c6ccc3[nH]6)C=C5)C=C4)cc2)CC[C@@H]([N@@H+](C)C2CCCCCC2)C1
REMARK SMILES IDX 7 1 6 2 4 3 5 4 3 5 69 6 81 7 70 8 71 9 2 10 1 11 72 14
REMARK SMILES IDX 73 15 74 17 75 18 76 19 77 20 78 21 80 23 79 24 8 26 9 27
REMARK SMILES IDX 10 28 11 29 12 30 13 31 14 32 15 33 16 34 68 35 17 36 67 37
REMARK SMILES IDX 18 38 19 39 20 40 61 41 21 42 66 43 60 44 62 45 22 46 65 47
REMARK SMILES IDX 59 48 58 49 23 51 49 52 32 53 48 54 33 55 36 56 47 57 63 58
REMARK SMILES IDX 34 59 35 60 46 62 64 63 37 64 24 65 25 66 30 67 26 68 27 69
REMARK SMILES IDX 29 70 31 71 28 72 50 73 51 74 56 75 52 76 53 77 55 78 57 79
REMARK SMILES IDX 54 80 38 81 39 82 44 83 40 84 41 85 43 86 45 87 42 88
REMARK H PARENT 2 12 2 13 72 16 62 50 36 61
REMARK Flexibility Score: 80.00
ROOT
ATOM      1  C   UNL     1      -2.614   0.154   5.015  1.00  0.00     0.261 C 
ENDROOT
BRANCH   1   2
ATOM      2  O   UNL     1      -2.365  -0.073   3.619  1.00  0.00    -0.459 OA
BRANCH   2   3
ATOM      3  C   UNL     1      -1.331   0.666   3.135  1.00  0.00     0.368 C 
ATOM      4  O   UNL     1      -0.750   1.532   3.790  1.00  0.00    -0.245 OA
BRANCH   3   5
ATOM      5  C   UNL     1      -0.939   0.336   1.656  1.00  0.00     0.200 C 
ATOM      6  C   UNL     1      -1.565   1.494   0.864  1.00  0.00     0.087 C 
ATOM      7  C   UNL     1      -1.526  -0.958   1.039  1.00  0.00     0.146 C 
ATOM      8  C   UNL     1      -2.874   0.960   0.283  1.00  0.00     0.072 C 
ATOM      9  C   UNL     1      -2.755  -0.565   0.192  1.00  0.00     0.191 C 
BRANCH   5  10
ATOM     10  N   UNL     1       0.546   0.291   1.704  1.00  0.00    -0.334 N 
ATOM     11  C   UNL     1       1.309   0.314   0.479  1.00  0.00     0.331 C 
ATOM     12  H   UNL     1       0.847   1.095   2.254  1.00  0.00     0.347 HD
ATOM     13  H   UNL     1       0.740  -0.636   2.084  1.00  0.00     0.347 HD
ENDBRANCH   5  10
BRANCH   9  14
ATOM     14  N   UNL     1      -2.976  -1.267  -1.098  1.00  0.00    -0.332 N 
ATOM     15  C   UNL     1      -4.416  -1.311  -1.413  1.00  0.00     0.333 C 
ATOM     16  H   UNL     1      -2.542  -2.154  -0.841  1.00  0.00     0.348 HD
BRANCH  14  17
ATOM     17  C   UNL     1      -2.188  -1.014  -2.342  1.00  0.00     0.184 C 
BRANCH  17  18
ATOM     18  C   UNL     1      -2.321   0.371  -3.013  1.00  0.00     0.065 C 
BRANCH  18  19
ATOM     19  C   UNL     1      -1.235   1.365  -2.631  1.00  0.00     0.006 C 
BRANCH  19  20
ATOM     20  C   UNL     1      -0.020   1.356  -3.545  1.00  0.00     0.000 C 
BRANCH  20  21
ATOM     21  C   UNL     1       0.861   0.118  -3.400  1.00  0.00     0.000 CG0
ATOM     22  G   UNL     1       0.136  -1.228  -3.499  1.00  0.00     0.000 G0
ENDBRANCH  20  21
ENDBRANCH  19  20
ENDBRANCH  18  19
ENDBRANCH  17  18
BRANCH  17  23
ATOM     23  C   UNL     1      -0.742  -1.541  -2.278  1.00  0.00     0.065 C 
BRANCH  23  24
ATOM     24  C   UNL     1       0.136  -1.228  -3.499  1.00  0.00     0.006 CG0
ATOM     25  G   UNL     1       0.861   0.118  -3.400  1.00  0.00     0.000 G0
ENDBRANCH  23  24
ENDBRANCH  17  23
ENDBRANCH  14  17
ENDBRANCH   9  14
ENDBRANCH   3   5
ENDBRANCH   2   3
ENDBRANCH   1   2
BRANCH   1  26
ATOM     26  C   UNL     1      -2.096  -0.970   5.918  1.00  0.00     0.202 C 
BRANCH  26  27
ATOM     27  O   UNL     1      -0.771  -1.443   5.710  1.00  0.00    -0.374 OA
BRANCH  27  28
ATOM     28  C   UNL     1      -0.514  -2.271   4.576  1.00  0.00     0.202 C 
BRANCH  28  29
ATOM     29  C   UNL     1      -1.244  -3.616   4.492  1.00  0.00     0.261 C 
BRANCH  29  30
ATOM     30  O   UNL     1      -2.652  -3.445   4.237  1.00  0.00    -0.460 OA
BRANCH  30  31
ATOM     31  C   UNL     1      -3.467  -4.035   5.143  1.00  0.00     0.338 C 
ATOM     32  O   UNL     1      -3.144  -4.756   6.077  1.00  0.00    -0.246 OA
BRANCH  31  33
ATOM     33  C   UNL     1      -4.839  -3.527   4.991  1.00  0.00     0.060 A 
ATOM     34  C   UNL     1      -5.398  -2.833   6.073  1.00  0.00     0.016 A 
ATOM     35  C   UNL     1      -5.605  -3.830   3.865  1.00  0.00     0.016 A 
ATOM     36  C   UNL     1      -6.744  -2.483   6.055  1.00  0.00     0.010 A 
ATOM     37  C   UNL     1      -6.963  -3.494   3.856  1.00  0.00     0.010 A 
ATOM     38  C   UNL     1      -7.544  -2.858   4.969  1.00  0.00    -0.014 A 
BRANCH  38  39
ATOM     39  C   UNL     1      -9.016  -2.752   5.096  1.00  0.00     0.031 A 
ATOM     40  C   UNL     1      -9.791  -3.959   5.550  1.00  0.00     0.074 A 
ATOM     41  C   UNL     1      -9.646  -1.586   4.872  1.00  0.00     0.049 A 
ATOM     42  N   UNL     1     -11.078  -4.097   5.737  1.00  0.00    -0.248 NA
ATOM     43  C   UNL     1      -9.007  -5.172   5.835  1.00  0.00     0.031 C 
ATOM     44  C   UNL     1      -8.998  -0.337   4.479  1.00  0.00     0.029 A 
ATOM     45  N   UNL     1     -10.978  -1.269   4.946  1.00  0.00    -0.354 N 
ATOM     46  C   UNL     1     -11.258  -5.408   6.160  1.00  0.00     0.074 A 
ATOM     47  C   UNL     1      -9.953  -6.033   6.176  1.00  0.00     0.031 C 
ATOM     48  C   UNL     1      -9.938   0.614   4.337  1.00  0.00     0.029 A 
ATOM     49  C   UNL     1     -11.252   0.032   4.605  1.00  0.00     0.049 A 
ATOM     50  H   UNL     1     -11.672  -1.912   5.219  1.00  0.00     0.167 HD
ATOM     51  C   UNL     1     -12.406  -6.032   6.513  1.00  0.00     0.037 A 
ATOM     52  C   UNL     1     -12.432   0.672   4.506  1.00  0.00     0.037 A 
ATOM     53  C   UNL     1     -13.703  -5.412   6.496  1.00  0.00     0.049 A 
ATOM     54  C   UNL     1     -13.704  -0.065   4.832  1.00  0.00     0.074 A 
ATOM     55  C   UNL     1     -14.926  -5.957   6.845  1.00  0.00     0.029 A 
ATOM     56  N   UNL     1     -13.945  -4.104   6.103  1.00  0.00    -0.354 N 
ATOM     57  N   UNL     1     -13.861  -1.299   5.247  1.00  0.00    -0.248 NA
ATOM     58  C   UNL     1     -14.961   0.681   4.677  1.00  0.00     0.031 C 
ATOM     59  C   UNL     1     -15.914  -4.992   6.622  1.00  0.00     0.029 A 
ATOM     60  C   UNL     1     -15.300  -3.832   6.177  1.00  0.00     0.049 A 
ATOM     61  H   UNL     1     -13.255  -3.464   5.814  1.00  0.00     0.167 HD
ATOM     62  C   UNL     1     -15.229  -1.470   5.426  1.00  0.00     0.074 A 
ATOM     63  C   UNL     1     -15.855  -0.209   5.085  1.00  0.00     0.031 C 
ATOM     64  C   UNL     1     -15.905  -2.570   5.838  1.00  0.00     0.037 A 
BRANCH  51  65
ATOM     65  C   UNL     1     -12.309  -7.471   6.923  1.00  0.00     0.057 A 
ATOM     66  C   UNL     1     -11.770  -7.852   8.159  1.00  0.00     0.134 A 
ATOM     67  C   UNL     1     -12.781  -8.486   6.082  1.00  0.00     0.134 A 
ATOM     68  F   UNL     1     -11.285  -6.929   9.003  1.00  0.00    -0.206 F 
ATOM     69  C   UNL     1     -11.687  -9.194   8.534  1.00  0.00     0.040 A 
ATOM     70  C   UNL     1     -12.724  -9.829   6.455  1.00  0.00     0.040 A 
ATOM     71  F   UNL     1     -13.309  -8.187   4.885  1.00  0.00    -0.206 F 
ATOM     72  C   UNL     1     -12.171 -10.187   7.684  1.00  0.00     0.006 A 
ENDBRANCH  51  65
BRANCH  52  73
ATOM     73  C   UNL     1     -12.473   2.088   4.063  1.00  0.00     0.057 A 
ATOM     74  C   UNL     1     -12.823   3.116   4.945  1.00  0.00     0.134 A 
ATOM     75  C   UNL     1     -12.180   2.443   2.741  1.00  0.00     0.134 A 
ATOM     76  F   UNL     1     -13.137   2.835   6.218  1.00  0.00    -0.206 F 
ATOM     77  C   UNL     1     -12.895   4.445   4.526  1.00  0.00     0.040 A 
ATOM     78  C   UNL     1     -12.226   3.770   2.313  1.00  0.00     0.040 A 
ATOM     79  F   UNL     1     -11.838   1.503   1.847  1.00  0.00    -0.206 F 
ATOM     80  C   UNL     1     -12.590   4.776   3.206  1.00  0.00     0.006 A 
ENDBRANCH  52  73
BRANCH  64  81
ATOM     81  C   UNL     1     -17.395  -2.451   5.970  1.00  0.00     0.057 A 
ATOM     82  C   UNL     1     -18.234  -2.417   4.850  1.00  0.00     0.134 A 
ATOM     83  C   UNL     1     -17.997  -2.416   7.234  1.00  0.00     0.134 A 
ATOM     84  F   UNL     1     -17.718  -2.436   3.612  1.00  0.00    -0.206 F 
ATOM     85  C   UNL     1     -19.621  -2.332   4.983  1.00  0.00     0.040 A 
ATOM     86  C   UNL     1     -19.383  -2.355   7.379  1.00  0.00     0.040 A 
ATOM     87  F   UNL     1     -17.249  -2.455   8.347  1.00  0.00    -0.206 F 
ATOM     88  C   UNL     1     -20.199  -2.307   6.251  1.00  0.00     0.006 A 
ENDBRANCH  64  81
ENDBRANCH  38  39
ENDBRANCH  31  33
ENDBRANCH  30  31
ENDBRANCH  29  30
ENDBRANCH  28  29
ENDBRANCH  27  28
ENDBRANCH  26  27
ENDBRANCH   1  26
TORSDOF 17
