REMARK SMILES COc1ccc([C@@H]2C(C#N)=C(N)N3C(=O)[C@H](CC(=O)OCCOCCOC(=O)c4ccc(-c5c6nc(c(-c7c(F)cccc7F)c7ccc([nH]7)c(-c7c(F)cccc7F)c7nc(c(-c8c(F)cccc8F)c8ccc5[nH]8)C=C7)C=C6)cc4)SC3=C2C#N)cc1
REMARK SMILES IDX 22 1 21 2 20 3 18 4 19 5 17 6 16 7 7 8 8 9 85 10 11 11 84 12
REMARK SMILES IDX 13 13 83 14 14 15 15 16 6 17 3 18 4 19 89 20 5 21 88 22 2 23
REMARK SMILES IDX 1 24 9 25 10 26 86 27 87 28 12 29 23 32 24 33 25 34 26 35
REMARK SMILES IDX 27 36 28 37 29 38 30 39 82 40 31 41 81 42 32 43 33 44 34 45
REMARK SMILES IDX 75 46 35 47 80 48 74 49 76 50 36 51 79 52 73 53 72 54 37 56
REMARK SMILES IDX 63 57 46 58 62 59 47 60 50 61 61 62 77 63 48 64 49 65 60 67
REMARK SMILES IDX 78 68 51 69 38 70 39 71 44 72 40 73 41 74 43 75 45 76 42 77
REMARK SMILES IDX 64 78 65 79 70 80 66 81 67 82 69 83 71 84 68 85 52 86 53 87
REMARK SMILES IDX 58 88 54 89 55 90 57 91 59 92 56 93
REMARK H PARENT 12 30 12 31 76 55 50 66
REMARK Flexibility Score: inf
ROOT
ATOM      1  C   UNL     1       7.029   1.318 -13.370  1.00  0.00     0.202 C 
ENDROOT
BRANCH   1   2
ATOM      2  C   UNL     1       7.914   1.833 -12.234  1.00  0.00     0.261 C 
BRANCH   2   3
ATOM      3  O   UNL     1       7.185   1.815 -10.990  1.00  0.00    -0.463 OA
BRANCH   3   4
ATOM      4  C   UNL     1       7.224   2.940 -10.237  1.00  0.00     0.307 C 
ATOM      5  O   UNL     1       7.841   3.957 -10.526  1.00  0.00    -0.252 OA
BRANCH   4   6
ATOM      6  C   UNL     1       6.457   2.795  -8.944  1.00  0.00     0.147 C 
BRANCH   6   7
ATOM      7  C   UNL     1       5.130   2.063  -9.097  1.00  0.00     0.154 C 
ATOM      8  C   UNL     1       1.994  -0.541  -6.222  1.00  0.00     0.107 C 
ATOM      9  C   UNL     1       3.055  -1.517  -6.688  1.00  0.00     0.083 C 
ATOM     10  C   UNL     1       2.359   0.873  -6.590  1.00  0.00     0.073 C 
ATOM     11  C   UNL     1       4.068  -1.186  -7.525  1.00  0.00     0.126 C 
ATOM     12  C   UNL     1       3.385   1.116  -7.424  1.00  0.00     0.099 C 
ATOM     13  N   UNL     1       4.207   0.140  -7.952  1.00  0.00    -0.258 N 
ATOM     14  S   UNL     1       3.891   2.696  -7.912  1.00  0.00    -0.093 SA
ATOM     15  C   UNL     1       5.244   0.576  -8.793  1.00  0.00     0.247 C 
ATOM     16  O   UNL     1       6.128  -0.136  -9.265  1.00  0.00    -0.273 OA
BRANCH   8  17
ATOM     17  C   UNL     1       1.633  -0.681  -4.745  1.00  0.00    -0.034 A 
ATOM     18  C   UNL     1       0.872  -0.826  -2.038  1.00  0.00     0.118 A 
ATOM     19  C   UNL     1      -0.053  -1.102  -3.042  1.00  0.00     0.047 A 
ATOM     20  C   UNL     1       2.189  -0.518  -2.379  1.00  0.00     0.047 A 
ATOM     21  C   UNL     1       0.318  -1.021  -4.385  1.00  0.00     0.008 A 
ATOM     22  C   UNL     1       2.569  -0.445  -3.724  1.00  0.00     0.008 A 
BRANCH  18  23
ATOM     23  O   UNL     1       0.402  -0.928  -0.758  1.00  0.00    -0.497 OA
ATOM     24  C   UNL     1       0.949   0.020   0.152  1.00  0.00     0.278 C 
ENDBRANCH  18  23
ENDBRANCH   8  17
BRANCH   9  25
ATOM     25  C   UNL     1       3.028  -2.908  -6.076  1.00  0.00     0.100 C 
ATOM     26  N   UNL     1       3.005  -4.062  -5.569  1.00  0.00    -0.193 NA
ENDBRANCH   9  25
BRANCH  10  27
ATOM     27  C   UNL     1       1.656   2.019  -5.880  1.00  0.00     0.098 C 
ATOM     28  N   UNL     1       1.073   2.969  -5.292  1.00  0.00    -0.193 NA
ENDBRANCH  10  27
BRANCH  11  29
ATOM     29  N   UNL     1       4.978  -2.122  -7.942  1.00  0.00    -0.384 N 
ATOM     30  H   UNL     1       4.891  -3.058  -7.649  1.00  0.00     0.158 HD
ATOM     31  H   UNL     1       5.719  -1.859  -8.536  1.00  0.00     0.158 HD
ENDBRANCH  11  29
ENDBRANCH   6   7
ENDBRANCH   4   6
ENDBRANCH   3   4
ENDBRANCH   2   3
ENDBRANCH   1   2
BRANCH   1  32
ATOM     32  O   UNL     1       6.068   2.252 -13.867  1.00  0.00    -0.374 OA
BRANCH  32  33
ATOM     33  C   UNL     1       4.939   2.521 -13.041  1.00  0.00     0.202 C 
BRANCH  33  34
ATOM     34  C   UNL     1       3.796   1.501 -13.125  1.00  0.00     0.261 C 
BRANCH  34  35
ATOM     35  O   UNL     1       4.199   0.182 -12.709  1.00  0.00    -0.460 OA
BRANCH  35  36
ATOM     36  C   UNL     1       4.298  -0.716 -13.720  1.00  0.00     0.338 C 
ATOM     37  O   UNL     1       3.995  -0.543 -14.893  1.00  0.00    -0.246 OA
BRANCH  36  38
ATOM     38  C   UNL     1       4.980  -1.943 -13.270  1.00  0.00     0.060 A 
ATOM     39  C   UNL     1       6.076  -2.380 -14.024  1.00  0.00     0.016 A 
ATOM     40  C   UNL     1       4.507  -2.708 -12.201  1.00  0.00     0.016 A 
ATOM     41  C   UNL     1       6.676  -3.606 -13.742  1.00  0.00     0.010 A 
ATOM     42  C   UNL     1       5.105  -3.944 -11.925  1.00  0.00     0.010 A 
ATOM     43  C   UNL     1       6.171  -4.414 -12.716  1.00  0.00    -0.014 A 
BRANCH  43  44
ATOM     44  C   UNL     1       6.681  -5.799 -12.565  1.00  0.00     0.031 A 
ATOM     45  C   UNL     1       5.902  -6.941 -13.159  1.00  0.00     0.074 A 
ATOM     46  C   UNL     1       7.850  -6.037 -11.944  1.00  0.00     0.049 A 
ATOM     47  N   UNL     1       6.166  -8.223 -13.143  1.00  0.00    -0.248 NA
ATOM     48  C   UNL     1       4.662  -6.590 -13.868  1.00  0.00     0.031 C 
ATOM     49  C   UNL     1       8.718  -5.017 -11.358  1.00  0.00     0.029 A 
ATOM     50  N   UNL     1       8.507  -7.218 -11.702  1.00  0.00    -0.354 N 
ATOM     51  C   UNL     1       5.126  -8.832 -13.834  1.00  0.00     0.074 A 
ATOM     52  C   UNL     1       4.213  -7.783 -14.234  1.00  0.00     0.031 C 
ATOM     53  C   UNL     1       9.791  -5.618 -10.816  1.00  0.00     0.029 A 
ATOM     54  C   UNL     1       9.673  -7.064 -10.994  1.00  0.00     0.049 A 
ATOM     55  H   UNL     1       8.173  -8.092 -12.008  1.00  0.00     0.167 HD
ATOM     56  C   UNL     1       4.952 -10.145 -14.118  1.00  0.00     0.037 A 
ATOM     57  C   UNL     1      10.537  -7.987 -10.528  1.00  0.00     0.037 A 
ATOM     58  C   UNL     1       5.861 -11.191 -13.728  1.00  0.00     0.049 A 
ATOM     59  C   UNL     1      10.288  -9.446 -10.803  1.00  0.00     0.074 A 
ATOM     60  C   UNL     1       5.779 -12.547 -13.993  1.00  0.00     0.029 A 
ATOM     61  N   UNL     1       7.013 -10.998 -12.983  1.00  0.00    -0.354 N 
ATOM     62  N   UNL     1       9.318 -10.006 -11.484  1.00  0.00    -0.248 NA
ATOM     63  C   UNL     1      11.258 -10.401 -10.247  1.00  0.00     0.031 C 
ATOM     64  C   UNL     1       6.860 -13.181 -13.371  1.00  0.00     0.029 A 
ATOM     65  C   UNL     1       7.639 -12.213 -12.758  1.00  0.00     0.049 A 
ATOM     66  H   UNL     1       7.340 -10.126 -12.662  1.00  0.00     0.167 HD
ATOM     67  C   UNL     1       9.574 -11.372 -11.460  1.00  0.00     0.074 A 
ATOM     68  C   UNL     1      10.797 -11.556 -10.708  1.00  0.00     0.031 C 
ATOM     69  C   UNL     1       8.861 -12.382 -12.014  1.00  0.00     0.037 A 
BRANCH  56  70
ATOM     70  C   UNL     1       3.717 -10.530 -14.876  1.00  0.00     0.057 A 
ATOM     71  C   UNL     1       3.576 -10.265 -16.243  1.00  0.00     0.134 A 
ATOM     72  C   UNL     1       2.674 -11.215 -14.238  1.00  0.00     0.134 A 
ATOM     73  F   UNL     1       4.533  -9.602 -16.909  1.00  0.00    -0.206 F 
ATOM     74  C   UNL     1       2.434 -10.652 -16.947  1.00  0.00     0.040 A 
ATOM     75  C   UNL     1       1.538 -11.627 -14.935  1.00  0.00     0.040 A 
ATOM     76  F   UNL     1       2.749 -11.504 -12.930  1.00  0.00    -0.206 F 
ATOM     77  C   UNL     1       1.414 -11.342 -16.293  1.00  0.00     0.006 A 
ENDBRANCH  56  70
BRANCH  57  78
ATOM     78  C   UNL     1      11.717  -7.563  -9.734  1.00  0.00     0.057 A 
ATOM     79  C   UNL     1      13.016  -7.680 -10.242  1.00  0.00     0.134 A 
ATOM     80  C   UNL     1      11.574  -7.057  -8.436  1.00  0.00     0.134 A 
ATOM     81  F   UNL     1      13.217  -8.182 -11.469  1.00  0.00    -0.206 F 
ATOM     82  C   UNL     1      14.132  -7.324  -9.483  1.00  0.00     0.040 A 
ATOM     83  C   UNL     1      12.679  -6.676  -7.675  1.00  0.00     0.040 A 
ATOM     84  F   UNL     1      10.356  -6.921  -7.893  1.00  0.00    -0.206 F 
ATOM     85  C   UNL     1      13.964  -6.816  -8.196  1.00  0.00     0.006 A 
ENDBRANCH  57  78
BRANCH  69  86
ATOM     86  C   UNL     1       9.399 -13.774 -11.858  1.00  0.00     0.057 A 
ATOM     87  C   UNL     1       9.334 -14.459 -10.639  1.00  0.00     0.134 A 
ATOM     88  C   UNL     1       9.950 -14.452 -12.953  1.00  0.00     0.134 A 
ATOM     89  F   UNL     1       8.829 -13.861  -9.549  1.00  0.00    -0.206 F 
ATOM     90  C   UNL     1       9.815 -15.763 -10.509  1.00  0.00     0.040 A 
ATOM     91  C   UNL     1      10.413 -15.764 -12.842  1.00  0.00     0.040 A 
ATOM     92  F   UNL     1      10.034 -13.856 -14.152  1.00  0.00    -0.206 F 
ATOM     93  C   UNL     1      10.351 -16.422 -11.615  1.00  0.00     0.006 A 
ENDBRANCH  69  86
ENDBRANCH  43  44
ENDBRANCH  36  38
ENDBRANCH  35  36
ENDBRANCH  34  35
ENDBRANCH  33  34
ENDBRANCH  32  33
ENDBRANCH   1  32
TORSDOF 20
