REMARK SMILES O=C(C[C@H](C(=O)OCCOCCOC(=O)c1ccc(-c2c3nc(c(-c4c(F)cccc4F)c4ccc([nH]4)c(-c4c(F)cccc4F)c4nc(c(-c5c(F)cccc5F)c5ccc2[nH]5)C=C4)C=C3)cc1)c1ccccc1)Nc1ccc(Cl)cc1Cl
REMARK SMILES IDX 9 1 8 2 7 3 5 4 6 5 4 6 3 7 2 8 1 9 76 10 77 12 78 13 83 14
REMARK SMILES IDX 79 15 82 16 84 17 80 18 81 19 70 20 71 21 75 22 72 23 74 24
REMARK SMILES IDX 73 25 10 26 11 27 12 28 13 29 14 30 15 31 16 32 17 33 69 34
REMARK SMILES IDX 18 35 68 36 19 37 20 38 21 39 62 40 22 41 67 42 61 43 63 44
REMARK SMILES IDX 23 45 66 46 60 47 59 48 24 50 50 51 33 52 49 53 34 54 37 55
REMARK SMILES IDX 48 56 64 57 35 58 36 59 47 61 65 62 38 63 25 64 26 65 31 66
REMARK SMILES IDX 27 67 28 68 30 69 32 70 29 71 51 72 52 73 57 74 53 75 54 76
REMARK SMILES IDX 56 77 58 78 55 79 39 80 40 81 45 82 41 83 42 84 44 85 46 86
REMARK SMILES IDX 43 87
REMARK H PARENT 76 11 63 49 37 60
REMARK Flexibility Score: inf
ROOT
ATOM      1  C   UNL     1       1.135  -1.781   0.524  1.00  0.00     0.202 C 
ENDROOT
BRANCH   1   2
ATOM      2  C   UNL     1       1.896  -2.415  -0.645  1.00  0.00     0.261 C 
BRANCH   2   3
ATOM      3  O   UNL     1       3.006  -1.584  -1.044  1.00  0.00    -0.463 OA
BRANCH   3   4
ATOM      4  C   UNL     1       2.850  -0.893  -2.207  1.00  0.00     0.314 C 
ATOM      5  O   UNL     1       1.852  -0.953  -2.915  1.00  0.00    -0.252 OA
BRANCH   4   6
ATOM      6  C   UNL     1       4.061  -0.031  -2.546  1.00  0.00     0.138 C 
BRANCH   6   7
ATOM      7  C   UNL     1       4.691   0.729  -1.369  1.00  0.00     0.120 C 
BRANCH   7   8
ATOM      8  C   UNL     1       5.517  -0.100  -0.412  1.00  0.00     0.225 C 
ATOM      9  O   UNL     1       6.674  -0.418  -0.665  1.00  0.00    -0.275 OA
ATOM     10  N   UNL     1       4.830  -0.463   0.735  1.00  0.00    -0.325 N 
ATOM     11  H   UNL     1       3.873  -0.244   0.804  1.00  0.00     0.169 HD
BRANCH  10  12
ATOM     12  C   UNL     1       5.454  -1.133   1.804  1.00  0.00     0.060 A 
ATOM     13  C   UNL     1       4.846  -2.311   2.244  1.00  0.00     0.029 A 
ATOM     14  C   UNL     1       6.642  -0.695   2.416  1.00  0.00     0.066 A 
ATOM     15  C   UNL     1       5.479  -3.102   3.198  1.00  0.00     0.023 A 
ATOM     16  C   UNL     1       7.247  -1.471   3.404  1.00  0.00     0.043 A 
ATOM     17  Cl  UNL     1       7.324   0.866   2.115  1.00  0.00    -0.082 Cl
ATOM     18  C   UNL     1       6.677  -2.682   3.772  1.00  0.00     0.042 A 
ATOM     19  Cl  UNL     1       7.468  -3.654   4.942  1.00  0.00    -0.084 Cl
ENDBRANCH  10  12
ENDBRANCH   7   8
ENDBRANCH   6   7
BRANCH   6  20
ATOM     20  C   UNL     1       5.028  -0.699  -3.505  1.00  0.00    -0.033 A 
ATOM     21  C   UNL     1       5.061  -2.090  -3.691  1.00  0.00     0.004 A 
ATOM     22  C   UNL     1       5.873   0.102  -4.289  1.00  0.00     0.004 A 
ATOM     23  C   UNL     1       5.881  -2.657  -4.667  1.00  0.00     0.000 A 
ATOM     24  C   UNL     1       6.699  -0.468  -5.258  1.00  0.00     0.000 A 
ATOM     25  C   UNL     1       6.693  -1.846  -5.455  1.00  0.00     0.000 A 
ENDBRANCH   6  20
ENDBRANCH   4   6
ENDBRANCH   3   4
ENDBRANCH   2   3
ENDBRANCH   1   2
BRANCH   1  26
ATOM     26  O   UNL     1       0.325  -0.657   0.179  1.00  0.00    -0.374 OA
BRANCH  26  27
ATOM     27  C   UNL     1       0.988   0.593   0.014  1.00  0.00     0.202 C 
BRANCH  27  28
ATOM     28  C   UNL     1       1.147   1.437   1.280  1.00  0.00     0.261 C 
BRANCH  28  29
ATOM     29  O   UNL     1       1.894   0.740   2.293  1.00  0.00    -0.460 OA
BRANCH  29  30
ATOM     30  C   UNL     1       1.116   0.163   3.241  1.00  0.00     0.338 C 
ATOM     31  O   UNL     1      -0.104   0.209   3.314  1.00  0.00    -0.246 OA
BRANCH  30  32
ATOM     32  C   UNL     1       1.919  -0.678   4.149  1.00  0.00     0.060 A 
ATOM     33  C   UNL     1       1.370  -1.907   4.536  1.00  0.00     0.016 A 
ATOM     34  C   UNL     1       3.136  -0.253   4.685  1.00  0.00     0.016 A 
ATOM     35  C   UNL     1       1.992  -2.680   5.516  1.00  0.00     0.010 A 
ATOM     36  C   UNL     1       3.770  -1.044   5.652  1.00  0.00     0.010 A 
ATOM     37  C   UNL     1       3.179  -2.241   6.111  1.00  0.00    -0.014 A 
BRANCH  37  38
ATOM     38  C   UNL     1       3.750  -2.956   7.285  1.00  0.00     0.031 A 
ATOM     39  C   UNL     1       3.717  -2.302   8.642  1.00  0.00     0.074 A 
ATOM     40  C   UNL     1       4.314  -4.173   7.165  1.00  0.00     0.049 A 
ATOM     41  N   UNL     1       4.152  -2.760   9.788  1.00  0.00    -0.248 NA
ATOM     42  C   UNL     1       3.083  -0.977   8.727  1.00  0.00     0.031 C 
ATOM     43  C   UNL     1       4.343  -4.986   5.954  1.00  0.00     0.029 A 
ATOM     44  N   UNL     1       5.039  -4.909   8.071  1.00  0.00    -0.354 N 
ATOM     45  C   UNL     1       3.786  -1.815  10.736  1.00  0.00     0.074 A 
ATOM     46  C   UNL     1       3.200  -0.704  10.018  1.00  0.00     0.031 C 
ATOM     47  C   UNL     1       5.181  -6.020   6.136  1.00  0.00     0.029 A 
ATOM     48  C   UNL     1       5.698  -5.971   7.498  1.00  0.00     0.049 A 
ATOM     49  H   UNL     1       5.081  -4.698   9.031  1.00  0.00     0.167 HD
ATOM     50  C   UNL     1       3.872  -1.895  12.086  1.00  0.00     0.037 A 
ATOM     51  C   UNL     1       6.617  -6.808   8.012  1.00  0.00     0.037 A 
ATOM     52  C   UNL     1       4.483  -2.991  12.793  1.00  0.00     0.049 A 
ATOM     53  C   UNL     1       6.872  -6.785   9.489  1.00  0.00     0.074 A 
ATOM     54  C   UNL     1       4.548  -3.215  14.157  1.00  0.00     0.029 A 
ATOM     55  N   UNL     1       5.172  -4.032  12.187  1.00  0.00    -0.354 N 
ATOM     56  N   UNL     1       6.396  -5.969  10.396  1.00  0.00    -0.248 NA
ATOM     57  C   UNL     1       7.706  -7.867  10.025  1.00  0.00     0.031 C 
ATOM     58  C   UNL     1       5.336  -4.352  14.379  1.00  0.00     0.029 A 
ATOM     59  C   UNL     1       5.707  -4.874  13.150  1.00  0.00     0.049 A 
ATOM     60  H   UNL     1       5.267  -4.155  11.215  1.00  0.00     0.167 HD
ATOM     61  C   UNL     1       6.793  -6.492  11.620  1.00  0.00     0.074 A 
ATOM     62  C   UNL     1       7.573  -7.678  11.330  1.00  0.00     0.031 C 
ATOM     63  C   UNL     1       6.493  -6.051  12.867  1.00  0.00     0.037 A 
BRANCH  50  64
ATOM     64  C   UNL     1       3.270  -0.768  12.876  1.00  0.00     0.057 A 
ATOM     65  C   UNL     1       1.885  -0.535  12.891  1.00  0.00     0.134 A 
ATOM     66  C   UNL     1       4.073   0.090  13.635  1.00  0.00     0.134 A 
ATOM     67  F   UNL     1       1.056  -1.315  12.181  1.00  0.00    -0.206 F 
ATOM     68  C   UNL     1       1.329   0.532  13.598  1.00  0.00     0.040 A 
ATOM     69  C   UNL     1       3.525   1.144  14.370  1.00  0.00     0.040 A 
ATOM     70  F   UNL     1       5.403  -0.077  13.674  1.00  0.00    -0.206 F 
ATOM     71  C   UNL     1       2.151   1.374  14.344  1.00  0.00     0.006 A 
ENDBRANCH  50  64
BRANCH  51  72
ATOM     72  C   UNL     1       7.285  -7.805   7.142  1.00  0.00     0.057 A 
ATOM     73  C   UNL     1       6.875  -9.141   7.128  1.00  0.00     0.134 A 
ATOM     74  C   UNL     1       8.358  -7.448   6.317  1.00  0.00     0.134 A 
ATOM     75  F   UNL     1       5.871  -9.544   7.920  1.00  0.00    -0.206 F 
ATOM     76  C   UNL     1       7.514 -10.092   6.332  1.00  0.00     0.040 A 
ATOM     77  C   UNL     1       8.994  -8.384   5.500  1.00  0.00     0.040 A 
ATOM     78  F   UNL     1       8.818  -6.189   6.309  1.00  0.00    -0.206 F 
ATOM     79  C   UNL     1       8.574  -9.713   5.510  1.00  0.00     0.006 A 
ENDBRANCH  51  72
BRANCH  63  80
ATOM     80  C   UNL     1       6.958  -6.900  14.016  1.00  0.00     0.057 A 
ATOM     81  C   UNL     1       8.313  -7.052  14.336  1.00  0.00     0.134 A 
ATOM     82  C   UNL     1       6.029  -7.598  14.800  1.00  0.00     0.134 A 
ATOM     83  F   UNL     1       9.257  -6.426  13.617  1.00  0.00    -0.206 F 
ATOM     84  C   UNL     1       8.730  -7.905  15.361  1.00  0.00     0.040 A 
ATOM     85  C   UNL     1       6.431  -8.424  15.851  1.00  0.00     0.040 A 
ATOM     86  F   UNL     1       4.714  -7.494  14.557  1.00  0.00    -0.206 F 
ATOM     87  C   UNL     1       7.787  -8.591  16.124  1.00  0.00     0.006 A 
ENDBRANCH  63  80
ENDBRANCH  37  38
ENDBRANCH  30  32
ENDBRANCH  29  30
ENDBRANCH  28  29
ENDBRANCH  27  28
ENDBRANCH  26  27
ENDBRANCH   1  26
TORSDOF 18
