REMARK SMILES Cc1n[nH]c2c1[C@@]1(C(=O)N([C@@H](C)C(=O)OCCOCCOC(=O)c3ccc(-c4c5nc(c(-c6c(F)cccc6F)c6ccc([nH]6)c(-c6c(F)cccc6F)c6nc(c(-c7c(F)cccc7F)c7ccc4[nH]7)C=C6)C=C5)cc3)c3ccccc31)C(C#N)=C(N)O2
REMARK SMILES IDX 18 1 17 2 16 3 15 4 13 5 14 6 11 7 12 8 10 9 1 10 2 11 3 12
REMARK SMILES IDX 6 13 4 14 5 15 7 16 89 18 8 19 83 20 84 21 87 22 9 23 78 24
REMARK SMILES IDX 82 25 79 26 81 27 80 28 85 29 86 30 88 31 19 34 20 35 21 36
REMARK SMILES IDX 22 37 23 38 24 39 25 40 77 41 26 42 76 43 27 44 28 45 29 46
REMARK SMILES IDX 70 47 30 48 75 49 69 50 71 51 31 52 74 53 68 54 67 55 32 57
REMARK SMILES IDX 58 58 41 59 57 60 42 61 45 62 56 63 72 64 43 65 44 66 55 68
REMARK SMILES IDX 73 69 46 70 33 71 34 72 39 73 35 74 36 75 38 76 40 77 37 78
REMARK SMILES IDX 59 79 60 80 65 81 61 82 62 83 64 84 66 85 63 86 47 87 48 88
REMARK SMILES IDX 53 89 49 90 50 91 52 92 54 93 51 94
REMARK H PARENT 4 17 88 32 88 33 71 56 45 67
REMARK Flexibility Score: inf
ROOT
ATOM      1  O   UNL     1       5.643   2.522   6.599  1.00  0.00    -0.374 OA
ENDROOT
BRANCH   1   2
ATOM      2  C   UNL     1       6.569   2.829   5.560  1.00  0.00     0.202 C 
BRANCH   2   3
ATOM      3  C   UNL     1       6.519   1.984   4.279  1.00  0.00     0.261 C 
BRANCH   3   4
ATOM      4  O   UNL     1       5.202   1.828   3.705  1.00  0.00    -0.462 OA
BRANCH   4   5
ATOM      5  C   UNL     1       4.785   0.541   3.630  1.00  0.00     0.329 C 
ATOM      6  O   UNL     1       5.458  -0.420   4.007  1.00  0.00    -0.250 OA
BRANCH   5   7
ATOM      7  C   UNL     1       3.377   0.313   3.059  1.00  0.00     0.197 C 
ATOM      8  C   UNL     1       3.527  -0.691   1.910  1.00  0.00     0.044 C 
BRANCH   7   9
ATOM      9  N   UNL     1       2.409   1.374   2.707  1.00  0.00    -0.297 N 
ATOM     10  C   UNL     1       0.870  -0.115  -0.329  1.00  0.00     0.069 C 
ATOM     11  C   UNL     1       0.460   1.254  -0.711  1.00  0.00     0.068 A 
ATOM     12  N   UNL     1      -0.102   1.446  -1.917  1.00  0.00    -0.177 NA
ATOM     13  C   UNL     1       0.584   2.472   0.008  1.00  0.00     0.063 A 
ATOM     14  N   UNL     1      -0.309   2.772  -1.983  1.00  0.00    -0.246 N 
ATOM     15  C   UNL     1       0.083   3.416  -0.857  1.00  0.00     0.222 A 
ATOM     16  C   UNL     1       1.126   2.902   1.341  1.00  0.00     0.149 C 
ATOM     17  H   UNL     1      -0.702   3.225  -2.763  1.00  0.00     0.193 HD
ATOM     18  O   UNL     1       0.001   4.730  -0.690  1.00  0.00    -0.422 OA
ATOM     19  C   UNL     1       2.547   2.273   1.621  1.00  0.00     0.248 C 
ATOM     20  C   UNL     1       0.279   2.230   2.395  1.00  0.00     0.002 A 
ATOM     21  C   UNL     1       1.068   4.428   1.448  1.00  0.00     0.114 C 
ATOM     22  C   UNL     1       0.551   5.242   0.492  1.00  0.00     0.208 C 
ATOM     23  O   UNL     1       3.567   2.480   0.993  1.00  0.00    -0.273 OA
ATOM     24  C   UNL     1       1.075   1.376   3.174  1.00  0.00     0.050 A 
ATOM     25  C   UNL     1      -1.078   2.388   2.655  1.00  0.00     0.008 A 
ATOM     26  C   UNL     1       0.518   0.665   4.224  1.00  0.00     0.027 A 
ATOM     27  C   UNL     1      -1.639   1.675   3.712  1.00  0.00     0.001 A 
ATOM     28  C   UNL     1      -0.848   0.822   4.492  1.00  0.00     0.002 A 
BRANCH  21  29
ATOM     29  C   UNL     1       1.731   5.053   2.666  1.00  0.00     0.102 C 
ATOM     30  N   UNL     1       2.280   5.571   3.675  1.00  0.00    -0.193 NA
ENDBRANCH  21  29
BRANCH  22  31
ATOM     31  N   UNL     1       0.515   6.604   0.546  1.00  0.00    -0.369 N 
ATOM     32  H   UNL     1       0.875   7.075   1.332  1.00  0.00     0.159 HD
ATOM     33  H   UNL     1       0.129   7.116  -0.201  1.00  0.00     0.159 HD
ENDBRANCH  22  31
ENDBRANCH   7   9
ENDBRANCH   5   7
ENDBRANCH   4   5
ENDBRANCH   3   4
ENDBRANCH   2   3
ENDBRANCH   1   2
BRANCH   1  34
ATOM     34  C   UNL     1       4.252   2.707   6.335  1.00  0.00     0.202 C 
BRANCH  34  35
ATOM     35  C   UNL     1       3.789   4.095   5.883  1.00  0.00     0.261 C 
BRANCH  35  36
ATOM     36  O   UNL     1       4.464   4.486   4.685  1.00  0.00    -0.460 OA
BRANCH  36  37
ATOM     37  C   UNL     1       4.812   5.795   4.593  1.00  0.00     0.338 C 
ATOM     38  O   UNL     1       4.510   6.715   5.344  1.00  0.00    -0.246 OA
BRANCH  37  39
ATOM     39  C   UNL     1       5.932   5.846   3.644  1.00  0.00     0.060 A 
ATOM     40  C   UNL     1       5.966   5.046   2.495  1.00  0.00     0.016 A 
ATOM     41  C   UNL     1       7.085   6.457   4.146  1.00  0.00     0.016 A 
ATOM     42  C   UNL     1       7.198   4.731   1.944  1.00  0.00     0.010 A 
ATOM     43  C   UNL     1       8.312   6.120   3.611  1.00  0.00     0.010 A 
ATOM     44  C   UNL     1       8.366   5.201   2.561  1.00  0.00    -0.014 A 
BRANCH  44  45
ATOM     45  C   UNL     1       9.656   4.761   2.043  1.00  0.00     0.031 A 
ATOM     46  C   UNL     1      10.002   5.311   0.713  1.00  0.00     0.074 A 
ATOM     47  C   UNL     1      10.550   4.051   2.763  1.00  0.00     0.049 A 
ATOM     48  N   UNL     1      10.298   4.666  -0.366  1.00  0.00    -0.248 NA
ATOM     49  C   UNL     1       9.933   6.771   0.550  1.00  0.00     0.031 C 
ATOM     50  C   UNL     1      10.463   3.707   4.185  1.00  0.00     0.029 A 
ATOM     51  N   UNL     1      11.784   3.583   2.401  1.00  0.00    -0.354 N 
ATOM     52  C   UNL     1      10.633   5.641  -1.300  1.00  0.00     0.074 A 
ATOM     53  C   UNL     1      10.261   6.910  -0.733  1.00  0.00     0.031 C 
ATOM     54  C   UNL     1      11.668   3.265   4.609  1.00  0.00     0.029 A 
ATOM     55  C   UNL     1      12.572   3.187   3.473  1.00  0.00     0.049 A 
ATOM     56  H   UNL     1      12.085   3.531   1.465  1.00  0.00     0.167 HD
ATOM     57  C   UNL     1      11.424   5.354  -2.366  1.00  0.00     0.037 A 
ATOM     58  C   UNL     1      13.886   2.860   3.454  1.00  0.00     0.037 A 
ATOM     59  C   UNL     1      11.488   3.942  -2.624  1.00  0.00     0.049 A 
ATOM     60  C   UNL     1      14.264   2.511   2.067  1.00  0.00     0.074 A 
ATOM     61  C   UNL     1      10.626   2.973  -3.087  1.00  0.00     0.029 A 
ATOM     62  N   UNL     1      12.563   3.296  -2.077  1.00  0.00    -0.354 N 
ATOM     63  N   UNL     1      13.875   1.430   1.453  1.00  0.00    -0.248 NA
ATOM     64  C   UNL     1      14.892   3.516   1.218  1.00  0.00     0.031 C 
ATOM     65  C   UNL     1      11.099   1.738  -2.553  1.00  0.00     0.029 A 
ATOM     66  C   UNL     1      12.229   2.002  -1.780  1.00  0.00     0.049 A 
ATOM     67  H   UNL     1      13.446   3.702  -1.920  1.00  0.00     0.167 HD
ATOM     68  C   UNL     1      13.811   1.796   0.122  1.00  0.00     0.074 A 
ATOM     69  C   UNL     1      14.625   2.996   0.017  1.00  0.00     0.031 C 
ATOM     70  C   UNL     1      12.848   1.278  -0.692  1.00  0.00     0.037 A 
BRANCH  57  71
ATOM     71  C   UNL     1      12.487   6.293  -2.887  1.00  0.00     0.057 A 
ATOM     72  C   UNL     1      13.102   7.294  -2.106  1.00  0.00     0.134 A 
ATOM     73  C   UNL     1      13.148   5.977  -4.087  1.00  0.00     0.134 A 
ATOM     74  F   UNL     1      12.650   7.638  -0.894  1.00  0.00    -0.206 F 
ATOM     75  C   UNL     1      14.291   7.924  -2.483  1.00  0.00     0.040 A 
ATOM     76  C   UNL     1      14.367   6.564  -4.447  1.00  0.00     0.040 A 
ATOM     77  F   UNL     1      12.673   5.025  -4.904  1.00  0.00    -0.206 F 
ATOM     78  C   UNL     1      14.946   7.537  -3.640  1.00  0.00     0.006 A 
ENDBRANCH  57  71
BRANCH  58  79
ATOM     79  C   UNL     1      14.892   2.951   4.536  1.00  0.00     0.057 A 
ATOM     80  C   UNL     1      14.817   3.945   5.526  1.00  0.00     0.134 A 
ATOM     81  C   UNL     1      16.087   2.219   4.488  1.00  0.00     0.134 A 
ATOM     82  F   UNL     1      13.754   4.758   5.613  1.00  0.00    -0.206 F 
ATOM     83  C   UNL     1      15.867   4.201   6.413  1.00  0.00     0.040 A 
ATOM     84  C   UNL     1      17.152   2.474   5.361  1.00  0.00     0.040 A 
ATOM     85  F   UNL     1      16.274   1.276   3.554  1.00  0.00    -0.206 F 
ATOM     86  C   UNL     1      17.047   3.474   6.323  1.00  0.00     0.006 A 
ENDBRANCH  58  79
BRANCH  70  87
ATOM     87  C   UNL     1      12.240  -0.024  -0.272  1.00  0.00     0.057 A 
ATOM     88  C   UNL     1      12.420  -1.143  -1.092  1.00  0.00     0.134 A 
ATOM     89  C   UNL     1      11.449  -0.190   0.873  1.00  0.00     0.134 A 
ATOM     90  F   UNL     1      13.123  -1.041  -2.232  1.00  0.00    -0.206 F 
ATOM     91  C   UNL     1      11.862  -2.382  -0.777  1.00  0.00     0.040 A 
ATOM     92  C   UNL     1      10.915  -1.434   1.219  1.00  0.00     0.040 A 
ATOM     93  F   UNL     1      11.152   0.848   1.667  1.00  0.00    -0.206 F 
ATOM     94  C   UNL     1      11.120  -2.535   0.391  1.00  0.00     0.006 A 
ENDBRANCH  70  87
ENDBRANCH  44  45
ENDBRANCH  37  39
ENDBRANCH  36  37
ENDBRANCH  35  36
ENDBRANCH  34  35
ENDBRANCH   1  34
TORSDOF 17
