REMARK SMILES CC1(C(=O)N2CC(CC(=O)OCCOCCOC(=O)c3ccc(-c4c5nc(c(-c6c(F)cccc6F)c6ccc([nH]6)c(-c6c(F)cccc6F)c6nc(c(-c7c(F)cccc7F)c7ccc4[nH]7)C=C6)C=C5)cc3)C2)CCCC1
REMARK SMILES IDX 14 1 13 2 12 3 11 4 9 5 10 6 8 7 7 8 3 9 4 10 5 11 6 12
REMARK SMILES IDX 74 13 2 14 1 15 75 16 78 17 76 18 77 19 15 20 16 21 17 22
REMARK SMILES IDX 18 23 19 24 20 25 21 26 73 27 22 28 72 29 23 30 24 31 25 32
REMARK SMILES IDX 66 33 26 34 71 35 65 36 67 37 27 38 70 39 64 40 63 41 28 43
REMARK SMILES IDX 54 44 37 45 53 46 38 47 41 48 52 49 68 50 39 51 40 52 51 54
REMARK SMILES IDX 69 55 42 56 29 57 30 58 35 59 31 60 32 61 34 62 36 63 33 64
REMARK SMILES IDX 55 65 56 66 61 67 57 68 58 69 60 70 62 71 59 72 43 73 44 74
REMARK SMILES IDX 49 75 45 76 46 77 48 78 50 79 47 80
REMARK H PARENT 67 42 41 53
REMARK Flexibility Score: inf
ROOT
ATOM      1  O   UNL     1       9.224  -1.886   1.406  1.00  0.00    -0.374 OA
ENDROOT
BRANCH   1   2
ATOM      2  C   UNL     1       8.874  -2.251   0.071  1.00  0.00     0.202 C 
BRANCH   2   3
ATOM      3  C   UNL     1       8.013  -3.506  -0.085  1.00  0.00     0.261 C 
BRANCH   3   4
ATOM      4  O   UNL     1       6.690  -3.314   0.457  1.00  0.00    -0.463 OA
BRANCH   4   5
ATOM      5  C   UNL     1       6.274  -4.273   1.324  1.00  0.00     0.306 C 
ATOM      6  O   UNL     1       6.884  -5.304   1.578  1.00  0.00    -0.252 OA
BRANCH   5   7
ATOM      7  C   UNL     1       4.937  -3.970   1.947  1.00  0.00     0.130 C 
BRANCH   7   8
ATOM      8  C   UNL     1       4.477  -2.518   1.965  1.00  0.00     0.039 C 
ATOM      9  C   UNL     1       1.967  -0.419   1.566  1.00  0.00     0.228 C 
ATOM     10  O   UNL     1       2.010   0.334   2.538  1.00  0.00    -0.274 OA
ATOM     11  N   UNL     1       2.650  -1.615   1.545  1.00  0.00    -0.342 N 
ATOM     12  C   UNL     1       3.159  -2.316   2.716  1.00  0.00     0.125 C 
ATOM     13  C   UNL     1       3.795  -1.964   0.706  1.00  0.00     0.125 C 
BRANCH   9  14
ATOM     14  C   UNL     1       1.045  -0.168   0.361  1.00  0.00     0.047 C 
ATOM     15  C   UNL     1       1.829   0.007  -0.945  1.00  0.00     0.022 C 
ATOM     16  C   UNL     1       0.131   1.048   0.609  1.00  0.00     0.016 C 
ATOM     17  C   UNL     1       0.012  -1.304   0.261  1.00  0.00     0.016 C 
ATOM     18  C   UNL     1      -1.109   0.806  -0.246  1.00  0.00     0.001 C 
ATOM     19  C   UNL     1      -1.211  -0.705  -0.425  1.00  0.00     0.001 C 
ENDBRANCH   9  14
ENDBRANCH   7   8
ENDBRANCH   5   7
ENDBRANCH   4   5
ENDBRANCH   3   4
ENDBRANCH   2   3
ENDBRANCH   1   2
BRANCH   1  20
ATOM     20  C   UNL     1       8.199  -1.327   2.225  1.00  0.00     0.202 C 
BRANCH  20  21
ATOM     21  C   UNL     1       7.814   0.131   1.937  1.00  0.00     0.261 C 
BRANCH  21  22
ATOM     22  O   UNL     1       7.243   0.308   0.627  1.00  0.00    -0.460 OA
BRANCH  22  23
ATOM     23  C   UNL     1       7.982   1.070  -0.216  1.00  0.00     0.338 C 
ATOM     24  O   UNL     1       9.019   1.666   0.038  1.00  0.00    -0.246 OA
BRANCH  23  25
ATOM     25  C   UNL     1       7.465   0.957  -1.592  1.00  0.00     0.060 A 
ATOM     26  C   UNL     1       8.362   0.550  -2.589  1.00  0.00     0.016 A 
ATOM     27  C   UNL     1       6.156   1.316  -1.919  1.00  0.00     0.016 A 
ATOM     28  C   UNL     1       7.965   0.536  -3.925  1.00  0.00     0.010 A 
ATOM     29  C   UNL     1       5.763   1.312  -3.263  1.00  0.00     0.010 A 
ATOM     30  C   UNL     1       6.671   0.950  -4.273  1.00  0.00    -0.014 A 
BRANCH  30  31
ATOM     31  C   UNL     1       6.318   1.121  -5.704  1.00  0.00     0.031 A 
ATOM     32  C   UNL     1       6.374   2.493  -6.316  1.00  0.00     0.074 A 
ATOM     33  C   UNL     1       5.975   0.062  -6.459  1.00  0.00     0.049 A 
ATOM     34  N   UNL     1       6.066   2.873  -7.530  1.00  0.00    -0.248 NA
ATOM     35  C   UNL     1       6.841   3.581  -5.443  1.00  0.00     0.031 C 
ATOM     36  C   UNL     1       5.928  -1.324  -5.998  1.00  0.00     0.029 A 
ATOM     37  N   UNL     1       5.594  -0.007  -7.775  1.00  0.00    -0.354 N 
ATOM     38  C   UNL     1       6.297   4.242  -7.566  1.00  0.00     0.074 A 
ATOM     39  C   UNL     1       6.747   4.631  -6.247  1.00  0.00     0.031 C 
ATOM     40  C   UNL     1       5.527  -2.107  -7.014  1.00  0.00     0.029 A 
ATOM     41  C   UNL     1       5.259  -1.274  -8.185  1.00  0.00     0.049 A 
ATOM     42  H   UNL     1       5.563   0.778  -8.369  1.00  0.00     0.167 HD
ATOM     43  C   UNL     1       6.155   5.097  -8.607  1.00  0.00     0.037 A 
ATOM     44  C   UNL     1       4.771  -1.707  -9.364  1.00  0.00     0.037 A 
ATOM     45  C   UNL     1       5.709   4.713  -9.921  1.00  0.00     0.049 A 
ATOM     46  C   UNL     1       4.543  -0.724 -10.480  1.00  0.00     0.074 A 
ATOM     47  C   UNL     1       5.553   5.506 -11.044  1.00  0.00     0.029 A 
ATOM     48  N   UNL     1       5.340   3.427 -10.284  1.00  0.00    -0.354 N 
ATOM     49  N   UNL     1       4.783   0.565 -10.510  1.00  0.00    -0.248 NA
ATOM     50  C   UNL     1       3.973  -1.256 -11.727  1.00  0.00     0.031 C 
ATOM     51  C   UNL     1       5.047   4.708 -12.076  1.00  0.00     0.029 A 
ATOM     52  C   UNL     1       4.930   3.410 -11.606  1.00  0.00     0.049 A 
ATOM     53  H   UNL     1       5.366   2.643  -9.689  1.00  0.00     0.167 HD
ATOM     54  C   UNL     1       4.419   0.992 -11.781  1.00  0.00     0.074 A 
ATOM     55  C   UNL     1       3.950  -0.176 -12.497  1.00  0.00     0.031 C 
ATOM     56  C   UNL     1       4.470   2.239 -12.308  1.00  0.00     0.037 A 
BRANCH  43  57
ATOM     57  C   UNL     1       6.465   6.543  -8.359  1.00  0.00     0.057 A 
ATOM     58  C   UNL     1       7.780   7.003  -8.217  1.00  0.00     0.134 A 
ATOM     59  C   UNL     1       5.437   7.492  -8.298  1.00  0.00     0.134 A 
ATOM     60  F   UNL     1       8.809   6.143  -8.253  1.00  0.00    -0.206 F 
ATOM     61  C   UNL     1       8.061   8.354  -8.003  1.00  0.00     0.040 A 
ATOM     62  C   UNL     1       5.706   8.848  -8.107  1.00  0.00     0.040 A 
ATOM     63  F   UNL     1       4.156   7.117  -8.431  1.00  0.00    -0.206 F 
ATOM     64  C   UNL     1       7.021   9.281  -7.954  1.00  0.00     0.006 A 
ENDBRANCH  43  57
BRANCH  44  65
ATOM     65  C   UNL     1       4.441  -3.142  -9.547  1.00  0.00     0.057 A 
ATOM     66  C   UNL     1       5.194  -3.957 -10.398  1.00  0.00     0.134 A 
ATOM     67  C   UNL     1       3.349  -3.726  -8.892  1.00  0.00     0.134 A 
ATOM     68  F   UNL     1       6.236  -3.448 -11.072  1.00  0.00    -0.206 F 
ATOM     69  C   UNL     1       4.868  -5.299 -10.603  1.00  0.00     0.040 A 
ATOM     70  C   UNL     1       3.025  -5.072  -9.070  1.00  0.00     0.040 A 
ATOM     71  F   UNL     1       2.587  -2.997  -8.063  1.00  0.00    -0.206 F 
ATOM     72  C   UNL     1       3.782  -5.861  -9.933  1.00  0.00     0.006 A 
ENDBRANCH  44  65
BRANCH  56  73
ATOM     73  C   UNL     1       4.036   2.405 -13.735  1.00  0.00     0.057 A 
ATOM     74  C   UNL     1       2.686   2.364 -14.104  1.00  0.00     0.134 A 
ATOM     75  C   UNL     1       4.976   2.656 -14.742  1.00  0.00     0.134 A 
ATOM     76  F   UNL     1       1.737   2.115 -13.189  1.00  0.00    -0.206 F 
ATOM     77  C   UNL     1       2.287   2.553 -15.429  1.00  0.00     0.040 A 
ATOM     78  C   UNL     1       4.588   2.869 -16.066  1.00  0.00     0.040 A 
ATOM     79  F   UNL     1       6.285   2.715 -14.453  1.00  0.00    -0.206 F 
ATOM     80  C   UNL     1       3.240   2.813 -16.413  1.00  0.00     0.006 A 
ENDBRANCH  56  73
ENDBRANCH  30  31
ENDBRANCH  23  25
ENDBRANCH  22  23
ENDBRANCH  21  22
ENDBRANCH  20  21
ENDBRANCH   1  20
TORSDOF 16
