REMARK SMILES CC(=O)Nc1cc(NC(C)=O)cc(C(=O)Nc2ccc(Br)cc2C(=O)OCCOCCOC(=O)c2ccc(-c3c4nc(c(-c5c(F)cccc5F)c5ccc([nH]5)c(-c5c(F)cccc5F)c5nc(c(-c6c(F)cccc6F)c6ccc3[nH]6)C=C5)C=C4)cc2)c1
REMARK SMILES IDX 28 1 27 2 26 3 24 4 25 5 23 6 17 7 18 8 19 9 22 10 20 11
REMARK SMILES IDX 21 12 16 13 14 14 15 15 13 17 5 18 6 19 89 20 7 21 12 22
REMARK SMILES IDX 4 23 1 24 2 25 3 26 8 28 9 29 10 31 11 32 29 33 30 34 31 35
REMARK SMILES IDX 32 36 33 37 34 38 35 39 36 40 88 41 37 42 87 43 38 44 39 45
REMARK SMILES IDX 40 46 81 47 41 48 86 49 80 50 82 51 42 52 85 53 79 54 78 55
REMARK SMILES IDX 43 57 69 58 52 59 68 60 53 61 56 62 67 63 83 64 54 65 55 66
REMARK SMILES IDX 66 68 84 69 57 70 44 71 45 72 50 73 46 74 47 75 49 76 51 77
REMARK SMILES IDX 48 78 70 79 71 80 76 81 72 82 73 83 75 84 77 85 74 86 58 87
REMARK SMILES IDX 59 88 64 89 60 90 61 91 63 92 65 93 62 94
REMARK H PARENT 16 16 4 27 8 30 82 56 56 67
REMARK Flexibility Score: inf
ROOT
ATOM      1  C   UNL     1       5.389   1.157  -5.431  1.00  0.00     0.202 C 
ENDROOT
BRANCH   1   2
ATOM      2  C   UNL     1       4.469   1.757  -4.365  1.00  0.00     0.261 C 
BRANCH   2   3
ATOM      3  O   UNL     1       4.626   1.190  -3.051  1.00  0.00    -0.460 OA
BRANCH   3   4
ATOM      4  C   UNL     1       3.574   0.434  -2.650  1.00  0.00     0.340 C 
ATOM      5  O   UNL     1       2.597   0.153  -3.330  1.00  0.00    -0.246 OA
BRANCH   4   6
ATOM      6  C   UNL     1       3.781  -0.178  -1.315  1.00  0.00     0.084 A 
ATOM      7  C   UNL     1       4.389   0.413  -0.190  1.00  0.00     0.056 A 
ATOM      8  C   UNL     1       4.603  -0.397   0.945  1.00  0.00     0.028 A 
ATOM      9  C   UNL     1       4.128  -1.711   1.012  1.00  0.00     0.018 A 
ATOM     10  C   UNL     1       3.303  -1.505  -1.234  1.00  0.00     0.033 A 
ATOM     11  C   UNL     1       3.461  -2.253  -0.075  1.00  0.00     0.018 A 
ATOM     12  Br  UNL     1       2.759  -4.003   0.022  1.00  0.00    -0.051 Br
BRANCH   7  13
ATOM     13  N   UNL     1       4.777   1.759   0.001  1.00  0.00    -0.321 N 
ATOM     14  C   UNL     1       4.300   2.967  -0.458  1.00  0.00     0.255 C 
ATOM     15  O   UNL     1       4.955   3.987  -0.247  1.00  0.00    -0.269 OA
ATOM     16  H   UNL     1       5.559   1.854   0.592  1.00  0.00     0.170 HD
BRANCH  14  17
ATOM     17  C   UNL     1       2.996   3.099  -1.146  1.00  0.00     0.044 A 
ATOM     18  C   UNL     1       0.846   2.183  -1.722  1.00  0.00     0.044 A 
ATOM     19  C   UNL     1       0.805   3.057  -2.825  1.00  0.00     0.052 A 
ATOM     20  C   UNL     1       1.910   2.277  -0.832  1.00  0.00     0.040 A 
ATOM     21  C   UNL     1       1.817   3.994  -3.056  1.00  0.00     0.044 A 
ATOM     22  C   UNL     1       2.917   4.012  -2.202  1.00  0.00     0.040 A 
BRANCH  18  23
ATOM     23  N   UNL     1      -0.099   1.137  -1.715  1.00  0.00    -0.326 N 
ATOM     24  C   UNL     1       0.093   0.144   0.570  1.00  0.00     0.114 C 
ATOM     25  C   UNL     1      -0.369   0.113  -0.857  1.00  0.00     0.221 C 
ATOM     26  O   UNL     1      -1.038  -0.840  -1.265  1.00  0.00    -0.275 OA
ATOM     27  H   UNL     1      -0.692   1.148  -2.501  1.00  0.00     0.169 HD
ENDBRANCH  18  23
BRANCH  21  28
ATOM     28  N   UNL     1       1.848   4.884  -4.151  1.00  0.00    -0.326 N 
ATOM     29  C   UNL     1       0.948   4.957  -5.198  1.00  0.00     0.221 C 
ATOM     30  H   UNL     1       2.595   5.525  -4.172  1.00  0.00     0.169 HD
ATOM     31  C   UNL     1       1.298   6.026  -6.205  1.00  0.00     0.114 C 
ATOM     32  O   UNL     1      -0.044   4.256  -5.359  1.00  0.00    -0.275 OA
ENDBRANCH  21  28
ENDBRANCH  14  17
ENDBRANCH   7  13
ENDBRANCH   4   6
ENDBRANCH   3   4
ENDBRANCH   2   3
ENDBRANCH   1   2
BRANCH   1  33
ATOM     33  O   UNL     1       5.296  -0.235  -5.700  1.00  0.00    -0.374 OA
BRANCH  33  34
ATOM     34  C   UNL     1       5.679  -1.156  -4.685  1.00  0.00     0.202 C 
BRANCH  34  35
ATOM     35  C   UNL     1       7.145  -1.176  -4.236  1.00  0.00     0.261 C 
BRANCH  35  36
ATOM     36  O   UNL     1       7.601   0.068  -3.670  1.00  0.00    -0.460 OA
BRANCH  36  37
ATOM     37  C   UNL     1       8.574   0.681  -4.385  1.00  0.00     0.338 C 
ATOM     38  O   UNL     1       9.086   0.296  -5.426  1.00  0.00    -0.246 OA
BRANCH  37  39
ATOM     39  C   UNL     1       8.896   2.002  -3.822  1.00  0.00     0.060 A 
ATOM     40  C   UNL     1       8.713   3.126  -4.639  1.00  0.00     0.016 A 
ATOM     41  C   UNL     1       9.554   2.112  -2.596  1.00  0.00     0.016 A 
ATOM     42  C   UNL     1       9.246   4.356  -4.260  1.00  0.00     0.010 A 
ATOM     43  C   UNL     1      10.099   3.345  -2.223  1.00  0.00     0.010 A 
ATOM     44  C   UNL     1       9.989   4.458  -3.077  1.00  0.00    -0.014 A 
BRANCH  44  45
ATOM     45  C   UNL     1      10.805   5.672  -2.833  1.00  0.00     0.031 A 
ATOM     46  C   UNL     1      12.261   5.658  -3.216  1.00  0.00     0.074 A 
ATOM     47  C   UNL     1      10.254   6.782  -2.316  1.00  0.00     0.049 A 
ATOM     48  N   UNL     1      13.170   6.587  -3.063  1.00  0.00    -0.248 NA
ATOM     49  C   UNL     1      12.758   4.430  -3.860  1.00  0.00     0.031 C 
ATOM     50  C   UNL     1       8.849   6.936  -1.947  1.00  0.00     0.029 A 
ATOM     51  N   UNL     1      10.820   7.994  -2.009  1.00  0.00    -0.354 N 
ATOM     52  C   UNL     1      14.344   6.057  -3.585  1.00  0.00     0.074 A 
ATOM     53  C   UNL     1      14.040   4.717  -4.038  1.00  0.00     0.031 C 
ATOM     54  C   UNL     1       8.662   8.173  -1.454  1.00  0.00     0.029 A 
ATOM     55  C   UNL     1       9.940   8.884  -1.447  1.00  0.00     0.049 A 
ATOM     56  H   UNL     1      11.768   8.204  -2.176  1.00  0.00     0.167 HD
ATOM     57  C   UNL     1      15.563   6.637  -3.686  1.00  0.00     0.037 A 
ATOM     58  C   UNL     1      10.150  10.123  -0.963  1.00  0.00     0.037 A 
ATOM     59  C   UNL     1      15.869   7.969  -3.236  1.00  0.00     0.049 A 
ATOM     60  C   UNL     1      11.531  10.719  -1.021  1.00  0.00     0.074 A 
ATOM     61  C   UNL     1      17.075   8.644  -3.293  1.00  0.00     0.029 A 
ATOM     62  N   UNL     1      14.956   8.827  -2.644  1.00  0.00    -0.354 N 
ATOM     63  N   UNL     1      12.631  10.212  -1.520  1.00  0.00    -0.248 NA
ATOM     64  C   UNL     1      11.697  12.062  -0.445  1.00  0.00     0.031 C 
ATOM     65  C   UNL     1      16.901   9.901  -2.703  1.00  0.00     0.029 A 
ATOM     66  C   UNL     1      15.576  10.021  -2.315  1.00  0.00     0.049 A 
ATOM     67  H   UNL     1      14.008   8.619  -2.481  1.00  0.00     0.167 HD
ATOM     68  C   UNL     1      13.612  11.180  -1.344  1.00  0.00     0.074 A 
ATOM     69  C   UNL     1      12.975  12.309  -0.699  1.00  0.00     0.031 C 
ATOM     70  C   UNL     1      14.923  11.139  -1.686  1.00  0.00     0.037 A 
BRANCH  57  71
ATOM     71  C   UNL     1      16.666   5.821  -4.291  1.00  0.00     0.057 A 
ATOM     72  C   UNL     1      16.728   5.573  -5.668  1.00  0.00     0.134 A 
ATOM     73  C   UNL     1      17.692   5.302  -3.492  1.00  0.00     0.134 A 
ATOM     74  F   UNL     1      15.767   6.030  -6.485  1.00  0.00    -0.206 F 
ATOM     75  C   UNL     1      17.764   4.822  -6.228  1.00  0.00     0.040 A 
ATOM     76  C   UNL     1      18.744   4.568  -4.042  1.00  0.00     0.040 A 
ATOM     77  F   UNL     1      17.692   5.506  -2.166  1.00  0.00    -0.206 F 
ATOM     78  C   UNL     1      18.779   4.322  -5.414  1.00  0.00     0.006 A 
ENDBRANCH  57  71
BRANCH  58  79
ATOM     79  C   UNL     1       9.027  10.886  -0.364  1.00  0.00     0.057 A 
ATOM     80  C   UNL     1       8.495  12.012  -1.002  1.00  0.00     0.134 A 
ATOM     81  C   UNL     1       8.478  10.523   0.871  1.00  0.00     0.134 A 
ATOM     82  F   UNL     1       8.997  12.422  -2.176  1.00  0.00    -0.206 F 
ATOM     83  C   UNL     1       7.467  12.760  -0.426  1.00  0.00     0.040 A 
ATOM     84  C   UNL     1       7.435  11.248   1.448  1.00  0.00     0.040 A 
ATOM     85  F   UNL     1       8.947   9.455   1.534  1.00  0.00    -0.206 F 
ATOM     86  C   UNL     1       6.931  12.375   0.801  1.00  0.00     0.006 A 
ENDBRANCH  58  79
BRANCH  70  87
ATOM     87  C   UNL     1      15.745  12.362  -1.406  1.00  0.00     0.057 A 
ATOM     88  C   UNL     1      16.161  12.691  -0.111  1.00  0.00     0.134 A 
ATOM     89  C   UNL     1      16.159  13.195  -2.453  1.00  0.00     0.134 A 
ATOM     90  F   UNL     1      15.787  11.939   0.935  1.00  0.00    -0.206 F 
ATOM     91  C   UNL     1      16.946  13.819   0.137  1.00  0.00     0.040 A 
ATOM     92  C   UNL     1      16.962  14.313  -2.221  1.00  0.00     0.040 A 
ATOM     93  F   UNL     1      15.801  12.929  -3.718  1.00  0.00    -0.206 F 
ATOM     94  C   UNL     1      17.353  14.630  -0.922  1.00  0.00     0.006 A 
ENDBRANCH  70  87
ENDBRANCH  44  45
ENDBRANCH  37  39
ENDBRANCH  36  37
ENDBRANCH  35  36
ENDBRANCH  34  35
ENDBRANCH  33  34
ENDBRANCH   1  33
TORSDOF 18
