REMARK SMILES CC[C@](C)([NH2+]CC(=O)Nc1c(Cl)ccc(C)c1Cl)C(=O)OCCOCCOC(=O)c1ccc(-c2c3nc(c(-c4c(F)cccc4F)c4ccc([nH]4)c(-c4c(F)cccc4F)c4nc(c(-c5c(F)cccc5F)c5ccc2[nH]5)C=C4)C=C3)cc1
REMARK SMILES IDX 23 1 22 2 21 3 19 4 20 5 3 6 4 7 2 8 1 9 5 10 6 13 7 14 8 15
REMARK SMILES IDX 9 16 10 18 11 19 17 20 12 21 13 22 15 23 18 24 14 25 16 26
REMARK SMILES IDX 24 27 25 28 26 29 27 30 28 31 29 32 30 33 31 34 83 35 32 36
REMARK SMILES IDX 82 37 33 38 34 39 35 40 76 41 36 42 81 43 75 44 77 45 37 46
REMARK SMILES IDX 80 47 74 48 73 49 38 51 64 52 47 53 63 54 48 55 51 56 62 57
REMARK SMILES IDX 78 58 49 59 50 60 61 62 79 63 52 64 39 65 40 66 45 67 41 68
REMARK SMILES IDX 42 69 44 70 46 71 43 72 65 73 66 74 71 75 67 76 68 77 70 78
REMARK SMILES IDX 72 79 69 80 53 81 54 82 59 83 55 84 56 85 58 86 60 87 57 88
REMARK H PARENT 5 11 5 12 9 17 77 50 51 61
REMARK Flexibility Score: inf
ROOT
ATOM      1  C   UNL     1       5.123   3.036  -0.147  1.00  0.00     0.202 C 
ENDROOT
BRANCH   1   2
ATOM      2  C   UNL     1       4.128   2.268  -1.018  1.00  0.00     0.261 C 
BRANCH   2   3
ATOM      3  O   UNL     1       2.759   2.727  -0.976  1.00  0.00    -0.459 OA
BRANCH   3   4
ATOM      4  C   UNL     1       1.746   1.946  -0.455  1.00  0.00     0.367 C 
ATOM      5  O   UNL     1       1.989   0.957   0.229  1.00  0.00    -0.245 OA
BRANCH   4   6
ATOM      6  C   UNL     1       0.274   2.588  -0.679  1.00  0.00     0.191 C 
ATOM      7  C   UNL     1      -0.156   2.644   0.827  1.00  0.00     0.092 C 
BRANCH   6   8
ATOM      8  C   UNL     1      -1.087   2.050  -1.339  1.00  0.00     0.077 C 
ATOM      9  C   UNL     1      -1.424   1.499  -2.735  1.00  0.00     0.011 C 
ENDBRANCH   6   8
BRANCH   6  10
ATOM     10  N   UNL     1       0.471   3.946  -1.195  1.00  0.00    -0.325 N 
ATOM     11  H   UNL     1       1.035   4.459  -0.518  1.00  0.00     0.347 HD
ATOM     12  H   UNL     1      -0.466   4.327  -1.332  1.00  0.00     0.347 HD
BRANCH  10  13
ATOM     13  C   UNL     1       1.138   4.049  -2.511  1.00  0.00     0.363 C 
BRANCH  13  14
ATOM     14  C   UNL     1       0.956   2.974  -3.610  1.00  0.00     0.279 C 
ATOM     15  O   UNL     1       0.407   3.387  -4.655  1.00  0.00    -0.268 OA
ATOM     16  N   UNL     1       1.323   1.654  -3.727  1.00  0.00    -0.319 N 
ATOM     17  H   UNL     1       0.832   1.252  -4.480  1.00  0.00     0.170 HD
BRANCH  16  18
ATOM     18  C   UNL     1       2.170   0.657  -3.136  1.00  0.00     0.079 A 
ATOM     19  C   UNL     1       1.796  -0.347  -2.193  1.00  0.00     0.066 A 
ATOM     20  C   UNL     1       3.400   0.402  -3.789  1.00  0.00     0.069 A 
ATOM     21  Cl  UNL     1       0.223  -0.726  -1.580  1.00  0.00    -0.082 Cl
ATOM     22  C   UNL     1       2.727  -1.266  -1.681  1.00  0.00     0.023 A 
ATOM     23  C   UNL     1       4.296  -0.607  -3.352  1.00  0.00    -0.030 A 
ATOM     24  Cl  UNL     1       3.806   1.317  -5.215  1.00  0.00    -0.082 Cl
ATOM     25  C   UNL     1       3.978  -1.383  -2.240  1.00  0.00     0.006 A 
ATOM     26  C   UNL     1       5.553  -0.959  -4.093  1.00  0.00     0.046 C 
ENDBRANCH  16  18
ENDBRANCH  13  14
ENDBRANCH  10  13
ENDBRANCH   6  10
ENDBRANCH   4   6
ENDBRANCH   3   4
ENDBRANCH   2   3
ENDBRANCH   1   2
BRANCH   1  27
ATOM     27  O   UNL     1       4.976   2.968   1.263  1.00  0.00    -0.374 OA
BRANCH  27  28
ATOM     28  C   UNL     1       3.777   3.482   1.825  1.00  0.00     0.202 C 
BRANCH  28  29
ATOM     29  C   UNL     1       3.574   5.003   1.843  1.00  0.00     0.261 C 
BRANCH  29  30
ATOM     30  O   UNL     1       3.752   5.645   0.574  1.00  0.00    -0.460 OA
BRANCH  30  31
ATOM     31  C   UNL     1       4.934   6.300   0.443  1.00  0.00     0.338 C 
ATOM     32  O   UNL     1       5.833   6.387   1.253  1.00  0.00    -0.246 OA
BRANCH  31  33
ATOM     33  C   UNL     1       5.055   6.819  -0.931  1.00  0.00     0.060 A 
ATOM     34  C   UNL     1       6.173   6.439  -1.687  1.00  0.00     0.016 A 
ATOM     35  C   UNL     1       4.143   7.754  -1.417  1.00  0.00     0.016 A 
ATOM     36  C   UNL     1       6.413   7.038  -2.921  1.00  0.00     0.010 A 
ATOM     37  C   UNL     1       4.391   8.363  -2.647  1.00  0.00     0.010 A 
ATOM     38  C   UNL     1       5.548   8.037  -3.379  1.00  0.00    -0.014 A 
BRANCH  38  39
ATOM     39  C   UNL     1       5.929   8.890  -4.526  1.00  0.00     0.031 A 
ATOM     40  C   UNL     1       6.475  10.259  -4.245  1.00  0.00     0.074 A 
ATOM     41  C   UNL     1       5.742   8.472  -5.787  1.00  0.00     0.049 A 
ATOM     42  N   UNL     1       6.703  11.250  -5.066  1.00  0.00    -0.248 NA
ATOM     43  C   UNL     1       6.788  10.555  -2.837  1.00  0.00     0.031 C 
ATOM     44  C   UNL     1       5.259   7.150  -6.174  1.00  0.00     0.029 A 
ATOM     45  N   UNL     1       5.900   9.141  -6.973  1.00  0.00    -0.354 N 
ATOM     46  C   UNL     1       7.156  12.296  -4.272  1.00  0.00     0.074 A 
ATOM     47  C   UNL     1       7.151  11.826  -2.904  1.00  0.00     0.031 C 
ATOM     48  C   UNL     1       5.117   7.116  -7.509  1.00  0.00     0.029 A 
ATOM     49  C   UNL     1       5.454   8.429  -8.058  1.00  0.00     0.049 A 
ATOM     50  H   UNL     1       6.294  10.041  -7.040  1.00  0.00     0.167 HD
ATOM     51  C   UNL     1       7.534  13.539  -4.654  1.00  0.00     0.037 A 
ATOM     52  C   UNL     1       5.289   8.813  -9.338  1.00  0.00     0.037 A 
ATOM     53  C   UNL     1       7.524  13.991  -6.021  1.00  0.00     0.049 A 
ATOM     54  C   UNL     1       5.655  10.216  -9.739  1.00  0.00     0.074 A 
ATOM     55  C   UNL     1       7.920  15.216  -6.527  1.00  0.00     0.029 A 
ATOM     56  N   UNL     1       7.077  13.237  -7.097  1.00  0.00    -0.354 N 
ATOM     57  N   UNL     1       6.106  11.197  -8.994  1.00  0.00    -0.248 NA
ATOM     58  C   UNL     1       5.491  10.566 -11.156  1.00  0.00     0.031 C 
ATOM     59  C   UNL     1       7.649  15.226  -7.900  1.00  0.00     0.029 A 
ATOM     60  C   UNL     1       7.154  13.982  -8.261  1.00  0.00     0.049 A 
ATOM     61  H   UNL     1       6.753  12.309  -7.040  1.00  0.00     0.167 HD
ATOM     62  C   UNL     1       6.311  12.270  -9.853  1.00  0.00     0.074 A 
ATOM     63  C   UNL     1       5.932  11.817 -11.177  1.00  0.00     0.031 C 
ATOM     64  C   UNL     1       6.778  13.512  -9.573  1.00  0.00     0.037 A 
BRANCH  51  65
ATOM     65  C   UNL     1       7.929  14.502  -3.571  1.00  0.00     0.057 A 
ATOM     66  C   UNL     1       9.086  14.331  -2.798  1.00  0.00     0.134 A 
ATOM     67  C   UNL     1       7.126  15.614  -3.285  1.00  0.00     0.134 A 
ATOM     68  F   UNL     1       9.895  13.280  -3.007  1.00  0.00    -0.206 F 
ATOM     69  C   UNL     1       9.405  15.203  -1.755  1.00  0.00     0.040 A 
ATOM     70  C   UNL     1       7.453  16.512  -2.268  1.00  0.00     0.040 A 
ATOM     71  F   UNL     1       6.006  15.845  -3.987  1.00  0.00    -0.206 F 
ATOM     72  C   UNL     1       8.588  16.300  -1.490  1.00  0.00     0.006 A 
ENDBRANCH  51  65
BRANCH  52  73
ATOM     73  C   UNL     1       4.724   7.850 -10.315  1.00  0.00     0.057 A 
ATOM     74  C   UNL     1       5.518   7.278 -11.313  1.00  0.00     0.134 A 
ATOM     75  C   UNL     1       3.385   7.445 -10.242  1.00  0.00     0.134 A 
ATOM     76  F   UNL     1       6.802   7.641 -11.445  1.00  0.00    -0.206 F 
ATOM     77  C   UNL     1       5.002   6.337 -12.206  1.00  0.00     0.040 A 
ATOM     78  C   UNL     1       2.862   6.486 -11.110  1.00  0.00     0.040 A 
ATOM     79  F   UNL     1       2.573   7.954  -9.303  1.00  0.00    -0.206 F 
ATOM     80  C   UNL     1       3.673   5.930 -12.098  1.00  0.00     0.006 A 
ENDBRANCH  52  73
BRANCH  64  81
ATOM     81  C   UNL     1       6.960  14.463 -10.722  1.00  0.00     0.057 A 
ATOM     82  C   UNL     1       5.875  15.064 -11.372  1.00  0.00     0.134 A 
ATOM     83  C   UNL     1       8.247  14.838 -11.130  1.00  0.00     0.134 A 
ATOM     84  F   UNL     1       4.617  14.741 -11.038  1.00  0.00    -0.206 F 
ATOM     85  C   UNL     1       6.065  15.995 -12.395  1.00  0.00     0.040 A 
ATOM     86  C   UNL     1       8.449  15.789 -12.130  1.00  0.00     0.040 A 
ATOM     87  F   UNL     1       9.330  14.307 -10.541  1.00  0.00    -0.206 F 
ATOM     88  C   UNL     1       7.356  16.368 -12.768  1.00  0.00     0.006 A 
ENDBRANCH  64  81
ENDBRANCH  38  39
ENDBRANCH  31  33
ENDBRANCH  30  31
ENDBRANCH  29  30
ENDBRANCH  28  29
ENDBRANCH  27  28
ENDBRANCH   1  27
TORSDOF 19
