REMARK SMILES CC(=O)O[C@H]1C[C@@H](C(=O)OCCOCCOC(=O)c2ccc(-c3c4nc(c(-c5c(F)cccc5F)c5ccc([nH]5)c(-c5c(F)cccc5F)c5nc(c(-c6c(F)cccc6F)c6ccc3[nH]6)C=C5)C=C4)cc2)N(S(=O)(=O)c2ccc(F)cc2)C1
REMARK SMILES IDX 13 1 12 2 11 3 10 4 8 5 9 6 7 7 5 8 6 9 84 10 73 11 4 12
REMARK SMILES IDX 2 13 1 14 3 15 74 16 75 17 76 18 77 19 78 20 83 21 79 22
REMARK SMILES IDX 82 23 80 24 81 25 14 26 15 27 16 28 17 29 18 30 19 31 20 32
REMARK SMILES IDX 72 33 21 34 71 35 22 36 23 37 24 38 65 39 25 40 70 41 64 42
REMARK SMILES IDX 66 43 26 44 69 45 63 46 62 47 27 49 53 50 36 51 52 52 37 53
REMARK SMILES IDX 40 54 51 55 67 56 38 57 39 58 50 60 68 61 41 62 28 63 29 64
REMARK SMILES IDX 34 65 30 66 31 67 33 68 35 69 32 70 54 71 55 72 60 73 56 74
REMARK SMILES IDX 57 75 59 76 61 77 58 78 42 79 43 80 48 81 44 82 45 83 47 84
REMARK SMILES IDX 49 85 46 86
REMARK H PARENT 66 48 40 59
REMARK Flexibility Score: inf
ROOT
ATOM      1  O   UNL     1       3.708  -1.051  -7.315  1.00  0.00    -0.374 OA
ENDROOT
BRANCH   1   2
ATOM      2  C   UNL     1       4.553   0.003  -7.735  1.00  0.00     0.202 C 
BRANCH   2   3
ATOM      3  C   UNL     1       4.758   1.335  -6.987  1.00  0.00     0.261 C 
BRANCH   3   4
ATOM      4  O   UNL     1       4.017   1.635  -5.809  1.00  0.00    -0.462 OA
BRANCH   4   5
ATOM      5  C   UNL     1       2.671   1.685  -5.955  1.00  0.00     0.324 C 
ATOM      6  O   UNL     1       2.047   1.174  -6.868  1.00  0.00    -0.250 OA
BRANCH   5   7
ATOM      7  C   UNL     1       2.042   2.416  -4.812  1.00  0.00     0.187 C 
ATOM      8  C   UNL     1       0.264   2.491  -3.227  1.00  0.00     0.194 C 
ATOM      9  C   UNL     1       1.000   1.534  -4.142  1.00  0.00     0.079 C 
ATOM     10  C   UNL     1       0.373   3.860  -3.934  1.00  0.00     0.148 C 
ATOM     11  N   UNL     1       1.358   3.712  -5.080  1.00  0.00    -0.180 NA
BRANCH   8  12
ATOM     12  O   UNL     1      -1.124   2.115  -3.116  1.00  0.00    -0.461 OA
BRANCH  12  13
ATOM     13  C   UNL     1      -1.610   1.161  -2.290  1.00  0.00     0.302 C 
ATOM     14  C   UNL     1      -0.661   0.522  -1.322  1.00  0.00     0.139 C 
ATOM     15  O   UNL     1      -2.795   0.844  -2.322  1.00  0.00    -0.253 OA
ENDBRANCH  12  13
ENDBRANCH   8  12
BRANCH  11  16
ATOM     16  S   UNL     1       0.596   4.011  -6.599  1.00  0.00     0.243 S 
ATOM     17  O   UNL     1      -0.334   2.928  -6.822  1.00  0.00    -0.207 OA
ATOM     18  O   UNL     1       0.122   5.380  -6.540  1.00  0.00    -0.207 OA
BRANCH  16  19
ATOM     19  C   UNL     1       1.835   3.986  -7.891  1.00  0.00     0.082 A 
ATOM     20  C   UNL     1       2.729   5.052  -8.033  1.00  0.00     0.025 A 
ATOM     21  C   UNL     1       1.820   2.964  -8.856  1.00  0.00     0.025 A 
ATOM     22  C   UNL     1       3.654   5.043  -9.086  1.00  0.00     0.040 A 
ATOM     23  C   UNL     1       2.778   2.931  -9.870  1.00  0.00     0.040 A 
ATOM     24  C   UNL     1       3.689   3.971  -9.976  1.00  0.00     0.123 A 
ATOM     25  F   UNL     1       4.613   3.943 -10.946  1.00  0.00    -0.207 F 
ENDBRANCH  16  19
ENDBRANCH  11  16
ENDBRANCH   5   7
ENDBRANCH   4   5
ENDBRANCH   3   4
ENDBRANCH   2   3
ENDBRANCH   1   2
BRANCH   1  26
ATOM     26  C   UNL     1       3.481  -1.383  -5.961  1.00  0.00     0.202 C 
BRANCH  26  27
ATOM     27  C   UNL     1       4.642  -1.833  -5.083  1.00  0.00     0.261 C 
BRANCH  27  28
ATOM     28  O   UNL     1       5.804  -1.009  -5.196  1.00  0.00    -0.460 OA
BRANCH  28  29
ATOM     29  C   UNL     1       6.772  -1.556  -5.971  1.00  0.00     0.338 C 
ATOM     30  O   UNL     1       6.745  -2.622  -6.556  1.00  0.00    -0.246 OA
BRANCH  29  31
ATOM     31  C   UNL     1       7.870  -0.594  -6.136  1.00  0.00     0.060 A 
ATOM     32  C   UNL     1       8.291  -0.314  -7.441  1.00  0.00     0.016 A 
ATOM     33  C   UNL     1       8.532  -0.056  -5.031  1.00  0.00     0.016 A 
ATOM     34  C   UNL     1       9.421   0.464  -7.647  1.00  0.00     0.010 A 
ATOM     35  C   UNL     1       9.677   0.712  -5.240  1.00  0.00     0.010 A 
ATOM     36  C   UNL     1      10.149   0.931  -6.546  1.00  0.00    -0.014 A 
BRANCH  36  37
ATOM     37  C   UNL     1      11.503   1.477  -6.773  1.00  0.00     0.031 A 
ATOM     38  C   UNL     1      12.687   0.581  -6.540  1.00  0.00     0.074 A 
ATOM     39  C   UNL     1      11.665   2.727  -7.234  1.00  0.00     0.049 A 
ATOM     40  N   UNL     1      13.961   0.842  -6.664  1.00  0.00    -0.248 NA
ATOM     41  C   UNL     1      12.392  -0.794  -6.106  1.00  0.00     0.031 C 
ATOM     42  C   UNL     1      10.583   3.662  -7.536  1.00  0.00     0.029 A 
ATOM     43  N   UNL     1      12.808   3.422  -7.525  1.00  0.00    -0.354 N 
ATOM     44  C   UNL     1      14.620  -0.331  -6.318  1.00  0.00     0.074 A 
ATOM     45  C   UNL     1      13.607  -1.292  -5.941  1.00  0.00     0.031 C 
ATOM     46  C   UNL     1      11.117   4.819  -7.961  1.00  0.00     0.029 A 
ATOM     47  C   UNL     1      12.574   4.712  -7.928  1.00  0.00     0.049 A 
ATOM     48  H   UNL     1      13.710   3.034  -7.453  1.00  0.00     0.167 HD
ATOM     49  C   UNL     1      15.950  -0.586  -6.326  1.00  0.00     0.037 A 
ATOM     50  C   UNL     1      13.444   5.699  -8.213  1.00  0.00     0.037 A 
ATOM     51  C   UNL     1      16.948   0.381  -6.700  1.00  0.00     0.049 A 
ATOM     52  C   UNL     1      14.920   5.413  -8.149  1.00  0.00     0.074 A 
ATOM     53  C   UNL     1      18.321   0.227  -6.756  1.00  0.00     0.029 A 
ATOM     54  N   UNL     1      16.677   1.690  -7.074  1.00  0.00    -0.354 N 
ATOM     55  N   UNL     1      15.536   4.296  -7.842  1.00  0.00    -0.248 NA
ATOM     56  C   UNL     1      15.822   6.524  -8.481  1.00  0.00     0.031 C 
ATOM     57  C   UNL     1      18.885   1.459  -7.105  1.00  0.00     0.029 A 
ATOM     58  C   UNL     1      17.860   2.363  -7.332  1.00  0.00     0.049 A 
ATOM     59  H   UNL     1      15.777   2.083  -7.144  1.00  0.00     0.167 HD
ATOM     60  C   UNL     1      16.895   4.561  -7.971  1.00  0.00     0.074 A 
ATOM     61  C   UNL     1      17.009   5.939  -8.401  1.00  0.00     0.031 C 
ATOM     62  C   UNL     1      17.953   3.739  -7.757  1.00  0.00     0.037 A 
BRANCH  49  63
ATOM     63  C   UNL     1      16.394  -1.950  -5.880  1.00  0.00     0.057 A 
ATOM     64  C   UNL     1      16.138  -3.102  -6.636  1.00  0.00     0.134 A 
ATOM     65  C   UNL     1      17.098  -2.111  -4.680  1.00  0.00     0.134 A 
ATOM     66  F   UNL     1      15.454  -3.023  -7.787  1.00  0.00    -0.206 F 
ATOM     67  C   UNL     1      16.539  -4.367  -6.199  1.00  0.00     0.040 A 
ATOM     68  C   UNL     1      17.531  -3.365  -4.248  1.00  0.00     0.040 A 
ATOM     69  F   UNL     1      17.379  -1.051  -3.907  1.00  0.00    -0.206 F 
ATOM     70  C   UNL     1      17.244  -4.500  -5.004  1.00  0.00     0.006 A 
ENDBRANCH  49  63
BRANCH  50  71
ATOM     71  C   UNL     1      12.939   7.049  -8.569  1.00  0.00     0.057 A 
ATOM     72  C   UNL     1      13.101   7.574  -9.855  1.00  0.00     0.134 A 
ATOM     73  C   UNL     1      12.287   7.851  -7.622  1.00  0.00     0.134 A 
ATOM     74  F   UNL     1      13.733   6.862 -10.800  1.00  0.00    -0.206 F 
ATOM     75  C   UNL     1      12.652   8.854 -10.184  1.00  0.00     0.040 A 
ATOM     76  C   UNL     1      11.808   9.120  -7.945  1.00  0.00     0.040 A 
ATOM     77  F   UNL     1      12.095   7.403  -6.373  1.00  0.00    -0.206 F 
ATOM     78  C   UNL     1      11.997   9.629  -9.228  1.00  0.00     0.006 A 
ENDBRANCH  50  71
BRANCH  62  79
ATOM     79  C   UNL     1      19.321   4.301  -8.021  1.00  0.00     0.057 A 
ATOM     80  C   UNL     1      19.893   5.285  -7.204  1.00  0.00     0.134 A 
ATOM     81  C   UNL     1      20.087   3.832  -9.097  1.00  0.00     0.134 A 
ATOM     82  F   UNL     1      19.210   5.785  -6.163  1.00  0.00    -0.206 F 
ATOM     83  C   UNL     1      21.160   5.807  -7.468  1.00  0.00     0.040 A 
ATOM     84  C   UNL     1      21.368   4.322  -9.351  1.00  0.00     0.040 A 
ATOM     85  F   UNL     1      19.606   2.881  -9.913  1.00  0.00    -0.206 F 
ATOM     86  C   UNL     1      21.904   5.321  -8.542  1.00  0.00     0.006 A 
ENDBRANCH  62  79
ENDBRANCH  36  37
ENDBRANCH  29  31
ENDBRANCH  28  29
ENDBRANCH  27  28
ENDBRANCH  26  27
ENDBRANCH   1  26
TORSDOF 18
