REMARK SMILES Cc1csc([C@H](C)Nc2cc(C)c(N)c(C(=O)OCCOCCOC(=O)c3ccc(-c4c5nc(c(-c6c(F)cccc6F)c6ccc([nH]6)c(-c6c(F)cccc6F)c6nc(c(-c7c(F)cccc7F)c7ccc4[nH]7)C=C6)C=C5)cc3)c2)n1
REMARK SMILES IDX 20 1 19 2 18 3 16 4 17 5 15 6 9 7 10 8 81 9 11 10 12 11
REMARK SMILES IDX 13 12 8 13 6 15 7 16 5 17 1 18 2 19 3 20 82 21 4 22 14 23
REMARK SMILES IDX 21 26 22 27 23 28 24 29 25 30 26 31 27 32 28 33 80 34 29 35
REMARK SMILES IDX 79 36 30 37 31 38 32 39 73 40 33 41 78 42 72 43 74 44 34 45
REMARK SMILES IDX 77 46 71 47 70 48 35 50 61 51 44 52 60 53 45 54 48 55 59 56
REMARK SMILES IDX 75 57 46 58 47 59 58 61 76 62 49 63 36 64 37 65 42 66 38 67
REMARK SMILES IDX 39 68 41 69 43 70 40 71 62 72 63 73 68 74 64 75 65 76 67 77
REMARK SMILES IDX 69 78 66 79 50 80 51 81 56 82 52 83 53 84 55 85 57 86 54 87
REMARK H PARENT 8 14 14 24 14 25 74 49 48 60
REMARK Flexibility Score: inf
ROOT
ATOM      1  C   UNL     1       2.113   2.911   8.294  1.00  0.00     0.202 C 
ENDROOT
BRANCH   1   2
ATOM      2  C   UNL     1       1.418   4.126   7.672  1.00  0.00     0.261 C 
BRANCH   2   3
ATOM      3  O   UNL     1       1.512   4.101   6.238  1.00  0.00    -0.460 OA
BRANCH   3   4
ATOM      4  C   UNL     1       2.285   5.079   5.701  1.00  0.00     0.340 C 
ATOM      5  O   UNL     1       2.747   6.040   6.298  1.00  0.00    -0.246 OA
BRANCH   4   6
ATOM      6  C   UNL     1       2.648   4.748   4.298  1.00  0.00     0.085 A 
ATOM      7  C   UNL     1       2.022   3.856   2.112  1.00  0.00     0.036 A 
ATOM      8  C   UNL     1       3.321   4.137   1.680  1.00  0.00     0.031 A 
ATOM      9  C   UNL     1       1.699   4.172   3.437  1.00  0.00     0.043 A 
ATOM     10  C   UNL     1       4.288   4.719   2.525  1.00  0.00    -0.025 A 
ATOM     11  C   UNL     1       5.661   4.993   1.972  1.00  0.00     0.047 C 
ATOM     12  C   UNL     1       3.960   5.025   3.856  1.00  0.00     0.049 A 
BRANCH   7  13
ATOM     13  N   UNL     1       1.085   3.202   1.335  1.00  0.00    -0.376 N 
ATOM     14  H   UNL     1       0.156   3.195   1.661  1.00  0.00     0.161 HD
BRANCH  13  15
ATOM     15  C   UNL     1       1.356   2.514   0.061  1.00  0.00     0.135 C 
ATOM     16  C   UNL     1       0.472   1.255   0.066  1.00  0.00     0.039 C 
BRANCH  15  17
ATOM     17  C   UNL     1       1.163   3.367  -1.195  1.00  0.00     0.115 A 
ATOM     18  C   UNL     1       1.190   6.628  -2.745  1.00  0.00     0.067 C 
ATOM     19  C   UNL     1       1.088   5.165  -2.514  1.00  0.00     0.049 A 
ATOM     20  C   UNL     1       0.851   4.194  -3.464  1.00  0.00     0.090 A 
ATOM     21  N   UNL     1       1.254   4.685  -1.226  1.00  0.00    -0.244 NA
ATOM     22  S   UNL     1       0.894   2.645  -2.744  1.00  0.00    -0.125 S 
ENDBRANCH  15  17
ENDBRANCH  13  15
ENDBRANCH   7  13
BRANCH  12  23
ATOM     23  N   UNL     1       4.961   5.406   4.756  1.00  0.00    -0.398 N 
ATOM     24  H   UNL     1       5.870   5.595   4.430  1.00  0.00     0.156 HD
ATOM     25  H   UNL     1       4.756   5.485   5.716  1.00  0.00     0.156 HD
ENDBRANCH  12  23
ENDBRANCH   4   6
ENDBRANCH   3   4
ENDBRANCH   2   3
ENDBRANCH   1   2
BRANCH   1  26
ATOM     26  O   UNL     1       3.521   2.821   8.078  1.00  0.00    -0.374 OA
BRANCH  26  27
ATOM     27  C   UNL     1       3.945   2.265   6.830  1.00  0.00     0.202 C 
BRANCH  27  28
ATOM     28  C   UNL     1       3.928   0.733   6.744  1.00  0.00     0.261 C 
BRANCH  28  29
ATOM     29  O   UNL     1       2.584   0.215   6.759  1.00  0.00    -0.460 OA
BRANCH  29  30
ATOM     30  C   UNL     1       2.240  -0.458   7.880  1.00  0.00     0.338 C 
ATOM     31  O   UNL     1       2.966  -0.761   8.818  1.00  0.00    -0.246 OA
BRANCH  30  32
ATOM     32  C   UNL     1       0.778  -0.649   7.923  1.00  0.00     0.060 A 
ATOM     33  C   UNL     1       0.111  -0.275   9.097  1.00  0.00     0.016 A 
ATOM     34  C   UNL     1       0.078  -1.236   6.866  1.00  0.00     0.016 A 
ATOM     35  C   UNL     1      -1.250  -0.533   9.240  1.00  0.00     0.010 A 
ATOM     36  C   UNL     1      -1.288  -1.503   7.015  1.00  0.00     0.010 A 
ATOM     37  C   UNL     1      -1.949  -1.185   8.215  1.00  0.00    -0.014 A 
BRANCH  37  38
ATOM     38  C   UNL     1      -3.329  -1.667   8.463  1.00  0.00     0.031 A 
ATOM     39  C   UNL     1      -3.542  -3.108   8.836  1.00  0.00     0.074 A 
ATOM     40  C   UNL     1      -4.377  -0.827   8.388  1.00  0.00     0.049 A 
ATOM     41  N   UNL     1      -4.658  -3.749   9.072  1.00  0.00    -0.248 NA
ATOM     42  C   UNL     1      -2.332  -3.936   8.960  1.00  0.00     0.031 C 
ATOM     43  C   UNL     1      -4.297   0.598   8.077  1.00  0.00     0.029 A 
ATOM     44  N   UNL     1      -5.717  -1.060   8.568  1.00  0.00    -0.354 N 
ATOM     45  C   UNL     1      -4.286  -5.054   9.370  1.00  0.00     0.074 A 
ATOM     46  C   UNL     1      -2.845  -5.122   9.253  1.00  0.00     0.031 C 
ATOM     47  C   UNL     1      -5.539   1.114   8.080  1.00  0.00     0.029 A 
ATOM     48  C   UNL     1      -6.500   0.050   8.364  1.00  0.00     0.049 A 
ATOM     49  H   UNL     1      -6.083  -1.939   8.818  1.00  0.00     0.167 HD
ATOM     50  C   UNL     1      -5.073  -6.100   9.719  1.00  0.00     0.037 A 
ATOM     51  C   UNL     1      -7.840   0.184   8.389  1.00  0.00     0.037 A 
ATOM     52  C   UNL     1      -6.506  -6.034   9.834  1.00  0.00     0.049 A 
ATOM     53  C   UNL     1      -8.699  -1.012   8.704  1.00  0.00     0.074 A 
ATOM     54  C   UNL     1      -7.390  -7.036  10.193  1.00  0.00     0.029 A 
ATOM     55  N   UNL     1      -7.265  -4.901   9.583  1.00  0.00    -0.354 N 
ATOM     56  N   UNL     1      -8.337  -2.236   9.003  1.00  0.00    -0.248 NA
ATOM     57  C   UNL     1     -10.154  -0.805   8.684  1.00  0.00     0.031 C 
ATOM     58  C   UNL     1      -8.689  -6.520  10.117  1.00  0.00     0.029 A 
ATOM     59  C   UNL     1      -8.609  -5.185   9.756  1.00  0.00     0.049 A 
ATOM     60  H   UNL     1      -6.902  -4.024   9.320  1.00  0.00     0.167 HD
ATOM     61  C   UNL     1      -9.514  -2.936   9.237  1.00  0.00     0.074 A 
ATOM     62  C   UNL     1     -10.602  -1.998   9.052  1.00  0.00     0.031 C 
ATOM     63  C   UNL     1      -9.680  -4.238   9.576  1.00  0.00     0.037 A 
BRANCH  50  64
ATOM     64  C   UNL     1      -4.395  -7.412   9.981  1.00  0.00     0.057 A 
ATOM     65  C   UNL     1      -3.625  -7.630  11.131  1.00  0.00     0.134 A 
ATOM     66  C   UNL     1      -4.532  -8.478   9.083  1.00  0.00     0.134 A 
ATOM     67  F   UNL     1      -3.442  -6.645  12.023  1.00  0.00    -0.206 F 
ATOM     68  C   UNL     1      -2.995  -8.854  11.366  1.00  0.00     0.040 A 
ATOM     69  C   UNL     1      -3.928  -9.714   9.319  1.00  0.00     0.040 A 
ATOM     70  F   UNL     1      -5.259  -8.338   7.965  1.00  0.00    -0.206 F 
ATOM     71  C   UNL     1      -3.151  -9.902  10.461  1.00  0.00     0.006 A 
ENDBRANCH  50  64
BRANCH  51  72
ATOM     72  C   UNL     1      -8.460   1.501   8.100  1.00  0.00     0.057 A 
ATOM     73  C   UNL     1      -9.106   2.234   9.102  1.00  0.00     0.134 A 
ATOM     74  C   UNL     1      -8.441   2.048   6.811  1.00  0.00     0.134 A 
ATOM     75  F   UNL     1      -9.178   1.750  10.351  1.00  0.00    -0.206 F 
ATOM     76  C   UNL     1      -9.724   3.455   8.831  1.00  0.00     0.040 A 
ATOM     77  C   UNL     1      -9.035   3.279   6.530  1.00  0.00     0.040 A 
ATOM     78  F   UNL     1      -7.839   1.394   5.806  1.00  0.00    -0.206 F 
ATOM     79  C   UNL     1      -9.685   3.983   7.542  1.00  0.00     0.006 A 
ENDBRANCH  51  72
BRANCH  63  80
ATOM     80  C   UNL     1     -11.084  -4.716   9.807  1.00  0.00     0.057 A 
ATOM     81  C   UNL     1     -11.980  -4.919   8.751  1.00  0.00     0.134 A 
ATOM     82  C   UNL     1     -11.530  -5.015  11.101  1.00  0.00     0.134 A 
ATOM     83  F   UNL     1     -11.618  -4.639   7.489  1.00  0.00    -0.206 F 
ATOM     84  C   UNL     1     -13.278  -5.382   8.975  1.00  0.00     0.040 A 
ATOM     85  C   UNL     1     -12.816  -5.503  11.335  1.00  0.00     0.040 A 
ATOM     86  F   UNL     1     -10.718  -4.851  12.157  1.00  0.00    -0.206 F 
ATOM     87  C   UNL     1     -13.696  -5.682  10.271  1.00  0.00     0.006 A 
ENDBRANCH  63  80
ENDBRANCH  37  38
ENDBRANCH  30  32
ENDBRANCH  29  30
ENDBRANCH  28  29
ENDBRANCH  27  28
ENDBRANCH  26  27
ENDBRANCH   1  26
TORSDOF 18
