REMARK SMILES C[C@@H]1[C@@H](C(=O)OCCOCCOC(=O)c2ccc(-c3c4nc(c(-c5c(F)cccc5F)c5ccc([nH]5)c(-c5c(F)cccc5F)c5nc(c(-c6c(F)cccc6F)c6ccc3[nH]6)C=C5)C=C4)cc2)CC[N@@H+]1[C@H]1CC[C@@H](C(F)(F)F)CC1
REMARK SMILES IDX 9 1 8 2 7 3 6 4 4 5 5 6 3 7 1 8 2 9 71 10 69 11 70 12 72 14
REMARK SMILES IDX 73 15 81 16 74 17 80 18 75 19 76 20 77 21 78 22 79 23 10 24
REMARK SMILES IDX 11 25 12 26 13 27 14 28 15 29 16 30 68 31 17 32 67 33 18 34
REMARK SMILES IDX 19 35 20 36 61 37 21 38 66 39 60 40 62 41 22 42 65 43 59 44
REMARK SMILES IDX 58 45 23 47 49 48 32 49 48 50 33 51 36 52 47 53 63 54 34 55
REMARK SMILES IDX 35 56 46 58 64 59 37 60 24 61 25 62 30 63 26 64 27 65 29 66
REMARK SMILES IDX 31 67 28 68 50 69 51 70 56 71 52 72 53 73 55 74 57 75 54 76
REMARK SMILES IDX 38 77 39 78 44 79 40 80 41 81 43 82 45 83 42 84
REMARK H PARENT 71 13 62 46 36 57
REMARK Flexibility Score: inf
ROOT
ATOM      1  O   UNL     1      -0.057   2.386  -4.779  1.00  0.00    -0.374 OA
ENDROOT
BRANCH   1   2
ATOM      2  C   UNL     1      -1.481   2.460  -4.805  1.00  0.00     0.202 C 
BRANCH   2   3
ATOM      3  C   UNL     1      -2.243   1.399  -4.008  1.00  0.00     0.261 C 
BRANCH   3   4
ATOM      4  O   UNL     1      -1.948   1.504  -2.608  1.00  0.00    -0.463 OA
BRANCH   4   5
ATOM      5  C   UNL     1      -1.350   0.409  -2.054  1.00  0.00     0.315 C 
ATOM      6  O   UNL     1      -1.246  -0.682  -2.593  1.00  0.00    -0.252 OA
BRANCH   5   7
ATOM      7  C   UNL     1      -0.794   0.779  -0.692  1.00  0.00     0.162 C 
ATOM      8  C   UNL     1       1.500   0.811   0.318  1.00  0.00     0.076 C 
ATOM      9  C   UNL     1       0.440  -0.072  -0.347  1.00  0.00     0.195 C 
ATOM     10  N   UNL     1      -0.102  -1.110   0.514  1.00  0.00    -0.330 N 
ATOM     11  C   UNL     1      -1.797   0.484   0.408  1.00  0.00     0.083 C 
ATOM     12  C   UNL     1      -1.522  -0.964   0.762  1.00  0.00     0.263 C 
ATOM     13  H   UNL     1       0.463  -1.824   0.054  1.00  0.00     0.348 HD
BRANCH  10  14
ATOM     14  C   UNL     1       0.642  -2.121   1.230  1.00  0.00     0.184 C 
ATOM     15  C   UNL     1       1.864  -2.668   0.471  1.00  0.00     0.066 C 
ATOM     16  C   UNL     1       1.004  -1.609   2.633  1.00  0.00     0.066 C 
ATOM     17  C   UNL     1       2.659  -3.674   1.310  1.00  0.00     0.019 C 
ATOM     18  C   UNL     1       1.789  -2.640   3.435  1.00  0.00     0.019 C 
ATOM     19  C   UNL     1       3.035  -3.156   2.706  1.00  0.00     0.095 C 
BRANCH  19  20
ATOM     20  C   UNL     1       4.161  -2.125   2.668  1.00  0.00     0.391 C 
ATOM     21  F   UNL     1       4.480  -1.719   3.918  1.00  0.00    -0.171 F 
ATOM     22  F   UNL     1       5.278  -2.658   2.124  1.00  0.00    -0.171 F 
ATOM     23  F   UNL     1       3.849  -1.027   1.955  1.00  0.00    -0.171 F 
ENDBRANCH  19  20
ENDBRANCH  10  14
ENDBRANCH   5   7
ENDBRANCH   4   5
ENDBRANCH   3   4
ENDBRANCH   2   3
ENDBRANCH   1   2
BRANCH   1  24
ATOM     24  C   UNL     1       0.622   2.803  -3.594  1.00  0.00     0.202 C 
BRANCH  24  25
ATOM     25  C   UNL     1       0.609   4.301  -3.264  1.00  0.00     0.261 C 
BRANCH  25  26
ATOM     26  O   UNL     1      -0.705   4.775  -2.910  1.00  0.00    -0.460 OA
BRANCH  26  27
ATOM     27  C   UNL     1      -1.198   5.740  -3.723  1.00  0.00     0.338 C 
ATOM     28  O   UNL     1      -0.632   6.288  -4.658  1.00  0.00    -0.246 OA
BRANCH  27  29
ATOM     29  C   UNL     1      -2.629   5.945  -3.450  1.00  0.00     0.060 A 
ATOM     30  C   UNL     1      -3.534   5.677  -4.486  1.00  0.00     0.016 A 
ATOM     31  C   UNL     1      -3.068   6.496  -2.245  1.00  0.00     0.016 A 
ATOM     32  C   UNL     1      -4.881   5.994  -4.334  1.00  0.00     0.010 A 
ATOM     33  C   UNL     1      -4.419   6.829  -2.100  1.00  0.00     0.010 A 
ATOM     34  C   UNL     1      -5.323   6.610  -3.156  1.00  0.00    -0.014 A 
BRANCH  34  35
ATOM     35  C   UNL     1      -6.696   7.164  -3.102  1.00  0.00     0.031 A 
ATOM     36  C   UNL     1      -6.904   8.621  -3.409  1.00  0.00     0.074 A 
ATOM     37  C   UNL     1      -7.746   6.373  -2.824  1.00  0.00     0.049 A 
ATOM     38  N   UNL     1      -8.011   9.319  -3.410  1.00  0.00    -0.248 NA
ATOM     39  C   UNL     1      -5.703   9.394  -3.765  1.00  0.00     0.031 C 
ATOM     40  C   UNL     1      -7.675   4.939  -2.552  1.00  0.00     0.029 A 
ATOM     41  N   UNL     1      -9.081   6.672  -2.723  1.00  0.00    -0.354 N 
ATOM     42  C   UNL     1      -7.641  10.610  -3.765  1.00  0.00     0.074 A 
ATOM     43  C   UNL     1      -6.205  10.607  -3.944  1.00  0.00     0.031 C 
ATOM     44  C   UNL     1      -8.915   4.483  -2.304  1.00  0.00     0.029 A 
ATOM     45  C   UNL     1      -9.859   5.596  -2.375  1.00  0.00     0.049 A 
ATOM     46  H   UNL     1      -9.446   7.572  -2.885  1.00  0.00     0.167 HD
ATOM     47  C   UNL     1      -8.428  11.699  -3.934  1.00  0.00     0.037 A 
ATOM     48  C   UNL     1     -11.181   5.526  -2.125  1.00  0.00     0.037 A 
ATOM     49  C   UNL     1      -9.855  11.703  -3.754  1.00  0.00     0.049 A 
ATOM     50  C   UNL     1     -12.025   6.766  -2.251  1.00  0.00     0.074 A 
ATOM     51  C   UNL     1     -10.743  12.753  -3.914  1.00  0.00     0.029 A 
ATOM     52  N   UNL     1     -10.603  10.601  -3.366  1.00  0.00    -0.354 N 
ATOM     53  N   UNL     1     -11.668   7.977  -2.607  1.00  0.00    -0.248 NA
ATOM     54  C   UNL     1     -13.456   6.628  -1.943  1.00  0.00     0.031 C 
ATOM     55  C   UNL     1     -12.023  12.296  -3.583  1.00  0.00     0.029 A 
ATOM     56  C   UNL     1     -11.938  10.951  -3.259  1.00  0.00     0.049 A 
ATOM     57  H   UNL     1     -10.238   9.704  -3.193  1.00  0.00     0.167 HD
ATOM     58  C   UNL     1     -12.831   8.737  -2.590  1.00  0.00     0.074 A 
ATOM     59  C   UNL     1     -13.906   7.849  -2.200  1.00  0.00     0.031 C 
ATOM     60  C   UNL     1     -12.995  10.052  -2.875  1.00  0.00     0.037 A 
BRANCH  47  61
ATOM     61  C   UNL     1      -7.754  12.983  -4.312  1.00  0.00     0.057 A 
ATOM     62  C   UNL     1      -7.246  13.199  -5.600  1.00  0.00     0.134 A 
ATOM     63  C   UNL     1      -7.634  14.026  -3.386  1.00  0.00     0.134 A 
ATOM     64  F   UNL     1      -7.316  12.234  -6.529  1.00  0.00    -0.206 F 
ATOM     65  C   UNL     1      -6.626  14.401  -5.947  1.00  0.00     0.040 A 
ATOM     66  C   UNL     1      -7.035  15.240  -3.727  1.00  0.00     0.040 A 
ATOM     67  F   UNL     1      -8.101  13.884  -2.136  1.00  0.00    -0.206 F 
ATOM     68  C   UNL     1      -6.525  15.428  -5.010  1.00  0.00     0.006 A 
ENDBRANCH  47  61
BRANCH  48  69
ATOM     69  C   UNL     1     -11.791   4.237  -1.718  1.00  0.00     0.057 A 
ATOM     70  C   UNL     1     -12.657   3.542  -2.569  1.00  0.00     0.134 A 
ATOM     71  C   UNL     1     -11.540   3.680  -0.458  1.00  0.00     0.134 A 
ATOM     72  F   UNL     1     -12.955   4.037  -3.779  1.00  0.00    -0.206 F 
ATOM     73  C   UNL     1     -13.263   2.347  -2.178  1.00  0.00     0.040 A 
ATOM     74  C   UNL     1     -12.121   2.475  -0.062  1.00  0.00     0.040 A 
ATOM     75  F   UNL     1     -10.720   4.299   0.405  1.00  0.00    -0.206 F 
ATOM     76  C   UNL     1     -12.992   1.808  -0.921  1.00  0.00     0.006 A 
ENDBRANCH  48  69
BRANCH  60  77
ATOM     77  C   UNL     1     -14.390  10.601  -2.806  1.00  0.00     0.057 A 
ATOM     78  C   UNL     1     -15.030  10.838  -1.584  1.00  0.00     0.134 A 
ATOM     79  C   UNL     1     -15.082  10.936  -3.977  1.00  0.00     0.134 A 
ATOM     80  F   UNL     1     -14.425  10.527  -0.428  1.00  0.00    -0.206 F 
ATOM     81  C   UNL     1     -16.320  11.370  -1.529  1.00  0.00     0.040 A 
ATOM     82  C   UNL     1     -16.362  11.491  -3.934  1.00  0.00     0.040 A 
ATOM     83  F   UNL     1     -14.521  10.742  -5.180  1.00  0.00    -0.206 F 
ATOM     84  C   UNL     1     -16.986  11.704  -2.707  1.00  0.00     0.006 A 
ENDBRANCH  60  77
ENDBRANCH  34  35
ENDBRANCH  27  29
ENDBRANCH  26  27
ENDBRANCH  25  26
ENDBRANCH  24  25
ENDBRANCH   1  24
TORSDOF 16
