REMARK SMILES CC(C)C[C@H](NC(=O)[C@H](Cc1ccccc1)NC(=O)CNC(=O)CNC(=O)OCc1ccccc1)C(=O)OCCOCCOC(=O)c1ccc(-c2c3nc(c(-c4c(F)cccc4F)c4ccc([nH]4)c(-c4c(F)cccc4F)c4nc(c(-c5c(F)cccc5F)c5ccc2[nH]5)C=C4)C=C3)cc1
REMARK SMILES IDX 36 1 37 2 5 3 4 4 2 5 1 6 3 7 6 8 7 9 8 11 9 12 17 13 18 14
REMARK SMILES IDX 19 16 20 17 21 18 22 19 23 21 24 22 25 23 26 24 27 26 28 27
REMARK SMILES IDX 29 28 30 29 31 30 35 31 32 32 34 33 33 34 10 35 11 36 12 37
REMARK SMILES IDX 16 38 13 39 15 40 14 41 38 42 39 43 40 44 41 45 42 46 43 47
REMARK SMILES IDX 44 48 45 49 46 50 47 51 48 52 100 53 49 54 99 55 50 56 51 57
REMARK SMILES IDX 52 58 93 59 53 60 98 61 92 62 94 63 54 64 97 65 91 66 90 67
REMARK SMILES IDX 55 69 81 70 64 71 80 72 65 73 68 74 79 75 95 76 66 77 67 78
REMARK SMILES IDX 78 80 96 81 69 82 56 83 57 84 62 85 58 86 59 87 61 88 63 89
REMARK SMILES IDX 60 90 82 91 83 92 88 93 84 94 85 95 87 96 89 97 86 98 70 99
REMARK SMILES IDX 71 100 76 101 72 102 73 103 75 104 77 105 74 106
REMARK H PARENT 6 10 17 15 21 20 25 25 94 68 68 79
REMARK Flexibility Score: inf
ROOT
ATOM      1  C   UNL     1       1.143  -5.675  -0.509  1.00  0.00     0.328 C 
ATOM      2  O   UNL     1       0.893  -6.132  -1.617  1.00  0.00    -0.250 OA
ENDROOT
BRANCH   1   3
ATOM      3  C   UNL     1       1.076  -4.184  -0.189  1.00  0.00     0.192 C 
BRANCH   3   4
ATOM      4  C   UNL     1       2.470  -3.656   0.149  1.00  0.00     0.040 C 
BRANCH   4   5
ATOM      5  C   UNL     1       3.807  -4.372  -0.143  1.00  0.00    -0.015 C 
ATOM      6  C   UNL     1       3.981  -4.947  -1.542  1.00  0.00     0.007 C 
ATOM      7  C   UNL     1       4.941  -3.360   0.093  1.00  0.00     0.007 C 
ENDBRANCH   4   5
ENDBRANCH   3   4
BRANCH   3   8
ATOM      8  N   UNL     1       0.002  -3.894   0.798  1.00  0.00    -0.341 N 
ATOM      9  C   UNL     1      -0.489  -2.792   1.443  1.00  0.00     0.243 C 
ATOM     10  H   UNL     1      -0.484  -4.711   1.056  1.00  0.00     0.164 HD
ATOM     11  O   UNL     1      -1.664  -2.905   1.830  1.00  0.00    -0.273 OA
BRANCH   9  12
ATOM     12  C   UNL     1       0.371  -1.599   1.976  1.00  0.00     0.175 C 
BRANCH  12  13
ATOM     13  N   UNL     1       1.580  -1.234   1.244  1.00  0.00    -0.342 N 
ATOM     14  C   UNL     1       2.852  -1.043   1.712  1.00  0.00     0.240 C 
ATOM     15  H   UNL     1       1.464  -1.108   0.274  1.00  0.00     0.164 HD
ATOM     16  O   UNL     1       3.652  -0.409   1.021  1.00  0.00    -0.273 OA
BRANCH  14  17
ATOM     17  C   UNL     1       3.264  -1.601   3.074  1.00  0.00     0.216 C 
BRANCH  17  18
ATOM     18  N   UNL     1       2.979  -0.676   4.151  1.00  0.00    -0.346 N 
ATOM     19  C   UNL     1       2.645  -0.910   5.452  1.00  0.00     0.239 C 
ATOM     20  H   UNL     1       3.034   0.275   3.904  1.00  0.00     0.164 HD
ATOM     21  O   UNL     1       2.635   0.056   6.217  1.00  0.00    -0.273 OA
BRANCH  19  22
ATOM     22  C   UNL     1       2.392  -2.329   5.979  1.00  0.00     0.219 C 
BRANCH  22  23
ATOM     23  N   UNL     1       1.395  -2.990   5.178  1.00  0.00    -0.312 N 
ATOM     24  C   UNL     1       1.562  -4.133   4.465  1.00  0.00     0.407 C 
ATOM     25  H   UNL     1       0.504  -2.573   5.144  1.00  0.00     0.167 HD
ATOM     26  O   UNL     1       0.855  -4.369   3.505  1.00  0.00    -0.225 OA
BRANCH  24  27
ATOM     27  O   UNL     1       2.553  -4.937   4.931  1.00  0.00    -0.445 OA
BRANCH  27  28
ATOM     28  C   UNL     1       2.348  -6.317   4.573  1.00  0.00     0.270 C 
BRANCH  28  29
ATOM     29  C   UNL     1       0.990  -6.742   5.084  1.00  0.00    -0.011 A 
ATOM     30  C   UNL     1      -0.073  -6.908   4.183  1.00  0.00     0.007 A 
ATOM     31  C   UNL     1       0.721  -6.709   6.459  1.00  0.00     0.007 A 
ATOM     32  C   UNL     1      -1.387  -6.976   4.643  1.00  0.00     0.000 A 
ATOM     33  C   UNL     1      -0.593  -6.801   6.918  1.00  0.00     0.000 A 
ATOM     34  C   UNL     1      -1.646  -6.927   6.010  1.00  0.00     0.000 A 
ENDBRANCH  28  29
ENDBRANCH  27  28
ENDBRANCH  24  27
ENDBRANCH  22  23
ENDBRANCH  19  22
ENDBRANCH  17  18
ENDBRANCH  14  17
ENDBRANCH  12  13
BRANCH  12  35
ATOM     35  C   UNL     1      -0.490  -0.327   2.328  1.00  0.00     0.070 C 
BRANCH  35  36
ATOM     36  C   UNL     1      -0.162   0.859   1.436  1.00  0.00    -0.045 A 
ATOM     37  C   UNL     1       1.040   1.559   1.639  1.00  0.00     0.004 A 
ATOM     38  C   UNL     1      -0.897   1.094   0.272  1.00  0.00     0.004 A 
ATOM     39  C   UNL     1       1.605   2.299   0.605  1.00  0.00     0.000 A 
ATOM     40  C   UNL     1      -0.361   1.899  -0.735  1.00  0.00     0.000 A 
ATOM     41  C   UNL     1       0.912   2.452  -0.591  1.00  0.00     0.000 A 
ENDBRANCH  35  36
ENDBRANCH  12  35
ENDBRANCH   9  12
ENDBRANCH   3   8
ENDBRANCH   1   3
BRANCH   1  42
ATOM     42  O   UNL     1       1.628  -6.387   0.548  1.00  0.00    -0.462 OA
BRANCH  42  43
ATOM     43  C   UNL     1       2.201  -7.663   0.213  1.00  0.00     0.261 C 
BRANCH  43  44
ATOM     44  C   UNL     1       1.247  -8.812   0.477  1.00  0.00     0.202 C 
BRANCH  44  45
ATOM     45  O   UNL     1       0.105  -8.814  -0.372  1.00  0.00    -0.374 OA
BRANCH  45  46
ATOM     46  C   UNL     1      -1.031  -8.123   0.145  1.00  0.00     0.202 C 
BRANCH  46  47
ATOM     47  C   UNL     1      -1.916  -8.994   1.042  1.00  0.00     0.261 C 
BRANCH  47  48
ATOM     48  O   UNL     1      -1.268  -9.329   2.282  1.00  0.00    -0.460 OA
BRANCH  48  49
ATOM     49  C   UNL     1      -0.602 -10.513   2.348  1.00  0.00     0.338 C 
ATOM     50  O   UNL     1      -0.518 -11.364   1.482  1.00  0.00    -0.246 OA
BRANCH  49  51
ATOM     51  C   UNL     1       0.171 -10.535   3.614  1.00  0.00     0.060 A 
ATOM     52  C   UNL     1       1.500 -10.974   3.647  1.00  0.00     0.016 A 
ATOM     53  C   UNL     1      -0.418 -10.070   4.781  1.00  0.00     0.016 A 
ATOM     54  C   UNL     1       2.216 -10.978   4.862  1.00  0.00     0.010 A 
ATOM     55  C   UNL     1       0.333  -9.981   5.952  1.00  0.00     0.010 A 
ATOM     56  C   UNL     1       1.632 -10.498   6.045  1.00  0.00    -0.014 A 
BRANCH  56  57
ATOM     57  C   UNL     1       2.271 -10.640   7.398  1.00  0.00     0.031 A 
ATOM     58  C   UNL     1       1.506 -11.331   8.520  1.00  0.00     0.074 A 
ATOM     59  C   UNL     1       3.490 -10.133   7.683  1.00  0.00     0.049 A 
ATOM     60  N   UNL     1       1.878 -11.581   9.754  1.00  0.00    -0.248 NA
ATOM     61  C   UNL     1       0.119 -11.741   8.241  1.00  0.00     0.031 C 
ATOM     62  C   UNL     1       4.326  -9.342   6.780  1.00  0.00     0.029 A 
ATOM     63  N   UNL     1       4.243 -10.211   8.836  1.00  0.00    -0.354 N 
ATOM     64  C   UNL     1       0.766 -12.142  10.377  1.00  0.00     0.074 A 
ATOM     65  C   UNL     1      -0.326 -12.062   9.441  1.00  0.00     0.031 C 
ATOM     66  C   UNL     1       5.486  -9.046   7.394  1.00  0.00     0.029 A 
ATOM     67  C   UNL     1       5.484  -9.625   8.736  1.00  0.00     0.049 A 
ATOM     68  H   UNL     1       3.921 -10.648   9.657  1.00  0.00     0.167 HD
ATOM     69  C   UNL     1       0.659 -12.749  11.583  1.00  0.00     0.037 A 
ATOM     70  C   UNL     1       6.515  -9.589   9.607  1.00  0.00     0.037 A 
ATOM     71  C   UNL     1       1.745 -12.898  12.508  1.00  0.00     0.049 A 
ATOM     72  C   UNL     1       6.403 -10.298  10.936  1.00  0.00     0.074 A 
ATOM     73  C   UNL     1       1.771 -13.587  13.707  1.00  0.00     0.029 A 
ATOM     74  N   UNL     1       3.001 -12.342  12.335  1.00  0.00    -0.354 N 
ATOM     75  N   UNL     1       5.395 -10.968  11.439  1.00  0.00    -0.248 NA
ATOM     76  C   UNL     1       7.590 -10.269  11.807  1.00  0.00     0.031 C 
ATOM     77  C   UNL     1       3.029 -13.401  14.288  1.00  0.00     0.029 A 
ATOM     78  C   UNL     1       3.803 -12.650  13.419  1.00  0.00     0.049 A 
ATOM     79  H   UNL     1       3.281 -11.807  11.557  1.00  0.00     0.167 HD
ATOM     80  C   UNL     1       5.842 -11.478  12.655  1.00  0.00     0.074 A 
ATOM     81  C   UNL     1       7.214 -11.049  12.810  1.00  0.00     0.031 C 
ATOM     82  C   UNL     1       5.176 -12.239  13.559  1.00  0.00     0.037 A 
BRANCH  69  83
ATOM     83  C   UNL     1      -0.679 -13.339  11.941  1.00  0.00     0.057 A 
ATOM     84  C   UNL     1      -1.229 -14.416  11.227  1.00  0.00     0.134 A 
ATOM     85  C   UNL     1      -1.428 -12.830  13.009  1.00  0.00     0.134 A 
ATOM     86  F   UNL     1      -0.571 -14.949  10.186  1.00  0.00    -0.206 F 
ATOM     87  C   UNL     1      -2.494 -14.925  11.525  1.00  0.00     0.040 A 
ATOM     88  C   UNL     1      -2.677 -13.358  13.342  1.00  0.00     0.040 A 
ATOM     89  F   UNL     1      -0.961 -11.810  13.745  1.00  0.00    -0.206 F 
ATOM     90  C   UNL     1      -3.219 -14.398  12.590  1.00  0.00     0.006 A 
ENDBRANCH  69  83
BRANCH  70  91
ATOM     91  C   UNL     1       7.800  -8.937   9.228  1.00  0.00     0.057 A 
ATOM     92  C   UNL     1       8.950  -9.704   8.991  1.00  0.00     0.134 A 
ATOM     93  C   UNL     1       7.927  -7.547   9.137  1.00  0.00     0.134 A 
ATOM     94  F   UNL     1       8.900 -11.041   9.086  1.00  0.00    -0.206 F 
ATOM     95  C   UNL     1      10.183  -9.113   8.708  1.00  0.00     0.040 A 
ATOM     96  C   UNL     1       9.150  -6.943   8.829  1.00  0.00     0.040 A 
ATOM     97  F   UNL     1       6.866  -6.754   9.347  1.00  0.00    -0.206 F 
ATOM     98  C   UNL     1      10.284  -7.727   8.623  1.00  0.00     0.006 A 
ENDBRANCH  70  91
BRANCH  82  99
ATOM     99  C   UNL     1       5.925 -12.710  14.773  1.00  0.00     0.057 A 
ATOM    100  C   UNL     1       6.317 -11.835  15.794  1.00  0.00     0.134 A 
ATOM    101  C   UNL     1       6.209 -14.072  14.946  1.00  0.00     0.134 A 
ATOM    102  F   UNL     1       6.081 -10.519  15.691  1.00  0.00    -0.206 F 
ATOM    103  C   UNL     1       6.991 -12.294  16.929  1.00  0.00     0.040 A 
ATOM    104  C   UNL     1       6.852 -14.546  16.090  1.00  0.00     0.040 A 
ATOM    105  F   UNL     1       5.848 -14.967  14.015  1.00  0.00    -0.206 F 
ATOM    106  C   UNL     1       7.252 -13.654  17.082  1.00  0.00     0.006 A 
ENDBRANCH  82  99
ENDBRANCH  56  57
ENDBRANCH  49  51
ENDBRANCH  48  49
ENDBRANCH  47  48
ENDBRANCH  46  47
ENDBRANCH  45  46
ENDBRANCH  44  45
ENDBRANCH  43  44
ENDBRANCH  42  43
ENDBRANCH   1  42
TORSDOF 28
