REMARK SMILES CC1(C)[C@H](C(=O)OCCOCCOC(=O)c2ccc(-c3c4nc(c(-c5c(F)cccc5F)c5ccc([nH]5)c(-c5c(F)cccc5F)c5nc(c(-c6c(F)cccc6F)c6ccc3[nH]6)C=C5)C=C4)cc2)[C@@H]1C(=O)Nc1ccc(Cl)c(Br)c1
REMARK SMILES IDX 10 1 9 2 8 3 7 4 5 5 6 6 4 7 1 8 2 9 3 10 70 11 71 12 72 13
REMARK SMILES IDX 73 14 74 16 75 17 81 18 76 19 79 20 77 21 80 22 78 23 11 24
REMARK SMILES IDX 12 25 13 26 14 27 15 28 16 29 17 30 69 31 18 32 68 33 19 34
REMARK SMILES IDX 20 35 21 36 62 37 22 38 67 39 61 40 63 41 23 42 66 43 60 44
REMARK SMILES IDX 59 45 24 47 50 48 33 49 49 50 34 51 37 52 48 53 64 54 35 55
REMARK SMILES IDX 36 56 47 58 65 59 38 60 25 61 26 62 31 63 27 64 28 65 30 66
REMARK SMILES IDX 32 67 29 68 51 69 52 70 57 71 53 72 54 73 56 74 58 75 55 76
REMARK SMILES IDX 39 77 40 78 45 79 41 80 42 81 44 82 46 83 43 84
REMARK H PARENT 73 15 63 46 37 57
REMARK Flexibility Score: inf
ROOT
ATOM      1  O   UNL     1      -1.542   1.368  -4.670  1.00  0.00    -0.374 OA
ENDROOT
BRANCH   1   2
ATOM      2  C   UNL     1      -1.979   2.601  -4.126  1.00  0.00     0.202 C 
BRANCH   2   3
ATOM      3  C   UNL     1      -2.190   2.771  -2.611  1.00  0.00     0.261 C 
BRANCH   3   4
ATOM      4  O   UNL     1      -1.421   1.939  -1.741  1.00  0.00    -0.463 OA
BRANCH   4   5
ATOM      5  C   UNL     1      -1.951   0.700  -1.585  1.00  0.00     0.310 C 
ATOM      6  O   UNL     1      -2.899   0.265  -2.223  1.00  0.00    -0.252 OA
BRANCH   5   7
ATOM      7  C   UNL     1      -1.249  -0.187  -0.631  1.00  0.00     0.118 C 
ATOM      8  C   UNL     1       0.990  -1.069   0.226  1.00  0.00     0.013 C 
ATOM      9  C   UNL     1       0.014   0.086   0.151  1.00  0.00    -0.009 C 
ATOM     10  C   UNL     1       0.712   1.425   0.079  1.00  0.00     0.013 C 
ATOM     11  C   UNL     1      -1.345  -0.052   0.873  1.00  0.00     0.100 C 
BRANCH  11  12
ATOM     12  C   UNL     1      -1.870   1.109   1.642  1.00  0.00     0.228 C 
ATOM     13  O   UNL     1      -1.169   1.593   2.528  1.00  0.00    -0.274 OA
ATOM     14  N   UNL     1      -3.088   1.681   1.375  1.00  0.00    -0.326 N 
ATOM     15  H   UNL     1      -3.247   2.530   1.847  1.00  0.00     0.169 HD
BRANCH  14  16
ATOM     16  C   UNL     1      -4.146   1.276   0.552  1.00  0.00     0.042 A 
ATOM     17  C   UNL     1      -4.905   2.291  -0.040  1.00  0.00     0.028 A 
ATOM     18  C   UNL     1      -4.432  -0.057   0.256  1.00  0.00     0.043 A 
ATOM     19  C   UNL     1      -5.828   1.984  -1.042  1.00  0.00     0.024 A 
ATOM     20  C   UNL     1      -5.372  -0.369  -0.739  1.00  0.00     0.038 A 
ATOM     21  C   UNL     1      -6.041   0.655  -1.417  1.00  0.00     0.055 A 
ATOM     22  Br  UNL     1      -5.606  -2.205  -1.171  1.00  0.00    -0.049 Br
ATOM     23  Cl  UNL     1      -7.108   0.365  -2.744  1.00  0.00    -0.083 Cl
ENDBRANCH  14  16
ENDBRANCH  11  12
ENDBRANCH   5   7
ENDBRANCH   4   5
ENDBRANCH   3   4
ENDBRANCH   2   3
ENDBRANCH   1   2
BRANCH   1  24
ATOM     24  C   UNL     1      -0.291   0.813  -4.284  1.00  0.00     0.202 C 
BRANCH  24  25
ATOM     25  C   UNL     1       0.979   1.663  -4.365  1.00  0.00     0.261 C 
BRANCH  25  26
ATOM     26  O   UNL     1       0.907   2.886  -3.614  1.00  0.00    -0.460 OA
BRANCH  26  27
ATOM     27  C   UNL     1       1.009   4.004  -4.371  1.00  0.00     0.338 C 
ATOM     28  O   UNL     1       1.164   4.072  -5.579  1.00  0.00    -0.246 OA
BRANCH  27  29
ATOM     29  C   UNL     1       0.746   5.204  -3.562  1.00  0.00     0.060 A 
ATOM     30  C   UNL     1      -0.284   6.055  -3.984  1.00  0.00     0.016 A 
ATOM     31  C   UNL     1       1.597   5.571  -2.519  1.00  0.00     0.016 A 
ATOM     32  C   UNL     1      -0.421   7.314  -3.411  1.00  0.00     0.010 A 
ATOM     33  C   UNL     1       1.465   6.842  -1.952  1.00  0.00     0.010 A 
ATOM     34  C   UNL     1       0.490   7.735  -2.434  1.00  0.00    -0.014 A 
BRANCH  34  35
ATOM     35  C   UNL     1       0.537   9.172  -2.075  1.00  0.00     0.031 A 
ATOM     36  C   UNL     1       1.560  10.052  -2.744  1.00  0.00     0.074 A 
ATOM     37  C   UNL     1      -0.355   9.698  -1.220  1.00  0.00     0.049 A 
ATOM     38  N   UNL     1       1.776  11.333  -2.597  1.00  0.00    -0.248 NA
ATOM     39  C   UNL     1       2.457   9.397  -3.710  1.00  0.00     0.031 C 
ATOM     40  C   UNL     1      -1.418   8.956  -0.546  1.00  0.00     0.029 A 
ATOM     41  N   UNL     1      -0.506  10.986  -0.776  1.00  0.00    -0.354 N 
ATOM     42  C   UNL     1       2.833  11.637  -3.446  1.00  0.00     0.074 A 
ATOM     43  C   UNL     1       3.237  10.402  -4.081  1.00  0.00     0.031 C 
ATOM     44  C   UNL     1      -2.111   9.803   0.234  1.00  0.00     0.029 A 
ATOM     45  C   UNL     1      -1.524  11.137   0.133  1.00  0.00     0.049 A 
ATOM     46  H   UNL     1       0.061  11.732  -1.080  1.00  0.00     0.167 HD
ATOM     47  C   UNL     1       3.408  12.840  -3.686  1.00  0.00     0.037 A 
ATOM     48  C   UNL     1      -1.922  12.228   0.815  1.00  0.00     0.037 A 
ATOM     49  C   UNL     1       3.003  14.068  -3.055  1.00  0.00     0.049 A 
ATOM     50  C   UNL     1      -1.221  13.540   0.583  1.00  0.00     0.074 A 
ATOM     51  C   UNL     1       3.511  15.342  -3.242  1.00  0.00     0.029 A 
ATOM     52  N   UNL     1       1.994  14.174  -2.110  1.00  0.00    -0.354 N 
ATOM     53  N   UNL     1      -0.240  13.822  -0.241  1.00  0.00    -0.248 NA
ATOM     54  C   UNL     1      -1.688  14.688   1.374  1.00  0.00     0.031 C 
ATOM     55  C   UNL     1       2.842  16.210  -2.373  1.00  0.00     0.029 A 
ATOM     56  C   UNL     1       1.882  15.487  -1.684  1.00  0.00     0.049 A 
ATOM     57  H   UNL     1       1.440  13.426  -1.790  1.00  0.00     0.167 HD
ATOM     58  C   UNL     1       0.009  15.181  -0.088  1.00  0.00     0.074 A 
ATOM     59  C   UNL     1      -0.935  15.669   0.897  1.00  0.00     0.031 C 
ATOM     60  C   UNL     1       0.934  15.956  -0.706  1.00  0.00     0.037 A 
BRANCH  47  61
ATOM     61  C   UNL     1       4.554  12.877  -4.653  1.00  0.00     0.057 A 
ATOM     62  C   UNL     1       4.367  12.709  -6.032  1.00  0.00     0.134 A 
ATOM     63  C   UNL     1       5.860  13.110  -4.203  1.00  0.00     0.134 A 
ATOM     64  F   UNL     1       3.144  12.467  -6.527  1.00  0.00    -0.206 F 
ATOM     65  C   UNL     1       5.440  12.748  -6.924  1.00  0.00     0.040 A 
ATOM     66  C   UNL     1       6.937  13.177  -5.088  1.00  0.00     0.040 A 
ATOM     67  F   UNL     1       6.109  13.282  -2.896  1.00  0.00    -0.206 F 
ATOM     68  C   UNL     1       6.729  12.990  -6.453  1.00  0.00     0.006 A 
ENDBRANCH  47  61
BRANCH  48  69
ATOM     69  C   UNL     1      -3.035  12.128   1.792  1.00  0.00     0.057 A 
ATOM     70  C   UNL     1      -4.266  12.751   1.558  1.00  0.00     0.134 A 
ATOM     71  C   UNL     1      -2.885  11.426   2.994  1.00  0.00     0.134 A 
ATOM     72  F   UNL     1      -4.463  13.457   0.435  1.00  0.00    -0.206 F 
ATOM     73  C   UNL     1      -5.301  12.697   2.494  1.00  0.00     0.040 A 
ATOM     74  C   UNL     1      -3.919  11.342   3.926  1.00  0.00     0.040 A 
ATOM     75  F   UNL     1      -1.730  10.805   3.276  1.00  0.00    -0.206 F 
ATOM     76  C   UNL     1      -5.130  11.986   3.680  1.00  0.00     0.006 A 
ENDBRANCH  48  69
BRANCH  60  77
ATOM     77  C   UNL     1       0.948  17.417  -0.360  1.00  0.00     0.057 A 
ATOM     78  C   UNL     1       1.412  17.880   0.878  1.00  0.00     0.134 A 
ATOM     79  C   UNL     1       0.526  18.374  -1.292  1.00  0.00     0.134 A 
ATOM     80  F   UNL     1       1.819  17.015   1.818  1.00  0.00    -0.206 F 
ATOM     81  C   UNL     1       1.430  19.242   1.186  1.00  0.00     0.040 A 
ATOM     82  C   UNL     1       0.565  19.739  -1.006  1.00  0.00     0.040 A 
ATOM     83  F   UNL     1       0.080  17.998  -2.501  1.00  0.00    -0.206 F 
ATOM     84  C   UNL     1       1.012  20.176   0.240  1.00  0.00     0.006 A 
ENDBRANCH  60  77
ENDBRANCH  34  35
ENDBRANCH  27  29
ENDBRANCH  26  27
ENDBRANCH  25  26
ENDBRANCH  24  25
ENDBRANCH   1  24
TORSDOF 16
