REMARK SMILES O=C(Nc1ccsc1C(=O)OCCOCCOC(=O)c1ccc(-c2c3nc(c(-c4c(F)cccc4F)c4ccc([nH]4)c(-c4c(F)cccc4F)c4nc(c(-c5c(F)cccc5F)c5ccc2[nH]5)C=C4)C=C3)cc1)c1ccc(Br)nc1
REMARK SMILES IDX 14 1 13 2 12 3 11 4 9 5 10 6 8 7 4 8 5 9 6 10 7 11 3 12 1 13
REMARK SMILES IDX 2 14 74 16 75 17 80 18 76 19 79 20 77 21 78 22 15 23 16 24
REMARK SMILES IDX 17 25 18 26 19 27 20 28 21 29 73 30 22 31 72 32 23 33 24 34
REMARK SMILES IDX 25 35 66 36 26 37 71 38 65 39 67 40 27 41 70 42 64 43 63 44
REMARK SMILES IDX 28 46 54 47 37 48 53 49 38 50 41 51 52 52 68 53 39 54 40 55
REMARK SMILES IDX 51 57 69 58 42 59 29 60 30 61 35 62 31 63 32 64 34 65 36 66
REMARK SMILES IDX 33 67 55 68 56 69 61 70 57 71 58 72 60 73 62 74 59 75 43 76
REMARK SMILES IDX 44 77 49 78 45 79 46 80 48 81 50 82 47 83
REMARK H PARENT 3 15 67 45 41 56
REMARK Flexibility Score: inf
ROOT
ATOM      1  O   UNL     1       4.705   3.840   3.973  1.00  0.00    -0.374 OA
ENDROOT
BRANCH   1   2
ATOM      2  C   UNL     1       3.419   4.248   3.503  1.00  0.00     0.202 C 
BRANCH   2   3
ATOM      3  C   UNL     1       3.419   4.767   2.063  1.00  0.00     0.261 C 
BRANCH   3   4
ATOM      4  O   UNL     1       3.721   3.692   1.153  1.00  0.00    -0.459 OA
BRANCH   4   5
ATOM      5  C   UNL     1       4.894   3.822   0.462  1.00  0.00     0.350 C 
ATOM      6  O   UNL     1       5.541   4.860   0.407  1.00  0.00    -0.245 OA
BRANCH   5   7
ATOM      7  C   UNL     1       5.279   2.546  -0.127  1.00  0.00     0.136 A 
ATOM      8  C   UNL     1       4.594   1.343  -0.297  1.00  0.00     0.067 A 
ATOM      9  C   UNL     1       5.427   0.377  -0.951  1.00  0.00     0.039 A 
ATOM     10  C   UNL     1       6.711   0.818  -1.164  1.00  0.00     0.068 A 
ATOM     11  S   UNL     1       6.913   2.426  -0.665  1.00  0.00    -0.135 S 
BRANCH   8  12
ATOM     12  N   UNL     1       3.259   1.174   0.078  1.00  0.00    -0.320 N 
ATOM     13  O   UNL     1       1.252   0.130   0.198  1.00  0.00    -0.269 OA
ATOM     14  C   UNL     1       2.475   0.041   0.123  1.00  0.00     0.257 C 
ATOM     15  H   UNL     1       2.803   2.001   0.357  1.00  0.00     0.170 HD
BRANCH  14  16
ATOM     16  C   UNL     1       3.072  -1.302   0.170  1.00  0.00     0.058 A 
ATOM     17  C   UNL     1       2.674  -2.295  -0.725  1.00  0.00     0.018 A 
ATOM     18  C   UNL     1       4.011  -1.624   1.139  1.00  0.00     0.126 A 
ATOM     19  C   UNL     1       3.283  -3.548  -0.659  1.00  0.00     0.037 A 
ATOM     20  N   UNL     1       4.622  -2.830   1.221  1.00  0.00    -0.249 NA
ATOM     21  C   UNL     1       4.251  -3.765   0.316  1.00  0.00     0.106 A 
ATOM     22  Br  UNL     1       5.122  -5.447   0.386  1.00  0.00    -0.029 Br
ENDBRANCH  14  16
ENDBRANCH   8  12
ENDBRANCH   5   7
ENDBRANCH   4   5
ENDBRANCH   3   4
ENDBRANCH   2   3
ENDBRANCH   1   2
BRANCH   1  23
ATOM     23  C   UNL     1       5.081   2.486   3.708  1.00  0.00     0.202 C 
BRANCH  23  24
ATOM     24  C   UNL     1       4.530   1.460   4.704  1.00  0.00     0.261 C 
BRANCH  24  25
ATOM     25  O   UNL     1       3.114   1.274   4.515  1.00  0.00    -0.460 OA
BRANCH  25  26
ATOM     26  C   UNL     1       2.338   1.738   5.524  1.00  0.00     0.338 C 
ATOM     27  O   UNL     1       2.709   2.179   6.598  1.00  0.00    -0.246 OA
BRANCH  26  28
ATOM     28  C   UNL     1       0.930   1.815   5.081  1.00  0.00     0.060 A 
ATOM     29  C   UNL     1       0.231   2.993   5.373  1.00  0.00     0.016 A 
ATOM     30  C   UNL     1       0.289   0.752   4.440  1.00  0.00     0.016 A 
ATOM     31  C   UNL     1      -1.126   3.095   5.070  1.00  0.00     0.010 A 
ATOM     32  C   UNL     1      -1.076   0.852   4.145  1.00  0.00     0.010 A 
ATOM     33  C   UNL     1      -1.796   2.010   4.489  1.00  0.00    -0.014 A 
BRANCH  33  34
ATOM     34  C   UNL     1      -3.273   2.044   4.374  1.00  0.00     0.031 A 
ATOM     35  C   UNL     1      -4.104   1.381   5.437  1.00  0.00     0.074 A 
ATOM     36  C   UNL     1      -3.870   2.685   3.355  1.00  0.00     0.049 A 
ATOM     37  N   UNL     1      -5.405   1.279   5.531  1.00  0.00    -0.248 NA
ATOM     38  C   UNL     1      -3.368   0.749   6.543  1.00  0.00     0.031 C 
ATOM     39  C   UNL     1      -3.178   3.391   2.280  1.00  0.00     0.029 A 
ATOM     40  N   UNL     1      -5.202   2.839   3.060  1.00  0.00    -0.354 N 
ATOM     41  C   UNL     1      -5.645   0.576   6.704  1.00  0.00     0.074 A 
ATOM     42  C   UNL     1      -4.355   0.248   7.273  1.00  0.00     0.031 C 
ATOM     43  C   UNL     1      -4.092   3.893   1.431  1.00  0.00     0.029 A 
ATOM     44  C   UNL     1      -5.429   3.523   1.892  1.00  0.00     0.049 A 
ATOM     45  H   UNL     1      -5.924   2.493   3.632  1.00  0.00     0.167 HD
ATOM     46  C   UNL     1      -6.832   0.241   7.263  1.00  0.00     0.037 A 
ATOM     47  C   UNL     1      -6.584   3.800   1.258  1.00  0.00     0.037 A 
ATOM     48  C   UNL     1      -8.116   0.556   6.696  1.00  0.00     0.049 A 
ATOM     49  C   UNL     1      -7.889   3.360   1.864  1.00  0.00     0.074 A 
ATOM     50  C   UNL     1      -9.374   0.266   7.194  1.00  0.00     0.029 A 
ATOM     51  N   UNL     1      -8.304   1.227   5.497  1.00  0.00    -0.354 N 
ATOM     52  N   UNL     1      -8.105   2.717   2.985  1.00  0.00    -0.248 NA
ATOM     53  C   UNL     1      -9.112   3.689   1.116  1.00  0.00     0.031 C 
ATOM     54  C   UNL     1     -10.325   0.728   6.276  1.00  0.00     0.029 A 
ATOM     55  C   UNL     1      -9.658   1.342   5.228  1.00  0.00     0.049 A 
ATOM     56  H   UNL     1      -7.582   1.570   4.923  1.00  0.00     0.167 HD
ATOM     57  C   UNL     1      -9.484   2.582   3.088  1.00  0.00     0.074 A 
ATOM     58  C   UNL     1     -10.056   3.221   1.922  1.00  0.00     0.031 C 
ATOM     59  C   UNL     1     -10.212   1.983   4.063  1.00  0.00     0.037 A 
BRANCH  46  60
ATOM     60  C   UNL     1      -6.789  -0.526   8.551  1.00  0.00     0.057 A 
ATOM     61  C   UNL     1      -6.431   0.084   9.760  1.00  0.00     0.134 A 
ATOM     62  C   UNL     1      -7.128  -1.884   8.586  1.00  0.00     0.134 A 
ATOM     63  F   UNL     1      -6.081   1.379   9.790  1.00  0.00    -0.206 F 
ATOM     64  C   UNL     1      -6.389  -0.635  10.955  1.00  0.00     0.040 A 
ATOM     65  C   UNL     1      -7.111  -2.609   9.779  1.00  0.00     0.040 A 
ATOM     66  F   UNL     1      -7.483  -2.527   7.463  1.00  0.00    -0.206 F 
ATOM     67  C   UNL     1      -6.736  -1.985  10.967  1.00  0.00     0.006 A 
ENDBRANCH  46  60
BRANCH  47  68
ATOM     68  C   UNL     1      -6.559   4.521  -0.038  1.00  0.00     0.057 A 
ATOM     69  C   UNL     1      -7.005   5.843  -0.143  1.00  0.00     0.134 A 
ATOM     70  C   UNL     1      -6.097   3.900  -1.204  1.00  0.00     0.134 A 
ATOM     71  F   UNL     1      -7.481   6.482   0.936  1.00  0.00    -0.206 F 
ATOM     72  C   UNL     1      -7.002   6.519  -1.364  1.00  0.00     0.040 A 
ATOM     73  C   UNL     1      -6.069   4.571  -2.428  1.00  0.00     0.040 A 
ATOM     74  F   UNL     1      -5.659   2.633  -1.168  1.00  0.00    -0.206 F 
ATOM     75  C   UNL     1      -6.528   5.884  -2.510  1.00  0.00     0.006 A 
ENDBRANCH  47  68
BRANCH  59  76
ATOM     76  C   UNL     1     -11.705   2.013   3.924  1.00  0.00     0.057 A 
ATOM     77  C   UNL     1     -12.376   1.199   3.003  1.00  0.00     0.134 A 
ATOM     78  C   UNL     1     -12.482   2.836   4.749  1.00  0.00     0.134 A 
ATOM     79  F   UNL     1     -11.688   0.398   2.176  1.00  0.00    -0.206 F 
ATOM     80  C   UNL     1     -13.768   1.215   2.897  1.00  0.00     0.040 A 
ATOM     81  C   UNL     1     -13.875   2.844   4.667  1.00  0.00     0.040 A 
ATOM     82  F   UNL     1     -11.901   3.634   5.657  1.00  0.00    -0.206 F 
ATOM     83  C   UNL     1     -14.521   2.035   3.735  1.00  0.00     0.006 A 
ENDBRANCH  59  76
ENDBRANCH  33  34
ENDBRANCH  26  28
ENDBRANCH  25  26
ENDBRANCH  24  25
ENDBRANCH  23  24
ENDBRANCH   1  23
TORSDOF 16
