REMARK SMILES CC(=O)NCCc1c[nH]c2ccc(C(=O)OCCOCCOC(=O)c3ccc(-c4c5nc(c(-c6c(F)cccc6F)c6ccc([nH]6)c(-c6c(F)cccc6F)c6nc(c(-c7c(F)cccc7F)c7ccc4[nH]7)C=C6)C=C5)cc3)cc12
REMARK SMILES IDX 18 1 17 2 16 3 14 4 15 5 13 6 7 7 8 8 80 9 9 10 10 11 79 12
REMARK SMILES IDX 11 14 12 15 6 16 5 17 4 18 1 19 2 20 3 21 19 23 20 24 21 25
REMARK SMILES IDX 22 26 23 27 24 28 25 29 26 30 78 31 27 32 77 33 28 34 29 35
REMARK SMILES IDX 30 36 71 37 31 38 76 39 70 40 72 41 32 42 75 43 69 44 68 45
REMARK SMILES IDX 33 47 59 48 42 49 58 50 43 51 46 52 57 53 73 54 44 55 45 56
REMARK SMILES IDX 56 58 74 59 47 60 34 61 35 62 40 63 36 64 37 65 39 66 41 67
REMARK SMILES IDX 38 68 60 69 61 70 66 71 62 72 63 73 65 74 67 75 64 76 48 77
REMARK SMILES IDX 49 78 54 79 50 80 51 81 53 82 55 83 52 84
REMARK H PARENT 9 13 4 22 72 46 46 57
REMARK Flexibility Score: inf
ROOT
ATOM      1  C   UNL     1       3.380  10.493  -3.055  1.00  0.00     0.202 C 
ENDROOT
BRANCH   1   2
ATOM      2  C   UNL     1       4.532   9.900  -3.872  1.00  0.00     0.261 C 
BRANCH   2   3
ATOM      3  O   UNL     1       4.095   8.771  -4.647  1.00  0.00    -0.460 OA
BRANCH   3   4
ATOM      4  C   UNL     1       4.615   7.583  -4.255  1.00  0.00     0.338 C 
ATOM      5  O   UNL     1       5.503   7.410  -3.435  1.00  0.00    -0.246 OA
BRANCH   4   6
ATOM      6  C   UNL     1       3.849   6.461  -4.843  1.00  0.00     0.060 A 
ATOM      7  C   UNL     1       2.717   2.903  -4.009  1.00  0.00    -0.021 A 
ATOM      8  C   UNL     1       2.126   2.187  -5.031  1.00  0.00     0.087 A 
ATOM      9  C   UNL     1       3.033   4.192  -4.546  1.00  0.00     0.003 A 
ATOM     10  N   UNL     1       2.007   3.005  -6.123  1.00  0.00    -0.361 N 
ATOM     11  C   UNL     1       2.541   4.244  -5.850  1.00  0.00     0.046 A 
ATOM     12  C   UNL     1       3.699   5.321  -4.037  1.00  0.00     0.026 A 
ATOM     13  H   UNL     1       1.598   2.745  -6.980  1.00  0.00     0.166 HD
ATOM     14  C   UNL     1       2.637   5.389  -6.655  1.00  0.00     0.027 A 
ATOM     15  C   UNL     1       3.299   6.506  -6.126  1.00  0.00     0.018 A 
BRANCH   7  16
ATOM     16  C   UNL     1       2.993   2.420  -2.613  1.00  0.00     0.059 C 
BRANCH  16  17
ATOM     17  C   UNL     1       1.744   2.432  -1.722  1.00  0.00     0.120 C 
BRANCH  17  18
ATOM     18  N   UNL     1       0.792   1.398  -2.100  1.00  0.00    -0.356 N 
ATOM     19  C   UNL     1       1.078  -0.002  -0.097  1.00  0.00     0.114 C 
ATOM     20  C   UNL     1       0.477   0.242  -1.452  1.00  0.00     0.216 C 
ATOM     21  O   UNL     1      -0.292  -0.560  -1.979  1.00  0.00    -0.275 OA
ATOM     22  H   UNL     1       0.307   1.556  -2.942  1.00  0.00     0.163 HD
ENDBRANCH  17  18
ENDBRANCH  16  17
ENDBRANCH   7  16
ENDBRANCH   4   6
ENDBRANCH   3   4
ENDBRANCH   2   3
ENDBRANCH   1   2
BRANCH   1  23
ATOM     23  O   UNL     1       2.792   9.633  -2.080  1.00  0.00    -0.374 OA
BRANCH  23  24
ATOM     24  C   UNL     1       1.820   8.694  -2.543  1.00  0.00     0.202 C 
BRANCH  24  25
ATOM     25  C   UNL     1       0.415   9.250  -2.808  1.00  0.00     0.261 C 
BRANCH  25  26
ATOM     26  O   UNL     1       0.396  10.133  -3.946  1.00  0.00    -0.460 OA
BRANCH  26  27
ATOM     27  C   UNL     1       0.161  11.434  -3.657  1.00  0.00     0.338 C 
ATOM     28  O   UNL     1      -0.128  11.913  -2.569  1.00  0.00    -0.246 OA
BRANCH  27  29
ATOM     29  C   UNL     1       0.478  12.272  -4.827  1.00  0.00     0.060 A 
ATOM     30  C   UNL     1       1.353  13.348  -4.635  1.00  0.00     0.016 A 
ATOM     31  C   UNL     1      -0.114  12.053  -6.073  1.00  0.00     0.016 A 
ATOM     32  C   UNL     1       1.605  14.239  -5.676  1.00  0.00     0.010 A 
ATOM     33  C   UNL     1       0.132  12.954  -7.115  1.00  0.00     0.010 A 
ATOM     34  C   UNL     1       0.966  14.069  -6.910  1.00  0.00    -0.014 A 
BRANCH  34  35
ATOM     35  C   UNL     1       1.061  15.134  -7.937  1.00  0.00     0.031 A 
ATOM     36  C   UNL     1      -0.064  16.122  -8.071  1.00  0.00     0.074 A 
ATOM     37  C   UNL     1       2.148  15.238  -8.721  1.00  0.00     0.049 A 
ATOM     38  N   UNL     1      -0.204  17.112  -8.915  1.00  0.00    -0.248 NA
ATOM     39  C   UNL     1      -1.181  15.974  -7.125  1.00  0.00     0.031 C 
ATOM     40  C   UNL     1       3.320  14.367  -8.662  1.00  0.00     0.029 A 
ATOM     41  N   UNL     1       2.436  16.125  -9.728  1.00  0.00    -0.354 N 
ATOM     42  C   UNL     1      -1.424  17.701  -8.606  1.00  0.00     0.074 A 
ATOM     43  C   UNL     1      -1.998  16.940  -7.517  1.00  0.00     0.031 C 
ATOM     44  C   UNL     1       4.200  14.757  -9.600  1.00  0.00     0.029 A 
ATOM     45  C   UNL     1       3.640  15.885 -10.343  1.00  0.00     0.049 A 
ATOM     46  H   UNL     1       1.837  16.862  -9.985  1.00  0.00     0.167 HD
ATOM     47  C   UNL     1      -2.008  18.784  -9.172  1.00  0.00     0.037 A 
ATOM     48  C   UNL     1       4.213  16.494 -11.398  1.00  0.00     0.037 A 
ATOM     49  C   UNL     1      -1.437  19.540 -10.255  1.00  0.00     0.049 A 
ATOM     50  C   UNL     1       3.510  17.651 -12.058  1.00  0.00     0.074 A 
ATOM     51  C   UNL     1      -1.945  20.663 -10.885  1.00  0.00     0.029 A 
ATOM     52  N   UNL     1      -0.232  19.244 -10.874  1.00  0.00    -0.354 N 
ATOM     53  N   UNL     1       2.369  18.214 -11.744  1.00  0.00    -0.248 NA
ATOM     54  C   UNL     1       4.178  18.257 -13.220  1.00  0.00     0.031 C 
ATOM     55  C   UNL     1      -1.068  21.020 -11.915  1.00  0.00     0.029 A 
ATOM     56  C   UNL     1       0.009  20.148 -11.895  1.00  0.00     0.049 A 
ATOM     57  H   UNL     1       0.364  18.502 -10.624  1.00  0.00     0.167 HD
ATOM     58  C   UNL     1       2.195  19.255 -12.648  1.00  0.00     0.074 A 
ATOM     59  C   UNL     1       3.353  19.252 -13.517  1.00  0.00     0.031 C 
ATOM     60  C   UNL     1       1.170  20.136 -12.748  1.00  0.00     0.037 A 
BRANCH  47  61
ATOM     61  C   UNL     1      -3.348  19.200  -8.640  1.00  0.00     0.057 A 
ATOM     62  C   UNL     1      -3.490  19.806  -7.385  1.00  0.00     0.134 A 
ATOM     63  C   UNL     1      -4.506  19.016  -9.405  1.00  0.00     0.134 A 
ATOM     64  F   UNL     1      -2.421  19.997  -6.598  1.00  0.00    -0.206 F 
ATOM     65  C   UNL     1      -4.740  20.194  -6.900  1.00  0.00     0.040 A 
ATOM     66  C   UNL     1      -5.759  19.422  -8.941  1.00  0.00     0.040 A 
ATOM     67  F   UNL     1      -4.439  18.445 -10.617  1.00  0.00    -0.206 F 
ATOM     68  C   UNL     1      -5.878  20.008  -7.683  1.00  0.00     0.006 A 
ENDBRANCH  47  61
BRANCH  48  69
ATOM     69  C   UNL     1       5.524  16.018 -11.909  1.00  0.00     0.057 A 
ATOM     70  C   UNL     1       6.681  16.792 -11.768  1.00  0.00     0.134 A 
ATOM     71  C   UNL     1       5.645  14.788 -12.566  1.00  0.00     0.134 A 
ATOM     72  F   UNL     1       6.623  17.991 -11.169  1.00  0.00    -0.206 F 
ATOM     73  C   UNL     1       7.910  16.367 -12.276  1.00  0.00     0.040 A 
ATOM     74  C   UNL     1       6.872  14.340 -13.058  1.00  0.00     0.040 A 
ATOM     75  F   UNL     1       4.572  14.001 -12.733  1.00  0.00    -0.206 F 
ATOM     76  C   UNL     1       8.008  15.135 -12.919  1.00  0.00     0.006 A 
ENDBRANCH  48  69
BRANCH  60  77
ATOM     77  C   UNL     1       1.269  21.191 -13.811  1.00  0.00     0.057 A 
ATOM     78  C   UNL     1       1.096  20.892 -15.168  1.00  0.00     0.134 A 
ATOM     79  C   UNL     1       1.502  22.529 -13.467  1.00  0.00     0.134 A 
ATOM     80  F   UNL     1       0.883  19.629 -15.565  1.00  0.00    -0.206 F 
ATOM     81  C   UNL     1       1.170  21.885 -16.148  1.00  0.00     0.040 A 
ATOM     82  C   UNL     1       1.554  23.533 -14.434  1.00  0.00     0.040 A 
ATOM     83  F   UNL     1       1.668  22.883 -12.184  1.00  0.00    -0.206 F 
ATOM     84  C   UNL     1       1.393  23.211 -15.780  1.00  0.00     0.006 A 
ENDBRANCH  60  77
ENDBRANCH  34  35
ENDBRANCH  27  29
ENDBRANCH  26  27
ENDBRANCH  25  26
ENDBRANCH  24  25
ENDBRANCH  23  24
ENDBRANCH   1  23
TORSDOF 17
