REMARK SMILES O=C(OCCOCCOC(=O)c1ccc2c(c1)[C@@H](C1CCOCC1)C(=O)N2)c1ccc(-c2c3nc(c(-c4c(F)cccc4F)c4ccc([nH]4)c(-c4c(F)cccc4F)c4nc(c(-c5c(F)cccc5F)c5ccc2[nH]5)C=C4)C=C3)cc1
REMARK SMILES IDX 5 1 4 2 3 3 2 4 1 5 28 6 29 7 81 8 30 9 80 10 31 11 32 12
REMARK SMILES IDX 33 13 74 14 34 15 79 16 73 17 75 18 35 19 78 20 72 21 71 22
REMARK SMILES IDX 36 24 62 25 45 26 61 27 46 28 49 29 60 30 76 31 47 32 48 33
REMARK SMILES IDX 59 35 77 36 50 37 37 38 38 39 43 40 39 41 40 42 42 43 44 44
REMARK SMILES IDX 41 45 63 46 64 47 69 48 65 49 66 50 68 51 70 52 67 53 51 54
REMARK SMILES IDX 52 55 57 56 53 57 54 58 56 59 58 60 55 61 6 62 7 63 8 64
REMARK SMILES IDX 9 65 10 66 11 67 12 68 13 69 17 70 14 71 16 72 15 73 18 74
REMARK SMILES IDX 27 75 25 76 26 78 19 79 20 80 24 81 21 82 23 83 22 84
REMARK H PARENT 75 23 49 34 27 77
REMARK Flexibility Score: inf
ROOT
ATOM      1  C   UNL     1       4.179   1.172  -1.287  1.00  0.00     0.202 C 
ENDROOT
BRANCH   1   2
ATOM      2  C   UNL     1       3.825  -0.308  -1.443  1.00  0.00     0.261 C 
BRANCH   2   3
ATOM      3  O   UNL     1       2.454  -0.536  -1.079  1.00  0.00    -0.460 OA
BRANCH   3   4
ATOM      4  C   UNL     1       1.971  -1.078   0.064  1.00  0.00     0.338 C 
ATOM      5  O   UNL     1       0.759  -1.250   0.171  1.00  0.00    -0.246 OA
BRANCH   4   6
ATOM      6  C   UNL     1       2.838  -1.495   1.208  1.00  0.00     0.060 A 
ATOM      7  C   UNL     1       4.063  -0.911   1.523  1.00  0.00     0.016 A 
ATOM      8  C   UNL     1       2.340  -2.483   2.075  1.00  0.00     0.016 A 
ATOM      9  C   UNL     1       4.809  -1.324   2.610  1.00  0.00     0.010 A 
ATOM     10  C   UNL     1       3.061  -2.872   3.210  1.00  0.00     0.010 A 
ATOM     11  C   UNL     1       4.307  -2.293   3.470  1.00  0.00    -0.014 A 
BRANCH  11  12
ATOM     12  C   UNL     1       5.187  -2.709   4.574  1.00  0.00     0.031 A 
ATOM     13  C   UNL     1       5.920  -4.006   4.451  1.00  0.00     0.074 A 
ATOM     14  C   UNL     1       5.465  -1.824   5.549  1.00  0.00     0.049 A 
ATOM     15  N   UNL     1       6.781  -4.548   5.268  1.00  0.00    -0.248 NA
ATOM     16  C   UNL     1       5.668  -4.790   3.229  1.00  0.00     0.031 C 
ATOM     17  C   UNL     1       4.887  -0.479   5.654  1.00  0.00     0.029 A 
ATOM     18  N   UNL     1       6.338  -1.892   6.599  1.00  0.00    -0.354 N 
ATOM     19  C   UNL     1       7.165  -5.738   4.667  1.00  0.00     0.074 A 
ATOM     20  C   UNL     1       6.435  -5.851   3.425  1.00  0.00     0.031 C 
ATOM     21  C   UNL     1       5.449   0.161   6.691  1.00  0.00     0.029 A 
ATOM     22  C   UNL     1       6.367  -0.750   7.363  1.00  0.00     0.049 A 
ATOM     23  H   UNL     1       6.892  -2.683   6.790  1.00  0.00     0.167 HD
ATOM     24  C   UNL     1       8.053  -6.651   5.122  1.00  0.00     0.037 A 
ATOM     25  C   UNL     1       7.040  -0.492   8.499  1.00  0.00     0.037 A 
ATOM     26  C   UNL     1       8.753  -6.511   6.370  1.00  0.00     0.049 A 
ATOM     27  C   UNL     1       7.936  -1.573   9.038  1.00  0.00     0.074 A 
ATOM     28  C   UNL     1       9.594  -7.408   7.000  1.00  0.00     0.029 A 
ATOM     29  N   UNL     1       8.690  -5.381   7.176  1.00  0.00    -0.354 N 
ATOM     30  N   UNL     1       8.224  -2.743   8.516  1.00  0.00    -0.248 NA
ATOM     31  C   UNL     1       8.586  -1.311  10.327  1.00  0.00     0.031 C 
ATOM     32  C   UNL     1      10.011  -6.834   8.206  1.00  0.00     0.029 A 
ATOM     33  C   UNL     1       9.470  -5.560   8.304  1.00  0.00     0.049 A 
ATOM     34  H   UNL     1       8.167  -4.572   6.975  1.00  0.00     0.167 HD
ATOM     35  C   UNL     1       9.096  -3.353   9.405  1.00  0.00     0.074 A 
ATOM     36  C   UNL     1       9.313  -2.408  10.484  1.00  0.00     0.031 C 
ATOM     37  C   UNL     1       9.659  -4.585   9.350  1.00  0.00     0.037 A 
BRANCH  24  38
ATOM     38  C   UNL     1       8.243  -7.885   4.293  1.00  0.00     0.057 A 
ATOM     39  C   UNL     1       8.929  -7.862   3.072  1.00  0.00     0.134 A 
ATOM     40  C   UNL     1       7.691  -9.105   4.702  1.00  0.00     0.134 A 
ATOM     41  F   UNL     1       9.452  -6.718   2.606  1.00  0.00    -0.206 F 
ATOM     42  C   UNL     1       9.038  -9.005   2.275  1.00  0.00     0.040 A 
ATOM     43  C   UNL     1       7.812 -10.258   3.925  1.00  0.00     0.040 A 
ATOM     44  F   UNL     1       7.012  -9.193   5.855  1.00  0.00    -0.206 F 
ATOM     45  C   UNL     1       8.481 -10.208   2.703  1.00  0.00     0.006 A 
ENDBRANCH  24  38
BRANCH  25  46
ATOM     46  C   UNL     1       6.839   0.789   9.226  1.00  0.00     0.057 A 
ATOM     47  C   UNL     1       7.884   1.698   9.427  1.00  0.00     0.134 A 
ATOM     48  C   UNL     1       5.591   1.120   9.774  1.00  0.00     0.134 A 
ATOM     49  F   UNL     1       9.108   1.437   8.947  1.00  0.00    -0.206 F 
ATOM     50  C   UNL     1       7.703   2.872  10.164  1.00  0.00     0.040 A 
ATOM     51  C   UNL     1       5.388   2.304  10.485  1.00  0.00     0.040 A 
ATOM     52  F   UNL     1       4.543   0.297   9.621  1.00  0.00    -0.206 F 
ATOM     53  C   UNL     1       6.450   3.179  10.692  1.00  0.00     0.006 A 
ENDBRANCH  25  46
BRANCH  37  54
ATOM     54  C   UNL     1      10.578  -4.951  10.475  1.00  0.00     0.057 A 
ATOM     55  C   UNL     1      10.093  -5.246  11.755  1.00  0.00     0.134 A 
ATOM     56  C   UNL     1      11.959  -5.036  10.264  1.00  0.00     0.134 A 
ATOM     57  F   UNL     1       8.780  -5.167  12.021  1.00  0.00    -0.206 F 
ATOM     58  C   UNL     1      10.956  -5.587  12.796  1.00  0.00     0.040 A 
ATOM     59  C   UNL     1      12.828  -5.404  11.289  1.00  0.00     0.040 A 
ATOM     60  F   UNL     1      12.482  -4.774   9.056  1.00  0.00    -0.206 F 
ATOM     61  C   UNL     1      12.327  -5.673  12.562  1.00  0.00     0.006 A 
ENDBRANCH  37  54
ENDBRANCH  11  12
ENDBRANCH   4   6
ENDBRANCH   3   4
ENDBRANCH   2   3
ENDBRANCH   1   2
BRANCH   1  62
ATOM     62  O   UNL     1       3.972   1.690   0.026  1.00  0.00    -0.374 OA
BRANCH  62  63
ATOM     63  C   UNL     1       2.672   2.224   0.296  1.00  0.00     0.202 C 
BRANCH  63  64
ATOM     64  C   UNL     1       2.811   3.679   0.749  1.00  0.00     0.261 C 
BRANCH  64  65
ATOM     65  O   UNL     1       3.317   4.451  -0.352  1.00  0.00    -0.460 OA
BRANCH  65  66
ATOM     66  C   UNL     1       4.671   4.448  -0.487  1.00  0.00     0.338 C 
ATOM     67  O   UNL     1       5.505   4.158   0.342  1.00  0.00    -0.246 OA
BRANCH  66  68
ATOM     68  C   UNL     1       4.961   4.658  -1.925  1.00  0.00     0.060 A 
ATOM     69  C   UNL     1       4.240   5.626  -2.652  1.00  0.00     0.018 A 
ATOM     70  C   UNL     1       5.922   3.837  -2.549  1.00  0.00     0.022 A 
ATOM     71  C   UNL     1       4.496   5.817  -4.007  1.00  0.00     0.027 A 
ATOM     72  C   UNL     1       6.120   3.990  -3.910  1.00  0.00    -0.011 A 
ATOM     73  C   UNL     1       5.444   5.004  -4.592  1.00  0.00     0.045 A 
ATOM     74  C   UNL     1       7.049   3.274  -4.872  1.00  0.00     0.114 C 
ATOM     75  N   UNL     1       5.929   5.108  -5.880  1.00  0.00    -0.325 N 
ATOM     76  C   UNL     1       6.958   4.208  -6.108  1.00  0.00     0.232 C 
ATOM     77  H   UNL     1       5.588   5.742  -6.552  1.00  0.00     0.169 HD
ATOM     78  O   UNL     1       7.654   4.186  -7.108  1.00  0.00    -0.274 OA
BRANCH  74  79
ATOM     79  C   UNL     1       6.658   1.805  -5.219  1.00  0.00     0.010 C 
ATOM     80  C   UNL     1       7.628   1.192  -6.254  1.00  0.00     0.033 C 
ATOM     81  C   UNL     1       5.205   1.634  -5.709  1.00  0.00     0.033 C 
ATOM     82  C   UNL     1       7.195  -0.190  -6.727  1.00  0.00     0.160 C 
ATOM     83  C   UNL     1       4.931   0.213  -6.195  1.00  0.00     0.160 C 
ATOM     84  O   UNL     1       5.855  -0.162  -7.210  1.00  0.00    -0.381 OA
ENDBRANCH  74  79
ENDBRANCH  66  68
ENDBRANCH  65  66
ENDBRANCH  64  65
ENDBRANCH  63  64
ENDBRANCH  62  63
ENDBRANCH   1  62
TORSDOF 15
