REMARK SMILES N#Cc1ccc(C[N@H+]2CCCC[C@H]2C(=O)OCCOCCOC(=O)c2ccc(-c3c4nc(c(-c5c(F)cccc5F)c5ccc([nH]5)c(-c5c(F)cccc5F)c5nc(c(-c6c(F)cccc6F)c6ccc3[nH]6)C=C5)C=C4)cc2)c(F)c1
REMARK SMILES IDX 18 1 17 2 16 3 14 4 15 5 13 6 8 7 9 8 10 10 12 11 11 12 7 13
REMARK SMILES IDX 6 14 3 15 4 16 81 17 5 18 79 19 80 20 2 21 1 22 19 23 20 24
REMARK SMILES IDX 21 25 22 26 23 27 24 28 25 29 26 30 78 31 27 32 77 33 28 34
REMARK SMILES IDX 29 35 30 36 71 37 31 38 76 39 70 40 72 41 32 42 75 43 69 44
REMARK SMILES IDX 68 45 33 47 59 48 42 49 58 50 43 51 46 52 57 53 73 54 44 55
REMARK SMILES IDX 45 56 56 58 74 59 47 60 34 61 35 62 40 63 36 64 37 65 39 66
REMARK SMILES IDX 41 67 38 68 60 69 61 70 66 71 62 72 63 73 65 74 67 75 64 76
REMARK SMILES IDX 48 77 49 78 54 79 50 80 51 81 53 82 55 83 52 84
REMARK H PARENT 8 9 72 46 46 57
REMARK Flexibility Score: inf
ROOT
ATOM      1  C   UNL     1      -0.224  -2.255   2.306  1.00  0.00     0.202 C 
ENDROOT
BRANCH   1   2
ATOM      2  C   UNL     1       0.901  -2.805   1.382  1.00  0.00     0.261 C 
BRANCH   2   3
ATOM      3  O   UNL     1       2.271  -2.428   1.593  1.00  0.00    -0.459 OA
BRANCH   3   4
ATOM      4  C   UNL     1       2.449  -1.143   1.208  1.00  0.00     0.364 C 
ATOM      5  O   UNL     1       1.478  -0.416   1.066  1.00  0.00    -0.245 OA
BRANCH   4   6
ATOM      6  C   UNL     1       3.882  -0.680   0.934  1.00  0.00     0.295 C 
ATOM      7  N   UNL     1       3.980   0.810   0.842  1.00  0.00    -0.319 N 
ATOM      8  C   UNL     1       3.636   1.481   2.098  1.00  0.00     0.263 C 
ATOM      9  H   UNL     1       4.977   0.973   0.703  1.00  0.00     0.349 HD
ATOM     10  C   UNL     1       4.446   0.961   3.299  1.00  0.00     0.062 C 
ATOM     11  C   UNL     1       4.868  -1.176   2.001  1.00  0.00     0.078 C 
ATOM     12  C   UNL     1       4.612  -0.556   3.369  1.00  0.00     0.013 C 
BRANCH   7  13
ATOM     13  C   UNL     1       3.426   1.448  -0.389  1.00  0.00     0.302 C 
BRANCH  13  14
ATOM     14  C   UNL     1       1.944   1.331  -0.720  1.00  0.00     0.042 A 
ATOM     15  C   UNL     1      -0.797   0.637  -0.775  1.00  0.00     0.055 A 
ATOM     16  C   UNL     1      -0.377   1.806  -0.126  1.00  0.00     0.020 A 
ATOM     17  C   UNL     1       0.125  -0.108  -1.515  1.00  0.00     0.059 A 
ATOM     18  C   UNL     1       0.984   2.157  -0.105  1.00  0.00     0.014 A 
ATOM     19  C   UNL     1       1.477   0.250  -1.494  1.00  0.00     0.133 A 
ATOM     20  F   UNL     1       2.358  -0.587  -2.064  1.00  0.00    -0.206 F 
BRANCH  15  21
ATOM     21  C   UNL     1      -2.129   0.142  -0.590  1.00  0.00     0.099 C 
ATOM     22  N   UNL     1      -3.196  -0.296  -0.428  1.00  0.00    -0.192 NA
ENDBRANCH  15  21
ENDBRANCH  13  14
ENDBRANCH   7  13
ENDBRANCH   4   6
ENDBRANCH   3   4
ENDBRANCH   2   3
ENDBRANCH   1   2
BRANCH   1  23
ATOM     23  O   UNL     1      -0.296  -0.956   2.876  1.00  0.00    -0.374 OA
BRANCH  23  24
ATOM     24  C   UNL     1       0.700  -0.462   3.761  1.00  0.00     0.202 C 
BRANCH  24  25
ATOM     25  C   UNL     1       1.030  -1.175   5.068  1.00  0.00     0.261 C 
BRANCH  25  26
ATOM     26  O   UNL     1       1.220  -2.581   4.901  1.00  0.00    -0.460 OA
BRANCH  26  27
ATOM     27  C   UNL     1       0.192  -3.308   5.397  1.00  0.00     0.338 C 
ATOM     28  O   UNL     1      -0.771  -2.905   6.027  1.00  0.00    -0.246 OA
BRANCH  27  29
ATOM     29  C   UNL     1       0.261  -4.679   4.876  1.00  0.00     0.060 A 
ATOM     30  C   UNL     1      -0.867  -5.150   4.188  1.00  0.00     0.016 A 
ATOM     31  C   UNL     1       1.357  -5.503   5.125  1.00  0.00     0.016 A 
ATOM     32  C   UNL     1      -0.936  -6.474   3.800  1.00  0.00     0.010 A 
ATOM     33  C   UNL     1       1.271  -6.847   4.767  1.00  0.00     0.010 A 
ATOM     34  C   UNL     1       0.103  -7.339   4.154  1.00  0.00    -0.014 A 
BRANCH  34  35
ATOM     35  C   UNL     1      -0.151  -8.788   4.075  1.00  0.00     0.031 A 
ATOM     36  C   UNL     1      -0.542  -9.512   5.331  1.00  0.00     0.074 A 
ATOM     37  C   UNL     1      -0.121  -9.415   2.890  1.00  0.00     0.049 A 
ATOM     38  N   UNL     1      -0.800 -10.780   5.511  1.00  0.00    -0.248 NA
ATOM     39  C   UNL     1      -0.658  -8.693   6.550  1.00  0.00     0.031 C 
ATOM     40  C   UNL     1       0.164  -8.779   1.605  1.00  0.00     0.029 A 
ATOM     41  N   UNL     1      -0.343 -10.729   2.580  1.00  0.00    -0.354 N 
ATOM     42  C   UNL     1      -1.097 -10.913   6.861  1.00  0.00     0.074 A 
ATOM     43  C   UNL     1      -0.950  -9.607   7.462  1.00  0.00     0.031 C 
ATOM     44  C   UNL     1       0.103  -9.710   0.639  1.00  0.00     0.029 A 
ATOM     45  C   UNL     1      -0.180 -11.007   1.247  1.00  0.00     0.049 A 
ATOM     46  H   UNL     1      -0.594 -11.408   3.248  1.00  0.00     0.167 HD
ATOM     47  C   UNL     1      -1.468 -12.028   7.533  1.00  0.00     0.037 A 
ATOM     48  C   UNL     1      -0.231 -12.188   0.604  1.00  0.00     0.037 A 
ATOM     49  C   UNL     1      -1.602 -13.321   6.915  1.00  0.00     0.049 A 
ATOM     50  C   UNL     1      -0.535 -13.432   1.395  1.00  0.00     0.074 A 
ATOM     51  C   UNL     1      -1.968 -14.521   7.497  1.00  0.00     0.029 A 
ATOM     52  N   UNL     1      -1.363 -13.582   5.573  1.00  0.00    -0.354 N 
ATOM     53  N   UNL     1      -0.816 -13.557   2.670  1.00  0.00    -0.248 NA
ATOM     54  C   UNL     1      -0.529 -14.699   0.654  1.00  0.00     0.031 C 
ATOM     55  C   UNL     1      -1.881 -15.520   6.523  1.00  0.00     0.029 A 
ATOM     56  C   UNL     1      -1.538 -14.931   5.315  1.00  0.00     0.049 A 
ATOM     57  H   UNL     1      -1.107 -12.908   4.903  1.00  0.00     0.167 HD
ATOM     58  C   UNL     1      -1.058 -14.909   2.877  1.00  0.00     0.074 A 
ATOM     59  C   UNL     1      -0.903 -15.558   1.591  1.00  0.00     0.031 C 
ATOM     60  C   UNL     1      -1.384 -15.556   4.024  1.00  0.00     0.037 A 
BRANCH  47  61
ATOM     61  C   UNL     1      -1.705 -11.899   9.011  1.00  0.00     0.057 A 
ATOM     62  C   UNL     1      -2.779 -11.168   9.537  1.00  0.00     0.134 A 
ATOM     63  C   UNL     1      -0.844 -12.522   9.924  1.00  0.00     0.134 A 
ATOM     64  F   UNL     1      -3.634 -10.533   8.721  1.00  0.00    -0.206 F 
ATOM     65  C   UNL     1      -2.968 -11.034  10.914  1.00  0.00     0.040 A 
ATOM     66  C   UNL     1      -1.043 -12.424  11.302  1.00  0.00     0.040 A 
ATOM     67  F   UNL     1       0.203 -13.241   9.493  1.00  0.00    -0.206 F 
ATOM     68  C   UNL     1      -2.101 -11.669  11.801  1.00  0.00     0.006 A 
ENDBRANCH  47  61
BRANCH  48  69
ATOM     69  C   UNL     1       0.023 -12.250  -0.857  1.00  0.00     0.057 A 
ATOM     70  C   UNL     1      -0.988 -12.620  -1.751  1.00  0.00     0.134 A 
ATOM     71  C   UNL     1       1.283 -11.956  -1.393  1.00  0.00     0.134 A 
ATOM     72  F   UNL     1      -2.211 -12.930  -1.296  1.00  0.00    -0.206 F 
ATOM     73  C   UNL     1      -0.749 -12.721  -3.122  1.00  0.00     0.040 A 
ATOM     74  C   UNL     1       1.527 -12.021  -2.765  1.00  0.00     0.040 A 
ATOM     75  F   UNL     1       2.293 -11.586  -0.592  1.00  0.00    -0.206 F 
ATOM     76  C   UNL     1       0.511 -12.416  -3.633  1.00  0.00     0.006 A 
ENDBRANCH  48  69
BRANCH  60  77
ATOM     77  C   UNL     1      -1.643 -17.034   3.929  1.00  0.00     0.057 A 
ATOM     78  C   UNL     1      -0.621 -17.956   3.670  1.00  0.00     0.134 A 
ATOM     79  C   UNL     1      -2.932 -17.542   4.138  1.00  0.00     0.134 A 
ATOM     80  F   UNL     1       0.634 -17.538   3.449  1.00  0.00    -0.206 F 
ATOM     81  C   UNL     1      -0.879 -19.326   3.588  1.00  0.00     0.040 A 
ATOM     82  C   UNL     1      -3.195 -18.912   4.096  1.00  0.00     0.040 A 
ATOM     83  F   UNL     1      -3.956 -16.717   4.404  1.00  0.00    -0.206 F 
ATOM     84  C   UNL     1      -2.167 -19.807   3.810  1.00  0.00     0.006 A 
ENDBRANCH  60  77
ENDBRANCH  34  35
ENDBRANCH  27  29
ENDBRANCH  26  27
ENDBRANCH  25  26
ENDBRANCH  24  25
ENDBRANCH  23  24
ENDBRANCH   1  23
TORSDOF 17
