REMARK SMILES O=C1NC(=O)/C(=C/c2ccc(OCc3cn(-c4ccc(C(=O)OCCOCCOC(=O)c5ccc(-c6c7nc(c(-c8c(F)cccc8F)c8ccc([nH]8)c(-c8c(F)cccc8F)c8nc(c(-c9c(F)cccc9F)c9ccc6[nH]9)C=C8)C=C7)cc5)cc4)nn3)cc2)S1
REMARK SMILES IDX 24 1 23 2 21 3 22 4 20 5 17 6 18 7 87 8 19 9 86 10 16 11
REMARK SMILES IDX 14 12 15 13 89 14 88 15 13 16 12 17 11 18 8 19 9 20 91 21
REMARK SMILES IDX 10 22 90 23 7 24 1 25 2 26 3 27 92 28 4 29 6 31 5 32 25 33
REMARK SMILES IDX 26 34 27 35 28 36 29 37 30 38 31 39 32 40 33 41 85 42 34 43
REMARK SMILES IDX 84 44 35 45 36 46 37 47 78 48 38 49 83 50 77 51 79 52 39 53
REMARK SMILES IDX 82 54 76 55 75 56 40 58 66 59 49 60 65 61 50 62 53 63 64 64
REMARK SMILES IDX 80 65 51 66 52 67 63 69 81 70 54 71 41 72 42 73 47 74 43 75
REMARK SMILES IDX 44 76 46 77 48 78 45 79 67 80 68 81 73 82 69 83 70 84 72 85
REMARK SMILES IDX 74 86 71 87 55 88 56 89 61 90 57 91 58 92 60 93 62 94 59 95
REMARK H PARENT 3 30 79 57 53 68
REMARK Flexibility Score: inf
ROOT
ATOM      1  C   UNL     1      -9.603  10.356   0.503  1.00  0.00     0.261 C 
ENDROOT
BRANCH   1   2
ATOM      2  O   UNL     1      -8.267   9.885   0.278  1.00  0.00    -0.460 OA
BRANCH   2   3
ATOM      3  C   UNL     1      -7.547   9.727   1.414  1.00  0.00     0.338 C 
ATOM      4  O   UNL     1      -7.903   9.973   2.554  1.00  0.00    -0.246 OA
BRANCH   3   5
ATOM      5  C   UNL     1      -6.282   9.031   1.124  1.00  0.00     0.060 A 
ATOM      6  C   UNL     1      -3.764   7.891   0.917  1.00  0.00     0.066 A 
ATOM      7  C   UNL     1      -4.672   7.390   1.859  1.00  0.00     0.029 A 
ATOM      8  C   UNL     1      -4.150   8.888   0.009  1.00  0.00     0.029 A 
ATOM      9  C   UNL     1      -5.918   7.989   1.985  1.00  0.00     0.018 A 
ATOM     10  C   UNL     1      -5.430   9.441   0.096  1.00  0.00     0.018 A 
BRANCH   6  11
ATOM     11  N   UNL     1      -2.425   7.453   0.987  1.00  0.00    -0.220 N 
ATOM     12  C   UNL     1      -0.252   7.380   1.151  1.00  0.00     0.120 A 
ATOM     13  C   UNL     1      -1.285   8.157   0.670  1.00  0.00     0.144 A 
ATOM     14  N   UNL     1      -0.781   6.237   1.688  1.00  0.00    -0.131 NA
ATOM     15  N   UNL     1      -2.095   6.291   1.588  1.00  0.00    -0.062 NA
BRANCH  12  16
ATOM     16  C   UNL     1       1.211   7.662   1.263  1.00  0.00     0.289 C 
BRANCH  16  17
ATOM     17  O   UNL     1       2.038   7.001   0.293  1.00  0.00    -0.487 OA
BRANCH  17  18
ATOM     18  C   UNL     1       2.145   5.638   0.359  1.00  0.00     0.119 A 
ATOM     19  C   UNL     1       2.185   2.838   0.133  1.00  0.00    -0.024 A 
ATOM     20  C   UNL     1       2.690   3.633  -0.898  1.00  0.00     0.012 A 
ATOM     21  C   UNL     1       1.749   3.449   1.311  1.00  0.00     0.012 A 
ATOM     22  C   UNL     1       2.664   5.027  -0.784  1.00  0.00     0.047 A 
ATOM     23  C   UNL     1       1.756   4.839   1.432  1.00  0.00     0.047 A 
BRANCH  19  24
ATOM     24  C   UNL     1       2.127   1.380  -0.002  1.00  0.00     0.029 C 
ATOM     25  O   UNL     1      -2.450  -0.731   0.018  1.00  0.00    -0.261 OA
ATOM     26  C   UNL     1      -1.260  -0.444  -0.005  1.00  0.00     0.290 C 
ATOM     27  N   UNL     1      -0.235  -1.328  -0.045  1.00  0.00    -0.282 N 
ATOM     28  S   UNL     1      -0.635   1.190   0.006  1.00  0.00    -0.022 SA
ATOM     29  C   UNL     1       1.037  -0.837  -0.074  1.00  0.00     0.265 C 
ATOM     30  H   UNL     1      -0.403  -2.298  -0.052  1.00  0.00     0.174 HD
ATOM     31  C   UNL     1       1.004   0.649  -0.029  1.00  0.00     0.083 C 
ATOM     32  O   UNL     1       2.046  -1.520  -0.117  1.00  0.00    -0.268 OA
ENDBRANCH  19  24
ENDBRANCH  17  18
ENDBRANCH  16  17
ENDBRANCH  12  16
ENDBRANCH   6  11
ENDBRANCH   3   5
ENDBRANCH   2   3
ENDBRANCH   1   2
BRANCH   1  33
ATOM     33  C   UNL     1     -10.663   9.280   0.266  1.00  0.00     0.202 C 
BRANCH  33  34
ATOM     34  O   UNL     1     -10.661   8.105   1.075  1.00  0.00    -0.374 OA
BRANCH  34  35
ATOM     35  C   UNL     1      -9.599   7.162   0.992  1.00  0.00     0.202 C 
BRANCH  35  36
ATOM     36  C   UNL     1      -9.461   6.313  -0.263  1.00  0.00     0.261 C 
BRANCH  36  37
ATOM     37  O   UNL     1      -9.352   7.112  -1.427  1.00  0.00    -0.460 OA
BRANCH  37  38
ATOM     38  C   UNL     1     -10.518   7.242  -2.099  1.00  0.00     0.338 C 
ATOM     39  O   UNL     1     -11.634   6.933  -1.719  1.00  0.00    -0.246 OA
BRANCH  38  40
ATOM     40  C   UNL     1     -10.214   7.675  -3.464  1.00  0.00     0.060 A 
ATOM     41  C   UNL     1     -11.298   7.646  -4.341  1.00  0.00     0.016 A 
ATOM     42  C   UNL     1      -8.883   7.630  -3.902  1.00  0.00     0.016 A 
ATOM     43  C   UNL     1     -11.059   7.233  -5.625  1.00  0.00     0.010 A 
ATOM     44  C   UNL     1      -8.649   7.191  -5.176  1.00  0.00     0.010 A 
ATOM     45  C   UNL     1      -9.748   6.898  -5.978  1.00  0.00    -0.014 A 
BRANCH  45  46
ATOM     46  C   UNL     1      -9.524   6.357  -7.296  1.00  0.00     0.031 A 
ATOM     47  C   UNL     1      -9.633   7.418  -8.318  1.00  0.00     0.074 A 
ATOM     48  C   UNL     1      -9.160   5.077  -7.492  1.00  0.00     0.049 A 
ATOM     49  N   UNL     1     -10.575   7.578  -9.184  1.00  0.00    -0.248 NA
ATOM     50  C   UNL     1      -8.732   8.578  -8.185  1.00  0.00     0.031 C 
ATOM     51  C   UNL     1      -8.801   4.068  -6.491  1.00  0.00     0.029 A 
ATOM     52  N   UNL     1      -8.936   4.433  -8.668  1.00  0.00    -0.354 N 
ATOM     53  C   UNL     1     -10.231   8.735  -9.874  1.00  0.00     0.074 A 
ATOM     54  C   UNL     1      -9.279   9.426  -9.054  1.00  0.00     0.031 C 
ATOM     55  C   UNL     1      -8.187   3.029  -7.104  1.00  0.00     0.029 A 
ATOM     56  C   UNL     1      -8.226   3.240  -8.539  1.00  0.00     0.049 A 
ATOM     57  H   UNL     1      -9.248   4.778  -9.536  1.00  0.00     0.167 HD
ATOM     58  C   UNL     1     -10.479   8.828 -11.207  1.00  0.00     0.037 A 
ATOM     59  C   UNL     1      -7.649   2.562  -9.565  1.00  0.00     0.037 A 
ATOM     60  C   UNL     1     -11.515   7.897 -11.593  1.00  0.00     0.049 A 
ATOM     61  C   UNL     1      -8.287   3.042 -10.820  1.00  0.00     0.074 A 
ATOM     62  C   UNL     1     -12.833   7.700 -11.226  1.00  0.00     0.029 A 
ATOM     63  N   UNL     1     -11.119   6.734 -12.207  1.00  0.00    -0.354 N 
ATOM     64  N   UNL     1      -9.531   2.807 -11.132  1.00  0.00    -0.248 NA
ATOM     65  C   UNL     1      -7.686   4.196 -11.476  1.00  0.00     0.031 C 
ATOM     66  C   UNL     1     -13.013   6.285 -11.226  1.00  0.00     0.029 A 
ATOM     67  C   UNL     1     -11.826   5.696 -11.662  1.00  0.00     0.049 A 
ATOM     68  H   UNL     1     -10.441   6.659 -12.917  1.00  0.00     0.167 HD
ATOM     69  C   UNL     1      -9.995   4.005 -11.658  1.00  0.00     0.074 A 
ATOM     70  C   UNL     1      -8.796   4.803 -11.906  1.00  0.00     0.031 C 
ATOM     71  C   UNL     1     -11.313   4.349 -11.559  1.00  0.00     0.037 A 
BRANCH  58  72
ATOM     72  C   UNL     1      -9.465   9.371 -12.197  1.00  0.00     0.057 A 
ATOM     73  C   UNL     1      -9.814   9.379 -13.559  1.00  0.00     0.134 A 
ATOM     74  C   UNL     1      -8.092   9.583 -11.940  1.00  0.00     0.134 A 
ATOM     75  F   UNL     1     -11.088   9.213 -13.945  1.00  0.00    -0.206 F 
ATOM     76  C   UNL     1      -8.859   9.454 -14.579  1.00  0.00     0.040 A 
ATOM     77  C   UNL     1      -7.137   9.703 -12.951  1.00  0.00     0.040 A 
ATOM     78  F   UNL     1      -7.564   9.604 -10.713  1.00  0.00    -0.206 F 
ATOM     79  C   UNL     1      -7.512   9.596 -14.276  1.00  0.00     0.006 A 
ENDBRANCH  58  72
BRANCH  59  80
ATOM     80  C   UNL     1      -6.368   1.815  -9.578  1.00  0.00     0.057 A 
ATOM     81  C   UNL     1      -6.044   0.949 -10.634  1.00  0.00     0.134 A 
ATOM     82  C   UNL     1      -5.313   2.150  -8.712  1.00  0.00     0.134 A 
ATOM     83  F   UNL     1      -6.970   0.607 -11.541  1.00  0.00    -0.206 F 
ATOM     84  C   UNL     1      -4.743   0.464 -10.830  1.00  0.00     0.040 A 
ATOM     85  C   UNL     1      -4.011   1.669  -8.894  1.00  0.00     0.040 A 
ATOM     86  F   UNL     1      -5.486   3.031  -7.717  1.00  0.00    -0.206 F 
ATOM     87  C   UNL     1      -3.719   0.834  -9.964  1.00  0.00     0.006 A 
ENDBRANCH  59  80
BRANCH  71  88
ATOM     88  C   UNL     1     -12.279   3.293 -11.097  1.00  0.00     0.057 A 
ATOM     89  C   UNL     1     -12.267   2.714  -9.819  1.00  0.00     0.134 A 
ATOM     90  C   UNL     1     -13.352   2.962 -11.931  1.00  0.00     0.134 A 
ATOM     91  F   UNL     1     -11.332   3.043  -8.918  1.00  0.00    -0.206 F 
ATOM     92  C   UNL     1     -13.259   1.817  -9.406  1.00  0.00     0.040 A 
ATOM     93  C   UNL     1     -14.366   2.095 -11.520  1.00  0.00     0.040 A 
ATOM     94  F   UNL     1     -13.457   3.520 -13.148  1.00  0.00    -0.206 F 
ATOM     95  C   UNL     1     -14.317   1.512 -10.257  1.00  0.00     0.006 A 
ENDBRANCH  71  88
ENDBRANCH  45  46
ENDBRANCH  38  40
ENDBRANCH  37  38
ENDBRANCH  36  37
ENDBRANCH  35  36
ENDBRANCH  34  35
ENDBRANCH  33  34
ENDBRANCH   1  33
TORSDOF 19
