REMARK SMILES O=C(OCCOCCOC(=O)c1cc(SCC(=O)N2CCOCC2)ccn1)c1ccc(-c2c3nc(c(-c4c(F)cccc4F)c4ccc([nH]4)c(-c4c(F)cccc4F)c4nc(c(-c5c(F)cccc5F)c5ccc2[nH]5)C=C4)C=C3)cc1
REMARK SMILES IDX 7 1 6 2 5 3 4 4 3 5 2 6 1 7 28 8 29 9 81 10 30 11 80 12
REMARK SMILES IDX 31 13 32 14 33 15 74 16 34 17 79 18 73 19 75 20 35 21 78 22
REMARK SMILES IDX 72 23 71 24 36 26 62 27 45 28 61 29 46 30 49 31 60 32 76 33
REMARK SMILES IDX 47 34 48 35 59 37 77 38 50 39 37 40 38 41 43 42 39 43 40 44
REMARK SMILES IDX 42 45 44 46 41 47 63 48 64 49 69 50 65 51 66 52 68 53 70 54
REMARK SMILES IDX 67 55 51 56 52 57 57 58 53 59 54 60 56 61 58 62 55 63 8 64
REMARK SMILES IDX 9 65 10 66 11 67 12 68 13 69 27 70 14 71 26 72 25 73 15 74
REMARK SMILES IDX 16 75 17 76 18 77 19 78 20 79 24 80 21 81 23 82 22 83
REMARK H PARENT 75 25 49 36
REMARK Flexibility Score: inf
ROOT
ATOM      1  C   UNL     1       2.793   1.878   1.168  1.00  0.00     0.202 C 
ENDROOT
BRANCH   1   2
ATOM      2  O   UNL     1       4.066   1.456   0.670  1.00  0.00    -0.374 OA
BRANCH   2   3
ATOM      3  C   UNL     1       4.243   1.555  -0.743  1.00  0.00     0.202 C 
BRANCH   3   4
ATOM      4  C   UNL     1       3.923   0.253  -1.482  1.00  0.00     0.261 C 
BRANCH   4   5
ATOM      5  O   UNL     1       2.588  -0.189  -1.179  1.00  0.00    -0.460 OA
BRANCH   5   6
ATOM      6  C   UNL     1       2.186  -1.147  -0.312  1.00  0.00     0.338 C 
ATOM      7  O   UNL     1       0.987  -1.423  -0.275  1.00  0.00    -0.246 OA
BRANCH   6   8
ATOM      8  C   UNL     1       3.097  -1.903   0.610  1.00  0.00     0.060 A 
ATOM      9  C   UNL     1       4.370  -1.497   1.007  1.00  0.00     0.016 A 
ATOM     10  C   UNL     1       2.583  -3.083   1.187  1.00  0.00     0.016 A 
ATOM     11  C   UNL     1       5.125  -2.238   1.907  1.00  0.00     0.010 A 
ATOM     12  C   UNL     1       3.321  -3.818   2.124  1.00  0.00     0.010 A 
ATOM     13  C   UNL     1       4.604  -3.396   2.478  1.00  0.00    -0.014 A 
BRANCH  13  14
ATOM     14  C   UNL     1       5.481  -4.148   3.393  1.00  0.00     0.031 A 
ATOM     15  C   UNL     1       6.207  -5.349   2.874  1.00  0.00     0.074 A 
ATOM     16  C   UNL     1       5.757  -3.628   4.604  1.00  0.00     0.049 A 
ATOM     17  N   UNL     1       7.109  -6.087   3.463  1.00  0.00    -0.248 NA
ATOM     18  C   UNL     1       5.895  -5.758   1.494  1.00  0.00     0.031 C 
ATOM     19  C   UNL     1       5.168  -2.400   5.144  1.00  0.00     0.029 A 
ATOM     20  N   UNL     1       6.638  -4.030   5.572  1.00  0.00    -0.354 N 
ATOM     21  C   UNL     1       7.478  -7.043   2.527  1.00  0.00     0.074 A 
ATOM     22  C   UNL     1       6.688  -6.807   1.338  1.00  0.00     0.031 C 
ATOM     23  C   UNL     1       5.735  -2.127   6.330  1.00  0.00     0.029 A 
ATOM     24  C   UNL     1       6.688  -3.183   6.652  1.00  0.00     0.049 A 
ATOM     25  H   UNL     1       7.183  -4.846   5.500  1.00  0.00     0.167 HD
ATOM     26  C   UNL     1       8.398  -8.026   2.654  1.00  0.00     0.037 A 
ATOM     27  C   UNL     1       7.419  -3.264   7.780  1.00  0.00     0.037 A 
ATOM     28  C   UNL     1       9.155  -8.257   3.854  1.00  0.00     0.049 A 
ATOM     29  C   UNL     1       8.370  -4.420   7.926  1.00  0.00     0.074 A 
ATOM     30  C   UNL     1      10.033  -9.284   4.142  1.00  0.00     0.029 A 
ATOM     31  N   UNL     1       9.118  -7.432   4.970  1.00  0.00    -0.354 N 
ATOM     32  N   UNL     1       8.659  -5.365   7.063  1.00  0.00    -0.248 NA
ATOM     33  C   UNL     1       9.086  -4.529   9.203  1.00  0.00     0.031 C 
ATOM     34  C   UNL     1      10.506  -9.096   5.447  1.00  0.00     0.029 A 
ATOM     35  C   UNL     1       9.951  -7.931   5.955  1.00  0.00     0.049 A 
ATOM     36  H   UNL     1       8.578  -6.612   5.050  1.00  0.00     0.167 HD
ATOM     37  C   UNL     1       9.589  -6.182   7.690  1.00  0.00     0.074 A 
ATOM     38  C   UNL     1       9.842  -5.598   8.993  1.00  0.00     0.031 C 
ATOM     39  C   UNL     1      10.171  -7.321   7.241  1.00  0.00     0.037 A 
BRANCH  26  40
ATOM     40  C   UNL     1       8.578  -8.938   1.480  1.00  0.00     0.057 A 
ATOM     41  C   UNL     1       9.258  -8.531   0.325  1.00  0.00     0.134 A 
ATOM     42  C   UNL     1       8.033 -10.228   1.490  1.00  0.00     0.134 A 
ATOM     43  F   UNL     1       9.777  -7.297   0.241  1.00  0.00    -0.206 F 
ATOM     44  C   UNL     1       9.372  -9.368  -0.787  1.00  0.00     0.040 A 
ATOM     45  C   UNL     1       8.155 -11.080   0.391  1.00  0.00     0.040 A 
ATOM     46  F   UNL     1       7.361 -10.675   2.561  1.00  0.00    -0.206 F 
ATOM     47  C   UNL     1       8.821 -10.648  -0.755  1.00  0.00     0.006 A 
ENDBRANCH  26  40
BRANCH  27  48
ATOM     48  C   UNL     1       7.249  -2.260   8.862  1.00  0.00     0.057 A 
ATOM     49  C   UNL     1       8.285  -1.397   9.238  1.00  0.00     0.134 A 
ATOM     50  C   UNL     1       6.043  -2.160   9.570  1.00  0.00     0.134 A 
ATOM     51  F   UNL     1       9.472  -1.457   8.618  1.00  0.00    -0.206 F 
ATOM     52  C   UNL     1       8.135  -0.486  10.286  1.00  0.00     0.040 A 
ATOM     53  C   UNL     1       5.870  -1.235  10.601  1.00  0.00     0.040 A 
ATOM     54  F   UNL     1       5.010  -2.958   9.265  1.00  0.00    -0.206 F 
ATOM     55  C   UNL     1       6.922  -0.400  10.968  1.00  0.00     0.006 A 
ENDBRANCH  27  48
BRANCH  39  56
ATOM     56  C   UNL     1      11.131  -7.993   8.174  1.00  0.00     0.057 A 
ATOM     57  C   UNL     1      10.685  -8.704   9.294  1.00  0.00     0.134 A 
ATOM     58  C   UNL     1      12.510  -7.949   7.935  1.00  0.00     0.134 A 
ATOM     59  F   UNL     1       9.376  -8.769   9.581  1.00  0.00    -0.206 F 
ATOM     60  C   UNL     1      11.580  -9.330  10.161  1.00  0.00     0.040 A 
ATOM     61  C   UNL     1      13.413  -8.590   8.782  1.00  0.00     0.040 A 
ATOM     62  F   UNL     1      12.997  -7.289   6.874  1.00  0.00    -0.206 F 
ATOM     63  C   UNL     1      12.949  -9.277   9.903  1.00  0.00     0.006 A 
ENDBRANCH  39  56
ENDBRANCH  13  14
ENDBRANCH   6   8
ENDBRANCH   5   6
ENDBRANCH   4   5
ENDBRANCH   3   4
ENDBRANCH   2   3
ENDBRANCH   1   2
BRANCH   1  64
ATOM     64  C   UNL     1       3.006   2.937   2.254  1.00  0.00     0.261 C 
BRANCH  64  65
ATOM     65  O   UNL     1       3.597   4.096   1.649  1.00  0.00    -0.459 OA
BRANCH  65  66
ATOM     66  C   UNL     1       4.956   4.098   1.574  1.00  0.00     0.357 C 
ATOM     67  O   UNL     1       5.735   3.459   2.260  1.00  0.00    -0.244 OA
BRANCH  66  68
ATOM     68  C   UNL     1       5.297   4.881   0.355  1.00  0.00     0.149 A 
ATOM     69  C   UNL     1       4.626   6.069   0.097  1.00  0.00     0.051 A 
ATOM     70  N   UNL     1       6.145   4.285  -0.523  1.00  0.00    -0.249 NA
ATOM     71  C   UNL     1       4.765   6.639  -1.159  1.00  0.00     0.012 A 
ATOM     72  C   UNL     1       6.292   4.878  -1.720  1.00  0.00     0.113 A 
ATOM     73  C   UNL     1       5.620   6.032  -2.083  1.00  0.00     0.035 A 
BRANCH  71  74
ATOM     74  S   UNL     1       3.918   8.106  -1.697  1.00  0.00    -0.116 SA
BRANCH  74  75
ATOM     75  C   UNL     1       2.489   8.260  -0.594  1.00  0.00     0.175 C 
BRANCH  75  76
ATOM     76  C   UNL     1       1.566   7.062  -0.416  1.00  0.00     0.233 C 
ATOM     77  O   UNL     1       1.412   6.599   0.721  1.00  0.00    -0.274 OA
ATOM     78  N   UNL     1       0.754   6.651  -1.454  1.00  0.00    -0.337 N 
ATOM     79  C   UNL     1       0.978   6.814  -2.888  1.00  0.00     0.148 C 
ATOM     80  C   UNL     1      -0.612   6.213  -1.152  1.00  0.00     0.148 C 
ATOM     81  C   UNL     1      -0.020   7.823  -3.451  1.00  0.00     0.181 C 
ATOM     82  C   UNL     1      -1.588   7.241  -1.754  1.00  0.00     0.181 C 
ATOM     83  O   UNL     1      -1.369   7.411  -3.169  1.00  0.00    -0.378 OA
ENDBRANCH  75  76
ENDBRANCH  74  75
ENDBRANCH  71  74
ENDBRANCH  66  68
ENDBRANCH  65  66
ENDBRANCH  64  65
ENDBRANCH   1  64
TORSDOF 17
