REMARK SMILES C[C@H](NC(=O)OCc1ccccc1)C(=O)NCC(=O)N1CCC[C@H]1C(=O)OCCOCCOC(=O)c1ccc(-c2c3nc(c(-c4c(F)cccc4F)c4ccc([nH]4)c(-c4c(F)cccc4F)c4nc(c(-c5c(F)cccc5F)c5ccc2[nH]5)C=C4)C=C3)cc1
REMARK SMILES IDX 27 1 25 2 26 3 24 4 20 5 21 6 22 7 23 8 18 9 19 10 17 11
REMARK SMILES IDX 16 12 14 13 15 14 2 16 1 17 3 18 4 19 5 21 6 22 7 23 8 24
REMARK SMILES IDX 9 25 13 26 10 27 12 28 11 29 28 30 29 31 30 32 31 33 32 34
REMARK SMILES IDX 33 35 34 36 35 37 36 38 37 39 89 40 38 41 88 42 39 43 40 44
REMARK SMILES IDX 41 45 82 46 42 47 87 48 81 49 83 50 43 51 86 52 80 53 79 54
REMARK SMILES IDX 44 56 70 57 53 58 69 59 54 60 57 61 68 62 84 63 55 64 56 65
REMARK SMILES IDX 67 67 85 68 58 69 45 70 46 71 51 72 47 73 48 74 50 75 52 76
REMARK SMILES IDX 49 77 71 78 72 79 77 80 73 81 74 82 76 83 78 84 75 85 59 86
REMARK SMILES IDX 60 87 65 88 61 89 62 90 64 91 66 92 63 93
REMARK H PARENT 16 15 3 20 83 55 57 66
REMARK Flexibility Score: inf
ROOT
ATOM      1  O   UNL     1      -1.673  -4.211  -3.165  1.00  0.00    -0.462 OA
ENDROOT
BRANCH   1   2
ATOM      2  C   UNL     1      -0.387  -3.806  -3.400  1.00  0.00     0.328 C 
ATOM      3  O   UNL     1       0.317  -4.239  -4.305  1.00  0.00    -0.250 OA
BRANCH   2   4
ATOM      4  C   UNL     1       0.154  -2.918  -2.266  1.00  0.00     0.195 C 
ATOM      5  N   UNL     1      -0.678  -1.794  -1.778  1.00  0.00    -0.327 N 
ATOM      6  C   UNL     1      -1.212  -2.099  -0.464  1.00  0.00     0.120 C 
ATOM      7  C   UNL     1      -0.142  -2.987   0.146  1.00  0.00     0.024 C 
ATOM      8  C   UNL     1       0.356  -3.814  -1.031  1.00  0.00     0.039 C 
BRANCH   5   9
ATOM      9  C   UNL     1      -0.717  -0.642  -2.528  1.00  0.00     0.242 C 
ATOM     10  O   UNL     1      -0.375  -0.681  -3.718  1.00  0.00    -0.273 OA
BRANCH   9  11
ATOM     11  C   UNL     1      -1.082   0.746  -1.950  1.00  0.00     0.216 C 
BRANCH  11  12
ATOM     12  N   UNL     1      -1.567   0.959  -0.598  1.00  0.00    -0.345 N 
ATOM     13  C   UNL     1      -0.906   1.389   0.521  1.00  0.00     0.242 C 
ATOM     14  O   UNL     1      -1.595   1.698   1.497  1.00  0.00    -0.273 OA
ATOM     15  H   UNL     1      -2.522   0.762  -0.464  1.00  0.00     0.164 HD
BRANCH  13  16
ATOM     16  C   UNL     1       0.624   1.600   0.530  1.00  0.00     0.171 C 
ATOM     17  C   UNL     1       0.972   2.953  -0.086  1.00  0.00     0.042 C 
BRANCH  16  18
ATOM     18  N   UNL     1       1.270   0.465  -0.114  1.00  0.00    -0.310 N 
ATOM     19  C   UNL     1       2.583   0.259  -0.374  1.00  0.00     0.408 C 
ATOM     20  H   UNL     1       0.665  -0.256  -0.403  1.00  0.00     0.167 HD
ATOM     21  O   UNL     1       2.940  -0.761  -0.952  1.00  0.00    -0.225 OA
BRANCH  19  22
ATOM     22  O   UNL     1       3.376   1.275   0.023  1.00  0.00    -0.445 OA
BRANCH  22  23
ATOM     23  C   UNL     1       4.736   1.175  -0.415  1.00  0.00     0.270 C 
BRANCH  23  24
ATOM     24  C   UNL     1       5.546   0.234   0.439  1.00  0.00    -0.011 A 
ATOM     25  C   UNL     1       5.603   0.393   1.830  1.00  0.00     0.007 A 
ATOM     26  C   UNL     1       6.264  -0.812  -0.157  1.00  0.00     0.007 A 
ATOM     27  C   UNL     1       6.363  -0.481   2.609  1.00  0.00     0.000 A 
ATOM     28  C   UNL     1       7.025  -1.683   0.623  1.00  0.00     0.000 A 
ATOM     29  C   UNL     1       7.075  -1.517   2.005  1.00  0.00     0.000 A 
ENDBRANCH  23  24
ENDBRANCH  22  23
ENDBRANCH  19  22
ENDBRANCH  16  18
ENDBRANCH  13  16
ENDBRANCH  11  12
ENDBRANCH   9  11
ENDBRANCH   5   9
ENDBRANCH   2   4
ENDBRANCH   1   2
BRANCH   1  30
ATOM     30  C   UNL     1      -2.239  -5.082  -4.162  1.00  0.00     0.261 C 
BRANCH  30  31
ATOM     31  C   UNL     1      -3.617  -4.591  -4.605  1.00  0.00     0.202 C 
BRANCH  31  32
ATOM     32  O   UNL     1      -3.688  -3.321  -5.248  1.00  0.00    -0.374 OA
BRANCH  32  33
ATOM     33  C   UNL     1      -3.327  -2.170  -4.491  1.00  0.00     0.202 C 
BRANCH  33  34
ATOM     34  C   UNL     1      -4.336  -1.654  -3.456  1.00  0.00     0.261 C 
BRANCH  34  35
ATOM     35  O   UNL     1      -4.757  -2.645  -2.503  1.00  0.00    -0.460 OA
BRANCH  35  36
ATOM     36  C   UNL     1      -5.991  -3.150  -2.752  1.00  0.00     0.338 C 
ATOM     37  O   UNL     1      -6.765  -2.813  -3.633  1.00  0.00    -0.246 OA
BRANCH  36  38
ATOM     38  C   UNL     1      -6.257  -4.318  -1.893  1.00  0.00     0.060 A 
ATOM     39  C   UNL     1      -6.641  -5.506  -2.528  1.00  0.00     0.016 A 
ATOM     40  C   UNL     1      -6.253  -4.222  -0.501  1.00  0.00     0.016 A 
ATOM     41  C   UNL     1      -7.095  -6.583  -1.774  1.00  0.00     0.010 A 
ATOM     42  C   UNL     1      -6.713  -5.305   0.256  1.00  0.00     0.010 A 
ATOM     43  C   UNL     1      -7.185  -6.468  -0.381  1.00  0.00    -0.014 A 
BRANCH  43  44
ATOM     44  C   UNL     1      -7.941  -7.494   0.377  1.00  0.00     0.031 A 
ATOM     45  C   UNL     1      -9.342  -7.178   0.829  1.00  0.00     0.074 A 
ATOM     46  C   UNL     1      -7.412  -8.708   0.606  1.00  0.00     0.049 A 
ATOM     47  N   UNL     1     -10.182  -7.915   1.510  1.00  0.00    -0.248 NA
ATOM     48  C   UNL     1      -9.864  -5.850   0.468  1.00  0.00     0.031 C 
ATOM     49  C   UNL     1      -6.085  -9.145   0.177  1.00  0.00     0.029 A 
ATOM     50  N   UNL     1      -7.932  -9.797   1.259  1.00  0.00    -0.354 N 
ATOM     51  C   UNL     1     -11.324  -7.138   1.667  1.00  0.00     0.074 A 
ATOM     52  C   UNL     1     -11.056  -5.860   1.044  1.00  0.00     0.031 C 
ATOM     53  C   UNL     1      -5.892 -10.412   0.583  1.00  0.00     0.029 A 
ATOM     54  C   UNL     1      -7.067 -10.860   1.327  1.00  0.00     0.049 A 
ATOM     55  H   UNL     1      -8.839  -9.814   1.641  1.00  0.00     0.167 HD
ATOM     56  C   UNL     1     -12.494  -7.465   2.266  1.00  0.00     0.037 A 
ATOM     57  C   UNL     1      -7.202 -12.052   1.940  1.00  0.00     0.037 A 
ATOM     58  C   UNL     1     -12.756  -8.741   2.878  1.00  0.00     0.049 A 
ATOM     59  C   UNL     1      -8.489 -12.368   2.655  1.00  0.00     0.074 A 
ATOM     60  C   UNL     1     -13.914  -9.180   3.495  1.00  0.00     0.029 A 
ATOM     61  N   UNL     1     -11.842  -9.782   2.955  1.00  0.00    -0.354 N 
ATOM     62  N   UNL     1      -9.570 -11.636   2.781  1.00  0.00    -0.248 NA
ATOM     63  C   UNL     1      -8.578 -13.682   3.308  1.00  0.00     0.031 C 
ATOM     64  C   UNL     1     -13.680 -10.463   3.999  1.00  0.00     0.029 A 
ATOM     65  C   UNL     1     -12.401 -10.852   3.634  1.00  0.00     0.049 A 
ATOM     66  H   UNL     1     -10.931  -9.763   2.582  1.00  0.00     0.167 HD
ATOM     67  C   UNL     1     -10.477 -12.412   3.493  1.00  0.00     0.074 A 
ATOM     68  C   UNL     1      -9.823 -13.675   3.761  1.00  0.00     0.031 C 
ATOM     69  C   UNL     1     -11.740 -12.108   3.885  1.00  0.00     0.037 A 
BRANCH  56  70
ATOM     70  C   UNL     1     -13.567  -6.414   2.317  1.00  0.00     0.057 A 
ATOM     71  C   UNL     1     -14.253  -5.992   1.170  1.00  0.00     0.134 A 
ATOM     72  C   UNL     1     -13.940  -5.837   3.538  1.00  0.00     0.134 A 
ATOM     73  F   UNL     1     -13.938  -6.492  -0.034  1.00  0.00    -0.206 F 
ATOM     74  C   UNL     1     -15.251  -5.017   1.233  1.00  0.00     0.040 A 
ATOM     75  C   UNL     1     -14.957  -4.884   3.618  1.00  0.00     0.040 A 
ATOM     76  F   UNL     1     -13.328  -6.197   4.676  1.00  0.00    -0.206 F 
ATOM     77  C   UNL     1     -15.611  -4.466   2.461  1.00  0.00     0.006 A 
ENDBRANCH  56  70
BRANCH  57  78
ATOM     78  C   UNL     1      -6.088 -13.034   1.912  1.00  0.00     0.057 A 
ATOM     79  C   UNL     1      -6.201 -14.247   1.223  1.00  0.00     0.134 A 
ATOM     80  C   UNL     1      -4.887 -12.790   2.591  1.00  0.00     0.134 A 
ATOM     81  F   UNL     1      -7.333 -14.549   0.570  1.00  0.00    -0.206 F 
ATOM     82  C   UNL     1      -5.173 -15.191   1.229  1.00  0.00     0.040 A 
ATOM     83  C   UNL     1      -3.839 -13.711   2.581  1.00  0.00     0.040 A 
ATOM     84  F   UNL     1      -4.712 -11.645   3.267  1.00  0.00    -0.206 F 
ATOM     85  C   UNL     1      -3.985 -14.921   1.905  1.00  0.00     0.006 A 
ENDBRANCH  57  78
BRANCH  69  86
ATOM     86  C   UNL     1     -12.517 -13.179   4.598  1.00  0.00     0.057 A 
ATOM     87  C   UNL     1     -12.202 -13.590   5.899  1.00  0.00     0.134 A 
ATOM     88  C   UNL     1     -13.622 -13.782   3.981  1.00  0.00     0.134 A 
ATOM     89  F   UNL     1     -11.152 -13.061   6.544  1.00  0.00    -0.206 F 
ATOM     90  C   UNL     1     -12.937 -14.585   6.548  1.00  0.00     0.040 A 
ATOM     91  C   UNL     1     -14.383 -14.754   4.631  1.00  0.00     0.040 A 
ATOM     92  F   UNL     1     -13.988 -13.427   2.740  1.00  0.00    -0.206 F 
ATOM     93  C   UNL     1     -14.035 -15.164   5.916  1.00  0.00     0.006 A 
ENDBRANCH  69  86
ENDBRANCH  43  44
ENDBRANCH  36  38
ENDBRANCH  35  36
ENDBRANCH  34  35
ENDBRANCH  33  34
ENDBRANCH  32  33
ENDBRANCH  31  32
ENDBRANCH  30  31
ENDBRANCH   1  30
TORSDOF 22
