REMARK SMILES COC(=O)c1ccc([C@H]2CC(=O)Nc3c(C(=O)OCCOCCOC(=O)c4ccc(-c5c6nc(c(-c7c(F)cccc7F)c7ccc([nH]7)c(-c7c(F)cccc7F)c7nc(c(-c8c(F)cccc8F)c8ccc5[nH]8)C=C7)C=C6)cc4)cn(-c4ccccc4)c32)cc1
REMARK SMILES IDX 20 1 19 2 18 3 16 4 17 5 15 6 9 7 10 8 89 9 11 10 14 11
REMARK SMILES IDX 82 12 12 13 13 14 81 15 8 17 5 18 6 19 91 20 7 21 90 22 3 23
REMARK SMILES IDX 4 24 2 25 1 26 83 27 84 28 88 29 85 30 87 31 86 32 21 33
REMARK SMILES IDX 22 34 23 35 24 36 25 37 26 38 27 39 28 40 80 41 29 42 79 43
REMARK SMILES IDX 30 44 31 45 32 46 73 47 33 48 78 49 72 50 74 51 34 52 77 53
REMARK SMILES IDX 71 54 70 55 35 57 61 58 44 59 60 60 45 61 48 62 59 63 75 64
REMARK SMILES IDX 46 65 47 66 58 68 76 69 49 70 36 71 37 72 42 73 38 74 39 75
REMARK SMILES IDX 41 76 43 77 40 78 62 79 63 80 68 81 64 82 65 83 67 84 69 85
REMARK SMILES IDX 66 86 50 87 51 88 56 89 52 90 53 91 55 92 57 93 54 94
REMARK H PARENT 13 16 74 56 48 67
REMARK Flexibility Score: inf
ROOT
ATOM      1  C   UNL     1      -6.631  -4.049   9.052  1.00  0.00     0.202 C 
ENDROOT
BRANCH   1   2
ATOM      2  C   UNL     1      -6.346  -3.378   7.703  1.00  0.00     0.261 C 
BRANCH   2   3
ATOM      3  O   UNL     1      -5.321  -4.037   6.943  1.00  0.00    -0.460 OA
BRANCH   3   4
ATOM      4  C   UNL     1      -4.090  -3.443   7.019  1.00  0.00     0.341 C 
ATOM      5  O   UNL     1      -3.856  -2.393   7.591  1.00  0.00    -0.246 OA
BRANCH   4   6
ATOM      6  C   UNL     1      -3.039  -4.282   6.457  1.00  0.00     0.102 A 
ATOM      7  C   UNL     1      -1.436  -6.616   4.036  1.00  0.00     0.078 C 
ATOM      8  C   UNL     1      -2.717  -7.265   3.477  1.00  0.00     0.115 C 
ATOM      9  C   UNL     1      -1.792  -5.680   5.167  1.00  0.00     0.055 A 
ATOM     10  C   UNL     1      -3.959  -6.394   3.501  1.00  0.00     0.225 C 
ATOM     11  C   UNL     1      -3.064  -5.189   5.378  1.00  0.00     0.078 A 
ATOM     12  N   UNL     1      -0.957  -5.054   6.081  1.00  0.00    -0.317 N 
ATOM     13  O   UNL     1      -4.865  -6.541   2.680  1.00  0.00    -0.275 OA
ATOM     14  N   UNL     1      -4.101  -5.518   4.542  1.00  0.00    -0.324 N 
ATOM     15  C   UNL     1      -1.740  -4.317   6.942  1.00  0.00     0.109 A 
ATOM     16  H   UNL     1      -4.982  -5.108   4.697  1.00  0.00     0.170 HD
BRANCH   7  17
ATOM     17  C   UNL     1      -0.408  -7.726   4.286  1.00  0.00    -0.038 A 
ATOM     18  C   UNL     1       1.681  -9.611   4.602  1.00  0.00     0.060 A 
ATOM     19  C   UNL     1       1.209  -9.292   3.327  1.00  0.00     0.016 A 
ATOM     20  C   UNL     1       1.051  -9.054   5.718  1.00  0.00     0.016 A 
ATOM     21  C   UNL     1       0.186  -8.351   3.172  1.00  0.00     0.005 A 
ATOM     22  C   UNL     1      -0.016  -8.161   5.558  1.00  0.00     0.005 A 
BRANCH  18  23
ATOM     23  C   UNL     1       2.870 -10.498   4.718  1.00  0.00     0.337 C 
ATOM     24  O   UNL     1       3.569 -10.816   3.769  1.00  0.00    -0.246 OA
BRANCH  23  25
ATOM     25  O   UNL     1       3.059 -10.873   6.008  1.00  0.00    -0.465 OA
ATOM     26  C   UNL     1       4.223 -11.673   6.221  1.00  0.00     0.282 C 
ENDBRANCH  23  25
ENDBRANCH  18  23
ENDBRANCH   7  17
BRANCH  12  27
ATOM     27  C   UNL     1       0.452  -5.098   6.147  1.00  0.00     0.045 A 
ATOM     28  C   UNL     1       1.200  -4.803   5.006  1.00  0.00     0.026 A 
ATOM     29  C   UNL     1       1.076  -5.512   7.331  1.00  0.00     0.026 A 
ATOM     30  C   UNL     1       2.582  -4.971   5.033  1.00  0.00     0.002 A 
ATOM     31  C   UNL     1       2.455  -5.727   7.330  1.00  0.00     0.002 A 
ATOM     32  C   UNL     1       3.204  -5.460   6.183  1.00  0.00     0.000 A 
ENDBRANCH  12  27
ENDBRANCH   4   6
ENDBRANCH   3   4
ENDBRANCH   2   3
ENDBRANCH   1   2
BRANCH   1  33
ATOM     33  O   UNL     1      -5.587  -4.124  10.019  1.00  0.00    -0.374 OA
BRANCH  33  34
ATOM     34  C   UNL     1      -4.481  -4.993   9.821  1.00  0.00     0.202 C 
BRANCH  34  35
ATOM     35  C   UNL     1      -4.702  -6.496   9.836  1.00  0.00     0.261 C 
BRANCH  35  36
ATOM     36  O   UNL     1      -5.673  -6.923   8.894  1.00  0.00    -0.460 OA
BRANCH  36  37
ATOM     37  C   UNL     1      -6.864  -7.235   9.458  1.00  0.00     0.338 C 
ATOM     38  O   UNL     1      -7.300  -6.845  10.524  1.00  0.00    -0.246 OA
BRANCH  37  39
ATOM     39  C   UNL     1      -7.474  -8.314   8.676  1.00  0.00     0.060 A 
ATOM     40  C   UNL     1      -8.689  -8.810   9.146  1.00  0.00     0.016 A 
ATOM     41  C   UNL     1      -6.695  -9.017   7.747  1.00  0.00     0.016 A 
ATOM     42  C   UNL     1      -8.985 -10.130   8.890  1.00  0.00     0.010 A 
ATOM     43  C   UNL     1      -6.998 -10.331   7.488  1.00  0.00     0.010 A 
ATOM     44  C   UNL     1      -8.074 -10.907   8.154  1.00  0.00    -0.014 A 
BRANCH  44  45
ATOM     45  C   UNL     1      -8.418 -12.282   7.843  1.00  0.00     0.031 A 
ATOM     46  C   UNL     1      -9.570 -12.282   6.911  1.00  0.00     0.074 A 
ATOM     47  C   UNL     1      -7.737 -13.367   8.275  1.00  0.00     0.049 A 
ATOM     48  N   UNL     1     -10.796 -12.528   7.229  1.00  0.00    -0.248 NA
ATOM     49  C   UNL     1      -9.417 -11.645   5.588  1.00  0.00     0.031 C 
ATOM     50  C   UNL     1      -6.492 -13.421   9.045  1.00  0.00     0.029 A 
ATOM     51  N   UNL     1      -8.004 -14.694   8.056  1.00  0.00    -0.354 N 
ATOM     52  C   UNL     1     -11.507 -12.381   6.048  1.00  0.00     0.074 A 
ATOM     53  C   UNL     1     -10.686 -11.588   5.177  1.00  0.00     0.031 C 
ATOM     54  C   UNL     1      -5.988 -14.681   9.014  1.00  0.00     0.029 A 
ATOM     55  C   UNL     1      -6.935 -15.557   8.351  1.00  0.00     0.049 A 
ATOM     56  H   UNL     1      -8.872 -15.015   7.720  1.00  0.00     0.167 HD
ATOM     57  C   UNL     1     -12.504 -13.262   5.770  1.00  0.00     0.037 A 
ATOM     58  C   UNL     1      -6.861 -16.885   8.035  1.00  0.00     0.037 A 
ATOM     59  C   UNL     1     -12.971 -13.891   6.987  1.00  0.00     0.049 A 
ATOM     60  C   UNL     1      -8.254 -17.357   7.820  1.00  0.00     0.074 A 
ATOM     61  C   UNL     1     -13.479 -13.426   8.186  1.00  0.00     0.029 A 
ATOM     62  N   UNL     1     -12.517 -15.162   7.236  1.00  0.00    -0.354 N 
ATOM     63  N   UNL     1      -9.134 -17.431   8.779  1.00  0.00    -0.248 NA
ATOM     64  C   UNL     1      -8.787 -17.203   6.475  1.00  0.00     0.031 C 
ATOM     65  C   UNL     1     -12.882 -14.249   9.187  1.00  0.00     0.029 A 
ATOM     66  C   UNL     1     -12.147 -15.248   8.553  1.00  0.00     0.049 A 
ATOM     67  H   UNL     1     -12.467 -15.892   6.578  1.00  0.00     0.167 HD
ATOM     68  C   UNL     1     -10.267 -16.842   8.239  1.00  0.00     0.074 A 
ATOM     69  C   UNL     1      -9.996 -16.741   6.803  1.00  0.00     0.031 C 
ATOM     70  C   UNL     1     -11.171 -16.198   9.034  1.00  0.00     0.037 A 
BRANCH  57  71
ATOM     71  C   UNL     1     -12.663 -13.903   4.410  1.00  0.00     0.057 A 
ATOM     72  C   UNL     1     -13.767 -14.742   4.188  1.00  0.00     0.134 A 
ATOM     73  C   UNL     1     -11.652 -13.977   3.425  1.00  0.00     0.134 A 
ATOM     74  F   UNL     1     -14.777 -14.794   5.068  1.00  0.00    -0.206 F 
ATOM     75  C   UNL     1     -13.828 -15.628   3.105  1.00  0.00     0.040 A 
ATOM     76  C   UNL     1     -11.728 -14.818   2.315  1.00  0.00     0.040 A 
ATOM     77  F   UNL     1     -10.485 -13.333   3.525  1.00  0.00    -0.206 F 
ATOM     78  C   UNL     1     -12.806 -15.669   2.165  1.00  0.00     0.006 A 
ENDBRANCH  57  71
BRANCH  58  79
ATOM     79  C   UNL     1      -5.708 -17.688   7.534  1.00  0.00     0.057 A 
ATOM     80  C   UNL     1      -5.791 -19.088   7.391  1.00  0.00     0.134 A 
ATOM     81  C   UNL     1      -4.626 -17.080   6.880  1.00  0.00     0.134 A 
ATOM     82  F   UNL     1      -6.812 -19.770   7.933  1.00  0.00    -0.206 F 
ATOM     83  C   UNL     1      -4.875 -19.826   6.622  1.00  0.00     0.040 A 
ATOM     84  C   UNL     1      -3.705 -17.804   6.109  1.00  0.00     0.040 A 
ATOM     85  F   UNL     1      -4.478 -15.748   6.887  1.00  0.00    -0.206 F 
ATOM     86  C   UNL     1      -3.835 -19.180   5.964  1.00  0.00     0.006 A 
ENDBRANCH  58  79
BRANCH  70  87
ATOM     87  C   UNL     1     -11.056 -16.365  10.526  1.00  0.00     0.057 A 
ATOM     88  C   UNL     1      -9.966 -15.948  11.307  1.00  0.00     0.134 A 
ATOM     89  C   UNL     1     -12.174 -16.850  11.214  1.00  0.00     0.134 A 
ATOM     90  F   UNL     1      -8.886 -15.383  10.749  1.00  0.00    -0.206 F 
ATOM     91  C   UNL     1      -9.980 -16.050  12.704  1.00  0.00     0.040 A 
ATOM     92  C   UNL     1     -12.214 -16.924  12.606  1.00  0.00     0.040 A 
ATOM     93  F   UNL     1     -13.273 -17.219  10.537  1.00  0.00    -0.206 F 
ATOM     94  C   UNL     1     -11.110 -16.535  13.357  1.00  0.00     0.006 A 
ENDBRANCH  70  87
ENDBRANCH  44  45
ENDBRANCH  37  39
ENDBRANCH  36  37
ENDBRANCH  35  36
ENDBRANCH  34  35
ENDBRANCH  33  34
ENDBRANCH   1  33
TORSDOF 18
