REMARK SMILES O=C(OCCOCCOC(=O)[C@@H](F)[C@@]1(O)CCCOCC1)c1ccc(-c2c3nc(c(-c4c(F)cccc4F)c4ccc([nH]4)c(-c4c(F)cccc4F)c4nc(c(-c5c(F)cccc5F)c5ccc2[nH]5)C=C4)C=C3)cc1
REMARK SMILES IDX 8 1 7 2 6 3 5 4 4 5 3 6 2 7 1 8 22 9 23 10 75 11 24 12 74 13
REMARK SMILES IDX 25 14 26 15 27 16 68 17 28 18 73 19 67 20 69 21 29 22 72 23
REMARK SMILES IDX 66 24 65 25 30 27 56 28 39 29 55 30 40 31 43 32 54 33 70 34
REMARK SMILES IDX 41 35 42 36 53 38 71 39 44 40 31 41 32 42 37 43 33 44 34 45
REMARK SMILES IDX 36 46 38 47 35 48 57 49 58 50 63 51 59 52 60 53 62 54 64 55
REMARK SMILES IDX 61 56 45 57 46 58 51 59 47 60 48 61 50 62 52 63 49 64 9 65
REMARK SMILES IDX 10 66 11 67 12 68 13 69 14 70 15 71 16 73 21 75 20 76 19 77
REMARK SMILES IDX 18 78 17 79
REMARK H PARENT 69 26 43 37 15 72
REMARK Flexibility Score: 80.00
ROOT
ATOM      1  C   UNL     1       2.682   1.649  -2.909  1.00  0.00     0.261 C 
ENDROOT
BRANCH   1   2
ATOM      2  C   UNL     1       2.703   0.966  -1.548  1.00  0.00     0.202 C 
BRANCH   2   3
ATOM      3  O   UNL     1       4.048   0.618  -1.201  1.00  0.00    -0.374 OA
BRANCH   3   4
ATOM      4  C   UNL     1       4.359  -0.780  -1.215  1.00  0.00     0.202 C 
BRANCH   4   5
ATOM      5  C   UNL     1       4.177  -1.482   0.135  1.00  0.00     0.261 C 
BRANCH   5   6
ATOM      6  O   UNL     1       2.821  -1.363   0.597  1.00  0.00    -0.460 OA
BRANCH   6   7
ATOM      7  C   UNL     1       2.249  -0.343   1.277  1.00  0.00     0.338 C 
ATOM      8  O   UNL     1       1.025  -0.340   1.402  1.00  0.00    -0.246 OA
BRANCH   7   9
ATOM      9  C   UNL     1       3.012   0.779   1.907  1.00  0.00     0.060 A 
ATOM     10  C   UNL     1       4.290   1.198   1.535  1.00  0.00     0.016 A 
ATOM     11  C   UNL     1       2.353   1.508   2.915  1.00  0.00     0.016 A 
ATOM     12  C   UNL     1       4.913   2.268   2.139  1.00  0.00     0.010 A 
ATOM     13  C   UNL     1       2.978   2.587   3.548  1.00  0.00     0.010 A 
ATOM     14  C   UNL     1       4.273   2.941   3.168  1.00  0.00    -0.014 A 
BRANCH  14  15
ATOM     15  C   UNL     1       5.136   3.827   3.954  1.00  0.00     0.031 A 
ATOM     16  C   UNL     1       5.774   3.239   5.174  1.00  0.00     0.074 A 
ATOM     17  C   UNL     1       5.532   4.994   3.420  1.00  0.00     0.049 A 
ATOM     18  N   UNL     1       6.636   3.767   5.995  1.00  0.00    -0.248 NA
ATOM     19  C   UNL     1       5.418   1.842   5.489  1.00  0.00     0.031 C 
ATOM     20  C   UNL     1       5.096   5.516   2.121  1.00  0.00     0.029 A 
ATOM     21  N   UNL     1       6.436   5.914   3.866  1.00  0.00    -0.354 N 
ATOM     22  C   UNL     1       6.896   2.784   6.941  1.00  0.00     0.074 A 
ATOM     23  C   UNL     1       6.114   1.623   6.591  1.00  0.00     0.031 C 
ATOM     24  C   UNL     1       5.754   6.659   1.867  1.00  0.00     0.029 A 
ATOM     25  C   UNL     1       6.600   6.976   3.011  1.00  0.00     0.049 A 
ATOM     26  H   UNL     1       6.922   5.825   4.717  1.00  0.00     0.167 HD
ATOM     27  C   UNL     1       7.710   2.865   8.016  1.00  0.00     0.037 A 
ATOM     28  C   UNL     1       7.336   8.089   3.172  1.00  0.00     0.037 A 
ATOM     29  C   UNL     1       8.467   4.046   8.322  1.00  0.00     0.049 A 
ATOM     30  C   UNL     1       8.134   8.208   4.442  1.00  0.00     0.074 A 
ATOM     31  C   UNL     1       9.258   4.312   9.421  1.00  0.00     0.029 A 
ATOM     32  N   UNL     1       8.518   5.169   7.502  1.00  0.00    -0.354 N 
ATOM     33  N   UNL     1       8.298   7.324   5.401  1.00  0.00    -0.248 NA
ATOM     34  C   UNL     1       8.834   9.476   4.665  1.00  0.00     0.031 C 
ATOM     35  C   UNL     1       9.744   5.618   9.292  1.00  0.00     0.029 A 
ATOM     36  C   UNL     1       9.311   6.141   8.081  1.00  0.00     0.049 A 
ATOM     37  H   UNL     1       8.057   5.258   6.637  1.00  0.00     0.167 HD
ATOM     38  C   UNL     1       9.143   7.916   6.328  1.00  0.00     0.074 A 
ATOM     39  C   UNL     1       9.466   9.231   5.804  1.00  0.00     0.031 C 
ATOM     40  C   UNL     1       9.612   7.429   7.504  1.00  0.00     0.037 A 
BRANCH  27  41
ATOM     41  C   UNL     1       7.705   1.700   8.959  1.00  0.00     0.057 A 
ATOM     42  C   UNL     1       8.273   0.461   8.637  1.00  0.00     0.134 A 
ATOM     43  C   UNL     1       7.045   1.805  10.191  1.00  0.00     0.134 A 
ATOM     44  F   UNL     1       8.884   0.279   7.456  1.00  0.00    -0.206 F 
ATOM     45  C   UNL     1       8.159  -0.639   9.492  1.00  0.00     0.040 A 
ATOM     46  C   UNL     1       6.947   0.721  11.064  1.00  0.00     0.040 A 
ATOM     47  F   UNL     1       6.463   2.958  10.556  1.00  0.00    -0.206 F 
ATOM     48  C   UNL     1       7.495  -0.509  10.710  1.00  0.00     0.006 A 
ENDBRANCH  27  41
BRANCH  28  49
ATOM     49  C   UNL     1       7.303   9.176   2.160  1.00  0.00     0.057 A 
ATOM     50  C   UNL     1       8.450   9.562   1.457  1.00  0.00     0.134 A 
ATOM     51  C   UNL     1       6.120   9.879   1.887  1.00  0.00     0.134 A 
ATOM     52  F   UNL     1       9.619   8.943   1.679  1.00  0.00    -0.206 F 
ATOM     53  C   UNL     1       8.428  10.617   0.541  1.00  0.00     0.040 A 
ATOM     54  C   UNL     1       6.077  10.915   0.953  1.00  0.00     0.040 A 
ATOM     55  F   UNL     1       4.982   9.563   2.523  1.00  0.00    -0.206 F 
ATOM     56  C   UNL     1       7.237  11.294   0.284  1.00  0.00     0.006 A 
ENDBRANCH  28  49
BRANCH  40  57
ATOM     57  C   UNL     1      10.566   8.303   8.258  1.00  0.00     0.057 A 
ATOM     58  C   UNL     1      10.148   9.464   8.918  1.00  0.00     0.134 A 
ATOM     59  C   UNL     1      11.918   7.947   8.352  1.00  0.00     0.134 A 
ATOM     60  F   UNL     1       8.868   9.861   8.852  1.00  0.00    -0.206 F 
ATOM     61  C   UNL     1      11.050  10.258   9.625  1.00  0.00     0.040 A 
ATOM     62  C   UNL     1      12.821   8.715   9.084  1.00  0.00     0.040 A 
ATOM     63  F   UNL     1      12.375   6.839   7.750  1.00  0.00    -0.206 F 
ATOM     64  C   UNL     1      12.389   9.880   9.715  1.00  0.00     0.006 A 
ENDBRANCH  40  57
ENDBRANCH  14  15
ENDBRANCH   7   9
ENDBRANCH   6   7
ENDBRANCH   5   6
ENDBRANCH   4   5
ENDBRANCH   3   4
ENDBRANCH   2   3
ENDBRANCH   1   2
BRANCH   1  65
ATOM     65  O   UNL     1       3.200   0.721  -3.868  1.00  0.00    -0.461 OA
BRANCH  65  66
ATOM     66  C   UNL     1       4.560   0.734  -3.998  1.00  0.00     0.343 C 
ATOM     67  O   UNL     1       5.309   1.635  -3.635  1.00  0.00    -0.249 OA
BRANCH  66  68
ATOM     68  C   UNL     1       5.022  -0.518  -4.700  1.00  0.00     0.307 C 
ATOM     69  F   UNL     1       4.664  -1.654  -4.025  1.00  0.00    -0.232 F 
BRANCH  68  70
ATOM     70  C   UNL     1       4.455  -0.579  -6.135  1.00  0.00     0.109 C 
BRANCH  70  71
ATOM     71  O   UNL     1       3.046  -0.881  -6.117  1.00  0.00    -0.386 OA
ATOM     72  H   UNL     1       2.568  -0.166  -5.669  1.00  0.00     0.211 HD
ENDBRANCH  70  71
BRANCH  70  73
ATOM     73  C   UNL     1       4.636   0.790  -6.816  1.00  0.00     0.041 CG0
ATOM     74  G   UNL     1       4.339   0.830  -8.308  1.00  0.00     0.000 G0
ENDBRANCH  70  73
BRANCH  70  75
ATOM     75  C   UNL     1       5.151  -1.748  -6.857  1.00  0.00     0.067 C 
BRANCH  75  76
ATOM     76  C   UNL     1       4.583  -2.040  -8.240  1.00  0.00     0.163 C 
BRANCH  76  77
ATOM     77  O   UNL     1       5.170  -1.294  -9.299  1.00  0.00    -0.381 OA
BRANCH  77  78
ATOM     78  C   UNL     1       5.410   0.088  -9.093  1.00  0.00     0.160 C 
BRANCH  78  79
ATOM     79  C   UNL     1       4.339   0.830  -8.308  1.00  0.00     0.031 CG0
ATOM     80  G   UNL     1       4.636   0.790  -6.816  1.00  0.00     0.000 G0
ENDBRANCH  78  79
ENDBRANCH  77  78
ENDBRANCH  76  77
ENDBRANCH  75  76
ENDBRANCH  70  75
ENDBRANCH  68  70
ENDBRANCH  66  68
ENDBRANCH  65  66
ENDBRANCH   1  65
TORSDOF 16
