REMARK SMILES C[NH2+][C@@]1(C(=O)OCCOCCOC(=O)c2ccc(-c3c4nc(c(-c5c(F)cccc5F)c5ccc([nH]5)c(-c5c(F)cccc5F)c5nc(c(-c6c(F)cccc6F)c6ccc3[nH]6)C=C5)C=C4)cc2)CC[C@H](Oc2cccc(C)c2)C1
REMARK SMILES IDX 9 1 8 2 7 3 6 4 4 5 5 6 3 7 69 8 80 9 70 10 71 11 2 12 1 13
REMARK SMILES IDX 72 16 73 17 74 18 79 19 75 20 77 21 76 22 78 23 10 24 11 25
REMARK SMILES IDX 12 26 13 27 14 28 15 29 16 30 68 31 17 32 67 33 18 34 19 35
REMARK SMILES IDX 20 36 61 37 21 38 66 39 60 40 62 41 22 42 65 43 59 44 58 45
REMARK SMILES IDX 23 47 49 48 32 49 48 50 33 51 36 52 47 53 63 54 34 55 35 56
REMARK SMILES IDX 46 58 64 59 37 60 24 61 25 62 30 63 26 64 27 65 29 66 31 67
REMARK SMILES IDX 28 68 50 69 51 70 56 71 52 72 53 73 55 74 57 75 54 76 38 77
REMARK SMILES IDX 39 78 44 79 40 80 41 81 43 82 45 83 42 84
REMARK H PARENT 2 14 2 15 62 46 36 57
REMARK Flexibility Score: inf
ROOT
ATOM      1  O   UNL     1      -1.071   0.116   4.020  1.00  0.00    -0.374 OA
ENDROOT
BRANCH   1   2
ATOM      2  C   UNL     1      -2.308   0.823   3.902  1.00  0.00     0.202 C 
BRANCH   2   3
ATOM      3  C   UNL     1      -2.243   2.130   3.110  1.00  0.00     0.261 C 
BRANCH   3   4
ATOM      4  O   UNL     1      -2.108   1.862   1.702  1.00  0.00    -0.459 OA
BRANCH   4   5
ATOM      5  C   UNL     1      -0.944   2.250   1.122  1.00  0.00     0.368 C 
ATOM      6  O   UNL     1      -0.052   2.872   1.693  1.00  0.00    -0.245 OA
BRANCH   5   7
ATOM      7  C   UNL     1      -0.855   1.853  -0.384  1.00  0.00     0.197 C 
ATOM      8  C   UNL     1      -1.420   3.018  -1.198  1.00  0.00     0.085 C 
ATOM      9  C   UNL     1      -1.740   0.666  -0.820  1.00  0.00     0.126 C 
ATOM     10  C   UNL     1      -2.919   2.776  -1.180  1.00  0.00     0.052 C 
ATOM     11  C   UNL     1      -3.081   1.258  -1.313  1.00  0.00     0.180 C 
BRANCH   7  12
ATOM     12  N   UNL     1       0.588   1.721  -0.737  1.00  0.00    -0.334 N 
ATOM     13  C   UNL     1       1.189   0.441  -0.391  1.00  0.00     0.331 C 
ATOM     14  H   UNL     1       0.681   1.853  -1.744  1.00  0.00     0.347 HD
ATOM     15  H   UNL     1       1.082   2.426  -0.189  1.00  0.00     0.347 HD
ENDBRANCH   7  12
BRANCH  11  16
ATOM     16  O   UNL     1      -4.142   0.722  -0.515  1.00  0.00    -0.490 OA
BRANCH  16  17
ATOM     17  C   UNL     1      -5.438   0.910  -0.921  1.00  0.00     0.119 A 
ATOM     18  C   UNL     1      -5.863   1.796  -1.909  1.00  0.00     0.046 A 
ATOM     19  C   UNL     1      -6.400   0.153  -0.238  1.00  0.00     0.049 A 
ATOM     20  C   UNL     1      -7.223   1.981  -2.163  1.00  0.00     0.004 A 
ATOM     21  C   UNL     1      -7.768   0.290  -0.530  1.00  0.00    -0.047 A 
ATOM     22  C   UNL     1      -8.171   1.239  -1.470  1.00  0.00     0.003 A 
ATOM     23  C   UNL     1      -8.818  -0.540   0.143  1.00  0.00     0.044 C 
ENDBRANCH  16  17
ENDBRANCH  11  16
ENDBRANCH   5   7
ENDBRANCH   4   5
ENDBRANCH   3   4
ENDBRANCH   2   3
ENDBRANCH   1   2
BRANCH   1  24
ATOM     24  C   UNL     1      -0.678  -0.662   2.891  1.00  0.00     0.202 C 
BRANCH  24  25
ATOM     25  C   UNL     1      -1.256  -2.079   2.818  1.00  0.00     0.261 C 
BRANCH  25  26
ATOM     26  O   UNL     1      -2.691  -2.073   2.760  1.00  0.00    -0.460 OA
BRANCH  26  27
ATOM     27  C   UNL     1      -3.304  -2.376   3.927  1.00  0.00     0.338 C 
ATOM     28  O   UNL     1      -2.780  -2.751   4.968  1.00  0.00    -0.246 OA
BRANCH  27  29
ATOM     29  C   UNL     1      -4.735  -2.042   3.837  1.00  0.00     0.060 A 
ATOM     30  C   UNL     1      -5.289  -1.238   4.840  1.00  0.00     0.016 A 
ATOM     31  C   UNL     1      -5.536  -2.556   2.820  1.00  0.00     0.016 A 
ATOM     32  C   UNL     1      -6.658  -0.965   4.846  1.00  0.00     0.010 A 
ATOM     33  C   UNL     1      -6.908  -2.292   2.840  1.00  0.00     0.010 A 
ATOM     34  C   UNL     1      -7.488  -1.508   3.858  1.00  0.00    -0.014 A 
BRANCH  34  35
ATOM     35  C   UNL     1      -8.970  -1.381   3.958  1.00  0.00     0.031 A 
ATOM     36  C   UNL     1      -9.792  -2.614   4.230  1.00  0.00     0.074 A 
ATOM     37  C   UNL     1      -9.592  -0.197   3.797  1.00  0.00     0.049 A 
ATOM     38  N   UNL     1     -11.093  -2.758   4.261  1.00  0.00    -0.248 NA
ATOM     39  C   UNL     1      -9.045  -3.857   4.478  1.00  0.00     0.031 C 
ATOM     40  C   UNL     1      -8.936   1.081   3.518  1.00  0.00     0.029 A 
ATOM     41  N   UNL     1     -10.932   0.114   3.814  1.00  0.00    -0.354 N 
ATOM     42  C   UNL     1     -11.316  -4.107   4.509  1.00  0.00     0.074 A 
ATOM     43  C   UNL     1     -10.020  -4.747   4.564  1.00  0.00     0.031 C 
ATOM     44  C   UNL     1      -9.876   2.033   3.373  1.00  0.00     0.029 A 
ATOM     45  C   UNL     1     -11.199   1.432   3.530  1.00  0.00     0.049 A 
ATOM     46  H   UNL     1     -11.635  -0.547   4.011  1.00  0.00     0.167 HD
ATOM     47  C   UNL     1     -12.488  -4.756   4.709  1.00  0.00     0.037 A 
ATOM     48  C   UNL     1     -12.374   2.077   3.394  1.00  0.00     0.037 A 
ATOM     49  C   UNL     1     -13.780  -4.125   4.708  1.00  0.00     0.049 A 
ATOM     50  C   UNL     1     -13.669   1.333   3.595  1.00  0.00     0.074 A 
ATOM     51  C   UNL     1     -15.016  -4.693   4.966  1.00  0.00     0.029 A 
ATOM     52  N   UNL     1     -14.002  -2.784   4.441  1.00  0.00    -0.354 N 
ATOM     53  N   UNL     1     -13.861   0.068   3.880  1.00  0.00    -0.248 NA
ATOM     54  C   UNL     1     -14.911   2.111   3.466  1.00  0.00     0.031 C 
ATOM     55  C   UNL     1     -15.991  -3.700   4.825  1.00  0.00     0.029 A 
ATOM     56  C   UNL     1     -15.357  -2.508   4.516  1.00  0.00     0.049 A 
ATOM     57  H   UNL     1     -13.302  -2.126   4.230  1.00  0.00     0.167 HD
ATOM     58  C   UNL     1     -15.237  -0.090   4.004  1.00  0.00     0.074 A 
ATOM     59  C   UNL     1     -15.833   1.206   3.763  1.00  0.00     0.031 C 
ATOM     60  C   UNL     1     -15.941  -1.210   4.298  1.00  0.00     0.037 A 
BRANCH  47  61
ATOM     61  C   UNL     1     -12.418  -6.234   4.958  1.00  0.00     0.057 A 
ATOM     62  C   UNL     1     -11.911  -6.756   6.155  1.00  0.00     0.134 A 
ATOM     63  C   UNL     1     -12.871  -7.143   3.995  1.00  0.00     0.134 A 
ATOM     64  F   UNL     1     -11.447  -5.936   7.111  1.00  0.00    -0.206 F 
ATOM     65  C   UNL     1     -11.825  -8.131   6.373  1.00  0.00     0.040 A 
ATOM     66  C   UNL     1     -12.817  -8.521   4.213  1.00  0.00     0.040 A 
ATOM     67  F   UNL     1     -13.374  -6.709   2.830  1.00  0.00    -0.206 F 
ATOM     68  C   UNL     1     -12.284  -9.018   5.401  1.00  0.00     0.006 A 
ENDBRANCH  47  61
BRANCH  48  69
ATOM     69  C   UNL     1     -12.398   3.522   3.051  1.00  0.00     0.057 A 
ATOM     70  C   UNL     1     -12.783   4.483   3.994  1.00  0.00     0.134 A 
ATOM     71  C   UNL     1     -12.082   3.970   1.764  1.00  0.00     0.134 A 
ATOM     72  F   UNL     1     -13.124   4.109   5.236  1.00  0.00    -0.206 F 
ATOM     73  C   UNL     1     -12.875   5.836   3.664  1.00  0.00     0.040 A 
ATOM     74  C   UNL     1     -12.149   5.323   1.425  1.00  0.00     0.040 A 
ATOM     75  F   UNL     1     -11.710   3.099   0.815  1.00  0.00    -0.206 F 
ATOM     76  C   UNL     1     -12.555   6.259   2.375  1.00  0.00     0.006 A 
ENDBRANCH  48  69
BRANCH  60  77
ATOM     77  C   UNL     1     -17.430  -1.080   4.436  1.00  0.00     0.057 A 
ATOM     78  C   UNL     1     -18.267  -0.919   3.325  1.00  0.00     0.134 A 
ATOM     79  C   UNL     1     -18.036  -1.170   5.696  1.00  0.00     0.134 A 
ATOM     80  F   UNL     1     -17.748  -0.814   2.092  1.00  0.00    -0.206 F 
ATOM     81  C   UNL     1     -19.654  -0.837   3.464  1.00  0.00     0.040 A 
ATOM     82  C   UNL     1     -19.423  -1.112   5.845  1.00  0.00     0.040 A 
ATOM     83  F   UNL     1     -17.292  -1.332   6.800  1.00  0.00    -0.206 F 
ATOM     84  C   UNL     1     -20.236  -0.941   4.727  1.00  0.00     0.006 A 
ENDBRANCH  60  77
ENDBRANCH  34  35
ENDBRANCH  27  29
ENDBRANCH  26  27
ENDBRANCH  25  26
ENDBRANCH  24  25
ENDBRANCH   1  24
TORSDOF 17
