REMARK SMILES CSCC[C@H](NC(=O)Cc1c(C)c2ccc(O)cc2oc1=O)C(=O)OCCOCCOC(=O)c1ccc(-c2c3nc(c(-c4c(F)cccc4F)c4ccc([nH]4)c(-c4c(F)cccc4F)c4nc(c(-c5c(F)cccc5F)c5ccc2[nH]5)C=C4)C=C3)cc1
REMARK SMILES IDX 27 1 26 2 25 3 23 4 24 5 5 6 4 7 3 8 2 9 1 10 6 11 7 12 8 14
REMARK SMILES IDX 9 15 10 16 11 17 21 18 12 19 13 20 20 21 22 22 14 23 19 24
REMARK SMILES IDX 15 25 18 26 16 27 17 28 28 30 29 31 30 32 31 33 32 34 33 35
REMARK SMILES IDX 34 36 35 37 87 38 36 39 86 40 37 41 38 42 39 43 80 44 40 45
REMARK SMILES IDX 85 46 79 47 81 48 41 49 84 50 78 51 77 52 42 54 68 55 51 56
REMARK SMILES IDX 67 57 52 58 55 59 66 60 82 61 53 62 54 63 65 65 83 66 56 67
REMARK SMILES IDX 43 68 44 69 49 70 45 71 46 72 48 73 50 74 47 75 69 76 70 77
REMARK SMILES IDX 75 78 71 79 72 80 74 81 76 82 73 83 57 84 58 85 63 86 59 87
REMARK SMILES IDX 60 88 62 89 64 90 61 91
REMARK H PARENT 6 13 17 29 81 53 55 64
REMARK Flexibility Score: inf
ROOT
ATOM      1  C   UNL     1      -1.020   6.218   2.046  1.00  0.00     0.202 C 
ENDROOT
BRANCH   1   2
ATOM      2  C   UNL     1       0.417   5.829   2.378  1.00  0.00     0.261 C 
BRANCH   2   3
ATOM      3  O   UNL     1       1.001   5.186   1.225  1.00  0.00    -0.462 OA
BRANCH   3   4
ATOM      4  C   UNL     1       1.105   3.844   1.300  1.00  0.00     0.328 C 
ATOM      5  O   UNL     1       0.841   3.204   2.312  1.00  0.00    -0.250 OA
BRANCH   4   6
ATOM      6  C   UNL     1       1.488   3.169  -0.038  1.00  0.00     0.193 C 
BRANCH   6   7
ATOM      7  C   UNL     1       2.961   3.331  -0.426  1.00  0.00     0.048 C 
BRANCH   7   8
ATOM      8  C   UNL     1       3.343   4.384  -1.460  1.00  0.00     0.072 C 
BRANCH   8   9
ATOM      9  S   UNL     1       3.198   6.098  -0.888  1.00  0.00    -0.165 SA
ATOM     10  C   UNL     1       1.566   6.511  -1.547  1.00  0.00     0.085 C 
ENDBRANCH   8   9
ENDBRANCH   7   8
ENDBRANCH   6   7
BRANCH   6  11
ATOM     11  N   UNL     1       0.562   3.115  -1.174  1.00  0.00    -0.342 N 
ATOM     12  C   UNL     1      -0.210   2.060  -1.602  1.00  0.00     0.225 C 
ATOM     13  H   UNL     1       0.484   3.943  -1.701  1.00  0.00     0.164 HD
ATOM     14  O   UNL     1      -0.558   2.073  -2.784  1.00  0.00    -0.275 OA
BRANCH  12  15
ATOM     15  C   UNL     1      -0.691   0.965  -0.630  1.00  0.00     0.143 C 
BRANCH  15  16
ATOM     16  C   UNL     1       0.253  -0.210  -0.483  1.00  0.00     0.051 A 
ATOM     17  C   UNL     1       1.155  -0.363   0.510  1.00  0.00    -0.029 A 
ATOM     18  C   UNL     1      -0.001  -1.382  -1.385  1.00  0.00     0.340 A 
ATOM     19  C   UNL     1       1.181   0.376   1.818  1.00  0.00     0.046 C 
ATOM     20  C   UNL     1       2.186  -1.384   0.369  1.00  0.00     0.021 A 
ATOM     21  O   UNL     1       0.713  -2.557  -1.129  1.00  0.00    -0.422 OA
ATOM     22  O   UNL     1      -0.900  -1.366  -2.219  1.00  0.00    -0.246 OA
ATOM     23  C   UNL     1       3.458  -1.258   0.944  1.00  0.00     0.016 A 
ATOM     24  C   UNL     1       1.881  -2.523  -0.354  1.00  0.00     0.142 A 
ATOM     25  C   UNL     1       4.355  -2.320   0.899  1.00  0.00     0.047 A 
ATOM     26  C   UNL     1       2.738  -3.619  -0.358  1.00  0.00     0.094 A 
ATOM     27  C   UNL     1       3.966  -3.510   0.292  1.00  0.00     0.119 A 
BRANCH  27  28
ATOM     28  O   UNL     1       4.788  -4.596   0.308  1.00  0.00    -0.508 OA
ATOM     29  H   UNL     1       5.619  -4.548   0.739  1.00  0.00     0.293 HD
ENDBRANCH  27  28
ENDBRANCH  15  16
ENDBRANCH  12  15
ENDBRANCH   6  11
ENDBRANCH   4   6
ENDBRANCH   3   4
ENDBRANCH   2   3
ENDBRANCH   1   2
BRANCH   1  30
ATOM     30  O   UNL     1      -1.993   5.179   2.137  1.00  0.00    -0.374 OA
BRANCH  30  31
ATOM     31  C   UNL     1      -2.132   4.293   1.028  1.00  0.00     0.202 C 
BRANCH  31  32
ATOM     32  C   UNL     1      -2.910   4.807  -0.190  1.00  0.00     0.261 C 
BRANCH  32  33
ATOM     33  O   UNL     1      -2.232   5.885  -0.859  1.00  0.00    -0.460 OA
BRANCH  33  34
ATOM     34  C   UNL     1      -2.710   7.118  -0.564  1.00  0.00     0.338 C 
ATOM     35  O   UNL     1      -3.655   7.394   0.161  1.00  0.00    -0.246 OA
BRANCH  34  36
ATOM     36  C   UNL     1      -1.781   8.140  -1.080  1.00  0.00     0.060 A 
ATOM     37  C   UNL     1      -1.334   9.131  -0.194  1.00  0.00     0.016 A 
ATOM     38  C   UNL     1      -1.392   8.157  -2.420  1.00  0.00     0.016 A 
ATOM     39  C   UNL     1      -0.542  10.180  -0.656  1.00  0.00     0.010 A 
ATOM     40  C   UNL     1      -0.603   9.212  -2.884  1.00  0.00     0.010 A 
ATOM     41  C   UNL     1      -0.214  10.251  -2.015  1.00  0.00    -0.014 A 
BRANCH  41  42
ATOM     42  C   UNL     1       0.328  11.508  -2.583  1.00  0.00     0.031 A 
ATOM     43  C   UNL     1      -0.617  12.402  -3.340  1.00  0.00     0.074 A 
ATOM     44  C   UNL     1       1.618  11.857  -2.435  1.00  0.00     0.049 A 
ATOM     45  N   UNL     1      -0.366  13.479  -4.037  1.00  0.00    -0.248 NA
ATOM     46  C   UNL     1      -2.038  12.017  -3.316  1.00  0.00     0.031 C 
ATOM     47  C   UNL     1       2.619  11.111  -1.677  1.00  0.00     0.029 A 
ATOM     48  N   UNL     1       2.307  12.932  -2.940  1.00  0.00    -0.354 N 
ATOM     49  C   UNL     1      -1.591  13.884  -4.553  1.00  0.00     0.074 A 
ATOM     50  C   UNL     1      -2.578  12.922  -4.116  1.00  0.00     0.031 C 
ATOM     51  C   UNL     1       3.802  11.742  -1.781  1.00  0.00     0.029 A 
ATOM     52  C   UNL     1       3.649  12.910  -2.648  1.00  0.00     0.049 A 
ATOM     53  H   UNL     1       1.880  13.650  -3.461  1.00  0.00     0.167 HD
ATOM     54  C   UNL     1      -1.871  14.965  -5.318  1.00  0.00     0.037 A 
ATOM     55  C   UNL     1       4.642  13.722  -3.064  1.00  0.00     0.037 A 
ATOM     56  C   UNL     1      -0.889  15.925  -5.742  1.00  0.00     0.049 A 
ATOM     57  C   UNL     1       4.322  14.875  -3.983  1.00  0.00     0.074 A 
ATOM     58  C   UNL     1      -1.072  17.062  -6.508  1.00  0.00     0.029 A 
ATOM     59  N   UNL     1       0.462  15.857  -5.437  1.00  0.00    -0.354 N 
ATOM     60  N   UNL     1       3.162  15.255  -4.462  1.00  0.00    -0.248 NA
ATOM     61  C   UNL     1       5.449  15.713  -4.420  1.00  0.00     0.031 C 
ATOM     62  C   UNL     1       0.178  17.652  -6.716  1.00  0.00     0.029 A 
ATOM     63  C   UNL     1       1.128  16.921  -6.020  1.00  0.00     0.049 A 
ATOM     64  H   UNL     1       0.884  15.157  -4.889  1.00  0.00     0.167 HD
ATOM     65  C   UNL     1       3.413  16.398  -5.214  1.00  0.00     0.074 A 
ATOM     66  C   UNL     1       4.836  16.647  -5.133  1.00  0.00     0.031 C 
ATOM     67  C   UNL     1       2.541  17.176  -5.901  1.00  0.00     0.037 A 
BRANCH  54  68
ATOM     68  C   UNL     1      -3.290  15.146  -5.770  1.00  0.00     0.057 A 
ATOM     69  C   UNL     1      -4.316  15.493  -4.882  1.00  0.00     0.134 A 
ATOM     70  C   UNL     1      -3.628  14.998  -7.122  1.00  0.00     0.134 A 
ATOM     71  F   UNL     1      -4.064  15.635  -3.572  1.00  0.00    -0.206 F 
ATOM     72  C   UNL     1      -5.632  15.660  -5.318  1.00  0.00     0.040 A 
ATOM     73  C   UNL     1      -4.933  15.194  -7.574  1.00  0.00     0.040 A 
ATOM     74  F   UNL     1      -2.693  14.671  -8.026  1.00  0.00    -0.206 F 
ATOM     75  C   UNL     1      -5.941  15.518  -6.669  1.00  0.00     0.006 A 
ENDBRANCH  54  68
BRANCH  55  76
ATOM     76  C   UNL     1       6.042  13.469  -2.636  1.00  0.00     0.057 A 
ATOM     77  C   UNL     1       6.716  14.363  -1.795  1.00  0.00     0.134 A 
ATOM     78  C   UNL     1       6.752  12.347  -3.081  1.00  0.00     0.134 A 
ATOM     79  F   UNL     1       6.101  15.470  -1.354  1.00  0.00    -0.206 F 
ATOM     80  C   UNL     1       8.050  14.162  -1.431  1.00  0.00     0.040 A 
ATOM     81  C   UNL     1       8.075  12.118  -2.702  1.00  0.00     0.040 A 
ATOM     82  F   UNL     1       6.165  11.451  -3.890  1.00  0.00    -0.206 F 
ATOM     83  C   UNL     1       8.731  13.034  -1.881  1.00  0.00     0.006 A 
ENDBRANCH  55  76
BRANCH  67  84
ATOM     84  C   UNL     1       3.070  18.417  -6.560  1.00  0.00     0.057 A 
ATOM     85  C   UNL     1       3.849  18.374  -7.722  1.00  0.00     0.134 A 
ATOM     86  C   UNL     1       2.709  19.680  -6.070  1.00  0.00     0.134 A 
ATOM     87  F   UNL     1       4.237  17.198  -8.239  1.00  0.00    -0.206 F 
ATOM     88  C   UNL     1       4.256  19.543  -8.369  1.00  0.00     0.040 A 
ATOM     89  C   UNL     1       3.086  20.854  -6.723  1.00  0.00     0.040 A 
ATOM     90  F   UNL     1       1.954  19.791  -4.966  1.00  0.00    -0.206 F 
ATOM     91  C   UNL     1       3.864  20.787  -7.876  1.00  0.00     0.006 A 
ENDBRANCH  67  84
ENDBRANCH  41  42
ENDBRANCH  34  36
ENDBRANCH  33  34
ENDBRANCH  32  33
ENDBRANCH  31  32
ENDBRANCH  30  31
ENDBRANCH   1  30
TORSDOF 21
