REMARK SMILES O=C(COc1ccc([N+](=O)[O-])cc1)Nc1ccc(C(=O)OCCOCCOC(=O)c2ccc(-c3c4nc(c(-c5c(F)cccc5F)c5ccc([nH]5)c(-c5c(F)cccc5F)c5nc(c(-c6c(F)cccc6F)c6ccc3[nH]6)C=C5)C=C4)cc2)c(O)c1
REMARK SMILES IDX 22 1 21 2 19 3 20 4 18 5 15 6 16 7 86 8 17 9 84 10 14 11
REMARK SMILES IDX 1 12 2 13 3 15 4 16 5 17 6 18 13 19 7 20 12 21 8 22 9 23
REMARK SMILES IDX 10 24 11 25 85 26 23 28 24 29 25 30 26 31 27 32 28 33 29 34
REMARK SMILES IDX 30 35 31 36 83 37 32 38 82 39 33 40 34 41 35 42 76 43 36 44
REMARK SMILES IDX 81 45 75 46 77 47 37 48 80 49 74 50 73 51 38 53 64 54 47 55
REMARK SMILES IDX 63 56 48 57 51 58 62 59 78 60 49 61 50 62 61 64 79 65 52 66
REMARK SMILES IDX 39 67 40 68 45 69 41 70 42 71 44 72 46 73 43 74 65 75 66 76
REMARK SMILES IDX 71 77 67 78 68 79 70 80 72 81 69 82 53 83 54 84 59 85 55 86
REMARK SMILES IDX 56 87 58 88 60 89 57 90
REMARK H PARENT 14 14 85 27 77 52 51 63
REMARK Flexibility Score: inf
ROOT
ATOM      1  C   UNL     1      -1.249  -5.214   5.674  1.00  0.00     0.261 C 
ENDROOT
BRANCH   1   2
ATOM      2  O   UNL     1      -0.711  -4.520   4.538  1.00  0.00    -0.460 OA
BRANCH   2   3
ATOM      3  C   UNL     1      -0.102  -3.344   4.805  1.00  0.00     0.341 C 
ATOM      4  O   UNL     1      -0.063  -2.776   5.887  1.00  0.00    -0.246 OA
BRANCH   3   5
ATOM      5  C   UNL     1       0.696  -2.870   3.650  1.00  0.00     0.101 A 
ATOM      6  C   UNL     1       2.217  -1.643   1.633  1.00  0.00     0.045 A 
ATOM      7  C   UNL     1       2.677  -1.645   2.953  1.00  0.00     0.027 A 
ATOM      8  C   UNL     1       1.057  -2.353   1.311  1.00  0.00     0.073 A 
ATOM      9  C   UNL     1       1.911  -2.238   3.957  1.00  0.00     0.022 A 
ATOM     10  C   UNL     1       0.299  -2.968   2.315  1.00  0.00     0.132 A 
BRANCH   6  11
ATOM     11  N   UNL     1       2.902  -0.808   0.729  1.00  0.00    -0.323 N 
ATOM     12  O   UNL     1       1.413  -0.716  -1.066  1.00  0.00    -0.271 OA
ATOM     13  C   UNL     1       2.401  -0.309  -0.464  1.00  0.00     0.262 C 
ATOM     14  H   UNL     1       3.823  -0.556   0.965  1.00  0.00     0.170 HD
BRANCH  13  15
ATOM     15  C   UNL     1       3.189   0.904  -0.974  1.00  0.00     0.329 C 
BRANCH  15  16
ATOM     16  O   UNL     1       4.037   1.534  -0.013  1.00  0.00    -0.484 OA
BRANCH  16  17
ATOM     17  C   UNL     1       3.450   2.545   0.702  1.00  0.00     0.120 A 
ATOM     18  C   UNL     1       4.123   3.768   0.722  1.00  0.00     0.053 A 
ATOM     19  C   UNL     1       2.322   2.358   1.506  1.00  0.00     0.053 A 
ATOM     20  C   UNL     1       3.677   4.809   1.543  1.00  0.00     0.089 A 
ATOM     21  C   UNL     1       1.878   3.385   2.346  1.00  0.00     0.089 A 
ATOM     22  C   UNL     1       2.564   4.605   2.369  1.00  0.00     0.269 A 
BRANCH  22  23
ATOM     23  N   UNL     1       2.133   5.664   3.291  1.00  0.00     0.062 N 
ATOM     24  O   UNL     1       2.734   6.747   3.246  1.00  0.00    -0.258 OA
ATOM     25  O   UNL     1       1.201   5.408   4.067  1.00  0.00    -0.258 OA
ENDBRANCH  22  23
ENDBRANCH  16  17
ENDBRANCH  15  16
ENDBRANCH  13  15
ENDBRANCH   6  11
BRANCH  10  26
ATOM     26  O   UNL     1      -0.855  -3.613   1.968  1.00  0.00    -0.507 OA
ATOM     27  H   UNL     1      -1.375  -4.030   2.627  1.00  0.00     0.293 HD
ENDBRANCH  10  26
ENDBRANCH   3   5
ENDBRANCH   2   3
ENDBRANCH   1   2
BRANCH   1  28
ATOM     28  C   UNL     1      -0.588  -6.586   5.811  1.00  0.00     0.202 C 
BRANCH  28  29
ATOM     29  O   UNL     1       0.794  -6.569   6.176  1.00  0.00    -0.374 OA
BRANCH  29  30
ATOM     30  C   UNL     1       1.735  -6.292   5.138  1.00  0.00     0.202 C 
BRANCH  30  31
ATOM     31  C   UNL     1       2.104  -7.477   4.239  1.00  0.00     0.261 C 
BRANCH  31  32
ATOM     32  O   UNL     1       1.003  -7.887   3.408  1.00  0.00    -0.460 OA
BRANCH  32  33
ATOM     33  C   UNL     1       0.436  -9.065   3.752  1.00  0.00     0.338 C 
ATOM     34  O   UNL     1       0.804  -9.841   4.624  1.00  0.00    -0.246 OA
BRANCH  33  35
ATOM     35  C   UNL     1      -0.832  -9.246   3.023  1.00  0.00     0.060 A 
ATOM     36  C   UNL     1      -1.972  -9.567   3.772  1.00  0.00     0.016 A 
ATOM     37  C   UNL     1      -0.894  -9.179   1.629  1.00  0.00     0.016 A 
ATOM     38  C   UNL     1      -3.169  -9.872   3.127  1.00  0.00     0.010 A 
ATOM     39  C   UNL     1      -2.093  -9.494   0.983  1.00  0.00     0.010 A 
ATOM     40  C   UNL     1      -3.224  -9.876   1.727  1.00  0.00    -0.014 A 
BRANCH  40  41
ATOM     41  C   UNL     1      -4.416 -10.425   1.038  1.00  0.00     0.031 A 
ATOM     42  C   UNL     1      -4.371 -11.837   0.523  1.00  0.00     0.074 A 
ATOM     43  C   UNL     1      -5.527  -9.684   0.883  1.00  0.00     0.049 A 
ATOM     44  N   UNL     1      -5.264 -12.499  -0.167  1.00  0.00    -0.248 NA
ATOM     45  C   UNL     1      -3.152 -12.604   0.825  1.00  0.00     0.031 C 
ATOM     46  C   UNL     1      -5.709  -8.320   1.375  1.00  0.00     0.029 A 
ATOM     47  N   UNL     1      -6.710  -9.978   0.253  1.00  0.00    -0.354 N 
ATOM     48  C   UNL     1      -4.712 -13.754  -0.391  1.00  0.00     0.074 A 
ATOM     49  C   UNL     1      -3.398 -13.754   0.214  1.00  0.00     0.031 C 
ATOM     50  C   UNL     1      -6.930  -7.888   1.014  1.00  0.00     0.029 A 
ATOM     51  C   UNL     1      -7.599  -8.932   0.240  1.00  0.00     0.049 A 
ATOM     52  H   UNL     1      -6.904 -10.855  -0.150  1.00  0.00     0.167 HD
ATOM     53  C   UNL     1      -5.255 -14.813  -1.036  1.00  0.00     0.037 A 
ATOM     54  C   UNL     1      -8.804  -8.823  -0.353  1.00  0.00     0.037 A 
ATOM     55  C   UNL     1      -6.565 -14.813  -1.633  1.00  0.00     0.049 A 
ATOM     56  C   UNL     1      -9.358  -9.990  -1.125  1.00  0.00     0.074 A 
ATOM     57  C   UNL     1      -7.211 -15.843  -2.293  1.00  0.00     0.029 A 
ATOM     58  N   UNL     1      -7.425 -13.726  -1.645  1.00  0.00    -0.354 N 
ATOM     59  N   UNL     1      -8.837 -11.178  -1.316  1.00  0.00    -0.248 NA
ATOM     60  C   UNL     1     -10.668  -9.802  -1.765  1.00  0.00     0.031 C 
ATOM     61  C   UNL     1      -8.446 -15.365  -2.744  1.00  0.00     0.029 A 
ATOM     62  C   UNL     1      -8.588 -14.053  -2.322  1.00  0.00     0.049 A 
ATOM     63  H   UNL     1      -7.237 -12.852  -1.233  1.00  0.00     0.167 HD
ATOM     64  C   UNL     1      -9.767 -11.887  -2.069  1.00  0.00     0.074 A 
ATOM     65  C   UNL     1     -10.886 -10.997  -2.295  1.00  0.00     0.031 C 
ATOM     66  C   UNL     1      -9.700 -13.160  -2.527  1.00  0.00     0.037 A 
BRANCH  53  67
ATOM     67  C   UNL     1      -4.421 -16.053  -1.152  1.00  0.00     0.057 A 
ATOM     68  C   UNL     1      -4.175 -16.885  -0.052  1.00  0.00     0.134 A 
ATOM     69  C   UNL     1      -3.881 -16.436  -2.386  1.00  0.00     0.134 A 
ATOM     70  F   UNL     1      -4.651 -16.567   1.161  1.00  0.00    -0.206 F 
ATOM     71  C   UNL     1      -3.404 -18.043  -0.172  1.00  0.00     0.040 A 
ATOM     72  C   UNL     1      -3.129 -17.604  -2.524  1.00  0.00     0.040 A 
ATOM     73  F   UNL     1      -4.082 -15.685  -3.480  1.00  0.00    -0.206 F 
ATOM     74  C   UNL     1      -2.884 -18.408  -1.413  1.00  0.00     0.006 A 
ENDBRANCH  53  67
BRANCH  54  75
ATOM     75  C   UNL     1      -9.566  -7.553  -0.255  1.00  0.00     0.057 A 
ATOM     76  C   UNL     1     -10.746  -7.472   0.492  1.00  0.00     0.134 A 
ATOM     77  C   UNL     1      -9.144  -6.397  -0.922  1.00  0.00     0.134 A 
ATOM     78  F   UNL     1     -11.215  -8.553   1.133  1.00  0.00    -0.206 F 
ATOM     79  C   UNL     1     -11.488  -6.291   0.561  1.00  0.00     0.040 A 
ATOM     80  C   UNL     1      -9.862  -5.203  -0.843  1.00  0.00     0.040 A 
ATOM     81  F   UNL     1      -8.021  -6.410  -1.656  1.00  0.00    -0.206 F 
ATOM     82  C   UNL     1     -11.042  -5.150  -0.104  1.00  0.00     0.006 A 
ENDBRANCH  54  75
BRANCH  66  83
ATOM     83  C   UNL     1     -10.885 -13.687  -3.283  1.00  0.00     0.057 A 
ATOM     84  C   UNL     1     -11.163 -13.288  -4.595  1.00  0.00     0.134 A 
ATOM     85  C   UNL     1     -11.725 -14.647  -2.705  1.00  0.00     0.134 A 
ATOM     86  F   UNL     1     -10.403 -12.363  -5.201  1.00  0.00    -0.206 F 
ATOM     87  C   UNL     1     -12.245 -13.815  -5.302  1.00  0.00     0.040 A 
ATOM     88  C   UNL     1     -12.796 -15.199  -3.410  1.00  0.00     0.040 A 
ATOM     89  F   UNL     1     -11.508 -15.079  -1.454  1.00  0.00    -0.206 F 
ATOM     90  C   UNL     1     -13.061 -14.779  -4.712  1.00  0.00     0.006 A 
ENDBRANCH  66  83
ENDBRANCH  40  41
ENDBRANCH  33  35
ENDBRANCH  32  33
ENDBRANCH  31  32
ENDBRANCH  30  31
ENDBRANCH  29  30
ENDBRANCH  28  29
ENDBRANCH   1  28
TORSDOF 20
