REMARK SMILES O=C(OCCOCCOC(=O)[C@H](Cc1ccc(O)cc1)NC(=O)c1ccc(Cl)s1)c1ccc(-c2c3nc(c(-c4c(F)cccc4F)c4ccc([nH]4)c(-c4c(F)cccc4F)c4nc(c(-c5c(F)cccc5F)c5ccc2[nH]5)C=C4)C=C3)cc1
REMARK SMILES IDX 7 1 6 2 5 3 4 4 3 5 2 6 1 7 30 8 31 9 83 10 32 11 82 12
REMARK SMILES IDX 33 13 34 14 35 15 76 16 36 17 81 18 75 19 77 20 37 21 80 22
REMARK SMILES IDX 74 23 73 24 38 26 64 27 47 28 63 29 48 30 51 31 62 32 78 33
REMARK SMILES IDX 49 34 50 35 61 37 79 38 52 39 39 40 40 41 45 42 41 43 42 44
REMARK SMILES IDX 44 45 46 46 43 47 65 48 66 49 71 50 67 51 68 52 70 53 72 54
REMARK SMILES IDX 69 55 53 56 54 57 59 58 55 59 56 60 58 61 60 62 57 63 8 64
REMARK SMILES IDX 9 65 10 66 11 67 12 68 21 69 22 70 23 72 24 73 25 74 29 75
REMARK SMILES IDX 26 76 27 77 28 78 13 79 14 80 15 81 20 82 16 83 19 84 17 85
REMARK SMILES IDX 18 86
REMARK H PARENT 77 25 51 36 21 71 18 87
REMARK Flexibility Score: inf
ROOT
ATOM      1  C   UNL     1       4.875  -4.029   3.492  1.00  0.00     0.202 C 
ENDROOT
BRANCH   1   2
ATOM      2  O   UNL     1       4.813  -2.766   2.822  1.00  0.00    -0.374 OA
BRANCH   2   3
ATOM      3  C   UNL     1       5.940  -2.420   2.015  1.00  0.00     0.202 C 
BRANCH   3   4
ATOM      4  C   UNL     1       6.957  -1.519   2.711  1.00  0.00     0.261 C 
BRANCH   4   5
ATOM      5  O   UNL     1       7.497  -2.198   3.854  1.00  0.00    -0.460 OA
BRANCH   5   6
ATOM      6  C   UNL     1       7.041  -2.165   5.126  1.00  0.00     0.338 C 
ATOM      7  O   UNL     1       7.501  -2.966   5.938  1.00  0.00    -0.246 OA
BRANCH   6   8
ATOM      8  C   UNL     1       6.055  -1.160   5.623  1.00  0.00     0.060 A 
ATOM      9  C   UNL     1       4.977  -0.648   4.894  1.00  0.00     0.016 A 
ATOM     10  C   UNL     1       6.184  -0.777   6.968  1.00  0.00     0.016 A 
ATOM     11  C   UNL     1       4.078   0.246   5.455  1.00  0.00     0.010 A 
ATOM     12  C   UNL     1       5.277   0.109   7.548  1.00  0.00     0.010 A 
ATOM     13  C   UNL     1       4.231   0.630   6.781  1.00  0.00    -0.014 A 
BRANCH  13  14
ATOM     14  C   UNL     1       3.346   1.672   7.312  1.00  0.00     0.031 A 
ATOM     15  C   UNL     1       3.862   3.071   7.360  1.00  0.00     0.074 A 
ATOM     16  C   UNL     1       2.090   1.361   7.664  1.00  0.00     0.049 A 
ATOM     17  N   UNL     1       3.328   4.131   7.898  1.00  0.00    -0.248 NA
ATOM     18  C   UNL     1       5.158   3.309   6.701  1.00  0.00     0.031 C 
ATOM     19  C   UNL     1       1.478   0.038   7.521  1.00  0.00     0.029 A 
ATOM     20  N   UNL     1       1.105   2.133   8.212  1.00  0.00    -0.354 N 
ATOM     21  C   UNL     1       4.238   5.154   7.679  1.00  0.00     0.074 A 
ATOM     22  C   UNL     1       5.351   4.595   6.945  1.00  0.00     0.031 C 
ATOM     23  C   UNL     1       0.220   0.089   7.987  1.00  0.00     0.029 A 
ATOM     24  C   UNL     1      -0.031   1.426   8.516  1.00  0.00     0.049 A 
ATOM     25  H   UNL     1       1.200   3.100   8.373  1.00  0.00     0.167 HD
ATOM     26  C   UNL     1       4.151   6.440   8.085  1.00  0.00     0.037 A 
ATOM     27  C   UNL     1      -1.124   1.815   9.196  1.00  0.00     0.037 A 
ATOM     28  C   UNL     1       3.035   6.950   8.832  1.00  0.00     0.049 A 
ATOM     29  C   UNL     1      -1.170   3.227   9.709  1.00  0.00     0.074 A 
ATOM     30  C   UNL     1       2.849   8.209   9.368  1.00  0.00     0.029 A 
ATOM     31  N   UNL     1       1.907   6.202   9.152  1.00  0.00    -0.354 N 
ATOM     32  N   UNL     1      -0.279   4.181   9.570  1.00  0.00    -0.248 NA
ATOM     33  C   UNL     1      -2.353   3.615  10.485  1.00  0.00     0.031 C 
ATOM     34  C   UNL     1       1.621   8.211  10.042  1.00  0.00     0.029 A 
ATOM     35  C   UNL     1       1.025   6.967   9.890  1.00  0.00     0.049 A 
ATOM     36  H   UNL     1       1.759   5.264   8.890  1.00  0.00     0.167 HD
ATOM     37  C   UNL     1      -0.793   5.287  10.229  1.00  0.00     0.074 A 
ATOM     38  C   UNL     1      -2.083   4.885  10.761  1.00  0.00     0.031 C 
ATOM     39  C   UNL     1      -0.254   6.521  10.387  1.00  0.00     0.037 A 
BRANCH  26  40
ATOM     40  C   UNL     1       5.333   7.314   7.801  1.00  0.00     0.057 A 
ATOM     41  C   UNL     1       5.636   7.768   6.511  1.00  0.00     0.134 A 
ATOM     42  C   UNL     1       6.230   7.639   8.827  1.00  0.00     0.134 A 
ATOM     43  F   UNL     1       4.837   7.459   5.478  1.00  0.00    -0.206 F 
ATOM     44  C   UNL     1       6.805   8.484   6.245  1.00  0.00     0.040 A 
ATOM     45  C   UNL     1       7.391   8.372   8.577  1.00  0.00     0.040 A 
ATOM     46  F   UNL     1       6.006   7.225  10.083  1.00  0.00    -0.206 F 
ATOM     47  C   UNL     1       7.687   8.787   7.281  1.00  0.00     0.006 A 
ENDBRANCH  26  40
BRANCH  27  48
ATOM     48  C   UNL     1      -2.208   0.838   9.465  1.00  0.00     0.057 A 
ATOM     49  C   UNL     1      -3.450   0.934   8.832  1.00  0.00     0.134 A 
ATOM     50  C   UNL     1      -2.005  -0.252  10.324  1.00  0.00     0.134 A 
ATOM     51  F   UNL     1      -3.711   1.961   8.010  1.00  0.00    -0.206 F 
ATOM     52  C   UNL     1      -4.452  -0.018   9.039  1.00  0.00     0.040 A 
ATOM     53  C   UNL     1      -2.988  -1.222  10.523  1.00  0.00     0.040 A 
ATOM     54  F   UNL     1      -0.833  -0.405  10.957  1.00  0.00    -0.206 F 
ATOM     55  C   UNL     1      -4.218  -1.106   9.879  1.00  0.00     0.006 A 
ENDBRANCH  27  48
BRANCH  39  56
ATOM     56  C   UNL     1      -1.071   7.526  11.135  1.00  0.00     0.057 A 
ATOM     57  C   UNL     1      -1.141   7.519  12.532  1.00  0.00     0.134 A 
ATOM     58  C   UNL     1      -1.719   8.560  10.450  1.00  0.00     0.134 A 
ATOM     59  F   UNL     1      -0.547   6.546  13.238  1.00  0.00    -0.206 F 
ATOM     60  C   UNL     1      -1.835   8.510  13.225  1.00  0.00     0.040 A 
ATOM     61  C   UNL     1      -2.400   9.566  11.133  1.00  0.00     0.040 A 
ATOM     62  F   UNL     1      -1.677   8.620   9.110  1.00  0.00    -0.206 F 
ATOM     63  C   UNL     1      -2.458   9.543  12.525  1.00  0.00     0.006 A 
ENDBRANCH  39  56
ENDBRANCH  13  14
ENDBRANCH   6   8
ENDBRANCH   5   6
ENDBRANCH   4   5
ENDBRANCH   3   4
ENDBRANCH   2   3
ENDBRANCH   1   2
BRANCH   1  64
ATOM     64  C   UNL     1       3.784  -4.956   2.949  1.00  0.00     0.261 C 
BRANCH  64  65
ATOM     65  O   UNL     1       4.023  -5.186   1.550  1.00  0.00    -0.462 OA
BRANCH  65  66
ATOM     66  C   UNL     1       3.491  -4.246   0.706  1.00  0.00     0.329 C 
ATOM     67  O   UNL     1       2.596  -3.466   0.998  1.00  0.00    -0.250 OA
BRANCH  66  68
ATOM     68  C   UNL     1       4.337  -4.192  -0.576  1.00  0.00     0.197 C 
BRANCH  68  69
ATOM     69  N   UNL     1       4.352  -5.519  -1.196  1.00  0.00    -0.338 N 
ATOM     70  C   UNL     1       5.361  -6.447  -1.287  1.00  0.00     0.262 C 
ATOM     71  H   UNL     1       3.503  -5.790  -1.615  1.00  0.00     0.164 HD
ATOM     72  O   UNL     1       5.074  -7.531  -1.792  1.00  0.00    -0.268 OA
BRANCH  70  73
ATOM     73  C   UNL     1       6.700  -6.108  -0.847  1.00  0.00     0.093 A 
ATOM     74  C   UNL     1       7.176  -5.747   0.402  1.00  0.00     0.027 A 
ATOM     75  S   UNL     1       7.982  -6.228  -1.985  1.00  0.00    -0.118 S 
ATOM     76  C   UNL     1       8.582  -5.489   0.399  1.00  0.00     0.033 A 
ATOM     77  C   UNL     1       9.120  -5.730  -0.838  1.00  0.00     0.094 A 
ATOM     78  Cl  UNL     1      10.772  -5.586  -1.282  1.00  0.00    -0.072 Cl
ENDBRANCH  70  73
ENDBRANCH  68  69
BRANCH  68  79
ATOM     79  C   UNL     1       3.890  -3.075  -1.541  1.00  0.00     0.072 C 
BRANCH  79  80
ATOM     80  C   UNL     1       4.979  -2.030  -1.726  1.00  0.00    -0.045 A 
ATOM     81  C   UNL     1       4.828  -0.728  -1.222  1.00  0.00     0.007 A 
ATOM     82  C   UNL     1       6.177  -2.370  -2.372  1.00  0.00     0.007 A 
ATOM     83  C   UNL     1       5.861   0.209  -1.347  1.00  0.00     0.046 A 
ATOM     84  C   UNL     1       7.209  -1.438  -2.490  1.00  0.00     0.046 A 
ATOM     85  C   UNL     1       7.044  -0.157  -1.979  1.00  0.00     0.115 A 
BRANCH  85  86
ATOM     86  O   UNL     1       8.079   0.719  -2.119  1.00  0.00    -0.508 OA
ATOM     87  H   UNL     1       8.003   1.591  -1.786  1.00  0.00     0.293 HD
ENDBRANCH  85  86
ENDBRANCH  79  80
ENDBRANCH  68  79
ENDBRANCH  66  68
ENDBRANCH  65  66
ENDBRANCH  64  65
ENDBRANCH   1  64
TORSDOF 19
