REMARK SMILES C[C@]1(C(=O)N2CCC(CC(=O)OCCOCCOC(=O)c3ccc(-c4c5nc(c(-c6c(F)cccc6F)c6ccc([nH]6)c(-c6c(F)cccc6F)c6nc(c(-c7c(F)cccc7F)c7ccc4[nH]7)C=C6)C=C5)cc3)CC2)CCC[NH2+]1
REMARK SMILES IDX 15 1 14 2 13 3 12 4 10 5 11 6 9 7 8 8 3 9 4 10 5 11 6 12
REMARK SMILES IDX 76 13 7 14 75 15 2 16 1 17 77 18 80 19 78 20 79 21 16 24
REMARK SMILES IDX 17 25 18 26 19 27 20 28 21 29 22 30 74 31 23 32 73 33 24 34
REMARK SMILES IDX 25 35 26 36 67 37 27 38 72 39 66 40 68 41 28 42 71 43 65 44
REMARK SMILES IDX 64 45 29 47 55 48 38 49 54 50 39 51 42 52 53 53 69 54 40 55
REMARK SMILES IDX 41 56 52 58 70 59 43 60 30 61 31 62 36 63 32 64 33 65 35 66
REMARK SMILES IDX 37 67 34 68 56 69 57 70 62 71 58 72 59 73 61 74 63 75 60 76
REMARK SMILES IDX 44 77 45 78 50 79 46 80 47 81 49 82 51 83 48 84
REMARK H PARENT 80 22 80 23 68 46 42 57
REMARK Flexibility Score: inf
ROOT
ATOM      1  O   UNL     1       5.301   6.613  -2.799  1.00  0.00    -0.374 OA
ENDROOT
BRANCH   1   2
ATOM      2  C   UNL     1       4.130   6.497  -3.607  1.00  0.00     0.202 C 
BRANCH   2   3
ATOM      3  C   UNL     1       4.117   5.316  -4.581  1.00  0.00     0.261 C 
BRANCH   3   4
ATOM      4  O   UNL     1       3.889   4.079  -3.878  1.00  0.00    -0.463 OA
BRANCH   4   5
ATOM      5  C   UNL     1       4.866   3.142  -3.949  1.00  0.00     0.306 C 
ATOM      6  O   UNL     1       5.886   3.245  -4.620  1.00  0.00    -0.252 OA
BRANCH   5   7
ATOM      7  C   UNL     1       4.543   1.894  -3.150  1.00  0.00     0.126 C 
BRANCH   7   8
ATOM      8  C   UNL     1       3.866   2.059  -1.772  1.00  0.00     0.003 C 
ATOM      9  C   UNL     1       0.822   0.192   0.007  1.00  0.00     0.283 C 
ATOM     10  O   UNL     1       0.094   0.156  -0.991  1.00  0.00    -0.268 OA
ATOM     11  N   UNL     1       1.847   1.122   0.100  1.00  0.00    -0.337 N 
ATOM     12  C   UNL     1       1.678   2.406  -0.548  1.00  0.00     0.120 C 
ATOM     13  C   UNL     1       3.226   0.726   0.344  1.00  0.00     0.120 C 
ATOM     14  C   UNL     1       2.378   2.438  -1.898  1.00  0.00     0.026 C 
ATOM     15  C   UNL     1       4.015   0.739  -0.973  1.00  0.00     0.026 C 
BRANCH   9  16
ATOM     16  C   UNL     1       0.503  -0.696   1.242  1.00  0.00     0.173 C 
ATOM     17  C   UNL     1      -0.972  -0.426   1.599  1.00  0.00     0.090 C 
ATOM     18  C   UNL     1       0.767  -2.172   0.973  1.00  0.00     0.084 C 
ATOM     19  N   UNL     1       1.357  -0.406   2.422  1.00  0.00    -0.334 N 
ATOM     20  C   UNL     1       0.893  -2.761   2.366  1.00  0.00     0.068 C 
ATOM     21  C   UNL     1       1.495  -1.640   3.199  1.00  0.00     0.261 C 
ATOM     22  H   UNL     1       0.921   0.316   2.995  1.00  0.00     0.347 HD
ATOM     23  H   UNL     1       2.274  -0.074   2.122  1.00  0.00     0.347 HD
ENDBRANCH   9  16
ENDBRANCH   7   8
ENDBRANCH   5   7
ENDBRANCH   4   5
ENDBRANCH   3   4
ENDBRANCH   2   3
ENDBRANCH   1   2
BRANCH   1  24
ATOM     24  C   UNL     1       5.405   5.732  -1.683  1.00  0.00     0.202 C 
BRANCH  24  25
ATOM     25  C   UNL     1       4.656   6.175  -0.421  1.00  0.00     0.261 C 
BRANCH  25  26
ATOM     26  O   UNL     1       3.228   6.166  -0.610  1.00  0.00    -0.460 OA
BRANCH  26  27
ATOM     27  C   UNL     1       2.657   7.392  -0.662  1.00  0.00     0.338 C 
ATOM     28  O   UNL     1       3.202   8.473  -0.480  1.00  0.00    -0.246 OA
BRANCH  27  29
ATOM     29  C   UNL     1       1.266   7.287  -1.140  1.00  0.00     0.060 A 
ATOM     30  C   UNL     1       0.881   8.124  -2.196  1.00  0.00     0.016 A 
ATOM     31  C   UNL     1       0.335   6.444  -0.529  1.00  0.00     0.016 A 
ATOM     32  C   UNL     1      -0.447   8.156  -2.615  1.00  0.00     0.010 A 
ATOM     33  C   UNL     1      -1.000   6.483  -0.946  1.00  0.00     0.010 A 
ATOM     34  C   UNL     1      -1.404   7.363  -1.968  1.00  0.00    -0.014 A 
BRANCH  34  35
ATOM     35  C   UNL     1      -2.843   7.558  -2.267  1.00  0.00     0.031 A 
ATOM     36  C   UNL     1      -3.676   8.398  -1.338  1.00  0.00     0.074 A 
ATOM     37  C   UNL     1      -3.400   7.014  -3.363  1.00  0.00     0.049 A 
ATOM     38  N   UNL     1      -4.959   8.656  -1.377  1.00  0.00    -0.248 NA
ATOM     39  C   UNL     1      -2.968   9.031  -0.214  1.00  0.00     0.031 C 
ATOM     40  C   UNL     1      -2.692   6.217  -4.363  1.00  0.00     0.029 A 
ATOM     41  N   UNL     1      -4.697   7.046  -3.812  1.00  0.00    -0.354 N 
ATOM     42  C   UNL     1      -5.212   9.473  -0.282  1.00  0.00     0.074 A 
ATOM     43  C   UNL     1      -3.957   9.647   0.416  1.00  0.00     0.031 C 
ATOM     44  C   UNL     1      -3.569   5.822  -5.303  1.00  0.00     0.029 A 
ATOM     45  C   UNL     1      -4.901   6.310  -4.952  1.00  0.00     0.049 A 
ATOM     46  H   UNL     1      -5.412   7.549  -3.359  1.00  0.00     0.167 HD
ATOM     47  C   UNL     1      -6.384  10.033   0.102  1.00  0.00     0.037 A 
ATOM     48  C   UNL     1      -6.039   6.040  -5.622  1.00  0.00     0.037 A 
ATOM     49  C   UNL     1      -7.632   9.864  -0.594  1.00  0.00     0.049 A 
ATOM     50  C   UNL     1      -7.343   6.612  -5.132  1.00  0.00     0.074 A 
ATOM     51  C   UNL     1      -8.868  10.410  -0.293  1.00  0.00     0.029 A 
ATOM     52  N   UNL     1      -7.803   9.085  -1.728  1.00  0.00    -0.354 N 
ATOM     53  N   UNL     1      -7.568   7.400  -4.109  1.00  0.00    -0.248 NA
ATOM     54  C   UNL     1      -8.551   6.256  -5.891  1.00  0.00     0.031 C 
ATOM     55  C   UNL     1      -9.797   9.924  -1.218  1.00  0.00     0.029 A 
ATOM     56  C   UNL     1      -9.130   9.114  -2.123  1.00  0.00     0.049 A 
ATOM     57  H   UNL     1      -7.088   8.585  -2.184  1.00  0.00     0.167 HD
ATOM     58  C   UNL     1      -8.934   7.655  -4.117  1.00  0.00     0.074 A 
ATOM     59  C   UNL     1      -9.486   6.945  -5.251  1.00  0.00     0.031 C 
ATOM     60  C   UNL     1      -9.665   8.411  -3.261  1.00  0.00     0.037 A 
BRANCH  47  61
ATOM     61  C   UNL     1      -6.375  10.865   1.350  1.00  0.00     0.057 A 
ATOM     62  C   UNL     1      -5.794  12.139   1.386  1.00  0.00     0.134 A 
ATOM     63  C   UNL     1      -6.988  10.399   2.520  1.00  0.00     0.134 A 
ATOM     64  F   UNL     1      -5.179  12.636   0.303  1.00  0.00    -0.206 F 
ATOM     65  C   UNL     1      -5.806  12.912   2.549  1.00  0.00     0.040 A 
ATOM     66  C   UNL     1      -7.027  11.172   3.681  1.00  0.00     0.040 A 
ATOM     67  F   UNL     1      -7.566   9.189   2.551  1.00  0.00    -0.206 F 
ATOM     68  C   UNL     1      -6.430  12.431   3.698  1.00  0.00     0.006 A 
ENDBRANCH  47  61
BRANCH  48  69
ATOM     69  C   UNL     1      -6.004   5.165  -6.820  1.00  0.00     0.057 A 
ATOM     70  C   UNL     1      -6.244   5.677  -8.100  1.00  0.00     0.134 A 
ATOM     71  C   UNL     1      -5.750   3.792  -6.711  1.00  0.00     0.134 A 
ATOM     72  F   UNL     1      -6.519   6.979  -8.266  1.00  0.00    -0.206 F 
ATOM     73  C   UNL     1      -6.247   4.854  -9.227  1.00  0.00     0.040 A 
ATOM     74  C   UNL     1      -5.726   2.962  -7.832  1.00  0.00     0.040 A 
ATOM     75  F   UNL     1      -5.516   3.241  -5.511  1.00  0.00    -0.206 F 
ATOM     76  C   UNL     1      -5.982   3.492  -9.095  1.00  0.00     0.006 A 
ENDBRANCH  48  69
BRANCH  60  77
ATOM     77  C   UNL     1     -11.134   8.544  -3.537  1.00  0.00     0.057 A 
ATOM     78  C   UNL     1     -12.030   7.498  -3.290  1.00  0.00     0.134 A 
ATOM     79  C   UNL     1     -11.663   9.755  -4.004  1.00  0.00     0.134 A 
ATOM     80  F   UNL     1     -11.585   6.310  -2.854  1.00  0.00    -0.206 F 
ATOM     81  C   UNL     1     -13.401   7.645  -3.513  1.00  0.00     0.040 A 
ATOM     82  C   UNL     1     -13.034   9.922  -4.208  1.00  0.00     0.040 A 
ATOM     83  F   UNL     1     -10.859  10.800  -4.251  1.00  0.00    -0.206 F 
ATOM     84  C   UNL     1     -13.906   8.863  -3.966  1.00  0.00     0.006 A 
ENDBRANCH  60  77
ENDBRANCH  34  35
ENDBRANCH  27  29
ENDBRANCH  26  27
ENDBRANCH  25  26
ENDBRANCH  24  25
ENDBRANCH   1  24
TORSDOF 16
