REMARK SMILES COc1cc2c(CC(=O)OCCOCCOC(=O)c3ccc(-c4c5nc(c(-c6c(F)cccc6F)c6ccc([nH]6)c(-c6c(F)cccc6F)c6nc(c(-c7c(F)cccc7F)c7ccc4[nH]7)C=C6)C=C5)cc3)c(C)n(C(=O)c3ccc(Cl)cc3)c2cc1Cl
REMARK SMILES IDX 12 1 11 2 10 3 8 4 9 5 7 6 6 7 3 8 4 9 87 10 5 11 86 12
REMARK SMILES IDX 88 13 85 14 73 15 75 16 74 17 2 18 1 19 76 20 77 21 78 22
REMARK SMILES IDX 79 23 84 24 80 25 83 26 81 27 82 28 13 29 14 30 15 31 16 32
REMARK SMILES IDX 17 33 18 34 19 35 20 36 72 37 21 38 71 39 22 40 23 41 24 42
REMARK SMILES IDX 65 43 25 44 70 45 64 46 66 47 26 48 69 49 63 50 62 51 27 53
REMARK SMILES IDX 53 54 36 55 52 56 37 57 40 58 51 59 67 60 38 61 39 62 50 64
REMARK SMILES IDX 68 65 41 66 28 67 29 68 34 69 30 70 31 71 33 72 35 73 32 74
REMARK SMILES IDX 54 75 55 76 60 77 56 78 57 79 59 80 61 81 58 82 42 83 43 84
REMARK SMILES IDX 48 85 44 86 45 87 47 88 49 89 46 90
REMARK H PARENT 66 52 40 63
REMARK Flexibility Score: inf
ROOT
ATOM      1  C   UNL     1      -2.460   6.325   0.565  1.00  0.00     0.202 C 
ENDROOT
BRANCH   1   2
ATOM      2  C   UNL     1      -2.454   6.776   2.036  1.00  0.00     0.261 C 
BRANCH   2   3
ATOM      3  O   UNL     1      -1.729   5.919   2.938  1.00  0.00    -0.463 OA
BRANCH   3   4
ATOM      4  C   UNL     1      -2.514   5.227   3.804  1.00  0.00     0.310 C 
ATOM      5  O   UNL     1      -3.734   5.364   3.879  1.00  0.00    -0.252 OA
BRANCH   4   6
ATOM      6  C   UNL     1      -1.813   4.229   4.696  1.00  0.00     0.160 C 
BRANCH   6   7
ATOM      7  C   UNL     1      -0.333   3.966   4.560  1.00  0.00    -0.008 A 
ATOM      8  C   UNL     1       0.633   1.239   2.010  1.00  0.00     0.138 A 
ATOM      9  C   UNL     1      -0.217   2.027   2.812  1.00  0.00     0.058 A 
ATOM     10  C   UNL     1       1.992   1.253   2.291  1.00  0.00     0.085 A 
ATOM     11  C   UNL     1       0.280   2.964   3.751  1.00  0.00     0.008 A 
ATOM     12  C   UNL     1       2.483   2.059   3.331  1.00  0.00     0.051 A 
ATOM     13  Cl  UNL     1       3.214   0.382   1.431  1.00  0.00    -0.080 Cl
ATOM     14  C   UNL     1       1.651   2.975   4.012  1.00  0.00     0.058 A 
ATOM     15  C   UNL     1       0.680   4.555   5.313  1.00  0.00     0.028 A 
ATOM     16  N   UNL     1       1.913   3.960   4.986  1.00  0.00    -0.280 N 
ATOM     17  C   UNL     1       0.480   5.633   6.335  1.00  0.00     0.065 C 
BRANCH   8  18
ATOM     18  O   UNL     1      -0.060   0.634   0.999  1.00  0.00    -0.495 OA
ATOM     19  C   UNL     1       0.557  -0.344   0.179  1.00  0.00     0.278 C 
ENDBRANCH   8  18
BRANCH  16  20
ATOM     20  C   UNL     1       3.195   4.268   5.543  1.00  0.00     0.262 C 
ATOM     21  O   UNL     1       3.280   5.086   6.456  1.00  0.00    -0.268 OA
BRANCH  20  22
ATOM     22  C   UNL     1       4.467   3.643   5.142  1.00  0.00     0.040 A 
ATOM     23  C   UNL     1       5.050   3.950   3.906  1.00  0.00     0.015 A 
ATOM     24  C   UNL     1       5.041   2.688   5.989  1.00  0.00     0.015 A 
ATOM     25  C   UNL     1       6.160   3.219   3.476  1.00  0.00     0.021 A 
ATOM     26  C   UNL     1       6.159   1.971   5.558  1.00  0.00     0.021 A 
ATOM     27  C   UNL     1       6.699   2.223   4.295  1.00  0.00     0.041 A 
ATOM     28  Cl  UNL     1       8.018   1.274   3.729  1.00  0.00    -0.084 Cl
ENDBRANCH  20  22
ENDBRANCH  16  20
ENDBRANCH   6   7
ENDBRANCH   4   6
ENDBRANCH   3   4
ENDBRANCH   2   3
ENDBRANCH   1   2
BRANCH   1  29
ATOM     29  O   UNL     1      -2.594   4.952   0.227  1.00  0.00    -0.374 OA
BRANCH  29  30
ATOM     30  C   UNL     1      -1.569   4.063   0.664  1.00  0.00     0.202 C 
BRANCH  30  31
ATOM     31  C   UNL     1      -0.117   4.262   0.184  1.00  0.00     0.261 C 
BRANCH  31  32
ATOM     32  O   UNL     1       0.385   5.569   0.455  1.00  0.00    -0.460 OA
BRANCH  32  33
ATOM     33  C   UNL     1       1.130   6.102  -0.558  1.00  0.00     0.338 C 
ATOM     34  O   UNL     1       1.735   5.528  -1.425  1.00  0.00    -0.246 OA
BRANCH  33  35
ATOM     35  C   UNL     1       0.672   7.504  -0.615  1.00  0.00     0.060 A 
ATOM     36  C   UNL     1       0.649   8.275   0.549  1.00  0.00     0.016 A 
ATOM     37  C   UNL     1      -0.087   7.847  -1.746  1.00  0.00     0.016 A 
ATOM     38  C   UNL     1      -0.235   9.340   0.612  1.00  0.00     0.010 A 
ATOM     39  C   UNL     1      -0.989   8.899  -1.666  1.00  0.00     0.010 A 
ATOM     40  C   UNL     1      -1.093   9.613  -0.472  1.00  0.00    -0.014 A 
BRANCH  40  41
ATOM     41  C   UNL     1      -1.879  10.842  -0.404  1.00  0.00     0.031 A 
ATOM     42  C   UNL     1      -0.981  12.027  -0.407  1.00  0.00     0.074 A 
ATOM     43  C   UNL     1      -3.220  10.973  -0.456  1.00  0.00     0.049 A 
ATOM     44  N   UNL     1      -0.745  12.834   0.572  1.00  0.00    -0.248 NA
ATOM     45  C   UNL     1      -0.079  12.192  -1.560  1.00  0.00     0.031 C 
ATOM     46  C   UNL     1      -4.240   9.962  -0.731  1.00  0.00     0.029 A 
ATOM     47  N   UNL     1      -3.960  12.116  -0.338  1.00  0.00    -0.354 N 
ATOM     48  C   UNL     1       0.203  13.732   0.093  1.00  0.00     0.074 A 
ATOM     49  C   UNL     1       0.712  13.175  -1.131  1.00  0.00     0.031 C 
ATOM     50  C   UNL     1      -5.426  10.574  -0.976  1.00  0.00     0.029 A 
ATOM     51  C   UNL     1      -5.282  12.004  -0.756  1.00  0.00     0.049 A 
ATOM     52  H   UNL     1      -3.586  12.955   0.017  1.00  0.00     0.167 HD
ATOM     53  C   UNL     1       0.305  14.984   0.613  1.00  0.00     0.037 A 
ATOM     54  C   UNL     1      -6.160  13.025  -0.954  1.00  0.00     0.037 A 
ATOM     55  C   UNL     1      -0.330  15.061   1.905  1.00  0.00     0.049 A 
ATOM     56  C   UNL     1      -5.644  14.210  -0.226  1.00  0.00     0.074 A 
ATOM     57  C   UNL     1      -0.146  14.441   3.126  1.00  0.00     0.029 A 
ATOM     58  N   UNL     1      -1.577  15.632   1.964  1.00  0.00    -0.354 N 
ATOM     59  N   UNL     1      -5.629  14.312   1.072  1.00  0.00    -0.248 NA
ATOM     60  C   UNL     1      -4.725  15.090  -0.933  1.00  0.00     0.031 C 
ATOM     61  C   UNL     1      -1.460  14.261   3.652  1.00  0.00     0.029 A 
ATOM     62  C   UNL     1      -2.359  14.832   2.753  1.00  0.00     0.049 A 
ATOM     63  H   UNL     1      -1.858  16.464   1.519  1.00  0.00     0.167 HD
ATOM     64  C   UNL     1      -4.411  14.905   1.360  1.00  0.00     0.074 A 
ATOM     65  C   UNL     1      -3.933  15.436   0.085  1.00  0.00     0.031 C 
ATOM     66  C   UNL     1      -3.774  14.654   2.541  1.00  0.00     0.037 A 
BRANCH  53  67
ATOM     67  C   UNL     1       0.571  16.215  -0.224  1.00  0.00     0.057 A 
ATOM     68  C   UNL     1       0.402  16.288  -1.623  1.00  0.00     0.134 A 
ATOM     69  C   UNL     1       0.671  17.458   0.428  1.00  0.00     0.134 A 
ATOM     70  F   UNL     1       0.256  15.209  -2.397  1.00  0.00    -0.206 F 
ATOM     71  C   UNL     1       0.266  17.498  -2.307  1.00  0.00     0.040 A 
ATOM     72  C   UNL     1       0.485  18.672  -0.241  1.00  0.00     0.040 A 
ATOM     73  F   UNL     1       0.850  17.527   1.756  1.00  0.00    -0.206 F 
ATOM     74  C   UNL     1       0.263  18.694  -1.612  1.00  0.00     0.006 A 
ENDBRANCH  53  67
BRANCH  54  75
ATOM     75  C   UNL     1      -7.260  13.164  -1.940  1.00  0.00     0.057 A 
ATOM     76  C   UNL     1      -7.206  12.520  -3.187  1.00  0.00     0.134 A 
ATOM     77  C   UNL     1      -8.237  14.167  -1.812  1.00  0.00     0.134 A 
ATOM     78  F   UNL     1      -6.267  11.599  -3.447  1.00  0.00    -0.206 F 
ATOM     79  C   UNL     1      -8.050  12.867  -4.249  1.00  0.00     0.040 A 
ATOM     80  C   UNL     1      -9.085  14.527  -2.870  1.00  0.00     0.040 A 
ATOM     81  F   UNL     1      -8.344  14.874  -0.678  1.00  0.00    -0.206 F 
ATOM     82  C   UNL     1      -8.984  13.885  -4.099  1.00  0.00     0.006 A 
ENDBRANCH  54  75
BRANCH  66  83
ATOM     83  C   UNL     1      -4.548  13.940   3.611  1.00  0.00     0.057 A 
ATOM     84  C   UNL     1      -4.678  14.553   4.862  1.00  0.00     0.134 A 
ATOM     85  C   UNL     1      -5.067  12.642   3.483  1.00  0.00     0.134 A 
ATOM     86  F   UNL     1      -4.156  15.771   5.075  1.00  0.00    -0.206 F 
ATOM     87  C   UNL     1      -5.312  13.918   5.931  1.00  0.00     0.040 A 
ATOM     88  C   UNL     1      -5.736  12.010   4.535  1.00  0.00     0.040 A 
ATOM     89  F   UNL     1      -4.899  11.934   2.358  1.00  0.00    -0.206 F 
ATOM     90  C   UNL     1      -5.857  12.648   5.766  1.00  0.00     0.006 A 
ENDBRANCH  66  83
ENDBRANCH  40  41
ENDBRANCH  33  35
ENDBRANCH  32  33
ENDBRANCH  31  32
ENDBRANCH  30  31
ENDBRANCH  29  30
ENDBRANCH   1  29
TORSDOF 18
