REMARK SMILES Cc1cc(C)c(NC(=O)C2(C)CCCC2)c(C(=O)OCCOCCOC(=O)c2ccc(-c3c4nc(c(-c5c(F)cccc5F)c5ccc([nH]5)c(-c5c(F)cccc5F)c5nc(c(-c6c(F)cccc6F)c6ccc3[nH]6)C=C5)C=C4)cc2)c1
REMARK SMILES IDX 22 1 21 2 20 3 19 4 17 5 18 6 16 7 1 8 2 9 3 10 82 11 4 12
REMARK SMILES IDX 5 13 6 14 7 15 8 16 9 18 10 19 11 20 12 21 15 22 13 23 14 24
REMARK SMILES IDX 23 25 24 26 25 27 26 28 27 29 28 30 29 31 81 32 30 33 80 34
REMARK SMILES IDX 31 35 32 36 33 37 74 38 34 39 79 40 73 41 75 42 35 43 78 44
REMARK SMILES IDX 72 45 71 46 36 48 62 49 45 50 61 51 46 52 49 53 60 54 76 55
REMARK SMILES IDX 47 56 48 57 59 59 77 60 50 61 37 62 38 63 43 64 39 65 40 66
REMARK SMILES IDX 42 67 44 68 41 69 63 70 64 71 69 72 65 73 66 74 68 75 70 76
REMARK SMILES IDX 67 77 51 78 52 79 57 80 53 81 54 82 56 83 58 84 55 85
REMARK H PARENT 7 17 75 47 49 58
REMARK Flexibility Score: inf
ROOT
ATOM      1  O   UNL     1      -0.990  -5.395   1.149  1.00  0.00    -0.374 OA
ENDROOT
BRANCH   1   2
ATOM      2  C   UNL     1       0.189  -5.822   0.470  1.00  0.00     0.202 C 
BRANCH   2   3
ATOM      3  C   UNL     1       0.473  -5.184  -0.896  1.00  0.00     0.261 C 
BRANCH   3   4
ATOM      4  O   UNL     1       0.761  -3.779  -0.786  1.00  0.00    -0.460 OA
BRANCH   4   5
ATOM      5  C   UNL     1      -0.170  -2.929  -1.293  1.00  0.00     0.340 C 
ATOM      6  O   UNL     1      -1.174  -3.227  -1.924  1.00  0.00    -0.246 OA
BRANCH   5   7
ATOM      7  C   UNL     1       0.084  -1.567  -0.757  1.00  0.00     0.084 A 
ATOM      8  C   UNL     1       3.089   0.693  -0.146  1.00  0.00     0.044 C 
ATOM      9  C   UNL     1       1.703   0.121  -0.117  1.00  0.00    -0.050 A 
ATOM     10  C   UNL     1       0.677   0.803   0.538  1.00  0.00     0.009 A 
ATOM     11  C   UNL     1       1.408  -1.094  -0.730  1.00  0.00     0.021 A 
ATOM     12  C   UNL     1      -0.640   0.299   0.594  1.00  0.00    -0.026 A 
ATOM     13  C   UNL     1      -1.555   0.980   1.570  1.00  0.00     0.046 C 
ATOM     14  C   UNL     1      -0.981  -0.826  -0.178  1.00  0.00     0.058 A 
BRANCH  14  15
ATOM     15  N   UNL     1      -2.310  -1.271  -0.414  1.00  0.00    -0.325 N 
ATOM     16  C   UNL     1      -3.500  -0.666  -0.093  1.00  0.00     0.230 C 
ATOM     17  H   UNL     1      -2.389  -2.138  -0.875  1.00  0.00     0.169 HD
ATOM     18  O   UNL     1      -4.060  -0.943   0.969  1.00  0.00    -0.274 OA
BRANCH  16  19
ATOM     19  C   UNL     1      -4.160   0.251  -1.171  1.00  0.00     0.047 C 
ATOM     20  C   UNL     1      -3.855  -0.230  -2.594  1.00  0.00     0.022 C 
ATOM     21  C   UNL     1      -5.686   0.338  -0.950  1.00  0.00     0.016 C 
ATOM     22  C   UNL     1      -3.783   1.733  -1.016  1.00  0.00     0.016 C 
ATOM     23  C   UNL     1      -5.876   1.350   0.179  1.00  0.00     0.001 C 
ATOM     24  C   UNL     1      -4.660   2.267   0.120  1.00  0.00     0.001 C 
ENDBRANCH  16  19
ENDBRANCH  14  15
ENDBRANCH   5   7
ENDBRANCH   4   5
ENDBRANCH   3   4
ENDBRANCH   2   3
ENDBRANCH   1   2
BRANCH   1  25
ATOM     25  C   UNL     1      -0.942  -4.137   1.822  1.00  0.00     0.202 C 
BRANCH  25  26
ATOM     26  C   UNL     1      -0.229  -4.094   3.180  1.00  0.00     0.261 C 
BRANCH  26  27
ATOM     27  O   UNL     1       1.171  -4.416   3.081  1.00  0.00    -0.460 OA
BRANCH  27  28
ATOM     28  C   UNL     1       1.513  -5.617   3.602  1.00  0.00     0.338 C 
ATOM     29  O   UNL     1       0.788  -6.411   4.186  1.00  0.00    -0.246 OA
BRANCH  28  30
ATOM     30  C   UNL     1       2.899  -5.950   3.232  1.00  0.00     0.060 A 
ATOM     31  C   UNL     1       3.119  -7.159   2.559  1.00  0.00     0.016 A 
ATOM     32  C   UNL     1       3.972  -5.141   3.611  1.00  0.00     0.016 A 
ATOM     33  C   UNL     1       4.419  -7.587   2.302  1.00  0.00     0.010 A 
ATOM     34  C   UNL     1       5.277  -5.575   3.357  1.00  0.00     0.010 A 
ATOM     35  C   UNL     1       5.507  -6.815   2.732  1.00  0.00    -0.014 A 
BRANCH  35  36
ATOM     36  C   UNL     1       6.881  -7.367   2.643  1.00  0.00     0.031 A 
ATOM     37  C   UNL     1       7.531  -7.918   3.881  1.00  0.00     0.074 A 
ATOM     38  C   UNL     1       7.534  -7.394   1.469  1.00  0.00     0.049 A 
ATOM     39  N   UNL     1       8.736  -8.403   4.042  1.00  0.00    -0.248 NA
ATOM     40  C   UNL     1       6.714  -7.918   5.105  1.00  0.00     0.031 C 
ATOM     41  C   UNL     1       6.997  -6.922   0.194  1.00  0.00     0.029 A 
ATOM     42  N   UNL     1       8.798  -7.829   1.163  1.00  0.00    -0.354 N 
ATOM     43  C   UNL     1       8.824  -8.759   5.382  1.00  0.00     0.074 A 
ATOM     44  C   UNL     1       7.565  -8.401   5.998  1.00  0.00     0.031 C 
ATOM     45  C   UNL     1       7.931  -7.083  -0.758  1.00  0.00     0.029 A 
ATOM     46  C   UNL     1       9.142  -7.635  -0.152  1.00  0.00     0.049 A 
ATOM     47  H   UNL     1       9.402  -8.242   1.823  1.00  0.00     0.167 HD
ATOM     48  C   UNL     1       9.857  -9.341   6.037  1.00  0.00     0.037 A 
ATOM     49  C   UNL     1      10.308  -7.856  -0.788  1.00  0.00     0.037 A 
ATOM     50  C   UNL     1      11.111  -9.692   5.420  1.00  0.00     0.049 A 
ATOM     51  C   UNL     1      11.469  -8.436  -0.024  1.00  0.00     0.074 A 
ATOM     52  C   UNL     1      12.214 -10.302   5.993  1.00  0.00     0.029 A 
ATOM     53  N   UNL     1      11.431  -9.455   4.092  1.00  0.00    -0.354 N 
ATOM     54  N   UNL     1      11.535  -8.792   1.236  1.00  0.00    -0.248 NA
ATOM     55  C   UNL     1      12.715  -8.649  -0.773  1.00  0.00     0.031 C 
ATOM     56  C   UNL     1      13.221 -10.381   5.026  1.00  0.00     0.029 A 
ATOM     57  C   UNL     1      12.725  -9.879   3.833  1.00  0.00     0.049 A 
ATOM     58  H   UNL     1      10.828  -9.045   3.430  1.00  0.00     0.167 HD
ATOM     59  C   UNL     1      12.816  -9.296   1.424  1.00  0.00     0.074 A 
ATOM     60  C   UNL     1      13.489  -9.211   0.145  1.00  0.00     0.031 C 
ATOM     61  C   UNL     1      13.383  -9.789   2.554  1.00  0.00     0.037 A 
BRANCH  48  62
ATOM     62  C   UNL     1       9.682  -9.606   7.505  1.00  0.00     0.057 A 
ATOM     63  C   UNL     1       8.800 -10.585   7.984  1.00  0.00     0.134 A 
ATOM     64  C   UNL     1      10.418  -8.883   8.453  1.00  0.00     0.134 A 
ATOM     65  F   UNL     1       8.055 -11.305   7.131  1.00  0.00    -0.206 F 
ATOM     66  C   UNL     1       8.634 -10.812   9.352  1.00  0.00     0.040 A 
ATOM     67  C   UNL     1      10.282  -9.122   9.822  1.00  0.00     0.040 A 
ATOM     68  F   UNL     1      11.284  -7.936   8.065  1.00  0.00    -0.206 F 
ATOM     69  C   UNL     1       9.381 -10.083  10.275  1.00  0.00     0.006 A 
ENDBRANCH  48  62
BRANCH  49  70
ATOM     70  C   UNL     1      10.441  -7.514  -2.227  1.00  0.00     0.057 A 
ATOM     71  C   UNL     1      10.576  -8.509  -3.201  1.00  0.00     0.134 A 
ATOM     72  C   UNL     1      10.438  -6.182  -2.661  1.00  0.00     0.134 A 
ATOM     73  F   UNL     1      10.608  -9.802  -2.846  1.00  0.00    -0.206 F 
ATOM     74  C   UNL     1      10.719  -8.193  -4.553  1.00  0.00     0.040 A 
ATOM     75  C   UNL     1      10.553  -5.853  -4.013  1.00  0.00     0.040 A 
ATOM     76  F   UNL     1      10.309  -5.181  -1.778  1.00  0.00    -0.206 F 
ATOM     77  C   UNL     1      10.701  -6.861  -4.963  1.00  0.00     0.006 A 
ENDBRANCH  49  70
BRANCH  61  78
ATOM     78  C   UNL     1      14.789 -10.309   2.450  1.00  0.00     0.057 A 
ATOM     79  C   UNL     1      15.887  -9.456   2.283  1.00  0.00     0.134 A 
ATOM     80  C   UNL     1      15.049 -11.682   2.561  1.00  0.00     0.134 A 
ATOM     81  F   UNL     1      15.707  -8.132   2.159  1.00  0.00    -0.206 F 
ATOM     82  C   UNL     1      17.190  -9.951   2.205  1.00  0.00     0.040 A 
ATOM     83  C   UNL     1      16.350 -12.185   2.514  1.00  0.00     0.040 A 
ATOM     84  F   UNL     1      14.045 -12.555   2.732  1.00  0.00    -0.206 F 
ATOM     85  C   UNL     1      17.425 -11.319   2.329  1.00  0.00     0.006 A 
ENDBRANCH  61  78
ENDBRANCH  35  36
ENDBRANCH  28  30
ENDBRANCH  27  28
ENDBRANCH  26  27
ENDBRANCH  25  26
ENDBRANCH   1  25
TORSDOF 16
