REMARK SMILES N#C[C@H]1CN(c2cc(C(=O)OCCOCCOC(=O)c3ccc(-c4c5nc(c(-c6c(F)cccc6F)c6ccc([nH]6)c(-c6c(F)cccc6F)c6nc(c(-c7c(F)cccc7F)c7ccc4[nH]7)C=C6)C=C5)cc3)c(N)cc2F)CCO1
REMARK SMILES IDX 14 1 13 2 12 3 11 4 9 5 10 6 8 7 6 8 7 9 77 10 76 11 78 12
REMARK SMILES IDX 74 13 5 14 3 15 4 16 81 17 80 18 79 19 2 20 1 21 75 22 15 25
REMARK SMILES IDX 16 26 17 27 18 28 19 29 20 30 21 31 73 32 22 33 72 34 23 35
REMARK SMILES IDX 24 36 25 37 66 38 26 39 71 40 65 41 67 42 27 43 70 44 64 45
REMARK SMILES IDX 63 46 28 48 54 49 37 50 53 51 38 52 41 53 52 54 68 55 39 56
REMARK SMILES IDX 40 57 51 59 69 60 42 61 29 62 30 63 35 64 31 65 32 66 34 67
REMARK SMILES IDX 36 68 33 69 55 70 56 71 61 72 57 73 58 74 60 75 62 76 59 77
REMARK SMILES IDX 43 78 44 79 49 80 45 81 46 82 48 83 50 84 47 85
REMARK H PARENT 75 23 75 24 67 47 41 58
REMARK Flexibility Score: inf
ROOT
ATOM      1  O   UNL     1       4.539   7.175  -4.078  1.00  0.00    -0.374 OA
ENDROOT
BRANCH   1   2
ATOM      2  C   UNL     1       4.145   7.509  -5.404  1.00  0.00     0.202 C 
BRANCH   2   3
ATOM      3  C   UNL     1       4.195   6.425  -6.483  1.00  0.00     0.261 C 
BRANCH   3   4
ATOM      4  O   UNL     1       3.386   5.290  -6.141  1.00  0.00    -0.460 OA
BRANCH   4   5
ATOM      5  C   UNL     1       4.094   4.184  -5.796  1.00  0.00     0.340 C 
ATOM      6  O   UNL     1       5.306   4.053  -5.870  1.00  0.00    -0.246 OA
BRANCH   5   7
ATOM      7  C   UNL     1       3.229   3.180  -5.126  1.00  0.00     0.085 A 
ATOM      8  C   UNL     1       3.212   1.392  -3.462  1.00  0.00     0.074 A 
ATOM      9  C   UNL     1       3.858   2.449  -4.095  1.00  0.00     0.047 A 
ATOM     10  C   UNL     1       1.913   1.087  -3.888  1.00  0.00     0.148 A 
ATOM     11  C   UNL     1       1.256   1.843  -4.859  1.00  0.00     0.067 A 
ATOM     12  F   UNL     1       1.268   0.041  -3.347  1.00  0.00    -0.205 F 
ATOM     13  C   UNL     1       1.885   2.937  -5.462  1.00  0.00     0.049 A 
BRANCH   8  14
ATOM     14  N   UNL     1       3.858   0.636  -2.516  1.00  0.00    -0.363 N 
ATOM     15  C   UNL     1       3.831   0.106  -0.118  1.00  0.00     0.240 C 
ATOM     16  C   UNL     1       4.246   1.140  -1.196  1.00  0.00     0.164 C 
ATOM     17  O   UNL     1       4.347  -1.212  -0.437  1.00  0.00    -0.360 OA
ATOM     18  C   UNL     1       3.849  -1.662  -1.710  1.00  0.00     0.183 C 
ATOM     19  C   UNL     1       4.283  -0.725  -2.843  1.00  0.00     0.145 C 
BRANCH  15  20
ATOM     20  C   UNL     1       4.319   0.532   1.204  1.00  0.00     0.096 C 
ATOM     21  N   UNL     1       4.689   0.892   2.248  1.00  0.00    -0.195 NA
ENDBRANCH  15  20
ENDBRANCH   8  14
BRANCH  13  22
ATOM     22  N   UNL     1       1.206   3.622  -6.466  1.00  0.00    -0.398 N 
ATOM     23  H   UNL     1       1.628   4.395  -6.905  1.00  0.00     0.156 HD
ATOM     24  H   UNL     1       0.305   3.334  -6.736  1.00  0.00     0.156 HD
ENDBRANCH  13  22
ENDBRANCH   5   7
ENDBRANCH   4   5
ENDBRANCH   3   4
ENDBRANCH   2   3
ENDBRANCH   1   2
BRANCH   1  25
ATOM     25  C   UNL     1       3.666   6.372  -3.286  1.00  0.00     0.202 C 
BRANCH  25  26
ATOM     26  C   UNL     1       2.347   6.973  -2.780  1.00  0.00     0.261 C 
BRANCH  26  27
ATOM     27  O   UNL     1       1.478   7.435  -3.826  1.00  0.00    -0.460 OA
BRANCH  27  28
ATOM     28  C   UNL     1       1.425   8.785  -3.955  1.00  0.00     0.338 C 
ATOM     29  O   UNL     1       2.004   9.620  -3.283  1.00  0.00    -0.246 OA
BRANCH  28  30
ATOM     30  C   UNL     1       0.688   9.128  -5.183  1.00  0.00     0.060 A 
ATOM     31  C   UNL     1       1.364   9.832  -6.188  1.00  0.00     0.016 A 
ATOM     32  C   UNL     1      -0.665   8.816  -5.316  1.00  0.00     0.016 A 
ATOM     33  C   UNL     1       0.682  10.245  -7.329  1.00  0.00     0.010 A 
ATOM     34  C   UNL     1      -1.349   9.240  -6.457  1.00  0.00     0.010 A 
ATOM     35  C   UNL     1      -0.686   9.973  -7.458  1.00  0.00    -0.014 A 
BRANCH  35  36
ATOM     36  C   UNL     1      -1.455  10.527  -8.597  1.00  0.00     0.031 A 
ATOM     37  C   UNL     1      -2.379  11.688  -8.372  1.00  0.00     0.074 A 
ATOM     38  C   UNL     1      -1.339   9.982  -9.820  1.00  0.00     0.049 A 
ATOM     39  N   UNL     1      -3.206  12.266  -9.205  1.00  0.00    -0.248 NA
ATOM     40  C   UNL     1      -2.376  12.267  -7.021  1.00  0.00     0.031 C 
ATOM     41  C   UNL     1      -0.442   8.885 -10.174  1.00  0.00     0.029 A 
ATOM     42  N   UNL     1      -1.994  10.276 -10.989  1.00  0.00    -0.354 N 
ATOM     43  C   UNL     1      -3.831  13.271  -8.478  1.00  0.00     0.074 A 
ATOM     44  C   UNL     1      -3.318  13.192  -7.126  1.00  0.00     0.031 C 
ATOM     45  C   UNL     1      -0.601   8.596 -11.476  1.00  0.00     0.029 A 
ATOM     46  C   UNL     1      -1.644   9.455 -12.032  1.00  0.00     0.049 A 
ATOM     47  H   UNL     1      -2.650  11.004 -11.072  1.00  0.00     0.167 HD
ATOM     48  C   UNL     1      -4.744  14.179  -8.901  1.00  0.00     0.037 A 
ATOM     49  C   UNL     1      -2.129   9.390 -13.286  1.00  0.00     0.037 A 
ATOM     50  C   UNL     1      -5.263  14.234 -10.244  1.00  0.00     0.049 A 
ATOM     51  C   UNL     1      -3.225  10.332 -13.704  1.00  0.00     0.074 A 
ATOM     52  C   UNL     1      -6.178  15.124 -10.781  1.00  0.00     0.029 A 
ATOM     53  N   UNL     1      -4.928  13.348 -11.259  1.00  0.00    -0.354 N 
ATOM     54  N   UNL     1      -3.792  11.298 -13.022  1.00  0.00    -0.248 NA
ATOM     55  C   UNL     1      -3.751  10.171 -15.067  1.00  0.00     0.031 C 
ATOM     56  C   UNL     1      -6.453  14.729 -12.095  1.00  0.00     0.029 A 
ATOM     57  C   UNL     1      -5.652  13.642 -12.405  1.00  0.00     0.049 A 
ATOM     58  H   UNL     1      -4.273  12.618 -11.178  1.00  0.00     0.167 HD
ATOM     59  C   UNL     1      -4.716  11.882 -13.882  1.00  0.00     0.074 A 
ATOM     60  C   UNL     1      -4.625  11.165 -15.138  1.00  0.00     0.031 C 
ATOM     61  C   UNL     1      -5.558  12.920 -13.651  1.00  0.00     0.037 A 
BRANCH  48  62
ATOM     62  C   UNL     1      -5.269  15.150  -7.879  1.00  0.00     0.057 A 
ATOM     63  C   UNL     1      -4.454  16.124  -7.285  1.00  0.00     0.134 A 
ATOM     64  C   UNL     1      -6.609  15.101  -7.471  1.00  0.00     0.134 A 
ATOM     65  F   UNL     1      -3.159  16.226  -7.622  1.00  0.00    -0.206 F 
ATOM     66  C   UNL     1      -4.936  16.973  -6.286  1.00  0.00     0.040 A 
ATOM     67  C   UNL     1      -7.112  15.970  -6.501  1.00  0.00     0.040 A 
ATOM     68  F   UNL     1      -7.452  14.205  -8.004  1.00  0.00    -0.206 F 
ATOM     69  C   UNL     1      -6.270  16.898  -5.893  1.00  0.00     0.006 A 
ENDBRANCH  48  62
BRANCH  49  70
ATOM     70  C   UNL     1      -1.569   8.402 -14.242  1.00  0.00     0.057 A 
ATOM     71  C   UNL     1      -0.814   8.822 -15.344  1.00  0.00     0.134 A 
ATOM     72  C   UNL     1      -1.759   7.024 -14.077  1.00  0.00     0.134 A 
ATOM     73  F   UNL     1      -0.615  10.129 -15.565  1.00  0.00    -0.206 F 
ATOM     74  C   UNL     1      -0.277   7.909 -16.252  1.00  0.00     0.040 A 
ATOM     75  C   UNL     1      -1.204   6.099 -14.962  1.00  0.00     0.040 A 
ATOM     76  F   UNL     1      -2.469   6.557 -13.039  1.00  0.00    -0.206 F 
ATOM     77  C   UNL     1      -0.464   6.542 -16.057  1.00  0.00     0.006 A 
ENDBRANCH  49  70
BRANCH  61  78
ATOM     78  C   UNL     1      -6.429  13.372 -14.791  1.00  0.00     0.057 A 
ATOM     79  C   UNL     1      -7.495  12.598 -15.268  1.00  0.00     0.134 A 
ATOM     80  C   UNL     1      -6.226  14.623 -15.390  1.00  0.00     0.134 A 
ATOM     81  F   UNL     1      -7.739  11.384 -14.750  1.00  0.00    -0.206 F 
ATOM     82  C   UNL     1      -8.312  13.041 -16.311  1.00  0.00     0.040 A 
ATOM     83  C   UNL     1      -7.056  15.091 -16.410  1.00  0.00     0.040 A 
ATOM     84  F   UNL     1      -5.229  15.422 -14.979  1.00  0.00    -0.206 F 
ATOM     85  C   UNL     1      -8.099  14.296 -16.878  1.00  0.00     0.006 A 
ENDBRANCH  61  78
ENDBRANCH  35  36
ENDBRANCH  28  30
ENDBRANCH  27  28
ENDBRANCH  26  27
ENDBRANCH  25  26
ENDBRANCH   1  25
TORSDOF 17
