REMARK SMILES Cc1cccc(OC2(C(=O)OCCOCCOC(=O)c3ccc(-c4c5nc(c(-c6c(F)cccc6F)c6ccc([nH]6)c(-c6c(F)cccc6F)c6nc(c(-c7c(F)cccc7F)c7ccc4[nH]7)C=C6)C=C5)cc3)CCN(C(=O)c3cnc[nH]c3=O)CC2)c1
REMARK SMILES IDX 14 1 13 2 12 3 11 4 9 5 10 6 8 7 74 8 87 9 75 10 86 11 76 12
REMARK SMILES IDX 77 13 78 14 7 15 6 16 1 17 2 18 3 19 88 20 4 21 5 22 79 23
REMARK SMILES IDX 80 24 84 25 81 26 83 27 85 28 82 29 15 31 16 32 17 33 18 34
REMARK SMILES IDX 19 35 20 36 21 37 73 38 22 39 72 40 23 41 24 42 25 43 66 44
REMARK SMILES IDX 26 45 71 46 65 47 67 48 27 49 70 50 64 51 63 52 28 54 54 55
REMARK SMILES IDX 37 56 53 57 38 58 41 59 52 60 68 61 39 62 40 63 51 65 69 66
REMARK SMILES IDX 42 67 29 68 30 69 35 70 31 71 32 72 34 73 36 74 33 75 55 76
REMARK SMILES IDX 56 77 61 78 57 79 58 80 60 81 62 82 59 83 43 84 44 85 49 86
REMARK SMILES IDX 45 87 46 88 48 89 50 90 47 91
REMARK H PARENT 83 30 67 53 41 64
REMARK Flexibility Score: inf
ROOT
ATOM      1  O   UNL     1       0.866   2.261  -2.593  1.00  0.00    -0.374 OA
ENDROOT
BRANCH   1   2
ATOM      2  C   UNL     1       1.561   3.457  -2.302  1.00  0.00     0.202 C 
BRANCH   2   3
ATOM      3  C   UNL     1       0.522   4.495  -1.986  1.00  0.00     0.261 C 
BRANCH   3   4
ATOM      4  O   UNL     1      -0.784   3.950  -1.533  1.00  0.00    -0.460 OA
BRANCH   4   5
ATOM      5  C   UNL     1      -1.339   3.257  -0.511  1.00  0.00     0.350 C 
ATOM      6  O   UNL     1      -2.467   2.782  -0.670  1.00  0.00    -0.247 OA
BRANCH   5   7
ATOM      7  C   UNL     1      -0.647   3.166   0.866  1.00  0.00     0.209 C 
ATOM      8  C   UNL     1       0.822   3.558   0.750  1.00  0.00     0.082 C 
ATOM      9  C   UNL     1      -1.341   4.165   1.830  1.00  0.00     0.082 C 
ATOM     10  C   UNL     1       1.592   3.854   1.998  1.00  0.00     0.124 C 
ATOM     11  C   UNL     1      -0.541   4.252   3.137  1.00  0.00     0.124 C 
ATOM     12  N   UNL     1       0.806   4.724   2.826  1.00  0.00    -0.338 N 
ATOM     13  C   UNL     1       1.341   5.943   3.214  1.00  0.00     0.261 C 
ATOM     14  O   UNL     1       2.113   6.599   2.559  1.00  0.00    -0.269 OA
BRANCH   7  15
ATOM     15  O   UNL     1      -0.906   1.905   1.531  1.00  0.00    -0.475 OA
BRANCH  15  16
ATOM     16  C   UNL     1      -0.453   0.767   0.943  1.00  0.00     0.121 A 
ATOM     17  C   UNL     1       2.877  -0.915   0.406  1.00  0.00     0.044 C 
ATOM     18  C   UNL     1       1.395  -0.714   0.439  1.00  0.00    -0.047 A 
ATOM     19  C   UNL     1       0.496  -1.645  -0.084  1.00  0.00     0.003 A 
ATOM     20  C   UNL     1       0.895   0.449   1.020  1.00  0.00     0.050 A 
ATOM     21  C   UNL     1      -0.876  -1.373  -0.079  1.00  0.00     0.004 A 
ATOM     22  C   UNL     1      -1.352  -0.157   0.421  1.00  0.00     0.046 A 
ENDBRANCH  15  16
ENDBRANCH   7  15
BRANCH  13  23
ATOM     23  C   UNL     1       0.976   6.302   4.594  1.00  0.00     0.123 A 
ATOM     24  C   UNL     1       0.264   7.401   4.857  1.00  0.00     0.132 A 
ATOM     25  C   UNL     1       1.302   5.398   5.711  1.00  0.00     0.263 A 
ATOM     26  N   UNL     1      -0.214   7.733   6.104  1.00  0.00    -0.246 NA
ATOM     27  N   UNL     1       0.780   5.766   6.913  1.00  0.00    -0.312 N 
ATOM     28  O   UNL     1       1.976   4.379   5.586  1.00  0.00    -0.269 OA
ATOM     29  C   UNL     1       0.052   6.910   7.061  1.00  0.00     0.199 A 
ATOM     30  H   UNL     1       0.932   5.190   7.697  1.00  0.00     0.171 HD
ENDBRANCH  13  23
ENDBRANCH   5   7
ENDBRANCH   4   5
ENDBRANCH   3   4
ENDBRANCH   2   3
ENDBRANCH   1   2
BRANCH   1  31
ATOM     31  C   UNL     1       1.655   1.090  -2.656  1.00  0.00     0.202 C 
BRANCH  31  32
ATOM     32  C   UNL     1       2.781   1.154  -3.693  1.00  0.00     0.261 C 
BRANCH  32  33
ATOM     33  O   UNL     1       2.230   1.308  -5.016  1.00  0.00    -0.460 OA
BRANCH  33  34
ATOM     34  C   UNL     1       2.253   2.576  -5.513  1.00  0.00     0.338 C 
ATOM     35  O   UNL     1       3.242   3.288  -5.575  1.00  0.00    -0.246 OA
BRANCH  34  36
ATOM     36  C   UNL     1       0.857   3.081  -5.671  1.00  0.00     0.060 A 
ATOM     37  C   UNL     1       0.633   4.456  -5.879  1.00  0.00     0.016 A 
ATOM     38  C   UNL     1      -0.190   2.263  -5.255  1.00  0.00     0.016 A 
ATOM     39  C   UNL     1      -0.599   5.029  -5.532  1.00  0.00     0.010 A 
ATOM     40  C   UNL     1      -1.340   2.854  -4.780  1.00  0.00     0.010 A 
ATOM     41  C   UNL     1      -1.558   4.234  -4.910  1.00  0.00    -0.014 A 
BRANCH  41  42
ATOM     42  C   UNL     1      -2.818   4.702  -4.328  1.00  0.00     0.031 A 
ATOM     43  C   UNL     1      -4.078   4.190  -4.893  1.00  0.00     0.074 A 
ATOM     44  C   UNL     1      -2.854   5.360  -3.147  1.00  0.00     0.049 A 
ATOM     45  N   UNL     1      -5.234   4.685  -4.623  1.00  0.00    -0.248 NA
ATOM     46  C   UNL     1      -4.144   3.116  -5.879  1.00  0.00     0.031 C 
ATOM     47  C   UNL     1      -3.926   5.397  -2.152  1.00  0.00     0.029 A 
ATOM     48  N   UNL     1      -1.845   6.099  -2.532  1.00  0.00    -0.354 N 
ATOM     49  C   UNL     1      -6.173   3.779  -5.050  1.00  0.00     0.074 A 
ATOM     50  C   UNL     1      -5.463   2.949  -5.986  1.00  0.00     0.031 C 
ATOM     51  C   UNL     1      -3.636   6.314  -1.209  1.00  0.00     0.029 A 
ATOM     52  C   UNL     1      -2.426   6.998  -1.632  1.00  0.00     0.049 A 
ATOM     53  H   UNL     1      -0.880   6.004  -2.704  1.00  0.00     0.167 HD
ATOM     54  C   UNL     1      -7.377   3.755  -4.409  1.00  0.00     0.037 A 
ATOM     55  C   UNL     1      -2.225   8.335  -1.773  1.00  0.00     0.037 A 
ATOM     56  C   UNL     1      -7.465   4.874  -3.440  1.00  0.00     0.049 A 
ATOM     57  C   UNL     1      -3.543   8.961  -2.110  1.00  0.00     0.074 A 
ATOM     58  C   UNL     1      -7.482   4.937  -2.055  1.00  0.00     0.029 A 
ATOM     59  N   UNL     1      -7.227   6.186  -3.873  1.00  0.00    -0.354 N 
ATOM     60  N   UNL     1      -4.516   8.276  -2.647  1.00  0.00    -0.248 NA
ATOM     61  C   UNL     1      -3.930  10.324  -1.773  1.00  0.00     0.031 C 
ATOM     62  C   UNL     1      -7.204   6.282  -1.667  1.00  0.00     0.029 A 
ATOM     63  C   UNL     1      -7.041   7.051  -2.810  1.00  0.00     0.049 A 
ATOM     64  H   UNL     1      -7.196   6.458  -4.819  1.00  0.00     0.167 HD
ATOM     65  C   UNL     1      -5.655   9.014  -2.630  1.00  0.00     0.074 A 
ATOM     66  C   UNL     1      -5.231  10.309  -2.120  1.00  0.00     0.031 C 
ATOM     67  C   UNL     1      -6.851   8.490  -3.020  1.00  0.00     0.037 A 
BRANCH  54  68
ATOM     68  C   UNL     1      -8.380   2.601  -4.466  1.00  0.00     0.057 A 
ATOM     69  C   UNL     1      -9.502   2.589  -3.611  1.00  0.00     0.134 A 
ATOM     70  C   UNL     1      -8.302   1.450  -5.282  1.00  0.00     0.134 A 
ATOM     71  F   UNL     1      -9.766   3.608  -2.783  1.00  0.00    -0.206 F 
ATOM     72  C   UNL     1     -10.424   1.527  -3.552  1.00  0.00     0.040 A 
ATOM     73  C   UNL     1      -9.218   0.387  -5.240  1.00  0.00     0.040 A 
ATOM     74  F   UNL     1      -7.344   1.257  -6.186  1.00  0.00    -0.206 F 
ATOM     75  C   UNL     1     -10.285   0.417  -4.368  1.00  0.00     0.006 A 
ENDBRANCH  54  68
BRANCH  55  76
ATOM     76  C   UNL     1      -0.860   8.641  -2.296  1.00  0.00     0.057 A 
ATOM     77  C   UNL     1       0.225   8.429  -1.418  1.00  0.00     0.134 A 
ATOM     78  C   UNL     1      -0.565   8.629  -3.664  1.00  0.00     0.134 A 
ATOM     79  F   UNL     1       0.017   8.396  -0.091  1.00  0.00    -0.206 F 
ATOM     80  C   UNL     1       1.508   8.100  -1.876  1.00  0.00     0.040 A 
ATOM     81  C   UNL     1       0.715   8.288  -4.133  1.00  0.00     0.040 A 
ATOM     82  F   UNL     1      -1.536   8.802  -4.571  1.00  0.00    -0.206 F 
ATOM     83  C   UNL     1       1.744   7.984  -3.241  1.00  0.00     0.006 A 
ENDBRANCH  55  76
BRANCH  67  84
ATOM     84  C   UNL     1      -7.975   9.318  -3.578  1.00  0.00     0.057 A 
ATOM     85  C   UNL     1      -7.805  10.608  -4.105  1.00  0.00     0.134 A 
ATOM     86  C   UNL     1      -9.247   8.746  -3.794  1.00  0.00     0.134 A 
ATOM     87  F   UNL     1      -6.623  11.238  -4.084  1.00  0.00    -0.206 F 
ATOM     88  C   UNL     1      -8.835  11.299  -4.748  1.00  0.00     0.040 A 
ATOM     89  C   UNL     1     -10.259   9.399  -4.497  1.00  0.00     0.040 A 
ATOM     90  F   UNL     1      -9.555   7.511  -3.372  1.00  0.00    -0.206 F 
ATOM     91  C   UNL     1     -10.061  10.688  -4.964  1.00  0.00     0.006 A 
ENDBRANCH  67  84
ENDBRANCH  41  42
ENDBRANCH  34  36
ENDBRANCH  33  34
ENDBRANCH  32  33
ENDBRANCH  31  32
ENDBRANCH   1  31
TORSDOF 17
