REMARK SMILES CS(=O)(=O)c1ccc(/C=C(/C(=O)OCCOCCOC(=O)c2ccc(-c3c4nc(c(-c5c(F)cccc5F)c5ccc([nH]5)c(-c5c(F)cccc5F)c5nc(c(-c6c(F)cccc6F)c6ccc3[nH]6)C=C5)C=C4)cc2)c2ccc(O)cc2)cc1
REMARK SMILES IDX 16 1 15 2 14 3 13 4 11 5 12 6 10 7 9 8 8 9 5 10 6 11 84 12
REMARK SMILES IDX 7 13 83 14 2 15 1 16 3 17 4 18 76 19 77 20 82 21 78 22 81 23
REMARK SMILES IDX 79 24 80 25 17 27 18 28 19 29 20 30 21 31 22 32 23 33 75 34
REMARK SMILES IDX 24 35 74 36 25 37 26 38 27 39 68 40 28 41 73 42 67 43 69 44
REMARK SMILES IDX 29 45 72 46 66 47 65 48 30 50 56 51 39 52 55 53 40 54 43 55
REMARK SMILES IDX 54 56 70 57 41 58 42 59 53 61 71 62 44 63 31 64 32 65 37 66
REMARK SMILES IDX 33 67 34 68 36 69 38 70 35 71 57 72 58 73 63 74 59 75 60 76
REMARK SMILES IDX 62 77 64 78 61 79 45 80 46 81 51 82 47 83 48 84 50 85 52 86
REMARK SMILES IDX 49 87
REMARK H PARENT 80 26 69 49 43 60
REMARK Flexibility Score: inf
ROOT
ATOM      1  O   UNL     1       5.073   2.862 -10.507  1.00  0.00    -0.374 OA
ENDROOT
BRANCH   1   2
ATOM      2  C   UNL     1       3.957   3.752 -10.573  1.00  0.00     0.202 C 
BRANCH   2   3
ATOM      3  C   UNL     1       2.575   3.126 -10.377  1.00  0.00     0.261 C 
BRANCH   3   4
ATOM      4  O   UNL     1       2.417   2.647  -9.029  1.00  0.00    -0.460 OA
BRANCH   4   5
ATOM      5  C   UNL     1       2.103   1.329  -8.927  1.00  0.00     0.338 C 
ATOM      6  O   UNL     1       1.776   0.604  -9.856  1.00  0.00    -0.246 OA
BRANCH   5   7
ATOM      7  C   UNL     1       2.303   0.812  -7.535  1.00  0.00     0.067 C 
ATOM      8  C   UNL     1       1.980   1.586  -6.471  1.00  0.00     0.024 C 
BRANCH   8   9
ATOM      9  C   UNL     1       1.825   1.168  -5.054  1.00  0.00    -0.025 A 
ATOM     10  C   UNL     1       1.041   0.128  -2.566  1.00  0.00     0.067 A 
ATOM     11  C   UNL     1       2.155  -0.399  -3.217  1.00  0.00     0.021 A 
ATOM     12  C   UNL     1       0.380   1.238  -3.089  1.00  0.00     0.021 A 
ATOM     13  C   UNL     1       2.565   0.151  -4.436  1.00  0.00     0.009 A 
ATOM     14  C   UNL     1       0.779   1.758  -4.325  1.00  0.00     0.009 A 
BRANCH  10  15
ATOM     15  S   UNL     1       0.349  -0.727  -1.169  1.00  0.00     0.175 S 
ATOM     16  C   UNL     1       1.054   0.090   0.232  1.00  0.00     0.163 C 
ATOM     17  O   UNL     1       0.852  -2.088  -1.197  1.00  0.00    -0.224 OA
ATOM     18  O   UNL     1      -1.079  -0.468  -1.172  1.00  0.00    -0.224 OA
ENDBRANCH  10  15
ENDBRANCH   8   9
BRANCH   7  19
ATOM     19  C   UNL     1       2.770  -0.583  -7.427  1.00  0.00    -0.011 A 
ATOM     20  C   UNL     1       4.143  -0.857  -7.544  1.00  0.00     0.013 A 
ATOM     21  C   UNL     1       1.880  -1.632  -7.171  1.00  0.00     0.013 A 
ATOM     22  C   UNL     1       4.621  -2.155  -7.378  1.00  0.00     0.047 A 
ATOM     23  C   UNL     1       2.361  -2.932  -6.997  1.00  0.00     0.047 A 
ATOM     24  C   UNL     1       3.728  -3.179  -7.094  1.00  0.00     0.115 A 
BRANCH  24  25
ATOM     25  O   UNL     1       4.242  -4.427  -6.903  1.00  0.00    -0.508 OA
ATOM     26  H   UNL     1       5.165  -4.569  -6.973  1.00  0.00     0.293 HD
ENDBRANCH  24  25
ENDBRANCH   7  19
ENDBRANCH   5   7
ENDBRANCH   4   5
ENDBRANCH   3   4
ENDBRANCH   2   3
ENDBRANCH   1   2
BRANCH   1  27
ATOM     27  C   UNL     1       5.455   2.388  -9.219  1.00  0.00     0.202 C 
BRANCH  27  28
ATOM     28  C   UNL     1       6.319   3.322  -8.363  1.00  0.00     0.261 C 
BRANCH  28  29
ATOM     29  O   UNL     1       5.686   4.589  -8.129  1.00  0.00    -0.460 OA
BRANCH  29  30
ATOM     30  C   UNL     1       6.202   5.611  -8.851  1.00  0.00     0.338 C 
ATOM     31  O   UNL     1       7.188   5.586  -9.576  1.00  0.00    -0.246 OA
BRANCH  30  32
ATOM     32  C   UNL     1       5.300   6.773  -8.787  1.00  0.00     0.060 A 
ATOM     33  C   UNL     1       4.913   7.354 -10.001  1.00  0.00     0.016 A 
ATOM     34  C   UNL     1       4.885   7.319  -7.571  1.00  0.00     0.016 A 
ATOM     35  C   UNL     1       4.147   8.517 -10.003  1.00  0.00     0.010 A 
ATOM     36  C   UNL     1       4.125   8.492  -7.574  1.00  0.00     0.010 A 
ATOM     37  C   UNL     1       3.784   9.114  -8.789  1.00  0.00    -0.014 A 
BRANCH  37  38
ATOM     38  C   UNL     1       3.181  10.466  -8.796  1.00  0.00     0.031 A 
ATOM     39  C   UNL     1       4.065  11.656  -8.552  1.00  0.00     0.074 A 
ATOM     40  C   UNL     1       1.871  10.633  -9.045  1.00  0.00     0.049 A 
ATOM     41  N   UNL     1       3.751  12.924  -8.486  1.00  0.00    -0.248 NA
ATOM     42  C   UNL     1       5.497  11.378  -8.352  1.00  0.00     0.031 C 
ATOM     43  C   UNL     1       0.922   9.559  -9.332  1.00  0.00     0.029 A 
ATOM     44  N   UNL     1       1.113  11.775  -9.089  1.00  0.00    -0.354 N 
ATOM     45  C   UNL     1       4.942  13.594  -8.236  1.00  0.00     0.074 A 
ATOM     46  C   UNL     1       5.980  12.591  -8.130  1.00  0.00     0.031 C 
ATOM     47  C   UNL     1      -0.298  10.094  -9.513  1.00  0.00     0.029 A 
ATOM     48  C   UNL     1      -0.218  11.542  -9.328  1.00  0.00     0.049 A 
ATOM     49  H   UNL     1       1.488  12.677  -8.962  1.00  0.00     0.167 HD
ATOM     50  C   UNL     1       5.153  14.926  -8.114  1.00  0.00     0.037 A 
ATOM     51  C   UNL     1      -1.256  12.400  -9.372  1.00  0.00     0.037 A 
ATOM     52  C   UNL     1       4.119  15.921  -8.221  1.00  0.00     0.049 A 
ATOM     53  C   UNL     1      -1.006  13.871  -9.169  1.00  0.00     0.074 A 
ATOM     54  C   UNL     1       4.234  17.297  -8.131  1.00  0.00     0.029 A 
ATOM     55  N   UNL     1       2.778  15.644  -8.437  1.00  0.00    -0.354 N 
ATOM     56  N   UNL     1       0.127  14.496  -8.957  1.00  0.00    -0.248 NA
ATOM     57  C   UNL     1      -2.180  14.755  -9.215  1.00  0.00     0.031 C 
ATOM     58  C   UNL     1       2.954  17.850  -8.248  1.00  0.00     0.029 A 
ATOM     59  C   UNL     1       2.050  16.821  -8.458  1.00  0.00     0.049 A 
ATOM     60  H   UNL     1       2.399  14.743  -8.556  1.00  0.00     0.167 HD
ATOM     61  C   UNL     1      -0.193  15.846  -8.874  1.00  0.00     0.074 A 
ATOM     62  C   UNL     1      -1.624  15.950  -9.067  1.00  0.00     0.031 C 
ATOM     63  C   UNL     1       0.626  16.906  -8.660  1.00  0.00     0.037 A 
BRANCH  50  64
ATOM     64  C   UNL     1       6.553  15.379  -7.827  1.00  0.00     0.057 A 
ATOM     65  C   UNL     1       7.560  15.334  -8.800  1.00  0.00     0.134 A 
ATOM     66  C   UNL     1       6.893  15.892  -6.569  1.00  0.00     0.134 A 
ATOM     67  F   UNL     1       7.303  14.838 -10.021  1.00  0.00    -0.206 F 
ATOM     68  C   UNL     1       8.859  15.763  -8.526  1.00  0.00     0.040 A 
ATOM     69  C   UNL     1       8.182  16.347  -6.290  1.00  0.00     0.040 A 
ATOM     70  F   UNL     1       5.975  15.965  -5.593  1.00  0.00    -0.206 F 
ATOM     71  C   UNL     1       9.172  16.278  -7.269  1.00  0.00     0.006 A 
ENDBRANCH  50  64
BRANCH  51  72
ATOM     72  C   UNL     1      -2.629  11.892  -9.609  1.00  0.00     0.057 A 
ATOM     73  C   UNL     1      -3.307  12.159 -10.803  1.00  0.00     0.134 A 
ATOM     74  C   UNL     1      -3.304  11.140  -8.638  1.00  0.00     0.134 A 
ATOM     75  F   UNL     1      -2.721  12.893 -11.761  1.00  0.00    -0.206 F 
ATOM     76  C   UNL     1      -4.611  11.711 -11.020  1.00  0.00     0.040 A 
ATOM     77  C   UNL     1      -4.599  10.666  -8.851  1.00  0.00     0.040 A 
ATOM     78  F   UNL     1      -2.708  10.849  -7.472  1.00  0.00    -0.206 F 
ATOM     79  C   UNL     1      -5.259  10.958 -10.043  1.00  0.00     0.006 A 
ENDBRANCH  51  72
BRANCH  63  80
ATOM     80  C   UNL     1       0.001  18.270  -8.660  1.00  0.00     0.057 A 
ATOM     81  C   UNL     1      -0.788  18.722  -7.596  1.00  0.00     0.134 A 
ATOM     82  C   UNL     1       0.233  19.158  -9.719  1.00  0.00     0.134 A 
ATOM     83  F   UNL     1      -1.057  17.916  -6.558  1.00  0.00    -0.206 F 
ATOM     84  C   UNL     1      -1.343  20.003  -7.594  1.00  0.00     0.040 A 
ATOM     85  C   UNL     1      -0.295  20.449  -9.716  1.00  0.00     0.040 A 
ATOM     86  F   UNL     1       0.988  18.790 -10.764  1.00  0.00    -0.206 F 
ATOM     87  C   UNL     1      -1.090  20.873  -8.654  1.00  0.00     0.006 A 
ENDBRANCH  63  80
ENDBRANCH  37  38
ENDBRANCH  30  32
ENDBRANCH  29  30
ENDBRANCH  28  29
ENDBRANCH  27  28
ENDBRANCH   1  27
TORSDOF 18
