REMARK SMILES CC(=O)NS(=O)(=O)c1ccc(-c2ccn(C(F)F)c(=O)c2)cc1C(=O)OCCOCCOC(=O)c1ccc(-c2c3nc(c(-c4c(F)cccc4F)c4ccc([nH]4)c(-c4c(F)cccc4F)c4nc(c(-c5c(F)cccc5F)c5ccc2[nH]5)C=C4)C=C3)cc1
REMARK SMILES IDX 29 1 28 2 27 3 26 4 24 5 25 6 23 7 8 8 9 9 10 10 22 11 11 12
REMARK SMILES IDX 5 13 6 14 7 15 4 16 1 17 2 18 3 19 12 21 13 22 21 23 14 24
REMARK SMILES IDX 19 25 15 26 20 27 16 28 17 29 18 30 30 31 31 32 32 33 33 34
REMARK SMILES IDX 34 35 35 36 36 37 88 38 37 39 87 40 38 41 39 42 40 43 81 44
REMARK SMILES IDX 41 45 86 46 80 47 82 48 42 49 85 50 79 51 78 52 43 54 69 55
REMARK SMILES IDX 52 56 68 57 53 58 56 59 67 60 83 61 54 62 55 63 66 65 84 66
REMARK SMILES IDX 57 67 44 68 45 69 50 70 46 71 47 72 49 73 51 74 48 75 70 76
REMARK SMILES IDX 71 77 76 78 72 79 73 80 75 81 77 82 74 83 58 84 59 85 64 86
REMARK SMILES IDX 60 87 61 88 63 89 65 90 62 91
REMARK H PARENT 4 20 82 53 56 64
REMARK Flexibility Score: inf
ROOT
ATOM      1  O   UNL     1      -1.063   0.639  -5.496  1.00  0.00    -0.374 OA
ENDROOT
BRANCH   1   2
ATOM      2  C   UNL     1      -0.487  -0.633  -5.811  1.00  0.00     0.202 C 
BRANCH   2   3
ATOM      3  C   UNL     1       1.012  -0.575  -6.132  1.00  0.00     0.261 C 
BRANCH   3   4
ATOM      4  O   UNL     1       1.789  -0.436  -4.924  1.00  0.00    -0.460 OA
BRANCH   4   5
ATOM      5  C   UNL     1       2.115   0.825  -4.600  1.00  0.00     0.339 C 
ATOM      6  O   UNL     1       2.001   1.790  -5.342  1.00  0.00    -0.246 OA
BRANCH   5   7
ATOM      7  C   UNL     1       2.603   0.981  -3.197  1.00  0.00     0.081 A 
ATOM      8  C   UNL     1       2.737   0.015  -2.187  1.00  0.00     0.102 A 
ATOM      9  C   UNL     1       3.322   0.371  -0.952  1.00  0.00     0.024 A 
ATOM     10  C   UNL     1       3.634   1.701  -0.660  1.00  0.00     0.010 A 
ATOM     11  C   UNL     1       2.926   2.314  -2.874  1.00  0.00     0.025 A 
ATOM     12  C   UNL     1       3.389   2.687  -1.609  1.00  0.00    -0.017 A 
BRANCH   8  13
ATOM     13  S   UNL     1       1.994  -1.596  -2.297  1.00  0.00     0.264 S 
ATOM     14  O   UNL     1       2.977  -2.494  -2.851  1.00  0.00    -0.201 OA
ATOM     15  O   UNL     1       0.652  -1.474  -2.819  1.00  0.00    -0.201 OA
BRANCH  13  16
ATOM     16  N   UNL     1       1.776  -2.071  -0.699  1.00  0.00    -0.249 N 
ATOM     17  C   UNL     1       0.161  -0.360   0.133  1.00  0.00     0.115 C 
ATOM     18  C   UNL     1       0.591  -1.800   0.017  1.00  0.00     0.230 C 
ATOM     19  O   UNL     1       0.060  -2.693   0.661  1.00  0.00    -0.274 OA
ATOM     20  H   UNL     1       2.502  -2.556  -0.246  1.00  0.00     0.183 HD
ENDBRANCH  13  16
ENDBRANCH   8  13
BRANCH  12  21
ATOM     21  C   UNL     1       3.526   4.120  -1.316  1.00  0.00    -0.011 A 
ATOM     22  C   UNL     1       2.366   4.973  -1.134  1.00  0.00     0.027 A 
ATOM     23  C   UNL     1       4.753   4.665  -1.316  1.00  0.00     0.080 A 
ATOM     24  C   UNL     1       2.510   6.297  -1.018  1.00  0.00     0.095 A 
ATOM     25  C   UNL     1       4.929   6.137  -1.159  1.00  0.00     0.255 A 
ATOM     26  N   UNL     1       3.764   6.878  -1.040  1.00  0.00    -0.258 N 
ATOM     27  O   UNL     1       6.068   6.589  -1.163  1.00  0.00    -0.269 OA
BRANCH  26  28
ATOM     28  C   UNL     1       3.905   8.309  -0.962  1.00  0.00     0.451 C 
ATOM     29  F   UNL     1       4.650   8.669   0.111  1.00  0.00    -0.185 F 
ATOM     30  F   UNL     1       4.503   8.798  -2.075  1.00  0.00    -0.185 F 
ENDBRANCH  26  28
ENDBRANCH  12  21
ENDBRANCH   5   7
ENDBRANCH   4   5
ENDBRANCH   3   4
ENDBRANCH   2   3
ENDBRANCH   1   2
BRANCH   1  31
ATOM     31  C   UNL     1      -1.157   0.958  -4.107  1.00  0.00     0.202 C 
BRANCH  31  32
ATOM     32  C   UNL     1      -2.427   0.443  -3.419  1.00  0.00     0.261 C 
BRANCH  32  33
ATOM     33  O   UNL     1      -2.404  -0.988  -3.291  1.00  0.00    -0.460 OA
BRANCH  33  34
ATOM     34  C   UNL     1      -3.178  -1.654  -4.180  1.00  0.00     0.338 C 
ATOM     35  O   UNL     1      -4.004  -1.171  -4.937  1.00  0.00    -0.246 OA
BRANCH  34  36
ATOM     36  C   UNL     1      -2.783  -3.080  -4.237  1.00  0.00     0.060 A 
ATOM     37  C   UNL     1      -2.832  -3.702  -5.492  1.00  0.00     0.016 A 
ATOM     38  C   UNL     1      -2.398  -3.808  -3.107  1.00  0.00     0.016 A 
ATOM     39  C   UNL     1      -2.550  -5.061  -5.612  1.00  0.00     0.010 A 
ATOM     40  C   UNL     1      -2.123  -5.176  -3.228  1.00  0.00     0.010 A 
ATOM     41  C   UNL     1      -2.230  -5.813  -4.475  1.00  0.00    -0.014 A 
BRANCH  41  42
ATOM     42  C   UNL     1      -2.160  -7.289  -4.588  1.00  0.00     0.031 A 
ATOM     43  C   UNL     1      -3.388  -8.100  -4.283  1.00  0.00     0.074 A 
ATOM     44  C   UNL     1      -1.038  -7.898  -5.010  1.00  0.00     0.049 A 
ATOM     45  N   UNL     1      -3.566  -9.395  -4.354  1.00  0.00    -0.248 NA
ATOM     46  C   UNL     1      -4.577  -7.350  -3.846  1.00  0.00     0.031 C 
ATOM     47  C   UNL     1       0.208  -7.224  -5.368  1.00  0.00     0.029 A 
ATOM     48  N   UNL     1      -0.774  -9.229  -5.212  1.00  0.00    -0.354 N 
ATOM     49  C   UNL     1      -4.885  -9.614  -3.978  1.00  0.00     0.074 A 
ATOM     50  C   UNL     1      -5.455  -8.324  -3.653  1.00  0.00     0.031 C 
ATOM     51  C   UNL     1       1.109  -8.149  -5.744  1.00  0.00     0.029 A 
ATOM     52  C   UNL     1       0.507  -9.477  -5.637  1.00  0.00     0.049 A 
ATOM     53  H   UNL     1      -1.440  -9.940  -5.067  1.00  0.00     0.167 HD
ATOM     54  C   UNL     1      -5.565 -10.783  -3.920  1.00  0.00     0.037 A 
ATOM     55  C   UNL     1       1.124 -10.645  -5.900  1.00  0.00     0.037 A 
ATOM     56  C   UNL     1      -5.006 -12.069  -4.236  1.00  0.00     0.049 A 
ATOM     57  C   UNL     1       0.366 -11.937  -5.762  1.00  0.00     0.074 A 
ATOM     58  C   UNL     1      -5.625 -13.306  -4.221  1.00  0.00     0.029 A 
ATOM     59  N   UNL     1      -3.692 -12.281  -4.619  1.00  0.00    -0.354 N 
ATOM     60  N   UNL     1      -0.888 -12.129  -5.434  1.00  0.00    -0.248 NA
ATOM     61  C   UNL     1       1.112 -13.176  -6.031  1.00  0.00     0.031 C 
ATOM     62  C   UNL     1      -4.674 -14.274  -4.562  1.00  0.00     0.029 A 
ATOM     63  C   UNL     1      -3.473 -13.634  -4.820  1.00  0.00     0.049 A 
ATOM     64  H   UNL     1      -3.014 -11.576  -4.731  1.00  0.00     0.167 HD
ATOM     65  C   UNL     1      -1.087 -13.504  -5.476  1.00  0.00     0.074 A 
ATOM     66  C   UNL     1       0.173 -14.098  -5.870  1.00  0.00     0.031 C 
ATOM     67  C   UNL     1      -2.213 -14.209  -5.212  1.00  0.00     0.037 A 
BRANCH  54  68
ATOM     68  C   UNL     1      -6.994 -10.718  -3.478  1.00  0.00     0.057 A 
ATOM     69  C   UNL     1      -8.007 -10.267  -4.334  1.00  0.00     0.134 A 
ATOM     70  C   UNL     1      -7.364 -11.130  -2.193  1.00  0.00     0.134 A 
ATOM     71  F   UNL     1      -7.711  -9.844  -5.572  1.00  0.00    -0.206 F 
ATOM     72  C   UNL     1      -9.338 -10.213  -3.920  1.00  0.00     0.040 A 
ATOM     73  C   UNL     1      -8.695 -11.097  -1.773  1.00  0.00     0.040 A 
ATOM     74  F   UNL     1      -6.440 -11.572  -1.327  1.00  0.00    -0.206 F 
ATOM     75  C   UNL     1      -9.685 -10.634  -2.637  1.00  0.00     0.006 A 
ENDBRANCH  54  68
BRANCH  55  76
ATOM     76  C   UNL     1       2.548 -10.653  -6.314  1.00  0.00     0.057 A 
ATOM     77  C   UNL     1       2.919 -10.955  -7.628  1.00  0.00     0.134 A 
ATOM     78  C   UNL     1       3.570 -10.383  -5.397  1.00  0.00     0.134 A 
ATOM     79  F   UNL     1       1.984 -11.248  -8.544  1.00  0.00    -0.206 F 
ATOM     80  C   UNL     1       4.260 -10.998  -8.015  1.00  0.00     0.040 A 
ATOM     81  C   UNL     1       4.913 -10.405  -5.774  1.00  0.00     0.040 A 
ATOM     82  F   UNL     1       3.275 -10.093  -4.121  1.00  0.00    -0.206 F 
ATOM     83  C   UNL     1       5.261 -10.719  -7.086  1.00  0.00     0.006 A 
ENDBRANCH  55  76
BRANCH  67  84
ATOM     84  C   UNL     1      -2.140 -15.699  -5.358  1.00  0.00     0.057 A 
ATOM     85  C   UNL     1      -1.520 -16.500  -4.392  1.00  0.00     0.134 A 
ATOM     86  C   UNL     1      -2.732 -16.340  -6.453  1.00  0.00     0.134 A 
ATOM     87  F   UNL     1      -0.924 -15.943  -3.327  1.00  0.00    -0.206 F 
ATOM     88  C   UNL     1      -1.480 -17.890  -4.517  1.00  0.00     0.040 A 
ATOM     89  C   UNL     1      -2.714 -17.730  -6.579  1.00  0.00     0.040 A 
ATOM     90  F   UNL     1      -3.347 -15.628  -7.409  1.00  0.00    -0.206 F 
ATOM     91  C   UNL     1      -2.083 -18.509  -5.611  1.00  0.00     0.006 A 
ENDBRANCH  67  84
ENDBRANCH  41  42
ENDBRANCH  34  36
ENDBRANCH  33  34
ENDBRANCH  32  33
ENDBRANCH  31  32
ENDBRANCH   1  31
TORSDOF 18
