REMARK SMILES NS(=O)(=O)c1ccc(-n2nc(C(=O)NCCCC(=O)OCCOCCOC(=O)c3ccc(-c4c5nc(c(-c6c(F)cccc6F)c6ccc([nH]6)c(-c6c(F)cccc6F)c6nc(c(-c7c(F)cccc7F)c7ccc4[nH]7)C=C6)C=C5)cc3)cc2-c2ccccc2)cc1
REMARK SMILES IDX 21 1 20 2 18 3 19 4 17 5 16 6 15 7 14 8 12 9 13 10 11 12
REMARK SMILES IDX 9 13 10 14 84 15 83 16 8 17 5 18 6 19 92 20 7 21 91 22 2 23
REMARK SMILES IDX 3 24 4 25 1 26 85 29 86 30 90 31 87 32 89 33 88 34 22 35
REMARK SMILES IDX 23 36 24 37 25 38 26 39 27 40 28 41 29 42 30 43 82 44 31 45
REMARK SMILES IDX 81 46 32 47 33 48 34 49 75 50 35 51 80 52 74 53 76 54 36 55
REMARK SMILES IDX 79 56 73 57 72 58 37 60 63 61 46 62 62 63 47 64 50 65 61 66
REMARK SMILES IDX 77 67 48 68 49 69 60 71 78 72 51 73 38 74 39 75 44 76 40 77
REMARK SMILES IDX 41 78 43 79 45 80 42 81 64 82 65 83 70 84 66 85 67 86 69 87
REMARK SMILES IDX 71 88 68 89 52 90 53 91 58 92 54 93 55 94 57 95 59 96 56 97
REMARK H PARENT 14 11 1 27 1 28 76 59 50 70
REMARK Flexibility Score: inf
ROOT
ATOM      1  C   UNL     1       3.311  14.036   6.302  1.00  0.00     0.261 C 
ENDROOT
BRANCH   1   2
ATOM      2  O   UNL     1       2.991  13.553   4.981  1.00  0.00    -0.463 OA
BRANCH   2   3
ATOM      3  C   UNL     1       2.883  14.471   3.992  1.00  0.00     0.305 C 
ATOM      4  O   UNL     1       2.946  15.683   4.148  1.00  0.00    -0.252 OA
BRANCH   3   5
ATOM      5  C   UNL     1       2.643  13.830   2.640  1.00  0.00     0.124 C 
BRANCH   5   6
ATOM      6  C   UNL     1       3.289  12.460   2.389  1.00  0.00     0.033 C 
BRANCH   6   7
ATOM      7  C   UNL     1       2.629  11.284   3.113  1.00  0.00     0.117 C 
BRANCH   7   8
ATOM      8  N   UNL     1       1.262  11.088   2.680  1.00  0.00    -0.351 N 
ATOM      9  C   UNL     1       0.602  10.104   1.982  1.00  0.00     0.271 C 
ATOM     10  O   UNL     1      -0.613  10.283   1.857  1.00  0.00    -0.267 OA
ATOM     11  H   UNL     1       0.669  11.828   2.946  1.00  0.00     0.163 HD
BRANCH   9  12
ATOM     12  C   UNL     1       1.274   8.889   1.471  1.00  0.00     0.151 A 
ATOM     13  N   UNL     1       1.389   6.827   0.872  1.00  0.00    -0.232 N 
ATOM     14  N   UNL     1       0.527   7.847   1.040  1.00  0.00    -0.162 NA
ATOM     15  C   UNL     1       2.704   7.236   1.023  1.00  0.00     0.075 A 
ATOM     16  C   UNL     1       2.649   8.579   1.316  1.00  0.00     0.065 A 
BRANCH  13  17
ATOM     17  C   UNL     1       0.951   5.527   0.507  1.00  0.00     0.065 A 
ATOM     18  C   UNL     1       0.551   2.959  -0.491  1.00  0.00     0.082 A 
ATOM     19  C   UNL     1       1.222   3.124   0.719  1.00  0.00     0.024 A 
ATOM     20  C   UNL     1       0.018   4.066  -1.169  1.00  0.00     0.024 A 
ATOM     21  C   UNL     1       1.410   4.409   1.220  1.00  0.00     0.030 A 
ATOM     22  C   UNL     1       0.204   5.358  -0.661  1.00  0.00     0.030 A 
BRANCH  18  23
ATOM     23  S   UNL     1       0.371   1.357  -1.218  1.00  0.00     0.238 S 
ATOM     24  O   UNL     1       1.225   1.301  -2.396  1.00  0.00    -0.207 OA
ATOM     25  O   UNL     1      -1.016   1.013  -1.241  1.00  0.00    -0.207 OA
BRANCH  23  26
ATOM     26  N   UNL     1       1.085   0.296  -0.119  1.00  0.00    -0.225 NA
ATOM     27  H   UNL     1       1.018  -0.658  -0.475  1.00  0.00     0.137 HD
ATOM     28  H   UNL     1       0.602   0.358   0.777  1.00  0.00     0.137 HD
ENDBRANCH  23  26
ENDBRANCH  18  23
ENDBRANCH  13  17
BRANCH  15  29
ATOM     29  C   UNL     1       3.838   6.347   0.850  1.00  0.00     0.000 A 
ATOM     30  C   UNL     1       4.346   6.068  -0.419  1.00  0.00     0.010 A 
ATOM     31  C   UNL     1       4.272   5.614   1.956  1.00  0.00     0.010 A 
ATOM     32  C   UNL     1       5.221   4.999  -0.583  1.00  0.00     0.001 A 
ATOM     33  C   UNL     1       5.115   4.528   1.786  1.00  0.00     0.001 A 
ATOM     34  C   UNL     1       5.569   4.211   0.513  1.00  0.00     0.000 A 
ENDBRANCH  15  29
ENDBRANCH   9  12
ENDBRANCH   7   8
ENDBRANCH   6   7
ENDBRANCH   5   6
ENDBRANCH   3   5
ENDBRANCH   2   3
ENDBRANCH   1   2
BRANCH   1  35
ATOM     35  C   UNL     1       4.694  13.535   6.713  1.00  0.00     0.202 C 
BRANCH  35  36
ATOM     36  O   UNL     1       5.779  14.271   6.145  1.00  0.00    -0.374 OA
BRANCH  36  37
ATOM     37  C   UNL     1       6.158  13.962   4.808  1.00  0.00     0.202 C 
BRANCH  37  38
ATOM     38  C   UNL     1       7.083  12.764   4.668  1.00  0.00     0.261 C 
BRANCH  38  39
ATOM     39  O   UNL     1       6.392  11.555   4.964  1.00  0.00    -0.460 OA
BRANCH  39  40
ATOM     40  C   UNL     1       6.625  11.017   6.184  1.00  0.00     0.338 C 
ATOM     41  O   UNL     1       7.179  11.533   7.136  1.00  0.00    -0.246 OA
BRANCH  40  42
ATOM     42  C   UNL     1       6.263   9.596   6.091  1.00  0.00     0.060 A 
ATOM     43  C   UNL     1       6.862   8.730   7.006  1.00  0.00     0.016 A 
ATOM     44  C   UNL     1       5.605   9.122   4.948  1.00  0.00     0.016 A 
ATOM     45  C   UNL     1       6.997   7.403   6.655  1.00  0.00     0.010 A 
ATOM     46  C   UNL     1       5.777   7.811   4.581  1.00  0.00     0.010 A 
ATOM     47  C   UNL     1       6.534   6.984   5.402  1.00  0.00    -0.014 A 
BRANCH  47  48
ATOM     48  C   UNL     1       6.801   5.619   4.997  1.00  0.00     0.031 A 
ATOM     49  C   UNL     1       5.963   4.618   5.701  1.00  0.00     0.074 A 
ATOM     50  C   UNL     1       7.637   5.314   3.984  1.00  0.00     0.049 A 
ATOM     51  N   UNL     1       6.350   3.636   6.442  1.00  0.00    -0.248 NA
ATOM     52  C   UNL     1       4.502   4.800   5.661  1.00  0.00     0.031 C 
ATOM     53  C   UNL     1       8.263   6.212   3.014  1.00  0.00     0.029 A 
ATOM     54  N   UNL     1       8.027   4.083   3.550  1.00  0.00    -0.354 N 
ATOM     55  C   UNL     1       5.190   2.971   6.829  1.00  0.00     0.074 A 
ATOM     56  C   UNL     1       4.081   3.787   6.416  1.00  0.00     0.031 C 
ATOM     57  C   UNL     1       8.794   5.482   2.005  1.00  0.00     0.029 A 
ATOM     58  C   UNL     1       8.643   4.065   2.298  1.00  0.00     0.049 A 
ATOM     59  H   UNL     1       7.884   3.266   4.080  1.00  0.00     0.167 HD
ATOM     60  C   UNL     1       5.222   1.696   7.295  1.00  0.00     0.037 A 
ATOM     61  C   UNL     1       8.907   2.948   1.565  1.00  0.00     0.037 A 
ATOM     62  C   UNL     1       6.530   1.343   7.775  1.00  0.00     0.049 A 
ATOM     63  C   UNL     1       8.809   1.800   2.513  1.00  0.00     0.074 A 
ATOM     64  C   UNL     1       7.362   1.855   8.754  1.00  0.00     0.029 A 
ATOM     65  N   UNL     1       7.332   0.567   6.974  1.00  0.00    -0.354 N 
ATOM     66  N   UNL     1       9.697   1.539   3.430  1.00  0.00    -0.248 NA
ATOM     67  C   UNL     1       7.513   1.158   2.706  1.00  0.00     0.031 C 
ATOM     68  C   UNL     1       8.673   1.773   8.203  1.00  0.00     0.029 A 
ATOM     69  C   UNL     1       8.563   1.174   6.948  1.00  0.00     0.049 A 
ATOM     70  H   UNL     1       7.075  -0.262   6.510  1.00  0.00     0.167 HD
ATOM     71  C   UNL     1       8.970   1.049   4.504  1.00  0.00     0.074 A 
ATOM     72  C   UNL     1       7.649   0.738   3.967  1.00  0.00     0.031 C 
ATOM     73  C   UNL     1       9.412   1.216   5.784  1.00  0.00     0.037 A 
BRANCH  60  74
ATOM     74  C   UNL     1       4.150   0.684   7.006  1.00  0.00     0.057 A 
ATOM     75  C   UNL     1       4.162  -0.548   7.681  1.00  0.00     0.134 A 
ATOM     76  C   UNL     1       3.280   0.759   5.898  1.00  0.00     0.134 A 
ATOM     77  F   UNL     1       4.968  -0.748   8.734  1.00  0.00    -0.206 F 
ATOM     78  C   UNL     1       3.406  -1.643   7.247  1.00  0.00     0.040 A 
ATOM     79  C   UNL     1       2.481  -0.311   5.490  1.00  0.00     0.040 A 
ATOM     80  F   UNL     1       3.233   1.830   5.095  1.00  0.00    -0.206 F 
ATOM     81  C   UNL     1       2.566  -1.528   6.147  1.00  0.00     0.006 A 
ENDBRANCH  60  74
BRANCH  61  82
ATOM     82  C   UNL     1       9.004   2.712   0.091  1.00  0.00     0.057 A 
ATOM     83  C   UNL     1       9.205   1.404  -0.394  1.00  0.00     0.134 A 
ATOM     84  C   UNL     1       8.624   3.650  -0.884  1.00  0.00     0.134 A 
ATOM     85  F   UNL     1       9.606   0.421   0.426  1.00  0.00    -0.206 F 
ATOM     86  C   UNL     1       8.924   1.032  -1.716  1.00  0.00     0.040 A 
ATOM     87  C   UNL     1       8.332   3.289  -2.208  1.00  0.00     0.040 A 
ATOM     88  F   UNL     1       8.408   4.934  -0.579  1.00  0.00    -0.206 F 
ATOM     89  C   UNL     1       8.449   1.970  -2.620  1.00  0.00     0.006 A 
ENDBRANCH  61  82
BRANCH  73  90
ATOM     90  C   UNL     1      10.800   1.762   5.971  1.00  0.00     0.057 A 
ATOM     91  C   UNL     1      11.199   3.034   5.529  1.00  0.00     0.134 A 
ATOM     92  C   UNL     1      11.720   1.046   6.742  1.00  0.00     0.134 A 
ATOM     93  F   UNL     1      10.347   3.841   4.886  1.00  0.00    -0.206 F 
ATOM     94  C   UNL     1      12.472   3.544   5.790  1.00  0.00     0.040 A 
ATOM     95  C   UNL     1      12.983   1.561   7.045  1.00  0.00     0.040 A 
ATOM     96  F   UNL     1      11.387  -0.149   7.255  1.00  0.00    -0.206 F 
ATOM     97  C   UNL     1      13.368   2.808   6.556  1.00  0.00     0.006 A 
ENDBRANCH  73  90
ENDBRANCH  47  48
ENDBRANCH  40  42
ENDBRANCH  39  40
ENDBRANCH  38  39
ENDBRANCH  37  38
ENDBRANCH  36  37
ENDBRANCH  35  36
ENDBRANCH   1  35
TORSDOF 22
