REMARK SMILES Cc1ccc(S(=O)(=O)n2cc(C(=O)C(=O)N[C@H](Cc3c[nH]c4ccccc34)C(=O)NCC(=O)OCCOCCOC(=O)c3ccc(-c4c5nc(c(-c6c(F)cccc6F)c6ccc([nH]6)c(-c6c(F)cccc6F)c6nc(c(-c7c(F)cccc7F)c7ccc4[nH]7)C=C6)C=C5)cc3)c3ccccc32)cc1
REMARK SMILES IDX 35 1 34 2 32 3 33 4 31 5 30 6 28 7 29 8 17 10 16 11 14 12
REMARK SMILES IDX 15 13 12 15 13 16 11 17 9 18 10 19 102 20 97 21 101 22 98 23
REMARK SMILES IDX 100 24 99 25 6 26 7 27 8 28 5 29 1 30 2 31 3 32 104 33 4 34
REMARK SMILES IDX 103 35 18 36 19 37 20 38 27 39 21 40 22 41 26 42 23 44 25 45
REMARK SMILES IDX 24 46 36 47 37 48 38 49 39 50 40 51 41 52 42 53 43 54 44 55
REMARK SMILES IDX 96 56 45 57 95 58 46 59 47 60 48 61 89 62 49 63 94 64 88 65
REMARK SMILES IDX 90 66 50 67 93 68 87 69 86 70 51 72 77 73 60 74 76 75 61 76
REMARK SMILES IDX 64 77 75 78 91 79 62 80 63 81 74 83 92 84 65 85 52 86 53 87
REMARK SMILES IDX 58 88 54 89 55 90 57 91 59 92 56 93 78 94 79 95 84 96 80 97
REMARK SMILES IDX 81 98 83 99 85 100 82 101 66 102 67 103 72 104 68 105 69 106
REMARK SMILES IDX 71 107 73 108 70 109
REMARK H PARENT 30 9 16 14 21 43 90 71 64 82
REMARK Flexibility Score: inf
ROOT
ATOM      1  C   UNL     1     -11.736   4.880  -1.947  1.00  0.00     0.261 C 
ENDROOT
BRANCH   1   2
ATOM      2  O   UNL     1     -12.427   3.671  -1.631  1.00  0.00    -0.462 OA
BRANCH   2   3
ATOM      3  C   UNL     1     -13.739   3.781  -1.280  1.00  0.00     0.325 C 
ATOM      4  O   UNL     1     -14.398   4.787  -1.233  1.00  0.00    -0.250 OA
BRANCH   3   5
ATOM      5  C   UNL     1     -14.266   2.432  -0.822  1.00  0.00     0.238 C 
BRANCH   5   6
ATOM      6  N   UNL     1     -13.524   1.334  -1.393  1.00  0.00    -0.343 N 
ATOM      7  C   UNL     1     -12.336   0.774  -1.081  1.00  0.00     0.243 C 
ATOM      8  O   UNL     1     -11.958  -0.069  -1.904  1.00  0.00    -0.273 OA
ATOM      9  H   UNL     1     -13.972   0.910  -2.160  1.00  0.00     0.164 HD
BRANCH   7  10
ATOM     10  C   UNL     1     -11.451   1.141   0.148  1.00  0.00     0.176 C 
BRANCH  10  11
ATOM     11  N   UNL     1     -12.137   1.427   1.474  1.00  0.00    -0.337 N 
ATOM     12  C   UNL     1     -12.668   2.465   2.236  1.00  0.00     0.293 C 
ATOM     13  O   UNL     1     -13.208   2.178   3.303  1.00  0.00    -0.265 OA
ATOM     14  H   UNL     1     -12.243   0.582   1.968  1.00  0.00     0.164 HD
BRANCH  12  15
ATOM     15  C   UNL     1     -12.636   3.933   1.824  1.00  0.00     0.252 C 
ATOM     16  O   UNL     1     -11.821   4.186   0.937  1.00  0.00    -0.283 OA
BRANCH  15  17
ATOM     17  C   UNL     1     -13.377   5.058   2.468  1.00  0.00     0.054 A 
ATOM     18  N   UNL     1     -13.559   6.654   4.070  1.00  0.00    -0.240 N 
ATOM     19  C   UNL     1     -13.853   5.283   3.777  1.00  0.00     0.117 A 
ATOM     20  C   UNL     1     -12.773   6.998   3.006  1.00  0.00     0.065 A 
ATOM     21  C   UNL     1     -13.403   6.375   1.939  1.00  0.00     0.012 A 
ATOM     22  C   UNL     1     -11.673   7.764   2.824  1.00  0.00     0.028 A 
ATOM     23  C   UNL     1     -13.438   7.047   0.715  1.00  0.00     0.011 A 
ATOM     24  C   UNL     1     -11.739   8.444   1.620  1.00  0.00     0.002 A 
ATOM     25  C   UNL     1     -12.703   8.216   0.633  1.00  0.00     0.001 A 
BRANCH  18  26
ATOM     26  S   UNL     1     -14.851   7.884   4.428  1.00  0.00     0.268 S 
ATOM     27  O   UNL     1     -15.946   7.099   4.964  1.00  0.00    -0.201 OA
ATOM     28  O   UNL     1     -15.012   8.662   3.209  1.00  0.00    -0.201 OA
BRANCH  26  29
ATOM     29  C   UNL     1     -14.383   9.091   5.699  1.00  0.00     0.088 A 
ATOM     30  C   UNL     1     -14.523  13.107   7.343  1.00  0.00     0.044 C 
ATOM     31  C   UNL     1     -14.321  11.644   7.028  1.00  0.00    -0.051 A 
ATOM     32  C   UNL     1     -13.327  11.287   6.140  1.00  0.00     0.005 A 
ATOM     33  C   UNL     1     -15.254  10.656   7.363  1.00  0.00     0.005 A 
ATOM     34  C   UNL     1     -13.492  10.099   5.391  1.00  0.00     0.022 A 
ATOM     35  C   UNL     1     -15.252   9.377   6.745  1.00  0.00     0.022 A 
ENDBRANCH  26  29
ENDBRANCH  18  26
ENDBRANCH  15  17
ENDBRANCH  12  15
ENDBRANCH  10  11
BRANCH  10  36
ATOM     36  C   UNL     1     -10.093   1.842  -0.170  1.00  0.00     0.072 C 
BRANCH  36  37
ATOM     37  C   UNL     1      -9.412   1.540  -1.509  1.00  0.00    -0.020 A 
ATOM     38  C   UNL     1      -9.084   2.495  -2.459  1.00  0.00     0.087 A 
ATOM     39  C   UNL     1      -8.914   0.290  -2.045  1.00  0.00     0.003 A 
ATOM     40  N   UNL     1      -8.563   1.881  -3.562  1.00  0.00    -0.361 N 
ATOM     41  C   UNL     1      -8.417   0.540  -3.330  1.00  0.00     0.046 A 
ATOM     42  C   UNL     1      -8.850  -1.043  -1.583  1.00  0.00     0.010 A 
ATOM     43  H   UNL     1      -8.327   2.337  -4.402  1.00  0.00     0.166 HD
ATOM     44  C   UNL     1      -7.888  -0.449  -4.170  1.00  0.00     0.026 A 
ATOM     45  C   UNL     1      -8.323  -2.050  -2.411  1.00  0.00     0.001 A 
ATOM     46  C   UNL     1      -7.852  -1.756  -3.688  1.00  0.00     0.002 A 
ENDBRANCH  36  37
ENDBRANCH  10  36
ENDBRANCH   7  10
ENDBRANCH   5   6
ENDBRANCH   3   5
ENDBRANCH   2   3
ENDBRANCH   1   2
BRANCH   1  47
ATOM     47  C   UNL     1     -11.866   5.104  -3.435  1.00  0.00     0.202 C 
BRANCH  47  48
ATOM     48  O   UNL     1     -13.059   5.849  -3.639  1.00  0.00    -0.374 OA
BRANCH  48  49
ATOM     49  C   UNL     1     -14.036   5.269  -4.492  1.00  0.00     0.202 C 
BRANCH  49  50
ATOM     50  C   UNL     1     -13.591   5.205  -5.959  1.00  0.00     0.261 C 
BRANCH  50  51
ATOM     51  O   UNL     1     -13.201   6.519  -6.407  1.00  0.00    -0.460 OA
BRANCH  51  52
ATOM     52  C   UNL     1     -11.865   6.689  -6.598  1.00  0.00     0.338 C 
ATOM     53  O   UNL     1     -11.121   5.902  -7.165  1.00  0.00    -0.246 OA
BRANCH  52  54
ATOM     54  C   UNL     1     -11.361   7.788  -5.728  1.00  0.00     0.060 A 
ATOM     55  C   UNL     1      -9.971   7.973  -5.607  1.00  0.00     0.016 A 
ATOM     56  C   UNL     1     -12.214   8.264  -4.741  1.00  0.00     0.016 A 
ATOM     57  C   UNL     1      -9.427   8.438  -4.408  1.00  0.00     0.010 A 
ATOM     58  C   UNL     1     -11.665   8.526  -3.507  1.00  0.00     0.010 A 
ATOM     59  C   UNL     1     -10.271   8.605  -3.322  1.00  0.00    -0.014 A 
BRANCH  59  60
ATOM     60  C   UNL     1      -9.842   8.813  -1.926  1.00  0.00     0.031 A 
ATOM     61  C   UNL     1     -10.400  10.065  -1.280  1.00  0.00     0.074 A 
ATOM     62  C   UNL     1      -9.469   7.650  -1.326  1.00  0.00     0.049 A 
ATOM     63  N   UNL     1     -10.184  10.529  -0.093  1.00  0.00    -0.248 NA
ATOM     64  C   UNL     1     -11.285  10.963  -2.044  1.00  0.00     0.031 C 
ATOM     65  C   UNL     1      -9.820   7.071  -0.046  1.00  0.00     0.029 A 
ATOM     66  N   UNL     1      -8.460   6.776  -1.741  1.00  0.00    -0.354 N 
ATOM     67  C   UNL     1     -11.164  11.494   0.162  1.00  0.00     0.074 A 
ATOM     68  C   UNL     1     -11.812  11.726  -1.096  1.00  0.00     0.031 C 
ATOM     69  C   UNL     1      -8.891   6.232   0.415  1.00  0.00     0.029 A 
ATOM     70  C   UNL     1      -7.858   6.241  -0.567  1.00  0.00     0.049 A 
ATOM     71  H   UNL     1      -8.213   6.570  -2.671  1.00  0.00     0.167 HD
ATOM     72  C   UNL     1     -11.481  11.913   1.426  1.00  0.00     0.037 A 
ATOM     73  C   UNL     1      -6.548   6.418  -0.274  1.00  0.00     0.037 A 
ATOM     74  C   UNL     1     -10.539  11.335   2.436  1.00  0.00     0.049 A 
ATOM     75  C   UNL     1      -6.383   7.333   0.923  1.00  0.00     0.074 A 
ATOM     76  C   UNL     1     -10.665  10.538   3.556  1.00  0.00     0.029 A 
ATOM     77  N   UNL     1      -9.145  11.253   2.172  1.00  0.00    -0.354 N 
ATOM     78  N   UNL     1      -7.110   8.390   1.217  1.00  0.00    -0.248 NA
ATOM     79  C   UNL     1      -5.409   6.994   1.957  1.00  0.00     0.031 C 
ATOM     80  C   UNL     1      -9.470   9.863   3.863  1.00  0.00     0.029 A 
ATOM     81  C   UNL     1      -8.529  10.295   2.966  1.00  0.00     0.049 A 
ATOM     82  H   UNL     1      -8.675  11.807   1.508  1.00  0.00     0.167 HD
ATOM     83  C   UNL     1      -6.647   8.909   2.415  1.00  0.00     0.074 A 
ATOM     84  C   UNL     1      -5.620   7.973   2.847  1.00  0.00     0.031 C 
ATOM     85  C   UNL     1      -7.111  10.032   3.054  1.00  0.00     0.037 A 
BRANCH  72  86
ATOM     86  C   UNL     1     -12.916  12.517   1.611  1.00  0.00     0.057 A 
ATOM     87  C   UNL     1     -13.728  12.198   2.690  1.00  0.00     0.134 A 
ATOM     88  C   UNL     1     -13.587  13.402   0.757  1.00  0.00     0.134 A 
ATOM     89  F   UNL     1     -13.108  12.157   3.857  1.00  0.00    -0.206 F 
ATOM     90  C   UNL     1     -15.138  12.333   2.749  1.00  0.00     0.040 A 
ATOM     91  C   UNL     1     -14.981  13.668   0.819  1.00  0.00     0.040 A 
ATOM     92  F   UNL     1     -12.893  14.121  -0.137  1.00  0.00    -0.206 F 
ATOM     93  C   UNL     1     -15.785  13.055   1.769  1.00  0.00     0.006 A 
ENDBRANCH  72  86
BRANCH  73  94
ATOM     94  C   UNL     1      -5.760   6.358  -1.539  1.00  0.00     0.057 A 
ATOM     95  C   UNL     1      -5.844   5.122  -2.225  1.00  0.00     0.134 A 
ATOM     96  C   UNL     1      -5.641   7.514  -2.312  1.00  0.00     0.134 A 
ATOM     97  F   UNL     1      -5.941   3.974  -1.532  1.00  0.00    -0.206 F 
ATOM     98  C   UNL     1      -6.108   5.070  -3.595  1.00  0.00     0.040 A 
ATOM     99  C   UNL     1      -5.878   7.465  -3.691  1.00  0.00     0.040 A 
ATOM    100  F   UNL     1      -5.531   8.714  -1.727  1.00  0.00    -0.206 F 
ATOM    101  C   UNL     1      -6.189   6.255  -4.320  1.00  0.00     0.006 A 
ENDBRANCH  73  94
BRANCH  85 102
ATOM    102  C   UNL     1      -6.377  10.779   4.162  1.00  0.00     0.057 A 
ATOM    103  C   UNL     1      -4.985  10.768   4.303  1.00  0.00     0.134 A 
ATOM    104  C   UNL     1      -7.049  11.665   5.048  1.00  0.00     0.134 A 
ATOM    105  F   UNL     1      -4.199  10.084   3.461  1.00  0.00    -0.206 F 
ATOM    106  C   UNL     1      -4.325  11.507   5.294  1.00  0.00     0.040 A 
ATOM    107  C   UNL     1      -6.401  12.419   6.024  1.00  0.00     0.040 A 
ATOM    108  F   UNL     1      -8.369  11.890   4.998  1.00  0.00    -0.206 F 
ATOM    109  C   UNL     1      -5.030  12.335   6.157  1.00  0.00     0.006 A 
ENDBRANCH  85 102
ENDBRANCH  59  60
ENDBRANCH  52  54
ENDBRANCH  51  52
ENDBRANCH  50  51
ENDBRANCH  49  50
ENDBRANCH  48  49
ENDBRANCH  47  48
ENDBRANCH   1  47
TORSDOF 23
