REMARK SMILES Cc1ccccc1[C@@H](C)NS(=O)(=O)CC(=O)OCCOCCOC(=O)c1ccc(-c2c3nc(c(-c4c(F)cccc4F)c4ccc([nH]4)c(-c4c(F)cccc4F)c4nc(c(-c5c(F)cccc5F)c5ccc2[nH]5)C=C4)C=C3)cc1
REMARK SMILES IDX 19 1 18 2 17 3 15 4 16 5 14 6 11 7 12 8 13 9 10 10 8 12 9 13
REMARK SMILES IDX 7 14 1 15 2 16 3 17 4 18 6 19 5 20 20 21 21 22 22 23 23 24
REMARK SMILES IDX 24 25 25 26 26 27 27 28 79 29 28 30 78 31 29 32 30 33 31 34
REMARK SMILES IDX 72 35 32 36 77 37 71 38 73 39 33 40 76 41 70 42 69 43 34 45
REMARK SMILES IDX 60 46 43 47 59 48 44 49 47 50 58 51 74 52 45 53 46 54 57 56
REMARK SMILES IDX 75 57 48 58 35 59 36 60 41 61 37 62 38 63 40 64 42 65 39 66
REMARK SMILES IDX 61 67 62 68 67 69 63 70 64 71 66 72 68 73 65 74 49 75 50 76
REMARK SMILES IDX 55 77 51 78 52 79 54 80 56 81 53 82
REMARK H PARENT 10 11 73 44 47 55
REMARK Flexibility Score: inf
ROOT
ATOM      1  C   UNL     1       1.421   3.072   3.522  1.00  0.00     0.202 C 
ENDROOT
BRANCH   1   2
ATOM      2  C   UNL     1       2.556   4.039   3.615  1.00  0.00     0.261 C 
BRANCH   2   3
ATOM      3  O   UNL     1       2.646   4.928   2.500  1.00  0.00    -0.462 OA
BRANCH   3   4
ATOM      4  C   UNL     1       3.259   4.471   1.379  1.00  0.00     0.322 C 
ATOM      5  O   UNL     1       4.081   3.567   1.330  1.00  0.00    -0.251 OA
BRANCH   4   6
ATOM      6  C   UNL     1       2.830   5.255   0.193  1.00  0.00     0.276 C 
BRANCH   6   7
ATOM      7  S   UNL     1       1.050   5.318   0.116  1.00  0.00     0.223 S 
ATOM      8  O   UNL     1       0.665   5.864  -1.155  1.00  0.00    -0.212 OA
ATOM      9  O   UNL     1       0.509   5.918   1.329  1.00  0.00    -0.212 OA
BRANCH   7  10
ATOM     10  N   UNL     1       0.563   3.720   0.174  1.00  0.00    -0.207 NA
ATOM     11  H   UNL     1       0.932   3.348   1.049  1.00  0.00     0.141 HD
BRANCH  10  12
ATOM     12  C   UNL     1       0.907   2.726  -0.866  1.00  0.00     0.096 C 
ATOM     13  C   UNL     1       0.527   3.201  -2.262  1.00  0.00     0.031 C 
BRANCH  12  14
ATOM     14  C   UNL     1       0.234   1.372  -0.603  1.00  0.00    -0.027 A 
ATOM     15  C   UNL     1       2.431  -0.007  -0.664  1.00  0.00     0.044 C 
ATOM     16  C   UNL     1       0.938   0.145  -0.525  1.00  0.00    -0.046 A 
ATOM     17  C   UNL     1       0.221  -1.046  -0.272  1.00  0.00     0.004 A 
ATOM     18  C   UNL     1      -1.156  -1.038  -0.066  1.00  0.00     0.000 A 
ATOM     19  C   UNL     1      -1.170   1.345  -0.413  1.00  0.00     0.005 A 
ATOM     20  C   UNL     1      -1.852   0.160  -0.133  1.00  0.00     0.000 A 
ENDBRANCH  12  14
ENDBRANCH  10  12
ENDBRANCH   7  10
ENDBRANCH   6   7
ENDBRANCH   4   6
ENDBRANCH   3   4
ENDBRANCH   2   3
ENDBRANCH   1   2
BRANCH   1  21
ATOM     21  O   UNL     1       1.950   1.905   2.914  1.00  0.00    -0.374 OA
BRANCH  21  22
ATOM     22  C   UNL     1       0.990   0.901   2.657  1.00  0.00     0.202 C 
BRANCH  22  23
ATOM     23  C   UNL     1       0.170   0.424   3.857  1.00  0.00     0.261 C 
BRANCH  23  24
ATOM     24  O   UNL     1       1.023  -0.251   4.797  1.00  0.00    -0.460 OA
BRANCH  24  25
ATOM     25  C   UNL     1       1.316   0.459   5.919  1.00  0.00     0.338 C 
ATOM     26  O   UNL     1       0.498   0.998   6.647  1.00  0.00    -0.246 OA
BRANCH  25  27
ATOM     27  C   UNL     1       2.777   0.757   5.952  1.00  0.00     0.060 A 
ATOM     28  C   UNL     1       3.270   1.691   6.878  1.00  0.00     0.016 A 
ATOM     29  C   UNL     1       3.542   0.411   4.845  1.00  0.00     0.016 A 
ATOM     30  C   UNL     1       4.437   2.413   6.590  1.00  0.00     0.010 A 
ATOM     31  C   UNL     1       4.595   1.229   4.498  1.00  0.00     0.010 A 
ATOM     32  C   UNL     1       5.042   2.253   5.346  1.00  0.00    -0.014 A 
BRANCH  32  33
ATOM     33  C   UNL     1       6.092   3.113   4.782  1.00  0.00     0.031 A 
ATOM     34  C   UNL     1       7.382   2.477   4.423  1.00  0.00     0.074 A 
ATOM     35  C   UNL     1       5.861   4.397   4.396  1.00  0.00     0.049 A 
ATOM     36  N   UNL     1       8.466   3.139   4.229  1.00  0.00    -0.248 NA
ATOM     37  C   UNL     1       7.576   1.038   4.252  1.00  0.00     0.031 C 
ATOM     38  C   UNL     1       6.669   5.256   3.525  1.00  0.00     0.029 A 
ATOM     39  N   UNL     1       4.819   5.262   4.758  1.00  0.00    -0.354 N 
ATOM     40  C   UNL     1       9.374   2.307   3.620  1.00  0.00     0.074 A 
ATOM     41  C   UNL     1       8.788   0.994   3.695  1.00  0.00     0.031 C 
ATOM     42  C   UNL     1       6.321   6.544   3.720  1.00  0.00     0.029 A 
ATOM     43  C   UNL     1       5.329   6.566   4.781  1.00  0.00     0.049 A 
ATOM     44  H   UNL     1       3.892   4.998   4.961  1.00  0.00     0.167 HD
ATOM     45  C   UNL     1      10.461   2.868   3.020  1.00  0.00     0.037 A 
ATOM     46  C   UNL     1       5.298   7.303   5.920  1.00  0.00     0.037 A 
ATOM     47  C   UNL     1      10.448   4.324   3.211  1.00  0.00     0.049 A 
ATOM     48  C   UNL     1       6.717   7.575   6.311  1.00  0.00     0.074 A 
ATOM     49  C   UNL     1      10.067   5.377   2.394  1.00  0.00     0.029 A 
ATOM     50  N   UNL     1      10.491   4.838   4.508  1.00  0.00    -0.354 N 
ATOM     51  N   UNL     1       7.705   6.822   5.905  1.00  0.00    -0.248 NA
ATOM     52  C   UNL     1       7.167   8.743   7.056  1.00  0.00     0.031 C 
ATOM     53  C   UNL     1       9.822   6.509   3.221  1.00  0.00     0.029 A 
ATOM     54  C   UNL     1      10.072   6.156   4.539  1.00  0.00     0.049 A 
ATOM     55  H   UNL     1      10.782   4.329   5.298  1.00  0.00     0.167 HD
ATOM     56  C   UNL     1       8.885   7.421   6.208  1.00  0.00     0.074 A 
ATOM     57  C   UNL     1       8.503   8.599   6.971  1.00  0.00     0.031 C 
ATOM     58  C   UNL     1      10.081   6.923   5.783  1.00  0.00     0.037 A 
BRANCH  45  59
ATOM     59  C   UNL     1      11.374   2.132   2.065  1.00  0.00     0.057 A 
ATOM     60  C   UNL     1      12.059   2.819   1.044  1.00  0.00     0.134 A 
ATOM     61  C   UNL     1      11.613   0.744   2.083  1.00  0.00     0.134 A 
ATOM     62  F   UNL     1      12.004   4.152   0.932  1.00  0.00    -0.206 F 
ATOM     63  C   UNL     1      12.843   2.172   0.077  1.00  0.00     0.040 A 
ATOM     64  C   UNL     1      12.348   0.077   1.090  1.00  0.00     0.040 A 
ATOM     65  F   UNL     1      11.202  -0.028   3.095  1.00  0.00    -0.206 F 
ATOM     66  C   UNL     1      12.966   0.792   0.078  1.00  0.00     0.006 A 
ENDBRANCH  45  59
BRANCH  46  67
ATOM     67  C   UNL     1       4.104   6.969   6.758  1.00  0.00     0.057 A 
ATOM     68  C   UNL     1       2.835   7.262   6.204  1.00  0.00     0.134 A 
ATOM     69  C   UNL     1       4.132   5.987   7.751  1.00  0.00     0.134 A 
ATOM     70  F   UNL     1       2.725   8.193   5.241  1.00  0.00    -0.206 F 
ATOM     71  C   UNL     1       1.694   6.504   6.496  1.00  0.00     0.040 A 
ATOM     72  C   UNL     1       2.985   5.234   8.066  1.00  0.00     0.040 A 
ATOM     73  F   UNL     1       5.288   5.634   8.329  1.00  0.00    -0.206 F 
ATOM     74  C   UNL     1       1.780   5.452   7.398  1.00  0.00     0.006 A 
ENDBRANCH  46  67
BRANCH  58  75
ATOM     75  C   UNL     1      11.386   7.201   6.471  1.00  0.00     0.057 A 
ATOM     76  C   UNL     1      11.479   7.599   7.814  1.00  0.00     0.134 A 
ATOM     77  C   UNL     1      12.612   6.883   5.850  1.00  0.00     0.134 A 
ATOM     78  F   UNL     1      10.392   7.805   8.570  1.00  0.00    -0.206 F 
ATOM     79  C   UNL     1      12.704   7.743   8.468  1.00  0.00     0.040 A 
ATOM     80  C   UNL     1      13.834   6.951   6.518  1.00  0.00     0.040 A 
ATOM     81  F   UNL     1      12.680   6.453   4.582  1.00  0.00    -0.206 F 
ATOM     82  C   UNL     1      13.886   7.404   7.826  1.00  0.00     0.006 A 
ENDBRANCH  58  75
ENDBRANCH  32  33
ENDBRANCH  25  27
ENDBRANCH  24  25
ENDBRANCH  23  24
ENDBRANCH  22  23
ENDBRANCH  21  22
ENDBRANCH   1  21
TORSDOF 18
