REMARK SMILES Cc1ccc(CNc2ccc(C(=O)OCCOCCOC(=O)c3ccc(-c4c5nc(c(-c6c(F)cccc6F)c6ccc([nH]6)c(-c6c(F)cccc6F)c6nc(c(-c7c(F)cccc7F)c7ccc4[nH]7)C=C6)C=C5)cc3)cc2Br)cc1
REMARK SMILES IDX 16 1 15 2 14 3 12 4 13 5 11 6 8 7 9 8 78 9 10 10 77 11 79 12
REMARK SMILES IDX 7 13 6 15 5 16 1 17 2 18 3 19 81 20 4 21 80 22 17 23 18 24
REMARK SMILES IDX 19 25 20 26 21 27 22 28 23 29 24 30 76 31 25 32 75 33 26 34
REMARK SMILES IDX 27 35 28 36 69 37 29 38 74 39 68 40 70 41 30 42 73 43 67 44
REMARK SMILES IDX 66 45 31 47 57 48 40 49 56 50 41 51 44 52 55 53 71 54 42 55
REMARK SMILES IDX 43 56 54 58 72 59 45 60 32 61 33 62 38 63 34 64 35 65 37 66
REMARK SMILES IDX 39 67 36 68 58 69 59 70 64 71 60 72 61 73 63 74 65 75 62 76
REMARK SMILES IDX 46 77 47 78 52 79 48 80 49 81 51 82 53 83 50 84
REMARK H PARENT 7 14 70 46 44 57
REMARK Flexibility Score: inf
ROOT
ATOM      1  C   UNL     1      -9.254  -4.562  -1.770  1.00  0.00     0.202 C 
ENDROOT
BRANCH   1   2
ATOM      2  C   UNL     1      -8.727  -5.017  -0.460  1.00  0.00     0.261 C 
BRANCH   2   3
ATOM      3  O   UNL     1      -7.522  -4.328  -0.143  1.00  0.00    -0.460 OA
BRANCH   3   4
ATOM      4  C   UNL     1      -6.369  -4.748  -0.737  1.00  0.00     0.338 C 
ATOM      5  O   UNL     1      -6.085  -5.840  -1.163  1.00  0.00    -0.246 OA
BRANCH   4   6
ATOM      6  C   UNL     1      -5.580  -3.517  -0.915  1.00  0.00     0.061 A 
ATOM      7  C   UNL     1      -4.271  -1.123  -1.421  1.00  0.00     0.049 A 
ATOM      8  C   UNL     1      -5.354  -1.158  -0.540  1.00  0.00     0.028 A 
ATOM      9  C   UNL     1      -3.896  -2.296  -2.104  1.00  0.00     0.042 A 
ATOM     10  C   UNL     1      -5.969  -2.350  -0.246  1.00  0.00     0.018 A 
ATOM     11  C   UNL     1      -4.549  -3.500  -1.852  1.00  0.00     0.033 A 
ATOM     12  Br  UNL     1      -2.474  -2.290  -3.362  1.00  0.00    -0.049 Br
BRANCH   7  13
ATOM     13  N   UNL     1      -3.498   0.039  -1.446  1.00  0.00    -0.380 N 
ATOM     14  H   UNL     1      -3.270   0.509  -2.280  1.00  0.00     0.160 HD
BRANCH  13  15
ATOM     15  C   UNL     1      -3.056   0.499  -0.134  1.00  0.00     0.148 C 
BRANCH  15  16
ATOM     16  C   UNL     1      -1.568   0.347  -0.038  1.00  0.00    -0.029 A 
ATOM     17  C   UNL     1       2.706  -0.051   0.015  1.00  0.00     0.044 C 
ATOM     18  C   UNL     1       1.216   0.089   0.022  1.00  0.00    -0.051 A 
ATOM     19  C   UNL     1       0.408  -1.053   0.041  1.00  0.00     0.004 A 
ATOM     20  C   UNL     1       0.622   1.356  -0.010  1.00  0.00     0.004 A 
ATOM     21  C   UNL     1      -0.978  -0.925   0.019  1.00  0.00     0.006 A 
ATOM     22  C   UNL     1      -0.762   1.485  -0.043  1.00  0.00     0.006 A 
ENDBRANCH  15  16
ENDBRANCH  13  15
ENDBRANCH   7  13
ENDBRANCH   4   6
ENDBRANCH   3   4
ENDBRANCH   2   3
ENDBRANCH   1   2
BRANCH   1  23
ATOM     23  O   UNL     1      -8.491  -5.277  -2.728  1.00  0.00    -0.374 OA
BRANCH  23  24
ATOM     24  C   UNL     1      -8.855  -5.046  -4.070  1.00  0.00     0.202 C 
BRANCH  24  25
ATOM     25  C   UNL     1     -10.341  -5.331  -4.334  1.00  0.00     0.261 C 
BRANCH  25  26
ATOM     26  O   UNL     1     -10.637  -6.707  -3.995  1.00  0.00    -0.460 OA
BRANCH  26  27
ATOM     27  C   UNL     1     -11.364  -6.931  -2.861  1.00  0.00     0.338 C 
ATOM     28  O   UNL     1     -12.356  -6.306  -2.520  1.00  0.00    -0.246 OA
BRANCH  27  29
ATOM     29  C   UNL     1     -10.591  -7.816  -1.933  1.00  0.00     0.060 A 
ATOM     30  C   UNL     1     -10.974  -7.933  -0.579  1.00  0.00     0.016 A 
ATOM     31  C   UNL     1      -9.311  -8.199  -2.319  1.00  0.00     0.016 A 
ATOM     32  C   UNL     1     -10.021  -8.250   0.407  1.00  0.00     0.010 A 
ATOM     33  C   UNL     1      -8.360  -8.393  -1.340  1.00  0.00     0.010 A 
ATOM     34  C   UNL     1      -8.687  -8.379   0.032  1.00  0.00    -0.014 A 
BRANCH  34  35
ATOM     35  C   UNL     1      -7.514  -8.384   0.924  1.00  0.00     0.031 A 
ATOM     36  C   UNL     1      -6.628  -9.565   0.846  1.00  0.00     0.074 A 
ATOM     37  C   UNL     1      -7.071  -7.263   1.554  1.00  0.00     0.049 A 
ATOM     38  N   UNL     1      -5.657  -9.793   1.654  1.00  0.00    -0.248 NA
ATOM     39  C   UNL     1      -6.801 -10.635  -0.132  1.00  0.00     0.031 C 
ATOM     40  C   UNL     1      -5.704  -6.921   1.964  1.00  0.00     0.029 A 
ATOM     41  N   UNL     1      -7.782  -6.125   1.949  1.00  0.00    -0.354 N 
ATOM     42  C   UNL     1      -4.889 -10.799   1.115  1.00  0.00     0.074 A 
ATOM     43  C   UNL     1      -5.717 -11.378   0.093  1.00  0.00     0.031 C 
ATOM     44  C   UNL     1      -5.723  -5.846   2.777  1.00  0.00     0.029 A 
ATOM     45  C   UNL     1      -7.116  -5.521   3.025  1.00  0.00     0.049 A 
ATOM     46  H   UNL     1      -8.615  -5.801   1.538  1.00  0.00     0.167 HD
ATOM     47  C   UNL     1      -3.594 -10.902   1.530  1.00  0.00     0.037 A 
ATOM     48  C   UNL     1      -7.758  -5.323   4.206  1.00  0.00     0.037 A 
ATOM     49  C   UNL     1      -3.346  -9.941   2.623  1.00  0.00     0.049 A 
ATOM     50  C   UNL     1      -7.068  -6.193   5.212  1.00  0.00     0.074 A 
ATOM     51  C   UNL     1      -2.690  -8.722   2.682  1.00  0.00     0.029 A 
ATOM     52  N   UNL     1      -4.124 -10.013   3.784  1.00  0.00    -0.354 N 
ATOM     53  N   UNL     1      -6.366  -7.234   4.851  1.00  0.00    -0.248 NA
ATOM     54  C   UNL     1      -6.984  -5.922   6.640  1.00  0.00     0.031 C 
ATOM     55  C   UNL     1      -3.143  -8.035   3.848  1.00  0.00     0.029 A 
ATOM     56  C   UNL     1      -4.053  -8.842   4.518  1.00  0.00     0.049 A 
ATOM     57  H   UNL     1      -4.654 -10.800   4.046  1.00  0.00     0.167 HD
ATOM     58  C   UNL     1      -5.664  -7.696   5.913  1.00  0.00     0.074 A 
ATOM     59  C   UNL     1      -6.121  -6.880   7.027  1.00  0.00     0.031 C 
ATOM     60  C   UNL     1      -4.762  -8.708   5.792  1.00  0.00     0.037 A 
BRANCH  47  61
ATOM     61  C   UNL     1      -2.491 -11.687   0.829  1.00  0.00     0.057 A 
ATOM     62  C   UNL     1      -1.148 -11.527   1.230  1.00  0.00     0.134 A 
ATOM     63  C   UNL     1      -2.642 -12.569  -0.262  1.00  0.00     0.134 A 
ATOM     64  F   UNL     1      -0.813 -10.754   2.271  1.00  0.00    -0.206 F 
ATOM     65  C   UNL     1      -0.067 -12.152   0.584  1.00  0.00     0.040 A 
ATOM     66  C   UNL     1      -1.572 -13.198  -0.918  1.00  0.00     0.040 A 
ATOM     67  F   UNL     1      -3.825 -12.905  -0.771  1.00  0.00    -0.206 F 
ATOM     68  C   UNL     1      -0.274 -12.988  -0.500  1.00  0.00     0.006 A 
ENDBRANCH  47  61
BRANCH  48  69
ATOM     69  C   UNL     1      -9.218  -5.073   3.984  1.00  0.00     0.057 A 
ATOM     70  C   UNL     1      -9.569  -3.863   3.340  1.00  0.00     0.134 A 
ATOM     71  C   UNL     1     -10.132  -6.127   3.864  1.00  0.00     0.134 A 
ATOM     72  F   UNL     1      -8.734  -2.811   3.385  1.00  0.00    -0.206 F 
ATOM     73  C   UNL     1     -10.683  -3.759   2.495  1.00  0.00     0.040 A 
ATOM     74  C   UNL     1     -11.248  -6.032   3.016  1.00  0.00     0.040 A 
ATOM     75  F   UNL     1      -9.876  -7.315   4.429  1.00  0.00    -0.206 F 
ATOM     76  C   UNL     1     -11.498  -4.866   2.291  1.00  0.00     0.006 A 
ENDBRANCH  48  69
BRANCH  60  77
ATOM     77  C   UNL     1      -4.446  -9.626   6.932  1.00  0.00     0.057 A 
ATOM     78  C   UNL     1      -5.326  -9.842   8.005  1.00  0.00     0.134 A 
ATOM     79  C   UNL     1      -3.324 -10.476   6.886  1.00  0.00     0.134 A 
ATOM     80  F   UNL     1      -6.505  -9.211   8.095  1.00  0.00    -0.206 F 
ATOM     81  C   UNL     1      -5.062 -10.769   9.012  1.00  0.00     0.040 A 
ATOM     82  C   UNL     1      -3.092 -11.459   7.846  1.00  0.00     0.040 A 
ATOM     83  F   UNL     1      -2.429 -10.419   5.889  1.00  0.00    -0.206 F 
ATOM     84  C   UNL     1      -3.948 -11.590   8.929  1.00  0.00     0.006 A 
ENDBRANCH  60  77
ENDBRANCH  34  35
ENDBRANCH  27  29
ENDBRANCH  26  27
ENDBRANCH  25  26
ENDBRANCH  24  25
ENDBRANCH  23  24
ENDBRANCH   1  23
TORSDOF 17
