REMARK SMILES CC[C@@](C)(NS(=O)(=O)c1ccc(F)c(F)c1)C(=O)OCCOCCOC(=O)c1ccc(-c2c3nc(c(-c4c(F)cccc4F)c4ccc([nH]4)c(-c4c(F)cccc4F)c4nc(c(-c5c(F)cccc5F)c5ccc2[nH]5)C=C4)C=C3)cc1
REMARK SMILES IDX 21 1 20 2 19 3 17 4 18 5 3 6 4 7 2 8 1 9 5 10 6 12 7 13 8 14
REMARK SMILES IDX 9 15 10 16 16 17 11 18 14 19 12 20 15 21 13 22 22 23 23 24
REMARK SMILES IDX 24 25 25 26 26 27 27 28 28 29 29 30 81 31 30 32 80 33 31 34
REMARK SMILES IDX 32 35 33 36 74 37 34 38 79 39 73 40 75 41 35 42 78 43 72 44
REMARK SMILES IDX 71 45 36 47 62 48 45 49 61 50 46 51 49 52 60 53 76 54 47 55
REMARK SMILES IDX 48 56 59 58 77 59 50 60 37 61 38 62 43 63 39 64 40 65 42 66
REMARK SMILES IDX 44 67 41 68 63 69 64 70 69 71 65 72 66 73 68 74 70 75 67 76
REMARK SMILES IDX 51 77 52 78 57 79 53 80 54 81 56 82 58 83 55 84
REMARK H PARENT 5 11 75 46 49 57
REMARK Flexibility Score: inf
ROOT
ATOM      1  C   UNL     1       5.104  -0.349   2.544  1.00  0.00     0.202 C 
ENDROOT
BRANCH   1   2
ATOM      2  C   UNL     1       4.502   0.707   1.608  1.00  0.00     0.261 C 
BRANCH   2   3
ATOM      3  O   UNL     1       3.201   1.057   2.103  1.00  0.00    -0.462 OA
BRANCH   3   4
ATOM      4  C   UNL     1       2.304   1.550   1.215  1.00  0.00     0.327 C 
ATOM      5  O   UNL     1       2.583   1.856   0.063  1.00  0.00    -0.250 OA
BRANCH   4   6
ATOM      6  C   UNL     1       0.883   1.566   1.812  1.00  0.00     0.127 C 
ATOM      7  C   UNL     1       0.132   2.772   1.248  1.00  0.00     0.042 C 
BRANCH   6   8
ATOM      8  C   UNL     1       0.173   0.237   1.398  1.00  0.00     0.032 C 
ATOM      9  C   UNL     1       0.143  -0.108  -0.087  1.00  0.00     0.006 C 
ENDBRANCH   6   8
BRANCH   6  10
ATOM     10  N   UNL     1       0.843   1.548   3.308  1.00  0.00    -0.194 NA
ATOM     11  H   UNL     1       1.627   0.953   3.574  1.00  0.00     0.142 HD
BRANCH  10  12
ATOM     12  S   UNL     1       0.911   2.821   4.381  1.00  0.00     0.241 S 
ATOM     13  O   UNL     1       0.078   3.894   3.902  1.00  0.00    -0.207 OA
ATOM     14  O   UNL     1       0.694   2.222   5.682  1.00  0.00    -0.207 OA
BRANCH  12  15
ATOM     15  C   UNL     1       2.592   3.367   4.375  1.00  0.00     0.085 A 
ATOM     16  C   UNL     1       3.608   2.428   4.547  1.00  0.00     0.025 A 
ATOM     17  C   UNL     1       2.899   4.721   4.241  1.00  0.00     0.064 A 
ATOM     18  C   UNL     1       4.943   2.823   4.483  1.00  0.00     0.044 A 
ATOM     19  C   UNL     1       4.237   5.108   4.229  1.00  0.00     0.160 A 
ATOM     20  C   UNL     1       5.251   4.163   4.323  1.00  0.00     0.158 A 
ATOM     21  F   UNL     1       4.546   6.407   4.130  1.00  0.00    -0.204 F 
ATOM     22  F   UNL     1       6.538   4.534   4.284  1.00  0.00    -0.204 F 
ENDBRANCH  12  15
ENDBRANCH  10  12
ENDBRANCH   6  10
ENDBRANCH   4   6
ENDBRANCH   3   4
ENDBRANCH   2   3
ENDBRANCH   1   2
BRANCH   1  23
ATOM     23  O   UNL     1       4.324  -1.547   2.583  1.00  0.00    -0.374 OA
BRANCH  23  24
ATOM     24  C   UNL     1       3.238  -1.561   3.516  1.00  0.00     0.202 C 
BRANCH  24  25
ATOM     25  C   UNL     1       3.651  -1.938   4.942  1.00  0.00     0.261 C 
BRANCH  25  26
ATOM     26  O   UNL     1       3.998  -0.759   5.706  1.00  0.00    -0.460 OA
BRANCH  26  27
ATOM     27  C   UNL     1       5.215  -0.770   6.303  1.00  0.00     0.338 C 
ATOM     28  O   UNL     1       6.042  -1.665   6.236  1.00  0.00    -0.246 OA
BRANCH  27  29
ATOM     29  C   UNL     1       5.501   0.530   6.968  1.00  0.00     0.060 A 
ATOM     30  C   UNL     1       6.827   0.983   6.935  1.00  0.00     0.016 A 
ATOM     31  C   UNL     1       4.526   1.304   7.613  1.00  0.00     0.016 A 
ATOM     32  C   UNL     1       7.184   2.182   7.556  1.00  0.00     0.010 A 
ATOM     33  C   UNL     1       4.888   2.511   8.243  1.00  0.00     0.010 A 
ATOM     34  C   UNL     1       6.227   2.940   8.248  1.00  0.00    -0.014 A 
BRANCH  34  35
ATOM     35  C   UNL     1       6.721   4.000   9.173  1.00  0.00     0.031 A 
ATOM     36  C   UNL     1       7.091   3.583  10.571  1.00  0.00     0.074 A 
ATOM     37  C   UNL     1       6.965   5.266   8.784  1.00  0.00     0.049 A 
ATOM     38  N   UNL     1       7.766   4.233  11.483  1.00  0.00    -0.248 NA
ATOM     39  C   UNL     1       6.656   2.239  10.983  1.00  0.00     0.031 C 
ATOM     40  C   UNL     1       6.679   5.819   7.467  1.00  0.00     0.029 A 
ATOM     41  N   UNL     1       7.540   6.314   9.467  1.00  0.00    -0.354 N 
ATOM     42  C   UNL     1       7.878   3.360  12.556  1.00  0.00     0.074 A 
ATOM     43  C   UNL     1       7.150   2.160  12.208  1.00  0.00     0.031 C 
ATOM     44  C   UNL     1       7.087   7.101   7.427  1.00  0.00     0.029 A 
ATOM     45  C   UNL     1       7.673   7.460   8.717  1.00  0.00     0.049 A 
ATOM     46  H   UNL     1       7.828   6.250  10.406  1.00  0.00     0.167 HD
ATOM     47  C   UNL     1       8.545   3.525  13.722  1.00  0.00     0.037 A 
ATOM     48  C   UNL     1       8.223   8.651   9.030  1.00  0.00     0.037 A 
ATOM     49  C   UNL     1       9.224   4.729  14.111  1.00  0.00     0.049 A 
ATOM     50  C   UNL     1       8.872   8.848  10.378  1.00  0.00     0.074 A 
ATOM     51  C   UNL     1       9.909   4.993  15.284  1.00  0.00     0.029 A 
ATOM     52  N   UNL     1       9.281   5.883  13.345  1.00  0.00    -0.354 N 
ATOM     53  N   UNL     1       9.052   7.984  11.348  1.00  0.00    -0.248 NA
ATOM     54  C   UNL     1       9.415  10.186  10.665  1.00  0.00     0.031 C 
ATOM     55  C   UNL     1      10.336   6.325  15.250  1.00  0.00     0.029 A 
ATOM     56  C   UNL     1       9.964   6.872  14.033  1.00  0.00     0.049 A 
ATOM     57  H   UNL     1       8.892   5.984  12.446  1.00  0.00     0.167 HD
ATOM     58  C   UNL     1       9.769   8.657  12.332  1.00  0.00     0.074 A 
ATOM     59  C   UNL     1       9.994  10.000  11.842  1.00  0.00     0.031 C 
ATOM     60  C   UNL     1      10.208   8.199  13.530  1.00  0.00     0.037 A 
BRANCH  47  61
ATOM     61  C   UNL     1       8.537   2.364  14.667  1.00  0.00     0.057 A 
ATOM     62  C   UNL     1       9.283   1.205  14.409  1.00  0.00     0.134 A 
ATOM     63  C   UNL     1       7.761   2.392  15.830  1.00  0.00     0.134 A 
ATOM     64  F   UNL     1      10.028   1.109  13.297  1.00  0.00    -0.206 F 
ATOM     65  C   UNL     1       9.233   0.103  15.263  1.00  0.00     0.040 A 
ATOM     66  C   UNL     1       7.722   1.306  16.704  1.00  0.00     0.040 A 
ATOM     67  F   UNL     1       7.023   3.471  16.130  1.00  0.00    -0.206 F 
ATOM     68  C   UNL     1       8.453   0.154  16.416  1.00  0.00     0.006 A 
ENDBRANCH  47  61
BRANCH  48  69
ATOM     69  C   UNL     1       8.220   9.770   8.048  1.00  0.00     0.057 A 
ATOM     70  C   UNL     1       9.409  10.241   7.477  1.00  0.00     0.134 A 
ATOM     71  C   UNL     1       7.039  10.447   7.723  1.00  0.00     0.134 A 
ATOM     72  F   UNL     1      10.579   9.655   7.774  1.00  0.00    -0.206 F 
ATOM     73  C   UNL     1       9.429  11.362   6.644  1.00  0.00     0.040 A 
ATOM     74  C   UNL     1       7.041  11.555   6.872  1.00  0.00     0.040 A 
ATOM     75  F   UNL     1       5.868  10.054   8.243  1.00  0.00    -0.206 F 
ATOM     76  C   UNL     1       8.241  12.022   6.339  1.00  0.00     0.006 A 
ENDBRANCH  48  69
BRANCH  60  77
ATOM     77  C   UNL     1      11.030   9.129  14.377  1.00  0.00     0.057 A 
ATOM     78  C   UNL     1      10.472  10.237  15.027  1.00  0.00     0.134 A 
ATOM     79  C   UNL     1      12.393   8.880  14.583  1.00  0.00     0.134 A 
ATOM     80  F   UNL     1       9.175  10.539  14.865  1.00  0.00    -0.206 F 
ATOM     81  C   UNL     1      11.246  11.077  15.831  1.00  0.00     0.040 A 
ATOM     82  C   UNL     1      13.170   9.695  15.407  1.00  0.00     0.040 A 
ATOM     83  F   UNL     1      12.990   7.829  14.000  1.00  0.00    -0.206 F 
ATOM     84  C   UNL     1      12.598  10.802  16.029  1.00  0.00     0.006 A 
ENDBRANCH  60  77
ENDBRANCH  34  35
ENDBRANCH  27  29
ENDBRANCH  26  27
ENDBRANCH  25  26
ENDBRANCH  24  25
ENDBRANCH  23  24
ENDBRANCH   1  23
TORSDOF 18
