REMARK SMILES C[C@H]1[C@@H](C(=O)OCCOCCOC(=O)c2ccc(-c3c4nc(c(-c5c(F)cccc5F)c5ccc([nH]5)c(-c5c(F)cccc5F)c5nc(c(-c6c(F)cccc6F)c6ccc3[nH]6)C=C5)C=C4)cc2)CC[N@@H+]1CC1(O)CCCC1
REMARK SMILES IDX 8 1 7 2 6 3 4 4 5 5 3 6 1 7 2 8 71 9 69 10 70 11 72 13 73 14
REMARK SMILES IDX 75 15 78 16 76 17 77 18 74 19 9 21 10 22 11 23 12 24 13 25
REMARK SMILES IDX 14 26 15 27 16 28 68 29 17 30 67 31 18 32 19 33 20 34 61 35
REMARK SMILES IDX 21 36 66 37 60 38 62 39 22 40 65 41 59 42 58 43 23 45 49 46
REMARK SMILES IDX 32 47 48 48 33 49 36 50 47 51 63 52 34 53 35 54 46 56 64 57
REMARK SMILES IDX 37 58 24 59 25 60 30 61 26 62 27 63 29 64 31 65 28 66 50 67
REMARK SMILES IDX 51 68 56 69 52 70 53 71 55 72 57 73 54 74 38 75 39 76 44 77
REMARK SMILES IDX 40 78 41 79 43 80 45 81 42 82
REMARK H PARENT 71 12 74 20 62 44 36 55
REMARK Flexibility Score: inf
ROOT
ATOM      1  C   UNL     1       1.496   2.418  -3.902  1.00  0.00     0.202 C 
ENDROOT
BRANCH   1   2
ATOM      2  C   UNL     1       1.749   3.239  -2.636  1.00  0.00     0.261 C 
BRANCH   2   3
ATOM      3  O   UNL     1       1.549   2.408  -1.477  1.00  0.00    -0.463 OA
BRANCH   3   4
ATOM      4  C   UNL     1       0.447   2.672  -0.749  1.00  0.00     0.315 C 
ATOM      5  O   UNL     1      -0.250   3.673  -0.892  1.00  0.00    -0.252 OA
BRANCH   4   6
ATOM      6  C   UNL     1       0.077   1.597   0.251  1.00  0.00     0.162 C 
ATOM      7  C   UNL     1       1.961  -0.123  -0.451  1.00  0.00     0.076 C 
ATOM      8  C   UNL     1       0.886   0.316   0.541  1.00  0.00     0.195 C 
ATOM      9  N   UNL     1      -0.095  -0.783   0.627  1.00  0.00    -0.330 N 
ATOM     10  C   UNL     1      -1.355   1.121  -0.026  1.00  0.00     0.083 C 
ATOM     11  C   UNL     1      -1.273  -0.388  -0.135  1.00  0.00     0.263 C 
ATOM     12  H   UNL     1       0.341  -1.606   0.211  1.00  0.00     0.348 HD
BRANCH   9  13
ATOM     13  C   UNL     1      -0.387  -1.335   1.964  1.00  0.00     0.297 C 
BRANCH  13  14
ATOM     14  C   UNL     1      -1.175  -0.521   3.031  1.00  0.00     0.113 C 
ATOM     15  C   UNL     1      -0.459   0.725   3.555  1.00  0.00     0.041 C 
ATOM     16  C   UNL     1      -1.369  -1.315   4.330  1.00  0.00     0.041 C 
ATOM     17  C   UNL     1      -1.116   1.042   4.894  1.00  0.00     0.003 C 
ATOM     18  C   UNL     1      -1.763  -0.256   5.361  1.00  0.00     0.003 C 
BRANCH  14  19
ATOM     19  O   UNL     1      -2.480  -0.205   2.534  1.00  0.00    -0.384 OA
ATOM     20  H   UNL     1      -2.398   0.300   1.710  1.00  0.00     0.211 HD
ENDBRANCH  14  19
ENDBRANCH  13  14
ENDBRANCH   9  13
ENDBRANCH   4   6
ENDBRANCH   3   4
ENDBRANCH   2   3
ENDBRANCH   1   2
BRANCH   1  21
ATOM     21  O   UNL     1       0.123   2.149  -4.194  1.00  0.00    -0.374 OA
BRANCH  21  22
ATOM     22  C   UNL     1      -0.470   1.046  -3.507  1.00  0.00     0.202 C 
BRANCH  22  23
ATOM     23  C   UNL     1      -0.314  -0.321  -4.178  1.00  0.00     0.261 C 
BRANCH  23  24
ATOM     24  O   UNL     1       1.059  -0.742  -4.146  1.00  0.00    -0.460 OA
BRANCH  24  25
ATOM     25  C   UNL     1       1.718  -0.561  -5.310  1.00  0.00     0.338 C 
ATOM     26  O   UNL     1       1.236  -0.242  -6.389  1.00  0.00    -0.246 OA
BRANCH  25  27
ATOM     27  C   UNL     1       3.173  -0.613  -5.083  1.00  0.00     0.060 A 
ATOM     28  C   UNL     1       3.943   0.338  -5.763  1.00  0.00     0.016 A 
ATOM     29  C   UNL     1       3.784  -1.585  -4.285  1.00  0.00     0.016 A 
ATOM     30  C   UNL     1       5.327   0.251  -5.745  1.00  0.00     0.010 A 
ATOM     31  C   UNL     1       5.181  -1.671  -4.265  1.00  0.00     0.010 A 
ATOM     32  C   UNL     1       5.949  -0.794  -5.052  1.00  0.00    -0.014 A 
BRANCH  32  33
ATOM     33  C   UNL     1       7.370  -1.075  -5.362  1.00  0.00     0.031 A 
ATOM     34  C   UNL     1       7.687  -2.172  -6.344  1.00  0.00     0.074 A 
ATOM     35  C   UNL     1       8.346  -0.286  -4.881  1.00  0.00     0.049 A 
ATOM     36  N   UNL     1       8.839  -2.523  -6.855  1.00  0.00    -0.248 NA
ATOM     37  C   UNL     1       6.551  -2.979  -6.818  1.00  0.00     0.031 C 
ATOM     38  C   UNL     1       8.150   0.831  -3.959  1.00  0.00     0.029 A 
ATOM     39  N   UNL     1       9.695  -0.292  -5.125  1.00  0.00    -0.354 N 
ATOM     40  C   UNL     1       8.565  -3.585  -7.708  1.00  0.00     0.074 A 
ATOM     41  C   UNL     1       7.148  -3.853  -7.614  1.00  0.00     0.031 C 
ATOM     42  C   UNL     1       9.339   1.412  -3.723  1.00  0.00     0.029 A 
ATOM     43  C   UNL     1      10.377   0.697  -4.462  1.00  0.00     0.049 A 
ATOM     44  H   UNL     1      10.132  -0.944  -5.719  1.00  0.00     0.167 HD
ATOM     45  C   UNL     1       9.414  -4.265  -8.514  1.00  0.00     0.037 A 
ATOM     46  C   UNL     1      11.691   0.987  -4.455  1.00  0.00     0.037 A 
ATOM     47  C   UNL     1      10.823  -3.991  -8.610  1.00  0.00     0.049 A 
ATOM     48  C   UNL     1      12.624   0.181  -5.319  1.00  0.00     0.074 A 
ATOM     49  C   UNL     1      11.772  -4.614  -9.401  1.00  0.00     0.029 A 
ATOM     50  N   UNL     1      11.486  -3.012  -7.884  1.00  0.00    -0.354 N 
ATOM     51  N   UNL     1      12.351  -0.803  -6.141  1.00  0.00    -0.248 NA
ATOM     52  C   UNL     1      14.049   0.537  -5.263  1.00  0.00     0.031 C 
ATOM     53  C   UNL     1      13.018  -4.045  -9.116  1.00  0.00     0.029 A 
ATOM     54  C   UNL     1      12.836  -3.029  -8.191  1.00  0.00     0.049 A 
ATOM     55  H   UNL     1      11.059  -2.397  -7.245  1.00  0.00     0.167 HD
ATOM     56  C   UNL     1      13.561  -1.164  -6.722  1.00  0.00     0.074 A 
ATOM     57  C   UNL     1      14.566  -0.279  -6.169  1.00  0.00     0.031 C 
ATOM     58  C   UNL     1      13.820  -2.137  -7.630  1.00  0.00     0.037 A 
BRANCH  45  59
ATOM     59  C   UNL     1       8.841  -5.385  -9.334  1.00  0.00     0.057 A 
ATOM     60  C   UNL     1       7.990  -5.150 -10.423  1.00  0.00     0.134 A 
ATOM     61  C   UNL     1       9.160  -6.717  -9.041  1.00  0.00     0.134 A 
ATOM     62  F   UNL     1       7.630  -3.899 -10.747  1.00  0.00    -0.206 F 
ATOM     63  C   UNL     1       7.457  -6.200 -11.173  1.00  0.00     0.040 A 
ATOM     64  C   UNL     1       8.656  -7.774  -9.801  1.00  0.00     0.040 A 
ATOM     65  F   UNL     1       9.970  -7.013  -8.014  1.00  0.00    -0.206 F 
ATOM     66  C   UNL     1       7.796  -7.517 -10.867  1.00  0.00     0.006 A 
ENDBRANCH  45  59
BRANCH  46  67
ATOM     67  C   UNL     1      12.204   2.093  -3.607  1.00  0.00     0.057 A 
ATOM     68  C   UNL     1      12.727   3.263  -4.170  1.00  0.00     0.134 A 
ATOM     69  C   UNL     1      12.199   1.996  -2.210  1.00  0.00     0.134 A 
ATOM     70  F   UNL     1      12.778   3.408  -5.502  1.00  0.00    -0.206 F 
ATOM     71  C   UNL     1      13.246   4.287  -3.376  1.00  0.00     0.040 A 
ATOM     72  C   UNL     1      12.690   3.024  -1.403  1.00  0.00     0.040 A 
ATOM     73  F   UNL     1      11.708   0.903  -1.609  1.00  0.00    -0.206 F 
ATOM     74  C   UNL     1      13.224   4.171  -1.987  1.00  0.00     0.006 A 
ENDBRANCH  46  67
BRANCH  58  75
ATOM     75  C   UNL     1      15.238  -2.268  -8.107  1.00  0.00     0.057 A 
ATOM     76  C   UNL     1      16.258  -2.754  -7.280  1.00  0.00     0.134 A 
ATOM     77  C   UNL     1      15.581  -1.920  -9.421  1.00  0.00     0.134 A 
ATOM     78  F   UNL     1      15.998  -3.095  -6.009  1.00  0.00    -0.206 F 
ATOM     79  C   UNL     1      17.575  -2.857  -7.730  1.00  0.00     0.040 A 
ATOM     80  C   UNL     1      16.888  -2.047  -9.892  1.00  0.00     0.040 A 
ATOM     81  F   UNL     1      14.650  -1.460 -10.270  1.00  0.00    -0.206 F 
ATOM     82  C   UNL     1      17.892  -2.507  -9.042  1.00  0.00     0.006 A 
ENDBRANCH  58  75
ENDBRANCH  32  33
ENDBRANCH  25  27
ENDBRANCH  24  25
ENDBRANCH  23  24
ENDBRANCH  22  23
ENDBRANCH  21  22
ENDBRANCH   1  21
TORSDOF 17
