REMARK SMILES CC[NH2+][C@]1(C(=O)OCCOCCOC(=O)c2ccc(-c3c4nc(c(-c5c(F)cccc5F)c5ccc([nH]5)c(-c5c(F)cccc5F)c5nc(c(-c6c(F)cccc6F)c6ccc3[nH]6)C=C5)C=C4)cc2)CCC[C@H]([N@@H+]2CCC[C@@H]2C(C)C)C1
REMARK SMILES IDX 10 1 9 2 8 3 7 4 5 5 6 6 4 7 70 8 82 9 71 10 73 11 72 12
REMARK SMILES IDX 3 13 2 16 1 17 74 18 75 19 78 20 76 22 77 23 79 24 80 25
REMARK SMILES IDX 81 26 11 27 12 28 13 29 14 30 15 31 16 32 17 33 69 34 18 35
REMARK SMILES IDX 68 36 19 37 20 38 21 39 62 40 22 41 67 42 61 43 63 44 23 45
REMARK SMILES IDX 66 46 60 47 59 48 24 50 50 51 33 52 49 53 34 54 37 55 48 56
REMARK SMILES IDX 64 57 35 58 36 59 47 61 65 62 38 63 25 64 26 65 31 66 27 67
REMARK SMILES IDX 28 68 30 69 32 70 29 71 51 72 52 73 57 74 53 75 54 76 56 77
REMARK SMILES IDX 58 78 55 79 39 80 40 81 45 82 41 83 42 84 44 85 46 86 43 87
REMARK H PARENT 3 14 3 15 74 21 63 49 37 60
REMARK Flexibility Score: inf
ROOT
ATOM      1  O   UNL     1       3.358   0.098   0.133  1.00  0.00    -0.374 OA
ENDROOT
BRANCH   1   2
ATOM      2  C   UNL     1       3.171  -0.651   1.341  1.00  0.00     0.202 C 
BRANCH   2   3
ATOM      3  C   UNL     1       1.696  -0.818   1.737  1.00  0.00     0.261 C 
BRANCH   3   4
ATOM      4  O   UNL     1       1.177  -1.907   0.971  1.00  0.00    -0.459 OA
BRANCH   4   5
ATOM      5  C   UNL     1      -0.154  -2.217   1.003  1.00  0.00     0.368 C 
ATOM      6  O   UNL     1      -1.019  -1.590   1.596  1.00  0.00    -0.245 OA
BRANCH   5   7
ATOM      7  C   UNL     1      -0.334  -3.508   0.160  1.00  0.00     0.200 C 
ATOM      8  C   UNL     1       0.667  -4.517   0.890  1.00  0.00     0.081 C 
ATOM      9  C   UNL     1      -1.681  -4.210   0.153  1.00  0.00     0.146 C 
ATOM     10  C   UNL     1       0.538  -6.040   0.778  1.00  0.00     0.013 C 
ATOM     11  C   UNL     1      -1.552  -5.632  -0.517  1.00  0.00     0.191 C 
ATOM     12  C   UNL     1      -0.839  -6.548   0.457  1.00  0.00     0.065 C 
BRANCH   7  13
ATOM     13  N   UNL     1      -0.115  -3.169  -1.274  1.00  0.00    -0.332 N 
ATOM     14  H   UNL     1       0.892  -3.195  -1.435  1.00  0.00     0.347 HD
ATOM     15  H   UNL     1      -0.680  -3.857  -1.772  1.00  0.00     0.347 HD
BRANCH  13  16
ATOM     16  C   UNL     1      -0.595  -1.891  -1.794  1.00  0.00     0.257 C 
ATOM     17  C   UNL     1      -0.605  -1.949  -3.324  1.00  0.00     0.071 C 
ENDBRANCH  13  16
ENDBRANCH   7  13
BRANCH  11  18
ATOM     18  N   UNL     1      -1.133  -5.674  -1.958  1.00  0.00    -0.330 N 
ATOM     19  C   UNL     1      -2.028  -6.627  -2.677  1.00  0.00     0.262 C 
ATOM     20  C   UNL     1       0.224  -5.872  -2.641  1.00  0.00     0.187 C 
ATOM     21  H   UNL     1      -1.143  -4.655  -2.002  1.00  0.00     0.348 HD
ATOM     22  C   UNL     1      -1.199  -7.872  -2.864  1.00  0.00     0.067 C 
ATOM     23  C   UNL     1       0.167  -7.327  -3.172  1.00  0.00     0.071 C 
BRANCH  20  24
ATOM     24  C   UNL     1       1.786  -5.549  -2.371  1.00  0.00     0.041 C 
ATOM     25  C   UNL     1       2.646  -5.966  -3.603  1.00  0.00     0.014 C 
ATOM     26  C   UNL     1       2.310  -4.130  -2.125  1.00  0.00     0.014 C 
ENDBRANCH  20  24
ENDBRANCH  11  18
ENDBRANCH   5   7
ENDBRANCH   4   5
ENDBRANCH   3   4
ENDBRANCH   2   3
ENDBRANCH   1   2
BRANCH   1  27
ATOM     27  C   UNL     1       3.129  -0.619  -1.086  1.00  0.00     0.202 C 
BRANCH  27  28
ATOM     28  C   UNL     1       4.389  -1.289  -1.637  1.00  0.00     0.261 C 
BRANCH  28  29
ATOM     29  O   UNL     1       4.813  -2.337  -0.748  1.00  0.00    -0.460 OA
BRANCH  29  30
ATOM     30  C   UNL     1       6.082  -2.247  -0.325  1.00  0.00     0.338 C 
ATOM     31  O   UNL     1       6.965  -1.490  -0.741  1.00  0.00    -0.246 OA
BRANCH  30  32
ATOM     32  C   UNL     1       6.275  -3.087   0.860  1.00  0.00     0.060 A 
ATOM     33  C   UNL     1       6.661  -2.442   2.039  1.00  0.00     0.016 A 
ATOM     34  C   UNL     1       6.206  -4.482   0.795  1.00  0.00     0.016 A 
ATOM     35  C   UNL     1       7.072  -3.192   3.135  1.00  0.00     0.010 A 
ATOM     36  C   UNL     1       6.618  -5.235   1.901  1.00  0.00     0.010 A 
ATOM     37  C   UNL     1       7.109  -4.591   3.052  1.00  0.00    -0.014 A 
BRANCH  37  38
ATOM     38  C   UNL     1       7.861  -5.345   4.086  1.00  0.00     0.031 A 
ATOM     39  C   UNL     1       9.263  -5.800   3.772  1.00  0.00     0.074 A 
ATOM     40  C   UNL     1       7.347  -5.545   5.312  1.00  0.00     0.049 A 
ATOM     41  N   UNL     1      10.111  -6.459   4.519  1.00  0.00    -0.248 NA
ATOM     42  C   UNL     1       9.779  -5.459   2.436  1.00  0.00     0.031 C 
ATOM     43  C   UNL     1       6.029  -5.098   5.758  1.00  0.00     0.029 A 
ATOM     44  N   UNL     1       7.882  -6.170   6.411  1.00  0.00    -0.354 N 
ATOM     45  C   UNL     1      11.255  -6.616   3.744  1.00  0.00     0.074 A 
ATOM     46  C   UNL     1      10.981  -6.014   2.457  1.00  0.00     0.031 C 
ATOM     47  C   UNL     1       5.857  -5.465   7.040  1.00  0.00     0.029 A 
ATOM     48  C   UNL     1       7.037  -6.199   7.493  1.00  0.00     0.049 A 
ATOM     49  H   UNL     1       8.786  -6.561   6.422  1.00  0.00     0.167 HD
ATOM     50  C   UNL     1      12.431  -7.197   4.077  1.00  0.00     0.037 A 
ATOM     51  C   UNL     1       7.194  -6.770   8.703  1.00  0.00     0.037 A 
ATOM     52  C   UNL     1      12.707  -7.786   5.360  1.00  0.00     0.049 A 
ATOM     53  C   UNL     1       8.482  -7.482   9.023  1.00  0.00     0.074 A 
ATOM     54  C   UNL     1      13.868  -8.400   5.796  1.00  0.00     0.029 A 
ATOM     55  N   UNL     1      11.806  -7.837   6.413  1.00  0.00    -0.354 N 
ATOM     56  N   UNL     1       9.557  -7.622   8.284  1.00  0.00    -0.248 NA
ATOM     57  C   UNL     1       8.581  -8.114  10.347  1.00  0.00     0.031 C 
ATOM     58  C   UNL     1      13.653  -8.865   7.097  1.00  0.00     0.029 A 
ATOM     59  C   UNL     1      12.378  -8.492   7.491  1.00  0.00     0.049 A 
ATOM     60  H   UNL     1      10.896  -7.463   6.396  1.00  0.00     0.167 HD
ATOM     61  C   UNL     1      10.469  -8.323   9.064  1.00  0.00     0.074 A 
ATOM     62  C   UNL     1       9.824  -8.576  10.335  1.00  0.00     0.031 C 
ATOM     63  C   UNL     1      11.729  -8.718   8.757  1.00  0.00     0.037 A 
BRANCH  50  64
ATOM     64  C   UNL     1      13.501  -7.247   3.025  1.00  0.00     0.057 A 
ATOM     65  C   UNL     1      14.197  -6.102   2.617  1.00  0.00     0.134 A 
ATOM     66  C   UNL     1      13.858  -8.465   2.431  1.00  0.00     0.134 A 
ATOM     67  F   UNL     1      13.895  -4.902   3.135  1.00  0.00    -0.206 F 
ATOM     68  C   UNL     1      15.194  -6.162   1.640  1.00  0.00     0.040 A 
ATOM     69  C   UNL     1      14.871  -8.542   1.474  1.00  0.00     0.040 A 
ATOM     70  F   UNL     1      13.235  -9.601   2.779  1.00  0.00    -0.206 F 
ATOM     71  C   UNL     1      15.537  -7.387   1.071  1.00  0.00     0.006 A 
ENDBRANCH  50  64
BRANCH  51  72
ATOM     72  C   UNL     1       6.096  -6.709   9.702  1.00  0.00     0.057 A 
ATOM     73  C   UNL     1       6.227  -5.974  10.886  1.00  0.00     0.134 A 
ATOM     74  C   UNL     1       4.898  -7.407   9.506  1.00  0.00     0.134 A 
ATOM     75  F   UNL     1       7.360  -5.305  11.143  1.00  0.00    -0.206 F 
ATOM     76  C   UNL     1       5.214  -5.949  11.847  1.00  0.00     0.040 A 
ATOM     77  C   UNL     1       3.866  -7.369  10.445  1.00  0.00     0.040 A 
ATOM     78  F   UNL     1       4.709  -8.130   8.392  1.00  0.00    -0.206 F 
ATOM     79  C   UNL     1       4.026  -6.644  11.624  1.00  0.00     0.006 A 
ENDBRANCH  51  72
BRANCH  63  80
ATOM     80  C   UNL     1      12.517  -9.418   9.826  1.00  0.00     0.057 A 
ATOM     81  C   UNL     1      12.240 -10.735  10.212  1.00  0.00     0.134 A 
ATOM     82  C   UNL     1      13.605  -8.779  10.436  1.00  0.00     0.134 A 
ATOM     83  F   UNL     1      11.206 -11.399   9.673  1.00  0.00    -0.206 F 
ATOM     84  C   UNL     1      13.006 -11.386  11.181  1.00  0.00     0.040 A 
ATOM     85  C   UNL     1      14.394  -9.429  11.386  1.00  0.00     0.040 A 
ATOM     86  F   UNL     1      13.930  -7.521  10.104  1.00  0.00    -0.206 F 
ATOM     87  C   UNL     1      14.092 -10.735  11.764  1.00  0.00     0.006 A 
ENDBRANCH  63  80
ENDBRANCH  37  38
ENDBRANCH  30  32
ENDBRANCH  29  30
ENDBRANCH  28  29
ENDBRANCH  27  28
ENDBRANCH   1  27
TORSDOF 18
