REMARK SMILES CC(=O)c1ccccc1S(=O)(=O)N1CCC(C(=O)OCCOCCOC(=O)c2ccc(-c3c4nc(c(-c5c(F)cccc5F)c5ccc([nH]5)c(-c5c(F)cccc5F)c5nc(c(-c6c(F)cccc6F)c6ccc3[nH]6)C=C5)C=C4)cc2)CC1
REMARK SMILES IDX 21 1 20 2 19 3 17 4 18 5 16 6 13 7 14 8 83 9 15 10 82 11
REMARK SMILES IDX 10 12 11 13 12 14 9 15 4 16 5 17 6 18 8 19 7 20 2 21 1 22
REMARK SMILES IDX 3 23 22 24 23 25 24 26 25 27 26 28 27 29 28 30 29 31 81 32
REMARK SMILES IDX 30 33 80 34 31 35 32 36 33 37 74 38 34 39 79 40 73 41 75 42
REMARK SMILES IDX 35 43 78 44 72 45 71 46 36 48 62 49 45 50 61 51 46 52 49 53
REMARK SMILES IDX 60 54 76 55 47 56 48 57 59 59 77 60 50 61 37 62 38 63 43 64
REMARK SMILES IDX 39 65 40 66 42 67 44 68 41 69 63 70 64 71 69 72 65 73 66 74
REMARK SMILES IDX 68 75 70 76 67 77 51 78 52 79 57 80 53 81 54 82 56 83 58 84
REMARK SMILES IDX 55 85
REMARK H PARENT 75 47 49 58
REMARK Flexibility Score: inf
ROOT
ATOM      1  C   UNL     1      -0.931   1.253   5.949  1.00  0.00     0.202 C 
ENDROOT
BRANCH   1   2
ATOM      2  C   UNL     1       0.118   0.144   5.827  1.00  0.00     0.261 C 
BRANCH   2   3
ATOM      3  O   UNL     1       0.778   0.161   4.552  1.00  0.00    -0.463 OA
BRANCH   3   4
ATOM      4  C   UNL     1       0.603  -0.950   3.790  1.00  0.00     0.309 C 
ATOM      5  O   UNL     1       0.033  -1.969   4.163  1.00  0.00    -0.252 OA
BRANCH   4   6
ATOM      6  C   UNL     1       1.176  -0.816   2.393  1.00  0.00     0.102 C 
ATOM      7  N   UNL     1       2.457  -0.660  -0.011  1.00  0.00    -0.198 NA
ATOM      8  C   UNL     1       2.656   0.552   0.823  1.00  0.00     0.103 C 
ATOM      9  C   UNL     1       2.723  -1.928   0.744  1.00  0.00     0.103 C 
ATOM     10  C   UNL     1       1.619   0.586   1.950  1.00  0.00     0.032 C 
ATOM     11  C   UNL     1       2.324  -1.801   2.216  1.00  0.00     0.032 C 
BRANCH   7  12
ATOM     12  S   UNL     1       3.144  -0.580  -1.570  1.00  0.00     0.243 S 
ATOM     13  O   UNL     1       4.382  -1.332  -1.540  1.00  0.00    -0.207 OA
ATOM     14  O   UNL     1       3.125   0.803  -1.996  1.00  0.00    -0.207 OA
BRANCH  12  15
ATOM     15  C   UNL     1       2.064  -1.405  -2.708  1.00  0.00     0.093 A 
ATOM     16  C   UNL     1       0.721  -1.694  -2.481  1.00  0.00     0.037 A 
ATOM     17  C   UNL     1      -0.055  -2.271  -3.502  1.00  0.00     0.013 A 
ATOM     18  C   UNL     1       0.498  -2.524  -4.756  1.00  0.00     0.001 A 
ATOM     19  C   UNL     1       2.618  -1.679  -3.974  1.00  0.00     0.022 A 
ATOM     20  C   UNL     1       1.835  -2.225  -4.993  1.00  0.00     0.001 A 
BRANCH  16  21
ATOM     21  C   UNL     1      -0.006  -1.424  -1.235  1.00  0.00     0.161 C 
ATOM     22  C   UNL     1      -0.566  -0.042  -1.050  1.00  0.00     0.093 C 
ATOM     23  O   UNL     1      -0.245  -2.358  -0.477  1.00  0.00    -0.294 OA
ENDBRANCH  16  21
ENDBRANCH  12  15
ENDBRANCH   7  12
ENDBRANCH   4   6
ENDBRANCH   3   4
ENDBRANCH   2   3
ENDBRANCH   1   2
BRANCH   1  24
ATOM     24  O   UNL     1      -1.991   1.244   4.997  1.00  0.00    -0.374 OA
BRANCH  24  25
ATOM     25  C   UNL     1      -1.701   1.655   3.661  1.00  0.00     0.202 C 
BRANCH  25  26
ATOM     26  C   UNL     1      -1.332   3.130   3.453  1.00  0.00     0.261 C 
BRANCH  26  27
ATOM     27  O   UNL     1      -0.035   3.451   3.996  1.00  0.00    -0.460 OA
BRANCH  27  28
ATOM     28  C   UNL     1      -0.040   4.444   4.920  1.00  0.00     0.338 C 
ATOM     29  O   UNL     1      -0.989   5.122   5.276  1.00  0.00    -0.246 OA
BRANCH  28  30
ATOM     30  C   UNL     1       1.262   4.511   5.606  1.00  0.00     0.060 A 
ATOM     31  C   UNL     1       1.278   4.293   6.990  1.00  0.00     0.016 A 
ATOM     32  C   UNL     1       2.417   4.914   4.936  1.00  0.00     0.016 A 
ATOM     33  C   UNL     1       2.441   4.528   7.719  1.00  0.00     0.010 A 
ATOM     34  C   UNL     1       3.583   5.158   5.671  1.00  0.00     0.010 A 
ATOM     35  C   UNL     1       3.588   5.006   7.070  1.00  0.00    -0.014 A 
BRANCH  35  36
ATOM     36  C   UNL     1       4.728   5.498   7.882  1.00  0.00     0.031 A 
ATOM     37  C   UNL     1       4.868   6.977   8.124  1.00  0.00     0.074 A 
ATOM     38  C   UNL     1       5.599   4.639   8.440  1.00  0.00     0.049 A 
ATOM     39  N   UNL     1       5.787   7.627   8.792  1.00  0.00    -0.248 NA
ATOM     40  C   UNL     1       3.831   7.839   7.533  1.00  0.00     0.031 C 
ATOM     41  C   UNL     1       5.545   3.184   8.318  1.00  0.00     0.029 A 
ATOM     42  N   UNL     1       6.702   4.873   9.221  1.00  0.00    -0.354 N 
ATOM     43  C   UNL     1       5.443   8.970   8.699  1.00  0.00     0.074 A 
ATOM     44  C   UNL     1       4.249   9.046   7.885  1.00  0.00     0.031 C 
ATOM     45  C   UNL     1       6.577   2.653   8.998  1.00  0.00     0.029 A 
ATOM     46  C   UNL     1       7.376   3.731   9.577  1.00  0.00     0.049 A 
ATOM     47  H   UNL     1       6.984   5.774   9.501  1.00  0.00     0.167 HD
ATOM     48  C   UNL     1       6.058  10.042   9.252  1.00  0.00     0.037 A 
ATOM     49  C   UNL     1       8.517   3.577  10.276  1.00  0.00     0.037 A 
ATOM     50  C   UNL     1       7.244   9.968  10.063  1.00  0.00     0.049 A 
ATOM     51  C   UNL     1       9.221   4.790  10.822  1.00  0.00     0.074 A 
ATOM     52  C   UNL     1       7.938  10.998  10.675  1.00  0.00     0.029 A 
ATOM     53  N   UNL     1       7.915   8.795  10.373  1.00  0.00    -0.354 N 
ATOM     54  N   UNL     1       8.877   6.053  10.743  1.00  0.00    -0.248 NA
ATOM     55  C   UNL     1      10.471   4.555  11.559  1.00  0.00     0.031 C 
ATOM     56  C   UNL     1       9.054  10.453  11.319  1.00  0.00     0.029 A 
ATOM     57  C   UNL     1       9.027   9.078  11.150  1.00  0.00     0.049 A 
ATOM     58  H   UNL     1       7.642   7.895  10.084  1.00  0.00     0.167 HD
ATOM     59  C   UNL     1       9.848   6.758  11.446  1.00  0.00     0.074 A 
ATOM     60  C   UNL     1      10.789   5.781  11.952  1.00  0.00     0.031 C 
ATOM     61  C   UNL     1       9.948   8.093  11.657  1.00  0.00     0.037 A 
BRANCH  48  62
ATOM     62  C   UNL     1       5.469  11.395   8.974  1.00  0.00     0.057 A 
ATOM     63  C   UNL     1       4.265  11.811   9.556  1.00  0.00     0.134 A 
ATOM     64  C   UNL     1       6.130  12.302   8.136  1.00  0.00     0.134 A 
ATOM     65  F   UNL     1       3.575  10.984  10.356  1.00  0.00    -0.206 F 
ATOM     66  C   UNL     1       3.727  13.073   9.297  1.00  0.00     0.040 A 
ATOM     67  C   UNL     1       5.615  13.576   7.890  1.00  0.00     0.040 A 
ATOM     68  F   UNL     1       7.289  11.968   7.550  1.00  0.00    -0.206 F 
ATOM     69  C   UNL     1       4.407  13.962   8.466  1.00  0.00     0.006 A 
ENDBRANCH  48  62
BRANCH  49  70
ATOM     70  C   UNL     1       9.076   2.219  10.496  1.00  0.00     0.057 A 
ATOM     71  C   UNL     1       9.096   1.640  11.770  1.00  0.00     0.134 A 
ATOM     72  C   UNL     1       9.627   1.480   9.443  1.00  0.00     0.134 A 
ATOM     73  F   UNL     1       8.605   2.309  12.824  1.00  0.00    -0.206 F 
ATOM     74  C   UNL     1       9.659   0.383  11.993  1.00  0.00     0.040 A 
ATOM     75  C   UNL     1      10.171   0.211   9.646  1.00  0.00     0.040 A 
ATOM     76  F   UNL     1       9.637   1.979   8.198  1.00  0.00    -0.206 F 
ATOM     77  C   UNL     1      10.195  -0.338  10.927  1.00  0.00     0.006 A 
ENDBRANCH  49  70
BRANCH  61  78
ATOM     78  C   UNL     1      11.089   8.572  12.507  1.00  0.00     0.057 A 
ATOM     79  C   UNL     1      12.411   8.575  12.043  1.00  0.00     0.134 A 
ATOM     80  C   UNL     1      10.855   9.071  13.795  1.00  0.00     0.134 A 
ATOM     81  F   UNL     1      12.704   8.099  10.824  1.00  0.00    -0.206 F 
ATOM     82  C   UNL     1      13.461   9.034  12.840  1.00  0.00     0.040 A 
ATOM     83  C   UNL     1      11.893   9.557  14.591  1.00  0.00     0.040 A 
ATOM     84  F   UNL     1       9.611   9.107  14.296  1.00  0.00    -0.206 F 
ATOM     85  C   UNL     1      13.203   9.533  14.115  1.00  0.00     0.006 A 
ENDBRANCH  61  78
ENDBRANCH  35  36
ENDBRANCH  28  30
ENDBRANCH  27  28
ENDBRANCH  26  27
ENDBRANCH  25  26
ENDBRANCH  24  25
ENDBRANCH   1  24
TORSDOF 17
