REMARK SMILES C[C@H](NC(=O)N1CC[C@H](C(=O)OCCOCCOC(=O)c2ccc(-c3c4nc(c(-c5c(F)cccc5F)c5ccc([nH]5)c(-c5c(F)cccc5F)c5nc(c(-c6c(F)cccc6F)c6ccc3[nH]6)C=C5)C=C4)cc2)[C@@H]1C)[C@@H]1CCCO1
REMARK SMILES IDX 14 1 13 2 12 3 10 4 11 5 9 6 6 7 7 8 75 9 8 10 76 11 4 12
REMARK SMILES IDX 3 13 5 15 2 16 1 17 77 18 78 19 81 20 79 21 80 22 15 23
REMARK SMILES IDX 16 24 17 25 18 26 19 27 20 28 21 29 22 30 74 31 23 32 73 33
REMARK SMILES IDX 24 34 25 35 26 36 67 37 27 38 72 39 66 40 68 41 28 42 71 43
REMARK SMILES IDX 65 44 64 45 29 47 55 48 38 49 54 50 39 51 42 52 53 53 69 54
REMARK SMILES IDX 40 55 41 56 52 58 70 59 43 60 30 61 31 62 36 63 32 64 33 65
REMARK SMILES IDX 35 66 37 67 34 68 56 69 57 70 62 71 58 72 59 73 61 74 63 75
REMARK SMILES IDX 60 76 44 77 45 78 50 79 46 80 47 81 49 82 51 83 48 84
REMARK H PARENT 3 14 68 46 42 57
REMARK Flexibility Score: inf
ROOT
ATOM      1  C   UNL     1       7.510  -5.150   1.922  1.00  0.00     0.202 C 
ENDROOT
BRANCH   1   2
ATOM      2  C   UNL     1       7.662  -3.693   1.476  1.00  0.00     0.261 C 
BRANCH   2   3
ATOM      3  O   UNL     1       6.657  -2.879   2.096  1.00  0.00    -0.463 OA
BRANCH   3   4
ATOM      4  C   UNL     1       5.935  -2.085   1.255  1.00  0.00     0.311 C 
ATOM      5  O   UNL     1       6.234  -1.833   0.099  1.00  0.00    -0.252 OA
BRANCH   4   6
ATOM      6  C   UNL     1       4.715  -1.561   1.987  1.00  0.00     0.123 C 
ATOM      7  N   UNL     1       3.185  -0.204   0.764  1.00  0.00    -0.321 N 
ATOM      8  C   UNL     1       4.340   0.608   1.093  1.00  0.00     0.122 C 
ATOM      9  C   UNL     1       3.383  -1.588   1.203  1.00  0.00     0.098 C 
ATOM     10  C   UNL     1       4.919  -0.085   2.315  1.00  0.00     0.039 C 
ATOM     11  C   UNL     1       3.292  -2.588   0.052  1.00  0.00     0.032 C 
BRANCH   7  12
ATOM     12  C   UNL     1       2.177   0.343   0.035  1.00  0.00     0.317 C 
ATOM     13  N   UNL     1       0.911  -0.112   0.159  1.00  0.00    -0.333 N 
ATOM     14  H   UNL     1       0.348   0.025  -0.637  1.00  0.00     0.165 HD
ATOM     15  O   UNL     1       2.361   1.315  -0.700  1.00  0.00    -0.249 OA
BRANCH  13  16
ATOM     16  C   UNL     1       0.233  -0.775   1.277  1.00  0.00     0.109 C 
ATOM     17  C   UNL     1       0.441   0.013   2.575  1.00  0.00     0.034 C 
BRANCH  16  18
ATOM     18  C   UNL     1      -1.283  -0.898   0.996  1.00  0.00     0.140 C 
ATOM     19  C   UNL     1      -1.662  -1.977  -0.008  1.00  0.00     0.036 C 
ATOM     20  O   UNL     1      -1.810   0.341   0.467  1.00  0.00    -0.376 OA
ATOM     21  C   UNL     1      -2.988  -1.459  -0.510  1.00  0.00     0.031 C 
ATOM     22  C   UNL     1      -2.722   0.028  -0.597  1.00  0.00     0.160 C 
ENDBRANCH  16  18
ENDBRANCH  13  16
ENDBRANCH   7  12
ENDBRANCH   4   6
ENDBRANCH   3   4
ENDBRANCH   2   3
ENDBRANCH   1   2
BRANCH   1  23
ATOM     23  O   UNL     1       6.282  -5.790   1.578  1.00  0.00    -0.374 OA
BRANCH  23  24
ATOM     24  C   UNL     1       5.102  -5.414   2.288  1.00  0.00     0.202 C 
BRANCH  24  25
ATOM     25  C   UNL     1       5.003  -5.837   3.758  1.00  0.00     0.261 C 
BRANCH  25  26
ATOM     26  O   UNL     1       5.934  -5.128   4.596  1.00  0.00    -0.460 OA
BRANCH  26  27
ATOM     27  C   UNL     1       6.838  -5.912   5.230  1.00  0.00     0.338 C 
ATOM     28  O   UNL     1       6.915  -7.131   5.205  1.00  0.00    -0.246 OA
BRANCH  27  29
ATOM     29  C   UNL     1       7.870  -5.078   5.866  1.00  0.00     0.060 A 
ATOM     30  C   UNL     1       9.193  -5.226   5.431  1.00  0.00     0.016 A 
ATOM     31  C   UNL     1       7.562  -4.258   6.952  1.00  0.00     0.016 A 
ATOM     32  C   UNL     1      10.225  -4.580   6.108  1.00  0.00     0.010 A 
ATOM     33  C   UNL     1       8.600  -3.623   7.640  1.00  0.00     0.010 A 
ATOM     34  C   UNL     1       9.936  -3.809   7.242  1.00  0.00    -0.014 A 
BRANCH  34  35
ATOM     35  C   UNL     1      11.038  -3.338   8.112  1.00  0.00     0.031 A 
ATOM     36  C   UNL     1      11.395  -4.147   9.328  1.00  0.00     0.074 A 
ATOM     37  C   UNL     1      11.718  -2.216   7.819  1.00  0.00     0.049 A 
ATOM     38  N   UNL     1      12.253  -3.884  10.279  1.00  0.00    -0.248 NA
ATOM     39  C   UNL     1      10.687  -5.428   9.492  1.00  0.00     0.031 C 
ATOM     40  C   UNL     1      11.504  -1.382   6.638  1.00  0.00     0.029 A 
ATOM     41  N   UNL     1      12.722  -1.582   8.505  1.00  0.00    -0.354 N 
ATOM     42  C   UNL     1      12.185  -4.960  11.155  1.00  0.00     0.074 A 
ATOM     43  C   UNL     1      11.185  -5.868  10.637  1.00  0.00     0.031 C 
ATOM     44  C   UNL     1      12.343  -0.332   6.691  1.00  0.00     0.029 A 
ATOM     45  C   UNL     1      13.123  -0.404   7.925  1.00  0.00     0.049 A 
ATOM     46  H   UNL     1      13.118  -1.938   9.334  1.00  0.00     0.167 HD
ATOM     47  C   UNL     1      12.897  -5.173  12.287  1.00  0.00     0.037 A 
ATOM     48  C   UNL     1      13.998   0.522   8.361  1.00  0.00     0.037 A 
ATOM     49  C   UNL     1      13.885  -4.264  12.803  1.00  0.00     0.049 A 
ATOM     50  C   UNL     1      14.710   0.307   9.670  1.00  0.00     0.074 A 
ATOM     51  C   UNL     1      14.651  -4.381  13.949  1.00  0.00     0.029 A 
ATOM     52  N   UNL     1      14.241  -3.067  12.202  1.00  0.00    -0.354 N 
ATOM     53  N   UNL     1      14.636  -0.709  10.496  1.00  0.00    -0.248 NA
ATOM     54  C   UNL     1      15.625   1.371  10.111  1.00  0.00     0.031 C 
ATOM     55  C   UNL     1      15.446  -3.236  14.061  1.00  0.00     0.029 A 
ATOM     56  C   UNL     1      15.205  -2.427  12.962  1.00  0.00     0.049 A 
ATOM     57  H   UNL     1      13.865  -2.723  11.360  1.00  0.00     0.167 HD
ATOM     58  C   UNL     1      15.517  -0.425  11.532  1.00  0.00     0.074 A 
ATOM     59  C   UNL     1      16.117   0.858  11.230  1.00  0.00     0.031 C 
ATOM     60  C   UNL     1      15.806  -1.161  12.632  1.00  0.00     0.037 A 
BRANCH  47  61
ATOM     61  C   UNL     1      12.611  -6.430  13.053  1.00  0.00     0.057 A 
ATOM     62  C   UNL     1      13.032  -7.684  12.594  1.00  0.00     0.134 A 
ATOM     63  C   UNL     1      11.929  -6.382  14.275  1.00  0.00     0.134 A 
ATOM     64  F   UNL     1      13.675  -7.799  11.422  1.00  0.00    -0.206 F 
ATOM     65  C   UNL     1      12.767  -8.850  13.314  1.00  0.00     0.040 A 
ATOM     66  C   UNL     1      11.679  -7.538  15.015  1.00  0.00     0.040 A 
ATOM     67  F   UNL     1      11.501  -5.212  14.771  1.00  0.00    -0.206 F 
ATOM     68  C   UNL     1      12.094  -8.778  14.532  1.00  0.00     0.006 A 
ENDBRANCH  47  61
BRANCH  48  69
ATOM     69  C   UNL     1      14.240   1.752   7.566  1.00  0.00     0.057 A 
ATOM     70  C   UNL     1      15.468   1.974   6.932  1.00  0.00     0.134 A 
ATOM     71  C   UNL     1      13.263   2.748   7.448  1.00  0.00     0.134 A 
ATOM     72  F   UNL     1      16.451   1.068   7.030  1.00  0.00    -0.206 F 
ATOM     73  C   UNL     1      15.722   3.150   6.223  1.00  0.00     0.040 A 
ATOM     74  C   UNL     1      13.496   3.918   6.723  1.00  0.00     0.040 A 
ATOM     75  F   UNL     1      12.066   2.596   8.034  1.00  0.00    -0.206 F 
ATOM     76  C   UNL     1      14.732   4.124   6.114  1.00  0.00     0.006 A 
ENDBRANCH  48  69
BRANCH  60  77
ATOM     77  C   UNL     1      16.853  -0.626  13.564  1.00  0.00     0.057 A 
ATOM     78  C   UNL     1      16.596   0.440  14.433  1.00  0.00     0.134 A 
ATOM     79  C   UNL     1      18.117  -1.227  13.629  1.00  0.00     0.134 A 
ATOM     80  F   UNL     1      15.409   1.065  14.410  1.00  0.00    -0.206 F 
ATOM     81  C   UNL     1      17.566   0.901  15.325  1.00  0.00     0.040 A 
ATOM     82  C   UNL     1      19.087  -0.790  14.532  1.00  0.00     0.040 A 
ATOM     83  F   UNL     1      18.422  -2.260  12.828  1.00  0.00    -0.206 F 
ATOM     84  C   UNL     1      18.813   0.280  15.381  1.00  0.00     0.006 A 
ENDBRANCH  60  77
ENDBRANCH  34  35
ENDBRANCH  27  29
ENDBRANCH  26  27
ENDBRANCH  25  26
ENDBRANCH  24  25
ENDBRANCH  23  24
ENDBRANCH   1  23
TORSDOF 17
