REMARK SMILES CCCCCN(C)S(=O)(=O)c1cc(Cl)cc(C(=O)OCCOCCOC(=O)c2ccc(-c3c4nc(c(-c5c(F)cccc5F)c5ccc([nH]5)c(-c5c(F)cccc5F)c5nc(c(-c6c(F)cccc6F)c6ccc3[nH]6)C=C5)C=C4)cc2)c1F
REMARK SMILES IDX 20 1 19 2 17 3 18 4 16 5 11 6 12 7 82 8 13 9 83 10 14 11
REMARK SMILES IDX 15 12 8 13 9 14 10 15 6 16 7 17 5 18 4 19 3 20 2 21 1 22
REMARK SMILES IDX 21 23 22 24 23 25 24 26 25 27 26 28 27 29 28 30 29 31 81 32
REMARK SMILES IDX 30 33 80 34 31 35 32 36 33 37 74 38 34 39 79 40 73 41 75 42
REMARK SMILES IDX 35 43 78 44 72 45 71 46 36 48 62 49 45 50 61 51 46 52 49 53
REMARK SMILES IDX 60 54 76 55 47 56 48 57 59 59 77 60 50 61 37 62 38 63 43 64
REMARK SMILES IDX 39 65 40 66 42 67 44 68 41 69 63 70 64 71 69 72 65 73 66 74
REMARK SMILES IDX 68 75 70 76 67 77 51 78 52 79 57 80 53 81 54 82 56 83 58 84
REMARK SMILES IDX 55 85
REMARK H PARENT 75 47 49 58
REMARK Flexibility Score: inf
ROOT
ATOM      1  C   UNL     1      -1.014   9.424  -2.070  1.00  0.00     0.261 C 
ENDROOT
BRANCH   1   2
ATOM      2  O   UNL     1      -1.387   8.076  -2.403  1.00  0.00    -0.460 OA
BRANCH   2   3
ATOM      3  C   UNL     1      -2.480   7.912  -3.179  1.00  0.00     0.341 C 
ATOM      4  O   UNL     1      -3.289   8.760  -3.513  1.00  0.00    -0.246 OA
BRANCH   3   5
ATOM      5  C   UNL     1      -2.447   6.558  -3.763  1.00  0.00     0.098 A 
ATOM      6  C   UNL     1      -1.867   4.219  -3.668  1.00  0.00     0.120 A 
ATOM      7  C   UNL     1      -2.159   4.074  -5.026  1.00  0.00     0.045 A 
ATOM      8  C   UNL     1      -1.998   5.456  -3.039  1.00  0.00     0.157 A 
ATOM      9  C   UNL     1      -2.654   5.171  -5.731  1.00  0.00     0.043 A 
ATOM     10  F   UNL     1      -1.662   5.593  -1.749  1.00  0.00    -0.205 F 
ATOM     11  Cl  UNL     1      -3.056   5.003  -7.394  1.00  0.00    -0.084 Cl
ATOM     12  C   UNL     1      -2.806   6.410  -5.109  1.00  0.00     0.039 A 
BRANCH   6  13
ATOM     13  S   UNL     1      -1.213   2.909  -2.691  1.00  0.00     0.245 S 
ATOM     14  O   UNL     1      -1.961   2.871  -1.452  1.00  0.00    -0.207 OA
ATOM     15  O   UNL     1       0.214   3.123  -2.724  1.00  0.00    -0.207 OA
BRANCH  13  16
ATOM     16  N   UNL     1      -1.569   1.424  -3.500  1.00  0.00    -0.201 NA
ATOM     17  C   UNL     1      -3.042   1.179  -3.647  1.00  0.00     0.124 C 
BRANCH  16  18
ATOM     18  C   UNL     1      -0.979   0.209  -2.806  1.00  0.00     0.102 C 
BRANCH  18  19
ATOM     19  C   UNL     1       0.505  -0.060  -3.061  1.00  0.00     0.017 C 
BRANCH  19  20
ATOM     20  C   UNL     1       1.563   0.578  -2.145  1.00  0.00     0.001 C 
BRANCH  20  21
ATOM     21  C   UNL     1       1.187   0.818  -0.681  1.00  0.00    -0.003 C 
ATOM     22  C   UNL     1       1.164  -0.453   0.150  1.00  0.00     0.004 C 
ENDBRANCH  20  21
ENDBRANCH  19  20
ENDBRANCH  18  19
ENDBRANCH  16  18
ENDBRANCH  13  16
ENDBRANCH   6  13
ENDBRANCH   3   5
ENDBRANCH   2   3
ENDBRANCH   1   2
BRANCH   1  23
ATOM     23  C   UNL     1       0.408   9.679  -2.577  1.00  0.00     0.202 C 
BRANCH  23  24
ATOM     24  O   UNL     1       0.466   9.773  -4.004  1.00  0.00    -0.374 OA
BRANCH  24  25
ATOM     25  C   UNL     1       0.717   8.542  -4.687  1.00  0.00     0.202 C 
BRANCH  25  26
ATOM     26  C   UNL     1       2.205   8.290  -4.941  1.00  0.00     0.261 C 
BRANCH  26  27
ATOM     27  O   UNL     1       2.865   7.936  -3.712  1.00  0.00    -0.460 OA
BRANCH  27  28
ATOM     28  C   UNL     1       3.657   8.898  -3.184  1.00  0.00     0.338 C 
ATOM     29  O   UNL     1       3.958   9.966  -3.691  1.00  0.00    -0.246 OA
BRANCH  28  30
ATOM     30  C   UNL     1       4.021   8.543  -1.796  1.00  0.00     0.060 A 
ATOM     31  C   UNL     1       4.054   9.582  -0.857  1.00  0.00     0.016 A 
ATOM     32  C   UNL     1       4.365   7.241  -1.419  1.00  0.00     0.016 A 
ATOM     33  C   UNL     1       4.478   9.333   0.447  1.00  0.00     0.010 A 
ATOM     34  C   UNL     1       4.795   6.993  -0.110  1.00  0.00     0.010 A 
ATOM     35  C   UNL     1       4.884   8.044   0.818  1.00  0.00    -0.014 A 
BRANCH  35  36
ATOM     36  C   UNL     1       5.530   7.842   2.136  1.00  0.00     0.031 A 
ATOM     37  C   UNL     1       7.030   7.870   2.226  1.00  0.00     0.074 A 
ATOM     38  C   UNL     1       4.791   7.682   3.247  1.00  0.00     0.049 A 
ATOM     39  N   UNL     1       7.800   7.751   3.277  1.00  0.00    -0.248 NA
ATOM     40  C   UNL     1       7.760   8.062   0.962  1.00  0.00     0.031 C 
ATOM     41  C   UNL     1       3.330   7.660   3.296  1.00  0.00     0.029 A 
ATOM     42  N   UNL     1       5.176   7.509   4.553  1.00  0.00    -0.354 N 
ATOM     43  C   UNL     1       9.101   7.859   2.805  1.00  0.00     0.074 A 
ATOM     44  C   UNL     1       9.020   8.023   1.369  1.00  0.00     0.031 C 
ATOM     45  C   UNL     1       2.941   7.479   4.570  1.00  0.00     0.029 A 
ATOM     46  C   UNL     1       4.124   7.356   5.420  1.00  0.00     0.049 A 
ATOM     47  H   UNL     1       6.118   7.496   4.840  1.00  0.00     0.167 HD
ATOM     48  C   UNL     1      10.260   7.834   3.504  1.00  0.00     0.037 A 
ATOM     49  C   UNL     1       4.119   7.134   6.748  1.00  0.00     0.037 A 
ATOM     50  C   UNL     1      10.349   7.668   4.929  1.00  0.00     0.049 A 
ATOM     51  C   UNL     1       5.422   7.053   7.495  1.00  0.00     0.074 A 
ATOM     52  C   UNL     1      11.479   7.649   5.728  1.00  0.00     0.029 A 
ATOM     53  N   UNL     1       9.261   7.482   5.768  1.00  0.00    -0.354 N 
ATOM     54  N   UNL     1       6.645   7.192   7.043  1.00  0.00    -0.248 NA
ATOM     55  C   UNL     1       5.344   6.787   8.939  1.00  0.00     0.031 C 
ATOM     56  C   UNL     1      11.077   7.418   7.049  1.00  0.00     0.029 A 
ATOM     57  C   UNL     1       9.695   7.327   7.074  1.00  0.00     0.049 A 
ATOM     58  H   UNL     1       8.321   7.464   5.479  1.00  0.00     0.167 HD
ATOM     59  C   UNL     1       7.477   7.052   8.146  1.00  0.00     0.074 A 
ATOM     60  C   UNL     1       6.621   6.827   9.292  1.00  0.00     0.031 C 
ATOM     61  C   UNL     1       8.830   7.108   8.204  1.00  0.00     0.037 A 
BRANCH  48  62
ATOM     62  C   UNL     1      11.532   7.980   2.725  1.00  0.00     0.057 A 
ATOM     63  C   UNL     1      11.944   9.218   2.218  1.00  0.00     0.134 A 
ATOM     64  C   UNL     1      12.363   6.876   2.502  1.00  0.00     0.134 A 
ATOM     65  F   UNL     1      11.183  10.309   2.387  1.00  0.00    -0.206 F 
ATOM     66  C   UNL     1      13.134   9.350   1.500  1.00  0.00     0.040 A 
ATOM     67  C   UNL     1      13.564   6.999   1.801  1.00  0.00     0.040 A 
ATOM     68  F   UNL     1      12.024   5.663   2.963  1.00  0.00    -0.206 F 
ATOM     69  C   UNL     1      13.950   8.239   1.295  1.00  0.00     0.006 A 
ENDBRANCH  48  62
BRANCH  49  70
ATOM     70  C   UNL     1       2.832   6.966   7.465  1.00  0.00     0.057 A 
ATOM     71  C   UNL     1       2.348   7.956   8.327  1.00  0.00     0.134 A 
ATOM     72  C   UNL     1       2.067   5.803   7.318  1.00  0.00     0.134 A 
ATOM     73  F   UNL     1       3.051   9.081   8.526  1.00  0.00    -0.206 F 
ATOM     74  C   UNL     1       1.153   7.791   9.029  1.00  0.00     0.040 A 
ATOM     75  C   UNL     1       0.861   5.633   7.999  1.00  0.00     0.040 A 
ATOM     76  F   UNL     1       2.482   4.818   6.509  1.00  0.00    -0.206 F 
ATOM     77  C   UNL     1       0.404   6.627   8.862  1.00  0.00     0.006 A 
ENDBRANCH  49  70
BRANCH  61  78
ATOM     78  C   UNL     1       9.466   6.946   9.552  1.00  0.00     0.057 A 
ATOM     79  C   UNL     1       9.571   5.695  10.170  1.00  0.00     0.134 A 
ATOM     80  C   UNL     1      10.014   8.049  10.219  1.00  0.00     0.134 A 
ATOM     81  F   UNL     1       9.054   4.603   9.586  1.00  0.00    -0.206 F 
ATOM     82  C   UNL     1      10.186   5.547  11.414  1.00  0.00     0.040 A 
ATOM     83  C   UNL     1      10.649   7.910  11.454  1.00  0.00     0.040 A 
ATOM     84  F   UNL     1       9.952   9.274   9.676  1.00  0.00    -0.206 F 
ATOM     85  C   UNL     1      10.733   6.657  12.056  1.00  0.00     0.006 A 
ENDBRANCH  61  78
ENDBRANCH  35  36
ENDBRANCH  28  30
ENDBRANCH  27  28
ENDBRANCH  26  27
ENDBRANCH  25  26
ENDBRANCH  24  25
ENDBRANCH  23  24
ENDBRANCH   1  23
TORSDOF 20
