REMARK SMILES O=C(Cn1c(=O)n(Cc2cccnc2)c(=O)c2sccc21)OCCOCCOC(=O)c1ccc(-c2c3nc(c(-c4c(F)cccc4F)c4ccc([nH]4)c(-c4c(F)cccc4F)c4nc(c(-c5c(F)cccc5F)c5ccc2[nH]5)C=C4)C=C3)cc1
REMARK SMILES IDX 24 1 23 2 22 3 2 4 1 5 3 6 4 7 5 8 21 9 6 10 7 11 17 12
REMARK SMILES IDX 20 13 15 14 18 15 19 16 16 17 8 18 9 19 10 20 14 21 11 22
REMARK SMILES IDX 13 23 12 24 25 25 26 26 27 27 28 28 29 29 30 30 31 31 32 32
REMARK SMILES IDX 84 33 33 34 83 35 34 36 35 37 36 38 77 39 37 40 82 41 76 42
REMARK SMILES IDX 78 43 38 44 81 45 75 46 74 47 39 49 65 50 48 51 64 52 49 53
REMARK SMILES IDX 52 54 63 55 79 56 50 57 51 58 62 60 80 61 53 62 40 63 41 64
REMARK SMILES IDX 46 65 42 66 43 67 45 68 47 69 44 70 66 71 67 72 72 73 68 74
REMARK SMILES IDX 69 75 71 76 73 77 70 78 54 79 55 80 60 81 56 82 57 83 59 84
REMARK SMILES IDX 61 85 58 86
REMARK H PARENT 78 48 52 59
REMARK Flexibility Score: inf
ROOT
ATOM      1  C   UNL     1       4.955  -0.549   0.772  1.00  0.00     0.202 C 
ENDROOT
BRANCH   1   2
ATOM      2  C   UNL     1       4.314   0.636   0.060  1.00  0.00     0.261 C 
BRANCH   2   3
ATOM      3  O   UNL     1       2.888   0.712   0.173  1.00  0.00    -0.462 OA
BRANCH   3   4
ATOM      4  C   UNL     1       1.968   0.118  -0.618  1.00  0.00     0.326 C 
ATOM      5  O   UNL     1       0.790   0.119  -0.244  1.00  0.00    -0.250 OA
BRANCH   4   6
ATOM      6  C   UNL     1       2.362  -0.746  -1.819  1.00  0.00     0.250 C 
BRANCH   6   7
ATOM      7  N   UNL     1       3.533  -0.419  -2.616  1.00  0.00    -0.281 N 
ATOM      8  C   UNL     1       3.578   0.889  -3.123  1.00  0.00     0.332 A 
ATOM      9  C   UNL     1       4.466  -1.368  -3.044  1.00  0.00     0.070 A 
ATOM     10  O   UNL     1       2.684   1.695  -2.857  1.00  0.00    -0.247 OA
ATOM     11  N   UNL     1       4.689   1.240  -3.882  1.00  0.00    -0.254 N 
ATOM     12  C   UNL     1       5.361  -1.020  -4.020  1.00  0.00     0.116 A 
ATOM     13  C   UNL     1       4.644  -2.726  -2.646  1.00  0.00     0.039 A 
ATOM     14  C   UNL     1       5.429   0.296  -4.591  1.00  0.00     0.274 A 
ATOM     15  S   UNL     1       6.371  -2.295  -4.499  1.00  0.00    -0.136 S 
ATOM     16  C   UNL     1       5.652  -3.348  -3.357  1.00  0.00     0.068 A 
ATOM     17  O   UNL     1       6.040   0.567  -5.621  1.00  0.00    -0.268 OA
BRANCH  11  18
ATOM     18  C   UNL     1       4.891   2.653  -4.189  1.00  0.00     0.168 C 
BRANCH  18  19
ATOM     19  C   UNL     1       6.204   3.211  -3.679  1.00  0.00    -0.010 A 
ATOM     20  C   UNL     1       6.283   3.986  -2.515  1.00  0.00     0.009 A 
ATOM     21  C   UNL     1       7.390   3.020  -4.385  1.00  0.00     0.116 A 
ATOM     22  C   UNL     1       7.505   4.542  -2.131  1.00  0.00     0.020 A 
ATOM     23  N   UNL     1       8.590   3.529  -4.023  1.00  0.00    -0.264 NA
ATOM     24  C   UNL     1       8.620   4.286  -2.910  1.00  0.00     0.111 A 
ENDBRANCH  18  19
ENDBRANCH  11  18
ENDBRANCH   6   7
ENDBRANCH   4   6
ENDBRANCH   3   4
ENDBRANCH   2   3
ENDBRANCH   1   2
BRANCH   1  25
ATOM     25  O   UNL     1       4.439  -1.853   0.528  1.00  0.00    -0.374 OA
BRANCH  25  26
ATOM     26  C   UNL     1       3.225  -2.283   1.141  1.00  0.00     0.202 C 
BRANCH  26  27
ATOM     27  C   UNL     1       3.152  -2.448   2.646  1.00  0.00     0.261 C 
BRANCH  27  28
ATOM     28  O   UNL     1       3.297  -1.196   3.289  1.00  0.00    -0.460 OA
BRANCH  28  29
ATOM     29  C   UNL     1       4.501  -1.012   3.865  1.00  0.00     0.338 C 
ATOM     30  O   UNL     1       5.500  -1.696   3.735  1.00  0.00    -0.246 OA
BRANCH  29  31
ATOM     31  C   UNL     1       4.394   0.116   4.787  1.00  0.00     0.060 A 
ATOM     32  C   UNL     1       5.557   0.432   5.489  1.00  0.00     0.016 A 
ATOM     33  C   UNL     1       3.120   0.548   5.186  1.00  0.00     0.016 A 
ATOM     34  C   UNL     1       5.416   0.950   6.750  1.00  0.00     0.010 A 
ATOM     35  C   UNL     1       2.979   1.035   6.455  1.00  0.00     0.010 A 
ATOM     36  C   UNL     1       4.122   1.135   7.242  1.00  0.00    -0.014 A 
BRANCH  36  37
ATOM     37  C   UNL     1       3.984   1.498   8.628  1.00  0.00     0.031 A 
ATOM     38  C   UNL     1       4.245   2.929   8.861  1.00  0.00     0.074 A 
ATOM     39  C   UNL     1       3.542   0.618   9.542  1.00  0.00     0.049 A 
ATOM     40  N   UNL     1       5.223   3.462   9.511  1.00  0.00    -0.248 NA
ATOM     41  C   UNL     1       3.407   3.890   8.122  1.00  0.00     0.031 C 
ATOM     42  C   UNL     1       2.966  -0.711   9.314  1.00  0.00     0.029 A 
ATOM     43  N   UNL     1       3.409   0.785  10.880  1.00  0.00    -0.354 N 
ATOM     44  C   UNL     1       4.983   4.828   9.453  1.00  0.00     0.074 A 
ATOM     45  C   UNL     1       4.003   5.042   8.421  1.00  0.00     0.031 C 
ATOM     46  C   UNL     1       2.341  -1.119  10.443  1.00  0.00     0.029 A 
ATOM     47  C   UNL     1       2.578  -0.141  11.491  1.00  0.00     0.049 A 
ATOM     48  H   UNL     1       3.865   1.504  11.377  1.00  0.00     0.167 HD
ATOM     49  C   UNL     1       5.357   5.645  10.469  1.00  0.00     0.037 A 
ATOM     50  C   UNL     1       2.055  -0.024  12.737  1.00  0.00     0.037 A 
ATOM     51  C   UNL     1       6.383   5.055  11.285  1.00  0.00     0.049 A 
ATOM     52  C   UNL     1       2.855   1.004  13.457  1.00  0.00     0.074 A 
ATOM     53  C   UNL     1       7.648   4.560  11.034  1.00  0.00     0.029 A 
ATOM     54  N   UNL     1       6.016   4.549  12.508  1.00  0.00    -0.354 N 
ATOM     55  N   UNL     1       4.098   0.847  13.822  1.00  0.00    -0.248 NA
ATOM     56  C   UNL     1       2.398   2.385  13.392  1.00  0.00     0.031 C 
ATOM     57  C   UNL     1       7.780   3.426  11.886  1.00  0.00     0.029 A 
ATOM     58  C   UNL     1       6.612   3.321  12.642  1.00  0.00     0.049 A 
ATOM     59  H   UNL     1       5.433   4.988  13.168  1.00  0.00     0.167 HD
ATOM     60  C   UNL     1       4.687   2.089  13.629  1.00  0.00     0.074 A 
ATOM     61  C   UNL     1       3.573   3.017  13.460  1.00  0.00     0.031 C 
ATOM     62  C   UNL     1       6.015   2.201  13.336  1.00  0.00     0.037 A 
BRANCH  49  63
ATOM     63  C   UNL     1       4.492   6.785  10.922  1.00  0.00     0.057 A 
ATOM     64  C   UNL     1       5.032   7.782  11.743  1.00  0.00     0.134 A 
ATOM     65  C   UNL     1       3.085   6.801  10.790  1.00  0.00     0.134 A 
ATOM     66  F   UNL     1       6.350   7.826  11.990  1.00  0.00    -0.206 F 
ATOM     67  C   UNL     1       4.226   8.721  12.397  1.00  0.00     0.040 A 
ATOM     68  C   UNL     1       2.279   7.770  11.384  1.00  0.00     0.040 A 
ATOM     69  F   UNL     1       2.413   5.825  10.166  1.00  0.00    -0.206 F 
ATOM     70  C   UNL     1       2.847   8.722  12.212  1.00  0.00     0.006 A 
ENDBRANCH  49  63
BRANCH  50  71
ATOM     71  C   UNL     1       0.724  -0.461  13.221  1.00  0.00     0.057 A 
ATOM     72  C   UNL     1       0.432  -0.465  14.592  1.00  0.00     0.134 A 
ATOM     73  C   UNL     1      -0.376  -0.613  12.357  1.00  0.00     0.134 A 
ATOM     74  F   UNL     1       1.407  -0.291  15.496  1.00  0.00    -0.206 F 
ATOM     75  C   UNL     1      -0.879  -0.575  15.076  1.00  0.00     0.040 A 
ATOM     76  C   UNL     1      -1.687  -0.737  12.828  1.00  0.00     0.040 A 
ATOM     77  F   UNL     1      -0.232  -0.556  11.026  1.00  0.00    -0.206 F 
ATOM     78  C   UNL     1      -1.945  -0.699  14.191  1.00  0.00     0.006 A 
ENDBRANCH  50  71
BRANCH  62  79
ATOM     79  C   UNL     1       6.878   0.981  13.505  1.00  0.00     0.057 A 
ATOM     80  C   UNL     1       6.737  -0.192  12.747  1.00  0.00     0.134 A 
ATOM     81  C   UNL     1       7.994   1.059  14.346  1.00  0.00     0.134 A 
ATOM     82  F   UNL     1       5.758  -0.321  11.844  1.00  0.00    -0.206 F 
ATOM     83  C   UNL     1       7.646  -1.250  12.851  1.00  0.00     0.040 A 
ATOM     84  C   UNL     1       8.927   0.024  14.433  1.00  0.00     0.040 A 
ATOM     85  F   UNL     1       8.224   2.173  15.060  1.00  0.00    -0.206 F 
ATOM     86  C   UNL     1       8.751  -1.139  13.689  1.00  0.00     0.006 A 
ENDBRANCH  62  79
ENDBRANCH  36  37
ENDBRANCH  29  31
ENDBRANCH  28  29
ENDBRANCH  27  28
ENDBRANCH  26  27
ENDBRANCH  25  26
ENDBRANCH   1  25
TORSDOF 17
