REMARK SMILES NS(=O)(=O)c1ccc(C#Cc2cc(Cl)cc3c2O[C@H](C(F)(F)F)C(C(=O)OCCOCCOC(=O)c2ccc(-c4c5nc(c(-c6c(F)cccc6F)c6ccc([nH]6)c(-c6c(F)cccc6F)c6nc(c(-c7c(F)cccc7F)c7ccc4[nH]7)C=C6)C=C5)cc2)=C3)cc1
REMARK SMILES IDX 29 1 28 2 27 3 25 4 26 5 24 6 11 7 12 8 17 9 13 10 16 11
REMARK SMILES IDX 18 12 14 13 15 14 90 15 19 16 10 17 9 18 8 19 5 20 6 21
REMARK SMILES IDX 92 22 7 23 91 24 2 25 3 26 4 27 1 28 20 31 21 32 22 33 23 34
REMARK SMILES IDX 30 35 31 36 32 37 33 38 34 39 35 40 36 41 37 42 89 43 38 44
REMARK SMILES IDX 88 45 39 46 40 47 41 48 82 49 42 50 87 51 81 52 83 53 43 54
REMARK SMILES IDX 86 55 80 56 79 57 44 59 70 60 53 61 69 62 54 63 57 64 68 65
REMARK SMILES IDX 84 66 55 67 56 68 67 70 85 71 58 72 45 73 46 74 51 75 47 76
REMARK SMILES IDX 48 77 50 78 52 79 49 80 71 81 72 82 77 83 73 84 74 85 76 86
REMARK SMILES IDX 78 87 75 88 59 89 60 90 65 91 61 92 62 93 64 94 66 95 63 96
REMARK H PARENT 1 29 1 30 83 58 57 69
REMARK Flexibility Score: inf
ROOT
ATOM      1  C   UNL     1       2.332  -7.875 -12.486  1.00  0.00     0.202 C 
ENDROOT
BRANCH   1   2
ATOM      2  C   UNL     1       1.065  -7.421 -11.755  1.00  0.00     0.261 C 
BRANCH   2   3
ATOM      3  O   UNL     1       1.236  -7.367 -10.331  1.00  0.00    -0.460 OA
BRANCH   3   4
ATOM      4  C   UNL     1       0.593  -8.353  -9.661  1.00  0.00     0.338 C 
ATOM      5  O   UNL     1      -0.144  -9.200 -10.137  1.00  0.00    -0.246 OA
BRANCH   4   6
ATOM      6  C   UNL     1       1.009  -8.352  -8.245  1.00  0.00     0.087 C 
ATOM      7  C   UNL     1       1.642  -8.530  -4.123  1.00  0.00     0.069 A 
ATOM      8  C   UNL     1       1.656  -9.780  -3.492  1.00  0.00     0.041 A 
ATOM      9  C   UNL     1       1.538  -8.450  -5.521  1.00  0.00     0.143 A 
ATOM     10  C   UNL     1       1.588 -10.943  -4.253  1.00  0.00     0.043 A 
ATOM     11  C   UNL     1       1.438  -9.627  -6.272  1.00  0.00     0.020 A 
ATOM     12  O   UNL     1       1.542  -7.208  -6.098  1.00  0.00    -0.474 OA
ATOM     13  Cl  UNL     1       1.591 -12.477  -3.476  1.00  0.00    -0.084 Cl
ATOM     14  C   UNL     1       1.485 -10.874  -5.639  1.00  0.00     0.032 A 
ATOM     15  C   UNL     1       1.196  -9.560  -7.700  1.00  0.00     0.027 C 
ATOM     16  C   UNL     1       1.149  -7.062  -7.491  1.00  0.00     0.316 C 
BRANCH   7  17
ATOM     17  C   UNL     1       1.662  -7.356  -3.304  1.00  0.00    -0.058 C 
ATOM     18  C   UNL     1       1.607  -6.384  -2.596  1.00  0.00    -0.062 C 
BRANCH  18  19
ATOM     19  C   UNL     1       1.459  -5.235  -1.760  1.00  0.00     0.025 A 
ATOM     20  C   UNL     1       1.022  -2.981  -0.177  1.00  0.00     0.082 A 
ATOM     21  C   UNL     1       1.468  -2.826  -1.493  1.00  0.00     0.023 A 
ATOM     22  C   UNL     1       0.822  -4.256   0.361  1.00  0.00     0.023 A 
ATOM     23  C   UNL     1       1.686  -3.958  -2.283  1.00  0.00     0.018 A 
ATOM     24  C   UNL     1       1.039  -5.384  -0.435  1.00  0.00     0.018 A 
BRANCH  20  25
ATOM     25  S   UNL     1       0.684  -1.585   0.853  1.00  0.00     0.238 S 
ATOM     26  O   UNL     1       1.455  -1.717   2.067  1.00  0.00    -0.207 OA
ATOM     27  O   UNL     1      -0.741  -1.358   0.852  1.00  0.00    -0.207 OA
BRANCH  25  28
ATOM     28  N   UNL     1       1.356  -0.275   0.042  1.00  0.00    -0.225 NA
ATOM     29  H   UNL     1       1.200   0.576   0.582  1.00  0.00     0.137 HD
ATOM     30  H   UNL     1       0.919  -0.181  -0.874  1.00  0.00     0.137 HD
ENDBRANCH  25  28
ENDBRANCH  20  25
ENDBRANCH  18  19
ENDBRANCH   7  17
BRANCH  16  31
ATOM     31  C   UNL     1      -0.125  -6.205  -7.553  1.00  0.00     0.430 C 
ATOM     32  F   UNL     1       0.000  -5.082  -6.806  1.00  0.00    -0.167 F 
ATOM     33  F   UNL     1      -0.394  -5.799  -8.816  1.00  0.00    -0.167 F 
ATOM     34  F   UNL     1      -1.208  -6.877  -7.104  1.00  0.00    -0.167 F 
ENDBRANCH  16  31
ENDBRANCH   4   6
ENDBRANCH   3   4
ENDBRANCH   2   3
ENDBRANCH   1   2
BRANCH   1  35
ATOM     35  O   UNL     1       2.945  -9.100 -12.103  1.00  0.00    -0.374 OA
BRANCH  35  36
ATOM     36  C   UNL     1       3.624  -9.179 -10.853  1.00  0.00     0.202 C 
BRANCH  36  37
ATOM     37  C   UNL     1       4.916  -8.378 -10.641  1.00  0.00     0.261 C 
BRANCH  37  38
ATOM     38  O   UNL     1       4.750  -6.960 -10.793  1.00  0.00    -0.460 OA
BRANCH  38  39
ATOM     39  C   UNL     1       5.285  -6.447 -11.931  1.00  0.00     0.338 C 
ATOM     40  O   UNL     1       5.881  -7.047 -12.807  1.00  0.00    -0.246 OA
BRANCH  39  41
ATOM     41  C   UNL     1       4.865  -5.040 -12.062  1.00  0.00     0.060 A 
ATOM     42  C   UNL     1       5.198  -4.104 -11.085  1.00  0.00     0.016 A 
ATOM     43  C   UNL     1       4.161  -4.657 -13.211  1.00  0.00     0.016 A 
ATOM     44  C   UNL     1       4.839  -2.769 -11.273  1.00  0.00     0.010 A 
ATOM     45  C   UNL     1       3.804  -3.322 -13.397  1.00  0.00     0.010 A 
ATOM     46  C   UNL     1       4.160  -2.364 -12.439  1.00  0.00    -0.014 A 
BRANCH  46  47
ATOM     47  C   UNL     1       3.944  -0.920 -12.702  1.00  0.00     0.031 A 
ATOM     48  C   UNL     1       2.580  -0.301 -12.629  1.00  0.00     0.074 A 
ATOM     49  C   UNL     1       5.011  -0.162 -13.019  1.00  0.00     0.049 A 
ATOM     50  N   UNL     1       2.240   0.957 -12.758  1.00  0.00    -0.248 NA
ATOM     51  C   UNL     1       1.452  -1.210 -12.384  1.00  0.00     0.031 C 
ATOM     52  C   UNL     1       6.382  -0.659 -13.158  1.00  0.00     0.029 A 
ATOM     53  N   UNL     1       5.116   1.182 -13.267  1.00  0.00    -0.354 N 
ATOM     54  C   UNL     1       0.863   0.998 -12.589  1.00  0.00     0.074 A 
ATOM     55  C   UNL     1       0.425  -0.371 -12.406  1.00  0.00     0.031 C 
ATOM     56  C   UNL     1       7.196   0.373 -13.425  1.00  0.00     0.029 A 
ATOM     57  C   UNL     1       6.402   1.593 -13.521  1.00  0.00     0.049 A 
ATOM     58  H   UNL     1       4.345   1.793 -13.265  1.00  0.00     0.167 HD
ATOM     59  C   UNL     1       0.045   2.079 -12.571  1.00  0.00     0.037 A 
ATOM     60  C   UNL     1       6.886   2.816 -13.804  1.00  0.00     0.037 A 
ATOM     61  C   UNL     1       0.483   3.436 -12.793  1.00  0.00     0.049 A 
ATOM     62  C   UNL     1       5.941   3.985 -13.855  1.00  0.00     0.074 A 
ATOM     63  C   UNL     1      -0.268   4.599 -12.773  1.00  0.00     0.029 A 
ATOM     64  N   UNL     1       1.783   3.810 -13.100  1.00  0.00    -0.354 N 
ATOM     65  N   UNL     1       4.653   4.022 -13.616  1.00  0.00    -0.248 NA
ATOM     66  C   UNL     1       6.523   5.286 -14.212  1.00  0.00     0.031 C 
ATOM     67  C   UNL     1       0.563   5.665 -13.136  1.00  0.00     0.029 A 
ATOM     68  C   UNL     1       1.848   5.180 -13.306  1.00  0.00     0.049 A 
ATOM     69  H   UNL     1       2.548   3.193 -13.163  1.00  0.00     0.167 HD
ATOM     70  C   UNL     1       4.277   5.352 -13.761  1.00  0.00     0.074 A 
ATOM     71  C   UNL     1       5.479   6.091 -14.086  1.00  0.00     0.031 C 
ATOM     72  C   UNL     1       3.048   5.910 -13.633  1.00  0.00     0.037 A 
BRANCH  59  73
ATOM     73  C   UNL     1      -1.417   1.833 -12.319  1.00  0.00     0.057 A 
ATOM     74  C   UNL     1      -2.370   2.077 -13.316  1.00  0.00     0.134 A 
ATOM     75  C   UNL     1      -1.887   1.383 -11.077  1.00  0.00     0.134 A 
ATOM     76  F   UNL     1      -1.995   2.525 -14.524  1.00  0.00    -0.206 F 
ATOM     77  C   UNL     1      -3.733   1.876 -13.090  1.00  0.00     0.040 A 
ATOM     78  C   UNL     1      -3.244   1.146 -10.850  1.00  0.00     0.040 A 
ATOM     79  F   UNL     1      -1.029   1.128 -10.077  1.00  0.00    -0.206 F 
ATOM     80  C   UNL     1      -4.172   1.398 -11.857  1.00  0.00     0.006 A 
ENDBRANCH  59  73
BRANCH  60  81
ATOM     81  C   UNL     1       8.337   3.008 -14.060  1.00  0.00     0.057 A 
ATOM     82  C   UNL     1       8.954   2.469 -15.195  1.00  0.00     0.134 A 
ATOM     83  C   UNL     1       9.130   3.776 -13.198  1.00  0.00     0.134 A 
ATOM     84  F   UNL     1       8.253   1.716 -16.055  1.00  0.00    -0.206 F 
ATOM     85  C   UNL     1      10.305   2.689 -15.467  1.00  0.00     0.040 A 
ATOM     86  C   UNL     1      10.473   4.032 -13.476  1.00  0.00     0.040 A 
ATOM     87  F   UNL     1       8.594   4.332 -12.102  1.00  0.00    -0.206 F 
ATOM     88  C   UNL     1      11.065   3.486 -14.613  1.00  0.00     0.006 A 
ENDBRANCH  60  81
BRANCH  72  89
ATOM     89  C   UNL     1       2.952   7.402 -13.802  1.00  0.00     0.057 A 
ATOM     90  C   UNL     1       2.642   8.222 -12.709  1.00  0.00     0.134 A 
ATOM     91  C   UNL     1       3.158   8.030 -15.038  1.00  0.00     0.134 A 
ATOM     92  F   UNL     1       2.422   7.690 -11.498  1.00  0.00    -0.206 F 
ATOM     93  C   UNL     1       2.543   9.609 -12.838  1.00  0.00     0.040 A 
ATOM     94  C   UNL     1       3.099   9.419 -15.172  1.00  0.00     0.040 A 
ATOM     95  F   UNL     1       3.472   7.308 -16.125  1.00  0.00    -0.206 F 
ATOM     96  C   UNL     1       2.784  10.212 -14.070  1.00  0.00     0.006 A 
ENDBRANCH  72  89
ENDBRANCH  46  47
ENDBRANCH  39  41
ENDBRANCH  38  39
ENDBRANCH  37  38
ENDBRANCH  36  37
ENDBRANCH  35  36
ENDBRANCH   1  35
TORSDOF 19
