REMARK SMILES C[C@@H](C(=O)OCCOCCOC(=O)c1ccc(-c2c3nc(c(-c4c(F)cccc4F)c4ccc([nH]4)c(-c4c(F)cccc4F)c4nc(c(-c5c(F)cccc5F)c5ccc2[nH]5)C=C4)C=C3)cc1)c1ccc(-c2cccc(OC(=O)NC3CC3)c2)c(F)c1
REMARK SMILES IDX 6 1 5 2 3 3 4 4 2 5 1 6 68 7 69 8 87 9 70 10 85 11 71 12
REMARK SMILES IDX 86 13 72 14 73 15 84 16 74 17 76 18 75 19 77 20 78 21 79 22
REMARK SMILES IDX 80 23 81 25 82 26 83 27 7 28 8 29 9 30 10 31 11 32 12 33
REMARK SMILES IDX 13 34 14 35 15 36 67 37 16 38 66 39 17 40 18 41 19 42 60 43
REMARK SMILES IDX 20 44 65 45 59 46 61 47 21 48 64 49 58 50 57 51 22 53 48 54
REMARK SMILES IDX 31 55 47 56 32 57 35 58 46 59 62 60 33 61 34 62 45 64 63 65
REMARK SMILES IDX 36 66 23 67 24 68 29 69 25 70 26 71 28 72 30 73 27 74 49 75
REMARK SMILES IDX 50 76 55 77 51 78 52 79 54 80 56 81 53 82 37 83 38 84 43 85
REMARK SMILES IDX 39 86 40 87 42 88 44 89 41 90
REMARK H PARENT 80 24 61 52 35 63
REMARK Flexibility Score: inf
ROOT
ATOM      1  C   UNL     1       2.375  -3.485   2.305  1.00  0.00     0.261 C 
ENDROOT
BRANCH   1   2
ATOM      2  O   UNL     1       2.020  -2.513   1.311  1.00  0.00    -0.463 OA
BRANCH   2   3
ATOM      3  C   UNL     1       1.158  -2.945   0.348  1.00  0.00     0.313 C 
ATOM      4  O   UNL     1       0.858  -4.123   0.182  1.00  0.00    -0.252 OA
BRANCH   3   5
ATOM      5  C   UNL     1       0.569  -1.798  -0.495  1.00  0.00     0.126 C 
ATOM      6  C   UNL     1       1.360  -0.490  -0.331  1.00  0.00     0.025 C 
BRANCH   5   7
ATOM      7  C   UNL     1      -0.952  -1.652  -0.322  1.00  0.00    -0.031 A 
ATOM      8  C   UNL     1      -1.593  -0.416  -0.126  1.00  0.00     0.005 A 
ATOM      9  C   UNL     1      -1.774  -2.788  -0.406  1.00  0.00     0.044 A 
ATOM     10  C   UNL     1      -2.990  -0.329   0.020  1.00  0.00     0.012 A 
ATOM     11  C   UNL     1      -3.157  -2.699  -0.243  1.00  0.00     0.131 A 
ATOM     12  C   UNL     1      -3.794  -1.475  -0.019  1.00  0.00     0.018 A 
ATOM     13  F   UNL     1      -3.875  -3.831  -0.310  1.00  0.00    -0.206 F 
BRANCH  12  14
ATOM     14  C   UNL     1      -5.245  -1.407   0.202  1.00  0.00    -0.012 A 
ATOM     15  C   UNL     1      -6.096  -0.743  -0.696  1.00  0.00     0.009 A 
ATOM     16  C   UNL     1      -5.810  -2.033   1.327  1.00  0.00     0.056 A 
ATOM     17  C   UNL     1      -7.477  -0.718  -0.484  1.00  0.00     0.004 A 
ATOM     18  C   UNL     1      -7.186  -2.001   1.539  1.00  0.00     0.133 A 
ATOM     19  C   UNL     1      -8.023  -1.347   0.634  1.00  0.00     0.047 A 
BRANCH  18  20
ATOM     20  O   UNL     1      -7.843  -2.605   2.640  1.00  0.00    -0.410 OA
BRANCH  20  21
ATOM     21  C   UNL     1      -7.263  -3.432   3.598  1.00  0.00     0.412 C 
ATOM     22  O   UNL     1      -6.069  -3.706   3.692  1.00  0.00    -0.224 OA
ATOM     23  N   UNL     1      -8.156  -3.973   4.486  1.00  0.00    -0.318 N 
ATOM     24  H   UNL     1      -7.767  -4.603   5.135  1.00  0.00     0.167 HD
BRANCH  23  25
ATOM     25  C   UNL     1      -9.559  -3.763   4.615  1.00  0.00     0.085 C 
ATOM     26  C   UNL     1     -10.522  -3.392   3.525  1.00  0.00     0.027 C 
ATOM     27  C   UNL     1     -10.493  -4.798   4.039  1.00  0.00     0.027 C 
ENDBRANCH  23  25
ENDBRANCH  20  21
ENDBRANCH  18  20
ENDBRANCH  12  14
ENDBRANCH   5   7
ENDBRANCH   3   5
ENDBRANCH   2   3
ENDBRANCH   1   2
BRANCH   1  28
ATOM     28  C   UNL     1       2.039  -3.006   3.720  1.00  0.00     0.202 C 
BRANCH  28  29
ATOM     29  O   UNL     1       0.721  -2.528   3.967  1.00  0.00    -0.374 OA
BRANCH  29  30
ATOM     30  C   UNL     1       0.326  -1.290   3.379  1.00  0.00     0.202 C 
BRANCH  30  31
ATOM     31  C   UNL     1       1.028  -0.004   3.843  1.00  0.00     0.261 C 
BRANCH  31  32
ATOM     32  O   UNL     1       2.441   0.013   3.562  1.00  0.00    -0.460 OA
BRANCH  32  33
ATOM     33  C   UNL     1       3.234   0.029   4.663  1.00  0.00     0.338 C 
ATOM     34  O   UNL     1       2.883   0.085   5.830  1.00  0.00    -0.246 OA
BRANCH  33  35
ATOM     35  C   UNL     1       4.638  -0.222   4.287  1.00  0.00     0.060 A 
ATOM     36  C   UNL     1       5.263  -1.353   4.829  1.00  0.00     0.016 A 
ATOM     37  C   UNL     1       5.361   0.690   3.519  1.00  0.00     0.016 A 
ATOM     38  C   UNL     1       6.627  -1.555   4.640  1.00  0.00     0.010 A 
ATOM     39  C   UNL     1       6.734   0.490   3.338  1.00  0.00     0.010 A 
ATOM     40  C   UNL     1       7.380  -0.614   3.927  1.00  0.00    -0.014 A 
BRANCH  40  41
ATOM     41  C   UNL     1       8.860  -0.715   3.921  1.00  0.00     0.031 A 
ATOM     42  C   UNL     1       9.661   0.195   4.813  1.00  0.00     0.074 A 
ATOM     43  C   UNL     1       9.483  -1.630   3.159  1.00  0.00     0.049 A 
ATOM     44  N   UNL     1      10.959   0.309   4.933  1.00  0.00    -0.248 NA
ATOM     45  C   UNL     1       8.894   1.099   5.684  1.00  0.00     0.031 C 
ATOM     46  C   UNL     1       8.817  -2.597   2.288  1.00  0.00     0.029 A 
ATOM     47  N   UNL     1      10.820  -1.888   2.990  1.00  0.00    -0.354 N 
ATOM     48  C   UNL     1      11.165   1.300   5.885  1.00  0.00     0.074 A 
ATOM     49  C   UNL     1       9.860   1.780   6.283  1.00  0.00     0.031 C 
ATOM     50  C   UNL     1       9.751  -3.337   1.666  1.00  0.00     0.029 A 
ATOM     51  C   UNL     1      11.077  -2.870   2.065  1.00  0.00     0.049 A 
ATOM     52  H   UNL     1      11.528  -1.415   3.485  1.00  0.00     0.167 HD
ATOM     53  C   UNL     1      12.336   1.760   6.389  1.00  0.00     0.037 A 
ATOM     54  C   UNL     1      12.248  -3.321   1.577  1.00  0.00     0.037 A 
ATOM     55  C   UNL     1      13.633   1.280   5.987  1.00  0.00     0.049 A 
ATOM     56  C   UNL     1      13.538  -2.738   2.093  1.00  0.00     0.074 A 
ATOM     57  C   UNL     1      14.878   1.673   6.447  1.00  0.00     0.029 A 
ATOM     58  N   UNL     1      13.853   0.307   5.024  1.00  0.00    -0.354 N 
ATOM     59  N   UNL     1      13.723  -1.814   3.005  1.00  0.00    -0.248 NA
ATOM     60  C   UNL     1      14.782  -3.264   1.513  1.00  0.00     0.031 C 
ATOM     61  C   UNL     1      15.852   0.981   5.720  1.00  0.00     0.029 A 
ATOM     62  C   UNL     1      15.214   0.108   4.854  1.00  0.00     0.049 A 
ATOM     63  H   UNL     1      13.146  -0.172   4.533  1.00  0.00     0.167 HD
ATOM     64  C   UNL     1      15.100  -1.671   3.131  1.00  0.00     0.074 A 
ATOM     65  C   UNL     1      15.702  -2.613   2.211  1.00  0.00     0.031 C 
ATOM     66  C   UNL     1      15.802  -0.837   3.938  1.00  0.00     0.037 A 
BRANCH  53  67
ATOM     67  C   UNL     1      12.266   2.859   7.410  1.00  0.00     0.057 A 
ATOM     68  C   UNL     1      11.775   2.642   8.705  1.00  0.00     0.134 A 
ATOM     69  C   UNL     1      12.726   4.147   7.104  1.00  0.00     0.134 A 
ATOM     70  F   UNL     1      11.307   1.436   9.061  1.00  0.00    -0.206 F 
ATOM     71  C   UNL     1      11.717   3.671   9.647  1.00  0.00     0.040 A 
ATOM     72  C   UNL     1      12.702   5.176   8.047  1.00  0.00     0.040 A 
ATOM     73  F   UNL     1      13.215   4.424   5.886  1.00  0.00    -0.206 F 
ATOM     74  C   UNL     1      12.189   4.941   9.321  1.00  0.00     0.006 A 
ENDBRANCH  53  67
BRANCH  54  75
ATOM     75  C   UNL     1      12.258  -4.368   0.523  1.00  0.00     0.057 A 
ATOM     76  C   UNL     1      12.754  -5.652   0.776  1.00  0.00     0.134 A 
ATOM     77  C   UNL     1      11.788  -4.103  -0.769  1.00  0.00     0.134 A 
ATOM     78  F   UNL     1      13.241  -5.961   1.987  1.00  0.00    -0.206 F 
ATOM     79  C   UNL     1      12.800  -6.628  -0.221  1.00  0.00     0.040 A 
ATOM     80  C   UNL     1      11.800  -5.078  -1.768  1.00  0.00     0.040 A 
ATOM     81  F   UNL     1      11.298  -2.893  -1.077  1.00  0.00    -0.206 F 
ATOM     82  C   UNL     1      12.316  -6.343  -1.496  1.00  0.00     0.006 A 
ENDBRANCH  54  75
BRANCH  66  83
ATOM     83  C   UNL     1      17.301  -0.933   3.895  1.00  0.00     0.057 A 
ATOM     84  C   UNL     1      18.044  -0.494   2.792  1.00  0.00     0.134 A 
ATOM     85  C   UNL     1      18.013  -1.436   4.992  1.00  0.00     0.134 A 
ATOM     86  F   UNL     1      17.426  -0.012   1.703  1.00  0.00    -0.206 F 
ATOM     87  C   UNL     1      19.438  -0.578   2.771  1.00  0.00     0.040 A 
ATOM     88  C   UNL     1      19.407  -1.495   4.996  1.00  0.00     0.040 A 
ATOM     89  F   UNL     1      17.365  -1.864   6.087  1.00  0.00    -0.206 F 
ATOM     90  C   UNL     1      20.124  -1.072   3.879  1.00  0.00     0.006 A 
ENDBRANCH  66  83
ENDBRANCH  40  41
ENDBRANCH  33  35
ENDBRANCH  32  33
ENDBRANCH  31  32
ENDBRANCH  30  31
ENDBRANCH  29  30
ENDBRANCH  28  29
ENDBRANCH   1  28
TORSDOF 19
