REMARK SMILES CS(=O)(=O)[C@@H]1CCC[C@@H](Sc2ccc(C(=O)OCCOCCOC(=O)c3ccc(-c4c5nc(c(-c6c(F)cccc6F)c6ccc([nH]6)c(-c6c(F)cccc6F)c6nc(c(-c7c(F)cccc7F)c7ccc4[nH]7)C=C6)C=C5)cc3)cn2)C1
REMARK SMILES IDX 19 1 18 2 17 3 15 4 16 5 14 6 11 7 12 8 81 9 13 10 80 11
REMARK SMILES IDX 10 12 9 13 5 14 6 15 82 16 7 17 8 18 2 19 1 20 3 21 4 22
REMARK SMILES IDX 20 23 21 24 22 25 23 26 24 27 25 28 26 29 27 30 79 31 28 32
REMARK SMILES IDX 78 33 29 34 30 35 31 36 72 37 32 38 77 39 71 40 73 41 33 42
REMARK SMILES IDX 76 43 70 44 69 45 34 47 60 48 43 49 59 50 44 51 47 52 58 53
REMARK SMILES IDX 74 54 45 55 46 56 57 58 75 59 48 60 35 61 36 62 41 63 37 64
REMARK SMILES IDX 38 65 40 66 42 67 39 68 61 69 62 70 67 71 63 72 64 73 66 74
REMARK SMILES IDX 68 75 65 76 49 77 50 78 55 79 51 80 52 81 54 82 56 83 53 84
REMARK H PARENT 73 46 47 57
REMARK Flexibility Score: inf
ROOT
ATOM      1  C   UNL     1       7.294  -2.825  -0.811  1.00  0.00     0.202 C 
ENDROOT
BRANCH   1   2
ATOM      2  C   UNL     1       6.911  -4.048   0.027  1.00  0.00     0.261 C 
BRANCH   2   3
ATOM      3  O   UNL     1       5.965  -3.690   1.041  1.00  0.00    -0.460 OA
BRANCH   3   4
ATOM      4  C   UNL     1       6.444  -3.532   2.301  1.00  0.00     0.339 C 
ATOM      5  O   UNL     1       7.556  -3.816   2.710  1.00  0.00    -0.246 OA
BRANCH   4   6
ATOM      6  C   UNL     1       5.420  -2.832   3.099  1.00  0.00     0.078 A 
ATOM      7  C   UNL     1       3.567  -1.377   4.590  1.00  0.00     0.096 A 
ATOM      8  C   UNL     1       3.216  -1.969   3.399  1.00  0.00     0.036 A 
ATOM      9  N   UNL     1       4.843  -1.483   5.033  1.00  0.00    -0.249 NA
ATOM     10  C   UNL     1       4.118  -2.706   2.648  1.00  0.00     0.020 A 
ATOM     11  C   UNL     1       5.739  -2.199   4.288  1.00  0.00     0.128 A 
BRANCH   7  12
ATOM     12  S   UNL     1       2.482  -0.387   5.587  1.00  0.00    -0.103 SA
BRANCH  12  13
ATOM     13  C   UNL     1       0.681  -0.629   5.134  1.00  0.00     0.054 C 
ATOM     14  C   UNL     1       0.381  -0.289   2.630  1.00  0.00     0.109 C 
ATOM     15  C   UNL     1      -0.208  -1.706   2.494  1.00  0.00     0.020 C 
ATOM     16  C   UNL     1       0.149   0.283   4.019  1.00  0.00     0.034 C 
ATOM     17  C   UNL     1       0.038  -2.677   3.659  1.00  0.00     0.002 C 
ATOM     18  C   UNL     1       0.123  -2.052   5.048  1.00  0.00     0.015 C 
BRANCH  14  19
ATOM     19  S   UNL     1      -0.205   0.803   1.325  1.00  0.00     0.150 S 
ATOM     20  C   UNL     1       0.622   0.163  -0.119  1.00  0.00     0.158 C 
ATOM     21  O   UNL     1       0.344   2.123   1.567  1.00  0.00    -0.229 OA
ATOM     22  O   UNL     1      -1.630   0.608   1.153  1.00  0.00    -0.229 OA
ENDBRANCH  14  19
ENDBRANCH  12  13
ENDBRANCH   7  12
ENDBRANCH   4   6
ENDBRANCH   3   4
ENDBRANCH   2   3
ENDBRANCH   1   2
BRANCH   1  23
ATOM     23  O   UNL     1       7.926  -1.764  -0.096  1.00  0.00    -0.374 OA
BRANCH  23  24
ATOM     24  C   UNL     1       7.063  -0.802   0.516  1.00  0.00     0.202 C 
BRANCH  24  25
ATOM     25  C   UNL     1       6.576   0.335  -0.389  1.00  0.00     0.261 C 
BRANCH  25  26
ATOM     26  O   UNL     1       5.651  -0.142  -1.384  1.00  0.00    -0.460 OA
BRANCH  26  27
ATOM     27  C   UNL     1       6.181  -0.284  -2.622  1.00  0.00     0.338 C 
ATOM     28  O   UNL     1       7.309   0.000  -2.985  1.00  0.00    -0.246 OA
BRANCH  27  29
ATOM     29  C   UNL     1       5.232  -1.014  -3.482  1.00  0.00     0.060 A 
ATOM     30  C   UNL     1       5.717  -2.120  -4.191  1.00  0.00     0.016 A 
ATOM     31  C   UNL     1       3.916  -0.579  -3.651  1.00  0.00     0.016 A 
ATOM     32  C   UNL     1       4.903  -2.764  -5.120  1.00  0.00     0.010 A 
ATOM     33  C   UNL     1       3.102  -1.224  -4.585  1.00  0.00     0.010 A 
ATOM     34  C   UNL     1       3.605  -2.292  -5.352  1.00  0.00    -0.014 A 
BRANCH  34  35
ATOM     35  C   UNL     1       2.822  -2.800  -6.503  1.00  0.00     0.031 A 
ATOM     36  C   UNL     1       2.705  -1.943  -7.733  1.00  0.00     0.074 A 
ATOM     37  C   UNL     1       2.220  -4.000  -6.454  1.00  0.00     0.049 A 
ATOM     38  N   UNL     1       1.982  -2.124  -8.807  1.00  0.00    -0.248 NA
ATOM     39  C   UNL     1       3.507  -0.708  -7.747  1.00  0.00     0.031 C 
ATOM     40  C   UNL     1       2.300  -4.942  -5.339  1.00  0.00     0.029 A 
ATOM     41  N   UNL     1       1.403  -4.622  -7.364  1.00  0.00    -0.354 N 
ATOM     42  C   UNL     1       2.226  -1.020  -9.615  1.00  0.00     0.074 A 
ATOM     43  C   UNL     1       3.140  -0.160  -8.895  1.00  0.00     0.031 C 
ATOM     44  C   UNL     1       1.545  -6.017  -5.624  1.00  0.00     0.029 A 
ATOM     45  C   UNL     1       0.897  -5.818  -6.919  1.00  0.00     0.049 A 
ATOM     46  H   UNL     1       1.200  -4.247  -8.251  1.00  0.00     0.167 HD
ATOM     47  C   UNL     1       1.736  -0.751 -10.849  1.00  0.00     0.037 A 
ATOM     48  C   UNL     1      -0.012  -6.639  -7.479  1.00  0.00     0.037 A 
ATOM     49  C   UNL     1       0.830  -1.614 -11.561  1.00  0.00     0.049 A 
ATOM     50  C   UNL     1      -0.603  -6.282  -8.818  1.00  0.00     0.074 A 
ATOM     51  C   UNL     1       0.289  -1.442 -12.823  1.00  0.00     0.029 A 
ATOM     52  N   UNL     1       0.325  -2.808 -11.069  1.00  0.00    -0.354 N 
ATOM     53  N   UNL     1      -0.358  -5.244  -9.582  1.00  0.00    -0.248 NA
ATOM     54  C   UNL     1      -1.597  -7.212  -9.373  1.00  0.00     0.031 C 
ATOM     55  C   UNL     1      -0.588  -2.502 -13.070  1.00  0.00     0.029 A 
ATOM     56  C   UNL     1      -0.542  -3.370 -11.991  1.00  0.00     0.049 A 
ATOM     57  H   UNL     1       0.550  -3.198 -10.193  1.00  0.00     0.167 HD
ATOM     58  C   UNL     1      -1.136  -5.416 -10.722  1.00  0.00     0.074 A 
ATOM     59  C   UNL     1      -1.855  -6.661 -10.551  1.00  0.00     0.031 C 
ATOM     60  C   UNL     1      -1.241  -4.618 -11.813  1.00  0.00     0.037 A 
BRANCH  47  61
ATOM     61  C   UNL     1       2.145   0.543 -11.491  1.00  0.00     0.057 A 
ATOM     62  C   UNL     1       3.451   0.771 -11.944  1.00  0.00     0.134 A 
ATOM     63  C   UNL     1       1.208   1.567 -11.686  1.00  0.00     0.134 A 
ATOM     64  F   UNL     1       4.402  -0.161 -11.776  1.00  0.00    -0.206 F 
ATOM     65  C   UNL     1       3.817   1.979 -12.541  1.00  0.00     0.040 A 
ATOM     66  C   UNL     1       1.554   2.767 -12.309  1.00  0.00     0.040 A 
ATOM     67  F   UNL     1      -0.062   1.415 -11.281  1.00  0.00    -0.206 F 
ATOM     68  C   UNL     1       2.865   2.978 -12.732  1.00  0.00     0.006 A 
ENDBRANCH  47  61
BRANCH  48  69
ATOM     69  C   UNL     1      -0.435  -7.875  -6.771  1.00  0.00     0.057 A 
ATOM     70  C   UNL     1      -0.114  -9.142  -7.271  1.00  0.00     0.134 A 
ATOM     71  C   UNL     1      -1.187  -7.819  -5.591  1.00  0.00     0.134 A 
ATOM     72  F   UNL     1       0.586  -9.261  -8.409  1.00  0.00    -0.206 F 
ATOM     73  C   UNL     1      -0.544 -10.309  -6.636  1.00  0.00     0.040 A 
ATOM     74  C   UNL     1      -1.599  -8.977  -4.931  1.00  0.00     0.040 A 
ATOM     75  F   UNL     1      -1.523  -6.636  -5.056  1.00  0.00    -0.206 F 
ATOM     76  C   UNL     1      -1.285 -10.228  -5.459  1.00  0.00     0.006 A 
ENDBRANCH  48  69
BRANCH  60  77
ATOM     77  C   UNL     1      -2.121  -5.090 -12.936  1.00  0.00     0.057 A 
ATOM     78  C   UNL     1      -3.517  -5.112 -12.832  1.00  0.00     0.134 A 
ATOM     79  C   UNL     1      -1.558  -5.484 -14.158  1.00  0.00     0.134 A 
ATOM     80  F   UNL     1      -4.120  -4.760 -11.686  1.00  0.00    -0.206 F 
ATOM     81  C   UNL     1      -4.321  -5.531 -13.894  1.00  0.00     0.040 A 
ATOM     82  C   UNL     1      -2.353  -5.874 -15.237  1.00  0.00     0.040 A 
ATOM     83  F   UNL     1      -0.228  -5.476 -14.330  1.00  0.00    -0.206 F 
ATOM     84  C   UNL     1      -3.739  -5.905 -15.104  1.00  0.00     0.006 A 
ENDBRANCH  60  77
ENDBRANCH  34  35
ENDBRANCH  27  29
ENDBRANCH  26  27
ENDBRANCH  25  26
ENDBRANCH  24  25
ENDBRANCH  23  24
ENDBRANCH   1  23
TORSDOF 17
