REMARK SMILES O=C(C[C@]1(C(=O)NC2CCCCC2)CC(c2ccc([N+](=O)[O-])cc2)=NO1)OCCOCCOC(=O)c1ccc(-c2c3nc(c(-c4c(F)cccc4F)c4ccc([nH]4)c(-c4c(F)cccc4F)c4nc(c(-c5c(F)cccc5F)c5ccc2[nH]5)C=C4)C=C3)cc1
REMARK SMILES IDX 29 1 28 2 27 3 2 4 1 5 3 6 4 7 14 8 26 9 15 10 25 11 5 12
REMARK SMILES IDX 6 13 7 14 8 16 9 17 13 18 10 19 12 20 11 21 16 22 17 23
REMARK SMILES IDX 24 24 18 25 23 26 19 27 20 28 21 29 22 30 30 31 31 32 32 33
REMARK SMILES IDX 33 34 34 35 35 36 36 37 37 38 89 39 38 40 88 41 39 42 40 43
REMARK SMILES IDX 41 44 82 45 42 46 87 47 81 48 83 49 43 50 86 51 80 52 79 53
REMARK SMILES IDX 44 55 70 56 53 57 69 58 54 59 57 60 68 61 84 62 55 63 56 64
REMARK SMILES IDX 67 66 85 67 58 68 45 69 46 70 51 71 47 72 48 73 50 74 52 75
REMARK SMILES IDX 49 76 71 77 72 78 77 79 73 80 74 81 76 82 78 83 75 84 59 85
REMARK SMILES IDX 60 86 65 87 61 88 62 89 64 90 66 91 63 92
REMARK H PARENT 7 15 83 54 57 65
REMARK Flexibility Score: inf
ROOT
ATOM      1  C   UNL     1       1.868  -3.280   0.205  1.00  0.00     0.202 C 
ENDROOT
BRANCH   1   2
ATOM      2  C   UNL     1       1.072  -2.092   1.050  1.00  0.00     0.261 C 
BRANCH   2   3
ATOM      3  O   UNL     1       1.517  -0.572   1.334  1.00  0.00    -0.463 OA
BRANCH   3   4
ATOM      4  C   UNL     1       2.168   0.605   1.536  1.00  0.00     0.310 C 
ATOM      5  O   UNL     1       1.458   1.607   1.692  1.00  0.00    -0.252 OA
BRANCH   4   6
ATOM      6  C   UNL     1       3.720   0.884   1.397  1.00  0.00     0.185 C 
BRANCH   6   7
ATOM      7  C   UNL     1       4.825  -0.175   1.598  1.00  0.00     0.231 C 
ATOM      8  C   UNL     1       5.571  -0.189   2.908  1.00  0.00     0.123 C 
ATOM      9  O   UNL     1       5.933  -0.115   0.662  1.00  0.00    -0.378 OA
ATOM     10  C   UNL     1       6.677  -1.104   2.459  1.00  0.00     0.092 C 
ATOM     11  N   UNL     1       6.930  -1.011   1.187  1.00  0.00    -0.089 NA
BRANCH   7  12
ATOM     12  C   UNL     1       4.185  -1.470   1.254  1.00  0.00     0.268 C 
ATOM     13  O   UNL     1       3.935  -2.317   2.108  1.00  0.00    -0.270 OA
ATOM     14  N   UNL     1       3.484  -1.261   0.104  1.00  0.00    -0.350 N 
ATOM     15  H   UNL     1       2.661  -0.754   0.293  1.00  0.00     0.163 HD
BRANCH  14  16
ATOM     16  C   UNL     1       3.578  -1.556  -1.296  1.00  0.00     0.082 C 
ATOM     17  C   UNL     1       4.659  -3.086  -1.326  1.00  0.00     0.025 C 
ATOM     18  C   UNL     1       1.681  -1.612  -1.769  1.00  0.00     0.025 C 
ATOM     19  C   UNL     1       3.857  -4.781  -1.538  1.00  0.00     0.002 C 
ATOM     20  C   UNL     1       0.850  -3.352  -1.993  1.00  0.00     0.002 C 
ATOM     21  C   UNL     1       1.969  -4.954  -1.813  1.00  0.00     0.000 C 
ENDBRANCH  14  16
ENDBRANCH   7  12
BRANCH  10  22
ATOM     22  C   UNL     1       7.368  -2.021   3.396  1.00  0.00    -0.000 A 
ATOM     23  C   UNL     1       7.959  -3.202   2.922  1.00  0.00     0.017 A 
ATOM     24  C   UNL     1       7.434  -1.714   4.760  1.00  0.00     0.017 A 
ATOM     25  C   UNL     1       8.662  -4.044   3.798  1.00  0.00     0.086 A 
ATOM     26  C   UNL     1       8.143  -2.542   5.637  1.00  0.00     0.086 A 
ATOM     27  C   UNL     1       8.777  -3.692   5.149  1.00  0.00     0.269 A 
BRANCH  27  28
ATOM     28  N   UNL     1       9.600  -4.506   6.056  1.00  0.00     0.062 N 
ATOM     29  O   UNL     1      10.137  -5.523   5.594  1.00  0.00    -0.258 OA
ATOM     30  O   UNL     1       9.722  -4.116   7.226  1.00  0.00    -0.258 OA
ENDBRANCH  27  28
ENDBRANCH  10  22
ENDBRANCH   6   7
ENDBRANCH   4   6
ENDBRANCH   3   4
ENDBRANCH   2   3
ENDBRANCH   1   2
BRANCH   1  31
ATOM     31  O   UNL     1       2.663  -3.248  -1.192  1.00  0.00    -0.374 OA
BRANCH  31  32
ATOM     32  C   UNL     1       2.830  -3.126  -3.050  1.00  0.00     0.202 C 
BRANCH  32  33
ATOM     33  C   UNL     1       2.497  -4.106  -4.286  1.00  0.00     0.261 C 
BRANCH  33  34
ATOM     34  O   UNL     1       1.113  -4.287  -4.606  1.00  0.00    -0.460 OA
BRANCH  34  35
ATOM     35  C   UNL     1       0.686  -5.579  -4.690  1.00  0.00     0.338 C 
ATOM     36  O   UNL     1       1.339  -6.558  -4.948  1.00  0.00    -0.246 OA
BRANCH  35  37
ATOM     37  C   UNL     1      -0.632  -5.596  -4.013  1.00  0.00     0.060 A 
ATOM     38  C   UNL     1      -0.756  -6.337  -2.825  1.00  0.00     0.016 A 
ATOM     39  C   UNL     1      -1.674  -4.788  -4.465  1.00  0.00     0.016 A 
ATOM     40  C   UNL     1      -1.928  -6.272  -2.077  1.00  0.00     0.010 A 
ATOM     41  C   UNL     1      -2.868  -4.771  -3.752  1.00  0.00     0.010 A 
ATOM     42  C   UNL     1      -3.008  -5.543  -2.583  1.00  0.00    -0.014 A 
BRANCH  42  43
ATOM     43  C   UNL     1      -4.383  -5.884  -2.163  1.00  0.00     0.031 A 
ATOM     44  C   UNL     1      -5.012  -7.050  -2.870  1.00  0.00     0.074 A 
ATOM     45  C   UNL     1      -5.080  -5.117  -1.311  1.00  0.00     0.049 A 
ATOM     46  N   UNL     1      -6.262  -7.420  -2.917  1.00  0.00    -0.248 NA
ATOM     47  C   UNL     1      -4.103  -7.894  -3.668  1.00  0.00     0.031 C 
ATOM     48  C   UNL     1      -4.554  -3.982  -0.558  1.00  0.00     0.029 A 
ATOM     49  N   UNL     1      -6.410  -5.160  -0.981  1.00  0.00    -0.354 N 
ATOM     50  C   UNL     1      -6.288  -8.515  -3.771  1.00  0.00     0.074 A 
ATOM     51  C   UNL     1      -4.939  -8.751  -4.222  1.00  0.00     0.031 C 
ATOM     52  C   UNL     1      -5.567  -3.401   0.112  1.00  0.00     0.029 A 
ATOM     53  C   UNL     1      -6.812  -4.102  -0.203  1.00  0.00     0.049 A 
ATOM     54  H   UNL     1      -7.018  -5.878  -1.274  1.00  0.00     0.167 HD
ATOM     55  C   UNL     1      -7.349  -9.252  -4.166  1.00  0.00     0.037 A 
ATOM     56  C   UNL     1      -8.053  -3.726   0.162  1.00  0.00     0.037 A 
ATOM     57  C   UNL     1      -8.692  -8.983  -3.748  1.00  0.00     0.049 A 
ATOM     58  C   UNL     1      -9.232  -4.535  -0.317  1.00  0.00     0.074 A 
ATOM     59  C   UNL     1      -9.851  -9.656  -4.078  1.00  0.00     0.029 A 
ATOM     60  N   UNL     1      -9.049  -7.934  -2.915  1.00  0.00    -0.354 N 
ATOM     61  N   UNL     1      -9.250  -5.591  -1.097  1.00  0.00    -0.248 NA
ATOM     62  C   UNL     1     -10.564  -4.095   0.123  1.00  0.00     0.031 C 
ATOM     63  C   UNL     1     -10.919  -8.988  -3.472  1.00  0.00     0.029 A 
ATOM     64  C   UNL     1     -10.417  -7.926  -2.732  1.00  0.00     0.049 A 
ATOM     65  H   UNL     1      -8.421  -7.290  -2.514  1.00  0.00     0.167 HD
ATOM     66  C   UNL     1     -10.586  -5.954  -1.223  1.00  0.00     0.074 A 
ATOM     67  C   UNL     1     -11.350  -5.007  -0.435  1.00  0.00     0.031 C 
ATOM     68  C   UNL     1     -11.137  -6.975  -1.924  1.00  0.00     0.037 A 
BRANCH  55  69
ATOM     69  C   UNL     1      -7.071 -10.355  -5.138  1.00  0.00     0.057 A 
ATOM     70  C   UNL     1      -6.388 -11.519  -4.759  1.00  0.00     0.134 A 
ATOM     71  C   UNL     1      -7.416 -10.215  -6.487  1.00  0.00     0.134 A 
ATOM     72  F   UNL     1      -5.994 -11.691  -3.487  1.00  0.00    -0.206 F 
ATOM     73  C   UNL     1      -6.025 -12.488  -5.695  1.00  0.00     0.040 A 
ATOM     74  C   UNL     1      -7.081 -11.190  -7.428  1.00  0.00     0.040 A 
ATOM     75  F   UNL     1      -8.055  -9.117  -6.917  1.00  0.00    -0.206 F 
ATOM     76  C   UNL     1      -6.374 -12.325  -7.034  1.00  0.00     0.006 A 
ENDBRANCH  55  69
BRANCH  56  77
ATOM     77  C   UNL     1      -8.249  -2.512   0.993  1.00  0.00     0.057 A 
ATOM     78  C   UNL     1      -8.646  -2.608   2.331  1.00  0.00     0.134 A 
ATOM     79  C   UNL     1      -8.050  -1.228   0.471  1.00  0.00     0.134 A 
ATOM     80  F   UNL     1      -8.874  -3.810   2.881  1.00  0.00    -0.206 F 
ATOM     81  C   UNL     1      -8.848  -1.473   3.119  1.00  0.00     0.040 A 
ATOM     82  C   UNL     1      -8.229  -0.084   1.253  1.00  0.00     0.040 A 
ATOM     83  F   UNL     1      -7.670  -1.066  -0.805  1.00  0.00    -0.206 F 
ATOM     84  C   UNL     1      -8.634  -0.206   2.580  1.00  0.00     0.006 A 
ENDBRANCH  56  77
BRANCH  68  85
ATOM     85  C   UNL     1     -12.621  -7.152  -1.844  1.00  0.00     0.057 A 
ATOM     86  C   UNL     1     -13.498  -6.344  -2.576  1.00  0.00     0.134 A 
ATOM     87  C   UNL     1     -13.167  -8.215  -1.112  1.00  0.00     0.134 A 
ATOM     88  F   UNL     1     -13.034  -5.309  -3.291  1.00  0.00    -0.206 F 
ATOM     89  C   UNL     1     -14.872  -6.587  -2.581  1.00  0.00     0.040 A 
ATOM     90  C   UNL     1     -14.535  -8.480  -1.127  1.00  0.00     0.040 A 
ATOM     91  F   UNL     1     -12.373  -9.031  -0.403  1.00  0.00    -0.206 F 
ATOM     92  C   UNL     1     -15.392  -7.665  -1.864  1.00  0.00     0.006 A 
ENDBRANCH  68  85
ENDBRANCH  42  43
ENDBRANCH  35  37
ENDBRANCH  34  35
ENDBRANCH  33  34
ENDBRANCH  32  33
ENDBRANCH  31  32
ENDBRANCH   1  31
TORSDOF 19
