REMARK SMILES O=C(OCCOCCOC(=O)c1c(C(F)(F)F)nn(-c2ccccc2)c1C(F)(F)Cl)c1ccc(-c2c3nc(c(-c4c(F)cccc4F)c4ccc([nH]4)c(-c4c(F)cccc4F)c4nc(c(-c5c(F)cccc5F)c5ccc2[nH]5)C=C4)C=C3)cc1
REMARK SMILES IDX 5 1 4 2 3 3 2 4 1 5 31 6 32 7 84 8 33 9 83 10 34 11 35 12
REMARK SMILES IDX 36 13 77 14 37 15 82 16 76 17 78 18 38 19 81 20 75 21 74 22
REMARK SMILES IDX 39 24 65 25 48 26 64 27 49 28 52 29 63 30 79 31 50 32 51 33
REMARK SMILES IDX 62 35 80 36 53 37 40 38 41 39 46 40 42 41 43 42 45 43 47 44
REMARK SMILES IDX 44 45 66 46 67 47 72 48 68 49 69 50 71 51 73 52 70 53 54 54
REMARK SMILES IDX 55 55 60 56 56 57 57 58 59 59 61 60 58 61 6 62 7 63 8 64
REMARK SMILES IDX 9 65 10 66 11 67 12 68 13 69 26 70 18 71 19 72 14 73 15 74
REMARK SMILES IDX 16 75 17 76 27 77 28 78 29 79 30 80 20 81 21 82 25 83 22 84
REMARK SMILES IDX 24 85 23 86
REMARK H PARENT 78 23 52 34
REMARK Flexibility Score: inf
ROOT
ATOM      1  C   UNL     1       5.180   0.610  -0.158  1.00  0.00     0.202 C 
ENDROOT
BRANCH   1   2
ATOM      2  C   UNL     1       4.613  -0.383  -1.188  1.00  0.00     0.261 C 
BRANCH   2   3
ATOM      3  O   UNL     1       3.262  -0.090  -1.549  1.00  0.00    -0.460 OA
BRANCH   3   4
ATOM      4  C   UNL     1       2.144  -0.445  -0.878  1.00  0.00     0.338 C 
ATOM      5  O   UNL     1       1.062  -0.032  -1.292  1.00  0.00    -0.246 OA
BRANCH   4   6
ATOM      6  C   UNL     1       2.150  -1.306   0.345  1.00  0.00     0.060 A 
ATOM      7  C   UNL     1       3.279  -1.815   0.995  1.00  0.00     0.016 A 
ATOM      8  C   UNL     1       0.885  -1.655   0.843  1.00  0.00     0.016 A 
ATOM      9  C   UNL     1       3.179  -2.846   1.894  1.00  0.00     0.010 A 
ATOM     10  C   UNL     1       0.767  -2.636   1.807  1.00  0.00     0.010 A 
ATOM     11  C   UNL     1       1.919  -3.306   2.211  1.00  0.00    -0.014 A 
BRANCH  11  12
ATOM     12  C   UNL     1       1.869  -4.572   2.907  1.00  0.00     0.031 A 
ATOM     13  C   UNL     1       2.438  -4.572   4.284  1.00  0.00     0.074 A 
ATOM     14  C   UNL     1       1.278  -5.598   2.267  1.00  0.00     0.049 A 
ATOM     15  N   UNL     1       3.255  -5.415   4.831  1.00  0.00    -0.248 NA
ATOM     16  C   UNL     1       2.140  -3.397   5.126  1.00  0.00     0.031 C 
ATOM     17  C   UNL     1       0.569  -5.567   0.978  1.00  0.00     0.029 A 
ATOM     18  N   UNL     1       1.045  -6.856   2.704  1.00  0.00    -0.354 N 
ATOM     19  C   UNL     1       3.408  -4.985   6.149  1.00  0.00     0.074 A 
ATOM     20  C   UNL     1       2.821  -3.675   6.235  1.00  0.00     0.031 C 
ATOM     21  C   UNL     1      -0.244  -6.639   0.894  1.00  0.00     0.029 A 
ATOM     22  C   UNL     1      -0.007  -7.477   2.051  1.00  0.00     0.049 A 
ATOM     23  H   UNL     1       1.570  -7.288   3.416  1.00  0.00     0.167 HD
ATOM     24  C   UNL     1       3.782  -5.828   7.147  1.00  0.00     0.037 A 
ATOM     25  C   UNL     1      -0.732  -8.501   2.555  1.00  0.00     0.037 A 
ATOM     26  C   UNL     1       4.536  -6.946   6.660  1.00  0.00     0.049 A 
ATOM     27  C   UNL     1       0.078  -9.116   3.641  1.00  0.00     0.074 A 
ATOM     28  C   UNL     1       5.752  -7.084   6.019  1.00  0.00     0.029 A 
ATOM     29  N   UNL     1       3.898  -8.151   6.504  1.00  0.00    -0.354 N 
ATOM     30  N   UNL     1       1.210  -9.735   3.435  1.00  0.00    -0.248 NA
ATOM     31  C   UNL     1      -0.121  -8.621   4.998  1.00  0.00     0.031 C 
ATOM     32  C   UNL     1       5.570  -8.163   5.108  1.00  0.00     0.029 A 
ATOM     33  C   UNL     1       4.269  -8.638   5.276  1.00  0.00     0.049 A 
ATOM     34  H   UNL     1       3.292  -8.583   7.149  1.00  0.00     0.167 HD
ATOM     35  C   UNL     1       2.021  -9.378   4.506  1.00  0.00     0.074 A 
ATOM     36  C   UNL     1       1.123  -8.745   5.469  1.00  0.00     0.031 C 
ATOM     37  C   UNL     1       3.383  -9.366   4.399  1.00  0.00     0.037 A 
BRANCH  24  38
ATOM     38  C   UNL     1       3.138  -5.795   8.506  1.00  0.00     0.057 A 
ATOM     39  C   UNL     1       3.696  -6.526   9.566  1.00  0.00     0.134 A 
ATOM     40  C   UNL     1       1.835  -5.301   8.733  1.00  0.00     0.134 A 
ATOM     41  F   UNL     1       4.916  -7.072   9.458  1.00  0.00    -0.206 F 
ATOM     42  C   UNL     1       2.987  -6.786  10.746  1.00  0.00     0.040 A 
ATOM     43  C   UNL     1       1.139  -5.511   9.924  1.00  0.00     0.040 A 
ATOM     44  F   UNL     1       1.130  -4.678   7.780  1.00  0.00    -0.206 F 
ATOM     45  C   UNL     1       1.704  -6.282  10.926  1.00  0.00     0.006 A 
ENDBRANCH  24  38
BRANCH  25  46
ATOM     46  C   UNL     1      -2.201  -8.637   2.433  1.00  0.00     0.057 A 
ATOM     47  C   UNL     1      -2.835  -9.866   2.630  1.00  0.00     0.134 A 
ATOM     48  C   UNL     1      -3.049  -7.515   2.318  1.00  0.00     0.134 A 
ATOM     49  F   UNL     1      -2.111 -10.980   2.808  1.00  0.00    -0.206 F 
ATOM     50  C   UNL     1      -4.231  -9.978   2.692  1.00  0.00     0.040 A 
ATOM     51  C   UNL     1      -4.441  -7.614   2.362  1.00  0.00     0.040 A 
ATOM     52  F   UNL     1      -2.554  -6.271   2.234  1.00  0.00    -0.206 F 
ATOM     53  C   UNL     1      -5.038  -8.851   2.558  1.00  0.00     0.006 A 
ENDBRANCH  25  46
BRANCH  37  54
ATOM     54  C   UNL     1       3.989  -9.899   3.129  1.00  0.00     0.057 A 
ATOM     55  C   UNL     1       3.851  -9.256   1.889  1.00  0.00     0.134 A 
ATOM     56  C   UNL     1       4.882 -10.971   3.186  1.00  0.00     0.134 A 
ATOM     57  F   UNL     1       3.114  -8.146   1.769  1.00  0.00    -0.206 F 
ATOM     58  C   UNL     1       4.531  -9.688   0.748  1.00  0.00     0.040 A 
ATOM     59  C   UNL     1       5.594 -11.395   2.060  1.00  0.00     0.040 A 
ATOM     60  F   UNL     1       5.124 -11.587   4.353  1.00  0.00    -0.206 F 
ATOM     61  C   UNL     1       5.413 -10.759   0.833  1.00  0.00     0.006 A 
ENDBRANCH  37  54
ENDBRANCH  11  12
ENDBRANCH   4   6
ENDBRANCH   3   4
ENDBRANCH   2   3
ENDBRANCH   1   2
BRANCH   1  62
ATOM     62  O   UNL     1       4.462   0.881   1.042  1.00  0.00    -0.374 OA
BRANCH  62  63
ATOM     63  C   UNL     1       3.369   1.805   1.028  1.00  0.00     0.202 C 
BRANCH  63  64
ATOM     64  C   UNL     1       3.626   3.221   0.518  1.00  0.00     0.261 C 
BRANCH  64  65
ATOM     65  O   UNL     1       3.816   3.218  -0.907  1.00  0.00    -0.460 OA
BRANCH  65  66
ATOM     66  C   UNL     1       4.991   3.693  -1.388  1.00  0.00     0.342 C 
ATOM     67  O   UNL     1       5.933   4.090  -0.717  1.00  0.00    -0.246 OA
BRANCH  66  68
ATOM     68  C   UNL     1       5.051   3.585  -2.826  1.00  0.00     0.121 A 
ATOM     69  C   UNL     1       5.925   2.769  -3.613  1.00  0.00     0.181 A 
ATOM     70  C   UNL     1       4.268   4.280  -3.741  1.00  0.00     0.145 A 
ATOM     71  N   UNL     1       5.627   2.905  -4.919  1.00  0.00    -0.162 NA
ATOM     72  N   UNL     1       4.806   3.971  -4.971  1.00  0.00    -0.229 N 
BRANCH  69  73
ATOM     73  C   UNL     1       7.020   1.823  -3.176  1.00  0.00     0.436 C 
ATOM     74  F   UNL     1       6.800   0.552  -3.612  1.00  0.00    -0.164 F 
ATOM     75  F   UNL     1       8.240   2.191  -3.643  1.00  0.00    -0.164 F 
ATOM     76  F   UNL     1       7.145   1.733  -1.828  1.00  0.00    -0.164 F 
ENDBRANCH  69  73
BRANCH  70  77
ATOM     77  C   UNL     1       3.143   5.252  -3.650  1.00  0.00     0.365 C 
ATOM     78  F   UNL     1       3.641   6.517  -3.599  1.00  0.00    -0.181 F 
ATOM     79  F   UNL     1       2.361   5.195  -4.761  1.00  0.00    -0.181 F 
ATOM     80  Cl  UNL     1       2.060   5.053  -2.269  1.00  0.00    -0.040 Cl
ENDBRANCH  70  77
BRANCH  72  81
ATOM     81  C   UNL     1       4.667   4.675  -6.182  1.00  0.00     0.065 A 
ATOM     82  C   UNL     1       4.321   3.979  -7.341  1.00  0.00     0.028 A 
ATOM     83  C   UNL     1       4.829   6.066  -6.193  1.00  0.00     0.028 A 
ATOM     84  C   UNL     1       4.025   4.703  -8.494  1.00  0.00     0.002 A 
ATOM     85  C   UNL     1       4.556   6.776  -7.356  1.00  0.00     0.002 A 
ATOM     86  C   UNL     1       4.129   6.097  -8.496  1.00  0.00     0.000 A 
ENDBRANCH  72  81
ENDBRANCH  66  68
ENDBRANCH  65  66
ENDBRANCH  64  65
ENDBRANCH  63  64
ENDBRANCH  62  63
ENDBRANCH   1  62
TORSDOF 17
