REMARK SMILES O=C(OCCOCCOC(=O)c1ccc([C@H]2CCC[N@@H+](CCN3CCCC3=O)C2)cc1)c1ccc(-c2c3nc(c(-c4c(F)cccc4F)c4ccc([nH]4)c(-c4c(F)cccc4F)c4nc(c(-c5c(F)cccc5F)c5ccc2[nH]5)C=C4)C=C3)cc1
REMARK SMILES IDX 7 1 6 2 5 3 4 4 3 5 2 6 1 7 32 8 33 9 85 10 34 11 84 12
REMARK SMILES IDX 35 13 36 14 37 15 78 16 38 17 83 18 77 19 79 20 39 21 82 22
REMARK SMILES IDX 76 23 75 24 40 26 66 27 49 28 65 29 50 30 53 31 64 32 80 33
REMARK SMILES IDX 51 34 52 35 63 37 81 38 54 39 41 40 42 41 47 42 43 43 44 44
REMARK SMILES IDX 46 45 48 46 45 47 67 48 68 49 73 50 69 51 70 52 72 53 74 54
REMARK SMILES IDX 71 55 55 56 56 57 61 58 57 59 58 60 60 61 62 62 59 63 8 64
REMARK SMILES IDX 9 65 10 66 11 67 12 68 13 69 31 70 14 71 30 72 15 73 16 74
REMARK SMILES IDX 17 75 29 76 18 77 20 78 19 79 21 81 22 82 23 83 24 84 27 85
REMARK SMILES IDX 25 86 26 87 28 88
REMARK H PARENT 79 25 53 36 20 80
REMARK Flexibility Score: inf
ROOT
ATOM      1  C   UNL     1      10.798   2.454  -9.692  1.00  0.00     0.202 C 
ENDROOT
BRANCH   1   2
ATOM      2  O   UNL     1      11.354   2.565  -8.383  1.00  0.00    -0.374 OA
BRANCH   2   3
ATOM      3  C   UNL     1      11.381   3.864  -7.802  1.00  0.00     0.202 C 
BRANCH   3   4
ATOM      4  C   UNL     1      12.686   4.617  -8.062  1.00  0.00     0.261 C 
BRANCH   4   5
ATOM      5  O   UNL     1      12.933   4.715  -9.475  1.00  0.00    -0.460 OA
BRANCH   5   6
ATOM      6  C   UNL     1      13.784   3.975 -10.225  1.00  0.00     0.338 C 
ATOM      7  O   UNL     1      13.892   4.235 -11.422  1.00  0.00    -0.246 OA
BRANCH   6   8
ATOM      8  C   UNL     1      14.616   2.860  -9.678  1.00  0.00     0.060 A 
ATOM      9  C   UNL     1      14.257   2.067  -8.591  1.00  0.00     0.016 A 
ATOM     10  C   UNL     1      15.797   2.531 -10.366  1.00  0.00     0.016 A 
ATOM     11  C   UNL     1      15.045   1.020  -8.157  1.00  0.00     0.010 A 
ATOM     12  C   UNL     1      16.584   1.445  -9.963  1.00  0.00     0.010 A 
ATOM     13  C   UNL     1      16.204   0.692  -8.848  1.00  0.00    -0.014 A 
BRANCH  13  14
ATOM     14  C   UNL     1      17.014  -0.394  -8.274  1.00  0.00     0.031 A 
ATOM     15  C   UNL     1      18.237  -0.029  -7.496  1.00  0.00     0.074 A 
ATOM     16  C   UNL     1      16.514  -1.643  -8.273  1.00  0.00     0.049 A 
ATOM     17  N   UNL     1      19.076  -0.803  -6.866  1.00  0.00    -0.248 NA
ATOM     18  C   UNL     1      18.543   1.409  -7.392  1.00  0.00     0.031 C 
ATOM     19  C   UNL     1      15.241  -2.041  -8.885  1.00  0.00     0.029 A 
ATOM     20  N   UNL     1      16.977  -2.793  -7.695  1.00  0.00    -0.354 N 
ATOM     21  C   UNL     1      20.016   0.049  -6.303  1.00  0.00     0.074 A 
ATOM     22  C   UNL     1      19.656   1.398  -6.676  1.00  0.00     0.031 C 
ATOM     23  C   UNL     1      15.011  -3.336  -8.619  1.00  0.00     0.029 A 
ATOM     24  C   UNL     1      16.151  -3.874  -7.890  1.00  0.00     0.049 A 
ATOM     25  H   UNL     1      17.819  -2.841  -7.188  1.00  0.00     0.167 HD
ATOM     26  C   UNL     1      21.083  -0.280  -5.542  1.00  0.00     0.037 A 
ATOM     27  C   UNL     1      16.327  -5.162  -7.544  1.00  0.00     0.037 A 
ATOM     28  C   UNL     1      21.412  -1.636  -5.199  1.00  0.00     0.049 A 
ATOM     29  C   UNL     1      17.586  -5.514  -6.800  1.00  0.00     0.074 A 
ATOM     30  C   UNL     1      22.521  -2.120  -4.533  1.00  0.00     0.029 A 
ATOM     31  N   UNL     1      20.610  -2.732  -5.499  1.00  0.00    -0.354 N 
ATOM     32  N   UNL     1      18.534  -4.719  -6.359  1.00  0.00    -0.248 NA
ATOM     33  C   UNL     1      17.812  -6.936  -6.518  1.00  0.00     0.031 C 
ATOM     34  C   UNL     1      22.408  -3.514  -4.464  1.00  0.00     0.029 A 
ATOM     35  C   UNL     1      21.204  -3.893  -5.041  1.00  0.00     0.049 A 
ATOM     36  H   UNL     1      19.746  -2.687  -5.969  1.00  0.00     0.167 HD
ATOM     37  C   UNL     1      19.464  -5.540  -5.740  1.00  0.00     0.074 A 
ATOM     38  C   UNL     1      18.946  -6.892  -5.834  1.00  0.00     0.031 C 
ATOM     39  C   UNL     1      20.644  -5.217  -5.156  1.00  0.00     0.037 A 
BRANCH  26  40
ATOM     40  C   UNL     1      21.982   0.840  -5.114  1.00  0.00     0.057 A 
ATOM     41  C   UNL     1      21.600   1.772  -4.140  1.00  0.00     0.134 A 
ATOM     42  C   UNL     1      23.230   1.019  -5.723  1.00  0.00     0.134 A 
ATOM     43  F   UNL     1      20.402   1.680  -3.543  1.00  0.00    -0.206 F 
ATOM     44  C   UNL     1      22.417   2.856  -3.806  1.00  0.00     0.040 A 
ATOM     45  C   UNL     1      24.065   2.084  -5.382  1.00  0.00     0.040 A 
ATOM     46  F   UNL     1      23.652   0.170  -6.673  1.00  0.00    -0.206 F 
ATOM     47  C   UNL     1      23.655   3.011  -4.426  1.00  0.00     0.006 A 
ENDBRANCH  26  40
BRANCH  27  48
ATOM     48  C   UNL     1      15.350  -6.203  -7.962  1.00  0.00     0.057 A 
ATOM     49  C   UNL     1      14.639  -6.969  -7.031  1.00  0.00     0.134 A 
ATOM     50  C   UNL     1      15.132  -6.486  -9.318  1.00  0.00     0.134 A 
ATOM     51  F   UNL     1      14.812  -6.767  -5.716  1.00  0.00    -0.206 F 
ATOM     52  C   UNL     1      13.772  -7.990  -7.430  1.00  0.00     0.040 A 
ATOM     53  C   UNL     1      14.245  -7.480  -9.732  1.00  0.00     0.040 A 
ATOM     54  F   UNL     1      15.778  -5.793 -10.268  1.00  0.00    -0.206 F 
ATOM     55  C   UNL     1      13.571  -8.245  -8.785  1.00  0.00     0.006 A 
ENDBRANCH  27  48
BRANCH  39  56
ATOM     56  C   UNL     1      21.423  -6.348  -4.556  1.00  0.00     0.057 A 
ATOM     57  C   UNL     1      22.082  -7.292  -5.353  1.00  0.00     0.134 A 
ATOM     58  C   UNL     1      21.535  -6.472  -3.167  1.00  0.00     0.134 A 
ATOM     59  F   UNL     1      21.998  -7.232  -6.690  1.00  0.00    -0.206 F 
ATOM     60  C   UNL     1      22.804  -8.341  -4.785  1.00  0.00     0.040 A 
ATOM     61  C   UNL     1      22.279  -7.499  -2.588  1.00  0.00     0.040 A 
ATOM     62  F   UNL     1      20.934  -5.592  -2.352  1.00  0.00    -0.206 F 
ATOM     63  C   UNL     1      22.909  -8.442  -3.398  1.00  0.00     0.006 A 
ENDBRANCH  39  56
ENDBRANCH  13  14
ENDBRANCH   6   8
ENDBRANCH   5   6
ENDBRANCH   4   5
ENDBRANCH   3   4
ENDBRANCH   2   3
ENDBRANCH   1   2
BRANCH   1  64
ATOM     64  C   UNL     1       9.767   1.324  -9.682  1.00  0.00     0.261 C 
BRANCH  64  65
ATOM     65  O   UNL     1       8.744   1.649  -8.731  1.00  0.00    -0.460 OA
BRANCH  65  66
ATOM     66  C   UNL     1       9.019   1.355  -7.429  1.00  0.00     0.338 C 
ATOM     67  O   UNL     1       9.861   0.594  -6.988  1.00  0.00    -0.246 OA
BRANCH  66  68
ATOM     68  C   UNL     1       8.213   2.289  -6.620  1.00  0.00     0.060 A 
ATOM     69  C   UNL     1       8.766   3.010  -5.553  1.00  0.00     0.016 A 
ATOM     70  C   UNL     1       6.901   2.508  -6.995  1.00  0.00     0.016 A 
ATOM     71  C   UNL     1       8.023   4.023  -4.920  1.00  0.00     0.005 A 
ATOM     72  C   UNL     1       6.163   3.476  -6.337  1.00  0.00     0.005 A 
ATOM     73  C   UNL     1       6.708   4.295  -5.322  1.00  0.00    -0.039 A 
BRANCH  73  74
ATOM     74  C   UNL     1       5.853   5.399  -4.668  1.00  0.00     0.074 C 
ATOM     75  C   UNL     1       6.533   6.780  -4.591  1.00  0.00     0.020 C 
ATOM     76  C   UNL     1       4.534   5.550  -5.454  1.00  0.00     0.270 C 
ATOM     77  C   UNL     1       5.530   7.855  -4.147  1.00  0.00     0.062 C 
ATOM     78  N   UNL     1       3.635   6.657  -5.173  1.00  0.00    -0.333 N 
ATOM     79  C   UNL     1       4.328   7.938  -5.096  1.00  0.00     0.262 C 
ATOM     80  H   UNL     1       3.237   6.544  -4.240  1.00  0.00     0.348 HD
BRANCH  78  81
ATOM     81  C   UNL     1       2.516   6.630  -6.151  1.00  0.00     0.284 C 
BRANCH  81  82
ATOM     82  C   UNL     1       2.743   7.016  -7.648  1.00  0.00     0.180 C 
BRANCH  82  83
ATOM     83  N   UNL     1       3.647   6.192  -8.453  1.00  0.00    -0.337 N 
ATOM     84  C   UNL     1       4.870   6.710  -9.013  1.00  0.00     0.120 C 
ATOM     85  C   UNL     1       3.419   4.870  -8.792  1.00  0.00     0.222 C 
ATOM     86  C   UNL     1       5.347   5.651  -9.991  1.00  0.00     0.031 C 
ATOM     87  C   UNL     1       4.555   4.395  -9.664  1.00  0.00     0.102 C 
ATOM     88  O   UNL     1       2.487   4.176  -8.421  1.00  0.00    -0.275 OA
ENDBRANCH  82  83
ENDBRANCH  81  82
ENDBRANCH  78  81
ENDBRANCH  73  74
ENDBRANCH  66  68
ENDBRANCH  65  66
ENDBRANCH  64  65
ENDBRANCH   1  64
TORSDOF 18
