REMARK SMILES CC(C)[C@H]([NH2+][C@@H](C)C[C@@H]1CCCC[NH2+]1)C(=O)OCCOCCOC(=O)c1ccc(-c2c3nc(c(-c4c(F)cccc4F)c4ccc([nH]4)c(-c4c(F)cccc4F)c4nc(c(-c5c(F)cccc5F)c5ccc2[nH]5)C=C4)C=C3)cc1
REMARK SMILES IDX 19 1 18 2 17 3 15 4 16 5 4 6 2 7 1 8 3 9 5 10 6 13 7 14 8 15
REMARK SMILES IDX 9 16 10 17 14 18 11 19 13 20 12 23 20 24 21 25 22 26 23 27
REMARK SMILES IDX 24 28 25 29 26 30 27 31 79 32 28 33 78 34 29 35 30 36 31 37
REMARK SMILES IDX 72 38 32 39 77 40 71 41 73 42 33 43 76 44 70 45 69 46 34 48
REMARK SMILES IDX 60 49 43 50 59 51 44 52 47 53 58 54 74 55 45 56 46 57 57 59
REMARK SMILES IDX 75 60 48 61 35 62 36 63 41 64 37 65 38 66 40 67 42 68 39 69
REMARK SMILES IDX 61 70 62 71 67 72 63 73 64 74 66 75 68 76 65 77 49 78 50 79
REMARK SMILES IDX 55 80 51 81 52 82 54 83 56 84 53 85
REMARK H PARENT 5 11 5 12 14 21 14 22 73 47 47 58
REMARK Flexibility Score: inf
ROOT
ATOM      1  C   UNL     1      -1.723   0.148   5.974  1.00  0.00     0.202 C 
ENDROOT
BRANCH   1   2
ATOM      2  C   UNL     1      -2.253  -0.769   4.866  1.00  0.00     0.261 C 
BRANCH   2   3
ATOM      3  O   UNL     1      -1.407  -0.797   3.698  1.00  0.00    -0.459 OA
BRANCH   3   4
ATOM      4  C   UNL     1      -1.991  -0.394   2.534  1.00  0.00     0.365 C 
ATOM      5  O   UNL     1      -3.152  -0.004   2.442  1.00  0.00    -0.245 OA
BRANCH   4   6
ATOM      6  C   UNL     1      -1.090  -0.540   1.297  1.00  0.00     0.296 C 
BRANCH   6   7
ATOM      7  C   UNL     1      -1.316  -1.913   0.617  1.00  0.00     0.053 C 
ATOM      8  C   UNL     1      -0.538  -2.016  -0.703  1.00  0.00     0.014 C 
ATOM      9  C   UNL     1      -1.026  -3.116   1.507  1.00  0.00     0.014 C 
ENDBRANCH   6   7
BRANCH   6  10
ATOM     10  N   UNL     1       0.320  -0.156   1.503  1.00  0.00    -0.332 N 
ATOM     11  H   UNL     1       0.878  -0.691   0.837  1.00  0.00     0.347 HD
ATOM     12  H   UNL     1       0.490  -0.351   2.490  1.00  0.00     0.347 HD
BRANCH  10  13
ATOM     13  C   UNL     1       0.695   1.267   1.344  1.00  0.00     0.185 C 
ATOM     14  C   UNL     1       2.239   1.290   1.362  1.00  0.00     0.075 C 
BRANCH  13  15
ATOM     15  C   UNL     1       0.216   2.093   0.106  1.00  0.00     0.129 C 
BRANCH  15  16
ATOM     16  C   UNL     1      -1.253   2.580   0.072  1.00  0.00     0.188 C 
ATOM     17  C   UNL     1      -1.537   3.525  -1.105  1.00  0.00     0.065 C 
ATOM     18  N   UNL     1      -1.665   3.243   1.316  1.00  0.00    -0.344 N 
ATOM     19  C   UNL     1      -3.045   3.791  -1.183  1.00  0.00     0.012 C 
ATOM     20  C   UNL     1      -3.119   3.448   1.328  1.00  0.00     0.260 C 
ATOM     21  H   UNL     1      -1.198   4.147   1.387  1.00  0.00     0.346 HD
ATOM     22  H   UNL     1      -1.407   2.653   2.107  1.00  0.00     0.346 HD
ATOM     23  C   UNL     1      -3.586   4.300   0.152  1.00  0.00     0.062 C 
ENDBRANCH  15  16
ENDBRANCH  13  15
ENDBRANCH  10  13
ENDBRANCH   6  10
ENDBRANCH   4   6
ENDBRANCH   3   4
ENDBRANCH   2   3
ENDBRANCH   1   2
BRANCH   1  24
ATOM     24  O   UNL     1      -1.721   1.551   5.715  1.00  0.00    -0.374 OA
BRANCH  24  25
ATOM     25  C   UNL     1      -0.778   2.026   4.759  1.00  0.00     0.202 C 
BRANCH  25  26
ATOM     26  C   UNL     1       0.677   2.158   5.224  1.00  0.00     0.261 C 
BRANCH  26  27
ATOM     27  O   UNL     1       1.231   0.897   5.632  1.00  0.00    -0.460 OA
BRANCH  27  28
ATOM     28  C   UNL     1       1.557   0.831   6.941  1.00  0.00     0.338 C 
ATOM     29  O   UNL     1       1.565   1.748   7.754  1.00  0.00    -0.246 OA
BRANCH  28  30
ATOM     30  C   UNL     1       1.741  -0.569   7.354  1.00  0.00     0.060 A 
ATOM     31  C   UNL     1       0.986  -1.004   8.449  1.00  0.00     0.016 A 
ATOM     32  C   UNL     1       2.680  -1.411   6.752  1.00  0.00     0.016 A 
ATOM     33  C   UNL     1       1.220  -2.258   8.996  1.00  0.00     0.010 A 
ATOM     34  C   UNL     1       2.918  -2.674   7.308  1.00  0.00     0.010 A 
ATOM     35  C   UNL     1       2.222  -3.078   8.461  1.00  0.00    -0.014 A 
BRANCH  35  36
ATOM     36  C   UNL     1       2.616  -4.277   9.236  1.00  0.00     0.031 A 
ATOM     37  C   UNL     1       3.788  -4.186  10.172  1.00  0.00     0.074 A 
ATOM     38  C   UNL     1       1.857  -5.386   9.195  1.00  0.00     0.049 A 
ATOM     39  N   UNL     1       4.201  -5.043  11.070  1.00  0.00    -0.248 NA
ATOM     40  C   UNL     1       4.600  -2.962  10.091  1.00  0.00     0.031 C 
ATOM     41  C   UNL     1       0.689  -5.575   8.337  1.00  0.00     0.029 A 
ATOM     42  N   UNL     1       1.943  -6.550   9.914  1.00  0.00    -0.354 N 
ATOM     43  C   UNL     1       5.310  -4.458  11.668  1.00  0.00     0.074 A 
ATOM     44  C   UNL     1       5.533  -3.193  11.003  1.00  0.00     0.031 C 
ATOM     45  C   UNL     1       0.153  -6.781   8.592  1.00  0.00     0.029 A 
ATOM     46  C   UNL     1       0.945  -7.447   9.624  1.00  0.00     0.049 A 
ATOM     47  H   UNL     1       2.651  -6.726  10.574  1.00  0.00     0.167 HD
ATOM     48  C   UNL     1       6.066  -4.928  12.690  1.00  0.00     0.037 A 
ATOM     49  C   UNL     1       0.694  -8.663  10.144  1.00  0.00     0.037 A 
ATOM     50  C   UNL     1       5.841  -6.191  13.342  1.00  0.00     0.049 A 
ATOM     51  C   UNL     1       1.560  -9.172  11.264  1.00  0.00     0.074 A 
ATOM     52  C   UNL     1       6.539  -6.757  14.394  1.00  0.00     0.029 A 
ATOM     53  N   UNL     1       4.841  -7.088  12.996  1.00  0.00    -0.354 N 
ATOM     54  N   UNL     1       2.579  -8.592  11.852  1.00  0.00    -0.248 NA
ATOM     55  C   UNL     1       1.228 -10.497  11.806  1.00  0.00     0.031 C 
ATOM     56  C   UNL     1       5.989  -8.018  14.655  1.00  0.00     0.029 A 
ATOM     57  C   UNL     1       4.917  -8.214  13.799  1.00  0.00     0.049 A 
ATOM     58  H   UNL     1       4.176  -6.945  12.285  1.00  0.00     0.167 HD
ATOM     59  C   UNL     1       2.997  -9.468  12.845  1.00  0.00     0.074 A 
ATOM     60  C   UNL     1       2.106 -10.610  12.793  1.00  0.00     0.031 C 
ATOM     61  C   UNL     1       4.023  -9.342  13.723  1.00  0.00     0.037 A 
BRANCH  48  62
ATOM     62  C   UNL     1       7.218  -4.078  13.141  1.00  0.00     0.057 A 
ATOM     63  C   UNL     1       7.026  -2.882  13.847  1.00  0.00     0.134 A 
ATOM     64  C   UNL     1       8.537  -4.467  12.879  1.00  0.00     0.134 A 
ATOM     65  F   UNL     1       5.787  -2.444  14.117  1.00  0.00    -0.206 F 
ATOM     66  C   UNL     1       8.103  -2.093  14.254  1.00  0.00     0.040 A 
ATOM     67  C   UNL     1       9.623  -3.698  13.302  1.00  0.00     0.040 A 
ATOM     68  F   UNL     1       8.793  -5.601  12.209  1.00  0.00    -0.206 F 
ATOM     69  C   UNL     1       9.408  -2.504  13.986  1.00  0.00     0.006 A 
ENDBRANCH  48  62
BRANCH  49  70
ATOM     70  C   UNL     1      -0.440  -9.467   9.626  1.00  0.00     0.057 A 
ATOM     71  C   UNL     1      -1.585  -9.701  10.397  1.00  0.00     0.134 A 
ATOM     72  C   UNL     1      -0.406 -10.021   8.340  1.00  0.00     0.134 A 
ATOM     73  F   UNL     1      -1.670  -9.214  11.644  1.00  0.00    -0.206 F 
ATOM     74  C   UNL     1      -2.648 -10.466   9.914  1.00  0.00     0.040 A 
ATOM     75  C   UNL     1      -1.471 -10.767   7.835  1.00  0.00     0.040 A 
ATOM     76  F   UNL     1       0.661  -9.830   7.550  1.00  0.00    -0.206 F 
ATOM     77  C   UNL     1      -2.595 -10.997   8.626  1.00  0.00     0.006 A 
ENDBRANCH  49  70
BRANCH  61  78
ATOM     78  C   UNL     1       4.218 -10.461  14.704  1.00  0.00     0.057 A 
ATOM     79  C   UNL     1       4.709 -11.712  14.311  1.00  0.00     0.134 A 
ATOM     80  C   UNL     1       3.921 -10.279  16.061  1.00  0.00     0.134 A 
ATOM     81  F   UNL     1       5.002 -11.954  13.024  1.00  0.00    -0.206 F 
ATOM     82  C   UNL     1       4.866 -12.754  15.226  1.00  0.00     0.040 A 
ATOM     83  C   UNL     1       4.100 -11.305  16.990  1.00  0.00     0.040 A 
ATOM     84  F   UNL     1       3.458  -9.102  16.506  1.00  0.00    -0.206 F 
ATOM     85  C   UNL     1       4.564 -12.550  16.571  1.00  0.00     0.006 A 
ENDBRANCH  61  78
ENDBRANCH  35  36
ENDBRANCH  28  30
ENDBRANCH  27  28
ENDBRANCH  26  27
ENDBRANCH  25  26
ENDBRANCH  24  25
ENDBRANCH   1  24
TORSDOF 19
