REMARK SMILES CC(C)[C@H](NC(=O)c1cc2cc(Cl)ccc2n1C)C(=O)N[C@@H](C(=O)OCCOCCOC(=O)c1ccc(-c2c3nc(c(-c4c(F)cccc4F)c4ccc([nH]4)c(-c4c(F)cccc4F)c4nc(c(-c5c(F)cccc5F)c5ccc2[nH]5)C=C4)C=C3)cc1)c1ccccc1
REMARK SMILES IDX 27 1 26 2 25 3 23 4 24 5 22 6 21 7 19 8 20 9 4 11 2 12 1 13
REMARK SMILES IDX 3 14 5 15 6 16 7 18 8 19 9 20 17 21 10 22 16 23 18 24 11 25
REMARK SMILES IDX 15 26 12 27 14 28 13 29 88 30 89 31 93 32 90 33 92 34 91 35
REMARK SMILES IDX 28 36 29 37 30 38 31 39 32 40 33 41 34 42 35 43 87 44 36 45
REMARK SMILES IDX 86 46 37 47 38 48 39 49 80 50 40 51 85 52 79 53 81 54 41 55
REMARK SMILES IDX 84 56 78 57 77 58 42 60 68 61 51 62 67 63 52 64 55 65 66 66
REMARK SMILES IDX 82 67 53 68 54 69 65 71 83 72 56 73 43 74 44 75 49 76 45 77
REMARK SMILES IDX 46 78 48 79 50 80 47 81 69 82 70 83 75 84 71 85 72 86 74 87
REMARK SMILES IDX 76 88 73 89 57 90 58 91 63 92 59 93 60 94 62 95 64 96 61 97
REMARK H PARENT 21 10 5 17 81 59 55 70
REMARK Flexibility Score: inf
ROOT
ATOM      1  C   UNL     1       2.928   4.688   4.989  1.00  0.00     0.202 C 
ENDROOT
BRANCH   1   2
ATOM      2  C   UNL     1       2.952   3.341   4.255  1.00  0.00     0.261 C 
BRANCH   2   3
ATOM      3  O   UNL     1       1.696   3.014   3.657  1.00  0.00    -0.461 OA
BRANCH   3   4
ATOM      4  C   UNL     1       1.049   1.979   4.264  1.00  0.00     0.333 C 
ATOM      5  O   UNL     1       1.547   1.259   5.124  1.00  0.00    -0.249 OA
BRANCH   4   6
ATOM      6  C   UNL     1      -0.404   1.820   3.762  1.00  0.00     0.223 C 
BRANCH   6   7
ATOM      7  N   UNL     1      -0.842   2.794   2.765  1.00  0.00    -0.337 N 
ATOM      8  C   UNL     1      -1.169   2.610   1.462  1.00  0.00     0.243 C 
ATOM      9  O   UNL     1      -1.436   3.616   0.796  1.00  0.00    -0.273 OA
ATOM     10  H   UNL     1      -0.911   3.722   3.088  1.00  0.00     0.164 HD
BRANCH   8  11
ATOM     11  C   UNL     1      -1.174   1.214   0.800  1.00  0.00     0.174 C 
BRANCH  11  12
ATOM     12  C   UNL     1      -2.224   0.216   1.347  1.00  0.00     0.015 C 
ATOM     13  C   UNL     1      -3.425   0.847   2.069  1.00  0.00     0.010 C 
ATOM     14  C   UNL     1      -2.807  -0.631   0.205  1.00  0.00     0.010 C 
ENDBRANCH  11  12
BRANCH  11  15
ATOM     15  N   UNL     1       0.245   0.802   0.586  1.00  0.00    -0.339 N 
ATOM     16  C   UNL     1       1.174   0.002   1.204  1.00  0.00     0.268 C 
ATOM     17  H   UNL     1       0.618   1.220  -0.223  1.00  0.00     0.164 HD
ATOM     18  O   UNL     1       2.357   0.299   1.048  1.00  0.00    -0.268 OA
BRANCH  16  19
ATOM     19  C   UNL     1       0.765  -1.119   2.005  1.00  0.00     0.107 A 
ATOM     20  C   UNL     1       1.157  -1.455   3.294  1.00  0.00     0.042 A 
ATOM     21  N   UNL     1       0.013  -2.195   1.586  1.00  0.00    -0.340 N 
ATOM     22  C   UNL     1       0.235  -2.426   3.775  1.00  0.00     0.002 A 
ATOM     23  C   UNL     1      -0.549  -2.810   2.686  1.00  0.00     0.048 A 
ATOM     24  C   UNL     1      -0.122  -2.623   0.212  1.00  0.00     0.150 C 
ATOM     25  C   UNL     1      -0.055  -2.949   5.050  1.00  0.00     0.030 A 
ATOM     26  C   UNL     1      -1.661  -3.651   2.822  1.00  0.00     0.028 A 
ATOM     27  C   UNL     1      -1.198  -3.738   5.204  1.00  0.00     0.041 A 
ATOM     28  C   UNL     1      -1.996  -4.074   4.112  1.00  0.00     0.023 A 
ATOM     29  Cl  UNL     1      -1.664  -4.249   6.782  1.00  0.00    -0.084 Cl
ENDBRANCH  16  19
ENDBRANCH  11  15
ENDBRANCH   8  11
ENDBRANCH   6   7
BRANCH   6  30
ATOM     30  C   UNL     1      -1.357   1.704   4.945  1.00  0.00    -0.014 A 
ATOM     31  C   UNL     1      -1.442   0.460   5.593  1.00  0.00     0.006 A 
ATOM     32  C   UNL     1      -2.099   2.770   5.466  1.00  0.00     0.006 A 
ATOM     33  C   UNL     1      -2.232   0.275   6.722  1.00  0.00     0.000 A 
ATOM     34  C   UNL     1      -2.890   2.589   6.605  1.00  0.00     0.000 A 
ATOM     35  C   UNL     1      -2.955   1.344   7.231  1.00  0.00     0.000 A 
ENDBRANCH   6  30
ENDBRANCH   4   6
ENDBRANCH   3   4
ENDBRANCH   2   3
ENDBRANCH   1   2
BRANCH   1  36
ATOM     36  O   UNL     1       1.789   5.027   5.773  1.00  0.00    -0.374 OA
BRANCH  36  37
ATOM     37  C   UNL     1       0.567   5.338   5.098  1.00  0.00     0.202 C 
BRANCH  37  38
ATOM     38  C   UNL     1       0.546   6.464   4.049  1.00  0.00     0.261 C 
BRANCH  38  39
ATOM     39  O   UNL     1       1.318   6.105   2.897  1.00  0.00    -0.460 OA
BRANCH  39  40
ATOM     40  C   UNL     1       2.026   7.126   2.349  1.00  0.00     0.338 C 
ATOM     41  O   UNL     1       1.798   8.325   2.439  1.00  0.00    -0.246 OA
BRANCH  40  42
ATOM     42  C   UNL     1       3.334   6.545   2.015  1.00  0.00     0.060 A 
ATOM     43  C   UNL     1       3.424   5.414   1.202  1.00  0.00     0.016 A 
ATOM     44  C   UNL     1       4.423   6.974   2.793  1.00  0.00     0.016 A 
ATOM     45  C   UNL     1       4.602   4.679   1.216  1.00  0.00     0.010 A 
ATOM     46  C   UNL     1       5.580   6.205   2.845  1.00  0.00     0.010 A 
ATOM     47  C   UNL     1       5.664   5.050   2.064  1.00  0.00    -0.014 A 
BRANCH  47  48
ATOM     48  C   UNL     1       6.944   4.369   1.870  1.00  0.00     0.031 A 
ATOM     49  C   UNL     1       7.558   4.721   0.564  1.00  0.00     0.074 A 
ATOM     50  C   UNL     1       7.639   3.624   2.753  1.00  0.00     0.049 A 
ATOM     51  N   UNL     1       7.799   3.941  -0.436  1.00  0.00    -0.248 NA
ATOM     52  C   UNL     1       7.801   6.147   0.294  1.00  0.00     0.031 C 
ATOM     53  C   UNL     1       7.367   3.426   4.176  1.00  0.00     0.029 A 
ATOM     54  N   UNL     1       8.814   2.942   2.559  1.00  0.00    -0.354 N 
ATOM     55  C   UNL     1       8.386   4.749  -1.404  1.00  0.00     0.074 A 
ATOM     56  C   UNL     1       8.217   6.108  -0.970  1.00  0.00     0.031 C 
ATOM     57  C   UNL     1       8.440   2.836   4.755  1.00  0.00     0.029 A 
ATOM     58  C   UNL     1       9.422   2.507   3.730  1.00  0.00     0.049 A 
ATOM     59  H   UNL     1       9.194   2.775   1.667  1.00  0.00     0.167 HD
ATOM     60  C   UNL     1       9.187   4.221  -2.365  1.00  0.00     0.037 A 
ATOM     61  C   UNL     1      10.651   1.948   3.860  1.00  0.00     0.037 A 
ATOM     62  C   UNL     1       8.999   2.800  -2.485  1.00  0.00     0.049 A 
ATOM     63  C   UNL     1      11.070   1.413   2.546  1.00  0.00     0.074 A 
ATOM     64  C   UNL     1       8.013   1.952  -2.939  1.00  0.00     0.029 A 
ATOM     65  N   UNL     1       9.882   2.042  -1.766  1.00  0.00    -0.354 N 
ATOM     66  N   UNL     1      10.568   0.345   1.996  1.00  0.00    -0.248 NA
ATOM     67  C   UNL     1      11.929   2.212   1.679  1.00  0.00     0.031 C 
ATOM     68  C   UNL     1       8.209   0.716  -2.253  1.00  0.00     0.029 A 
ATOM     69  C   UNL     1       9.306   0.855  -1.405  1.00  0.00     0.049 A 
ATOM     70  H   UNL     1      10.802   2.312  -1.541  1.00  0.00     0.167 HD
ATOM     71  C   UNL     1      10.681   0.574   0.639  1.00  0.00     0.074 A 
ATOM     72  C   UNL     1      11.691   1.612   0.511  1.00  0.00     0.031 C 
ATOM     73  C   UNL     1       9.711   0.141  -0.215  1.00  0.00     0.037 A 
BRANCH  60  74
ATOM     74  C   UNL     1      10.459   4.883  -2.854  1.00  0.00     0.057 A 
ATOM     75  C   UNL     1      11.161   5.885  -2.151  1.00  0.00     0.134 A 
ATOM     76  C   UNL     1      11.188   4.260  -3.885  1.00  0.00     0.134 A 
ATOM     77  F   UNL     1      10.643   6.530  -1.101  1.00  0.00    -0.206 F 
ATOM     78  C   UNL     1      12.492   6.211  -2.424  1.00  0.00     0.040 A 
ATOM     79  C   UNL     1      12.537   4.543  -4.130  1.00  0.00     0.040 A 
ATOM     80  F   UNL     1      10.636   3.288  -4.628  1.00  0.00    -0.206 F 
ATOM     81  C   UNL     1      13.197   5.513  -3.389  1.00  0.00     0.006 A 
ENDBRANCH  60  74
BRANCH  61  82
ATOM     82  C   UNL     1      11.579   1.913   5.015  1.00  0.00     0.057 A 
ATOM     83  C   UNL     1      11.628   2.961   5.948  1.00  0.00     0.134 A 
ATOM     84  C   UNL     1      12.630   0.982   5.083  1.00  0.00     0.134 A 
ATOM     85  F   UNL     1      10.717   3.945   5.929  1.00  0.00    -0.206 F 
ATOM     86  C   UNL     1      12.665   3.088   6.878  1.00  0.00     0.040 A 
ATOM     87  C   UNL     1      13.680   1.103   6.001  1.00  0.00     0.040 A 
ATOM     88  F   UNL     1      12.699  -0.038   4.215  1.00  0.00    -0.206 F 
ATOM     89  C   UNL     1      13.706   2.167   6.896  1.00  0.00     0.006 A 
ENDBRANCH  61  82
BRANCH  73  90
ATOM     90  C   UNL     1       8.874  -1.015   0.237  1.00  0.00     0.057 A 
ATOM     91  C   UNL     1       8.909  -2.195  -0.516  1.00  0.00     0.134 A 
ATOM     92  C   UNL     1       8.010  -0.985   1.340  1.00  0.00     0.134 A 
ATOM     93  F   UNL     1       9.681  -2.277  -1.612  1.00  0.00    -0.206 F 
ATOM     94  C   UNL     1       8.137  -3.307  -0.178  1.00  0.00     0.040 A 
ATOM     95  C   UNL     1       7.260  -2.104   1.710  1.00  0.00     0.040 A 
ATOM     96  F   UNL     1       7.848   0.130   2.067  1.00  0.00    -0.206 F 
ATOM     97  C   UNL     1       7.320  -3.269   0.948  1.00  0.00     0.006 A 
ENDBRANCH  73  90
ENDBRANCH  47  48
ENDBRANCH  40  42
ENDBRANCH  39  40
ENDBRANCH  38  39
ENDBRANCH  37  38
ENDBRANCH  36  37
ENDBRANCH   1  36
TORSDOF 20
