REMARK SMILES C[NH2+][C@]1(C(=O)OCCOCCOC(=O)c2ccc(-c3c4nc(c(-c5c(F)cccc5F)c5ccc([nH]5)c(-c5c(F)cccc5F)c5nc(c(-c6c(F)cccc6F)c6ccc3[nH]6)C=C5)C=C4)cc2)CCC[C@@H]([N@H+]2CC[C@@H](C)C2)C1
REMARK SMILES IDX 10 1 9 2 8 3 7 4 6 5 4 6 5 7 3 8 69 9 79 10 70 11 72 12
REMARK SMILES IDX 71 13 2 14 1 15 73 18 74 19 78 20 75 22 76 23 77 24 11 25
REMARK SMILES IDX 12 26 13 27 14 28 15 29 16 30 68 31 17 32 67 33 18 34 19 35
REMARK SMILES IDX 20 36 61 37 21 38 66 39 60 40 62 41 22 42 65 43 59 44 58 45
REMARK SMILES IDX 23 47 49 48 32 49 48 50 33 51 36 52 47 53 63 54 34 55 35 56
REMARK SMILES IDX 46 58 64 59 37 60 24 61 25 62 30 63 26 64 27 65 29 66 31 67
REMARK SMILES IDX 28 68 50 69 51 70 56 71 52 72 53 73 55 74 57 75 54 76 38 77
REMARK SMILES IDX 39 78 44 79 40 80 41 81 43 82 45 83 42 84
REMARK H PARENT 2 16 2 17 73 21 62 46 36 57
REMARK Flexibility Score: inf
ROOT
ATOM      1  C   UNL     1       2.054  -3.350  -0.236  1.00  0.00     0.202 C 
ENDROOT
BRANCH   1   2
ATOM      2  O   UNL     1       3.232  -2.556  -0.119  1.00  0.00    -0.374 OA
BRANCH   2   3
ATOM      3  C   UNL     1       3.434  -1.811   1.079  1.00  0.00     0.202 C 
BRANCH   3   4
ATOM      4  C   UNL     1       2.557  -0.580   1.301  1.00  0.00     0.261 C 
BRANCH   4   5
ATOM      5  O   UNL     1       1.169  -0.927   1.410  1.00  0.00    -0.459 OA
BRANCH   5   6
ATOM      6  C   UNL     1       0.405  -0.571   0.340  1.00  0.00     0.368 C 
ATOM      7  O   UNL     1       0.825   0.029  -0.646  1.00  0.00    -0.245 OA
BRANCH   6   8
ATOM      8  C   UNL     1      -1.097  -0.894   0.559  1.00  0.00     0.199 C 
ATOM      9  C   UNL     1      -1.430  -2.132   1.413  1.00  0.00     0.081 C 
ATOM     10  C   UNL     1      -1.545   0.341   1.349  1.00  0.00     0.146 C 
ATOM     11  C   UNL     1      -2.929  -2.193   1.748  1.00  0.00     0.013 C 
ATOM     12  C   UNL     1      -3.008   0.377   1.789  1.00  0.00     0.190 C 
ATOM     13  C   UNL     1      -3.406  -0.940   2.494  1.00  0.00     0.065 C 
BRANCH   8  14
ATOM     14  N   UNL     1      -1.801  -0.931  -0.758  1.00  0.00    -0.334 N 
ATOM     15  C   UNL     1      -1.330  -1.984  -1.657  1.00  0.00     0.331 C 
ATOM     16  H   UNL     1      -2.796  -1.078  -0.586  1.00  0.00     0.347 HD
ATOM     17  H   UNL     1      -1.610  -0.042  -1.219  1.00  0.00     0.347 HD
ENDBRANCH   8  14
BRANCH  12  18
ATOM     18  N   UNL     1      -3.300   1.581   2.604  1.00  0.00    -0.332 N 
ATOM     19  C   UNL     1      -2.731   1.604   3.958  1.00  0.00     0.262 C 
ATOM     20  C   UNL     1      -2.965   2.860   1.955  1.00  0.00     0.265 C 
ATOM     21  H   UNL     1      -4.313   1.490   2.690  1.00  0.00     0.348 HD
ATOM     22  C   UNL     1      -2.192   3.012   4.190  1.00  0.00     0.070 C 
ATOM     23  C   UNL     1      -1.881   3.538   2.796  1.00  0.00     0.047 C 
ATOM     24  C   UNL     1      -0.439   3.230   2.384  1.00  0.00     0.014 C 
ENDBRANCH  12  18
ENDBRANCH   6   8
ENDBRANCH   5   6
ENDBRANCH   4   5
ENDBRANCH   3   4
ENDBRANCH   2   3
ENDBRANCH   1   2
BRANCH   1  25
ATOM     25  C   UNL     1       1.987  -4.660   0.555  1.00  0.00     0.261 C 
BRANCH  25  26
ATOM     26  O   UNL     1       2.140  -4.466   1.970  1.00  0.00    -0.460 OA
BRANCH  26  27
ATOM     27  C   UNL     1       3.324  -4.897   2.460  1.00  0.00     0.338 C 
ATOM     28  O   UNL     1       4.209  -5.488   1.849  1.00  0.00    -0.246 OA
BRANCH  27  29
ATOM     29  C   UNL     1       3.524  -4.413   3.835  1.00  0.00     0.060 A 
ATOM     30  C   UNL     1       4.729  -3.753   4.111  1.00  0.00     0.016 A 
ATOM     31  C   UNL     1       2.606  -4.678   4.854  1.00  0.00     0.016 A 
ATOM     32  C   UNL     1       5.055  -3.419   5.420  1.00  0.00     0.010 A 
ATOM     33  C   UNL     1       2.941  -4.351   6.172  1.00  0.00     0.010 A 
ATOM     34  C   UNL     1       4.186  -3.763   6.462  1.00  0.00    -0.014 A 
BRANCH  34  35
ATOM     35  C   UNL     1       4.672  -3.671   7.858  1.00  0.00     0.031 A 
ATOM     36  C   UNL     1       5.215  -4.910   8.517  1.00  0.00     0.074 A 
ATOM     37  C   UNL     1       4.686  -2.494   8.506  1.00  0.00     0.049 A 
ATOM     38  N   UNL     1       5.695  -5.066   9.724  1.00  0.00    -0.248 NA
ATOM     39  C   UNL     1       5.218  -6.137   7.704  1.00  0.00     0.031 C 
ATOM     40  C   UNL     1       4.230  -1.221   7.953  1.00  0.00     0.029 A 
ATOM     41  N   UNL     1       5.104  -2.183   9.774  1.00  0.00    -0.354 N 
ATOM     42  C   UNL     1       6.056  -6.404   9.814  1.00  0.00     0.074 A 
ATOM     43  C   UNL     1       5.711  -7.025   8.554  1.00  0.00     0.031 C 
ATOM     44  C   UNL     1       4.384  -0.264   8.884  1.00  0.00     0.029 A 
ATOM     45  C   UNL     1       4.924  -0.863  10.102  1.00  0.00     0.049 A 
ATOM     46  H   UNL     1       5.495  -2.844  10.390  1.00  0.00     0.167 HD
ATOM     47  C   UNL     1       6.634  -7.055  10.851  1.00  0.00     0.037 A 
ATOM     48  C   UNL     1       5.155  -0.219  11.262  1.00  0.00     0.037 A 
ATOM     49  C   UNL     1       6.975  -6.436  12.104  1.00  0.00     0.049 A 
ATOM     50  C   UNL     1       5.733  -0.980  12.425  1.00  0.00     0.074 A 
ATOM     51  C   UNL     1       7.571  -7.006  13.215  1.00  0.00     0.029 A 
ATOM     52  N   UNL     1       6.744  -5.104  12.412  1.00  0.00    -0.354 N 
ATOM     53  N   UNL     1       6.087  -2.240  12.495  1.00  0.00    -0.248 NA
ATOM     54  C   UNL     1       5.948  -0.227  13.669  1.00  0.00     0.031 C 
ATOM     55  C   UNL     1       7.661  -6.028  14.211  1.00  0.00     0.029 A 
ATOM     56  C   UNL     1       7.164  -4.838  13.704  1.00  0.00     0.049 A 
ATOM     57  H   UNL     1       6.341  -4.444  11.801  1.00  0.00     0.167 HD
ATOM     58  C   UNL     1       6.588  -2.426  13.778  1.00  0.00     0.074 A 
ATOM     59  C   UNL     1       6.503  -1.144  14.448  1.00  0.00     0.031 C 
ATOM     60  C   UNL     1       7.075  -3.554  14.351  1.00  0.00     0.037 A 
BRANCH  47  61
ATOM     61  C   UNL     1       6.910  -8.520  10.678  1.00  0.00     0.057 A 
ATOM     62  C   UNL     1       7.936  -8.986   9.847  1.00  0.00     0.134 A 
ATOM     63  C   UNL     1       6.154  -9.475  11.370  1.00  0.00     0.134 A 
ATOM     64  F   UNL     1       8.686  -8.123   9.144  1.00  0.00    -0.206 F 
ATOM     65  C   UNL     1       8.187 -10.351   9.693  1.00  0.00     0.040 A 
ATOM     66  C   UNL     1       6.411 -10.840  11.243  1.00  0.00     0.040 A 
ATOM     67  F   UNL     1       5.157  -9.095  12.184  1.00  0.00    -0.206 F 
ATOM     68  C   UNL     1       7.427 -11.282  10.398  1.00  0.00     0.006 A 
ENDBRANCH  47  61
BRANCH  48  69
ATOM     69  C   UNL     1       4.825   1.223  11.387  1.00  0.00     0.057 A 
ATOM     70  C   UNL     1       5.828   2.191  11.505  1.00  0.00     0.134 A 
ATOM     71  C   UNL     1       3.496   1.663  11.407  1.00  0.00     0.134 A 
ATOM     72  F   UNL     1       7.119   1.829  11.515  1.00  0.00    -0.206 F 
ATOM     73  C   UNL     1       5.521   3.545  11.652  1.00  0.00     0.040 A 
ATOM     74  C   UNL     1       3.176   3.016  11.530  1.00  0.00     0.040 A 
ATOM     75  F   UNL     1       2.489   0.784  11.297  1.00  0.00    -0.206 F 
ATOM     76  C   UNL     1       4.191   3.961  11.660  1.00  0.00     0.006 A 
ENDBRANCH  48  69
BRANCH  60  77
ATOM     77  C   UNL     1       7.582  -3.446  15.759  1.00  0.00     0.057 A 
ATOM     78  C   UNL     1       6.712  -3.317  16.849  1.00  0.00     0.134 A 
ATOM     79  C   UNL     1       8.955  -3.514  16.029  1.00  0.00     0.134 A 
ATOM     80  F   UNL     1       5.388  -3.234  16.655  1.00  0.00    -0.206 F 
ATOM     81  C   UNL     1       7.192  -3.240  18.157  1.00  0.00     0.040 A 
ATOM     82  C   UNL     1       9.444  -3.462  17.334  1.00  0.00     0.040 A 
ATOM     83  F   UNL     1       9.840  -3.647  15.030  1.00  0.00    -0.206 F 
ATOM     84  C   UNL     1       8.562  -3.319  18.403  1.00  0.00     0.006 A 
ENDBRANCH  60  77
ENDBRANCH  34  35
ENDBRANCH  27  29
ENDBRANCH  26  27
ENDBRANCH  25  26
ENDBRANCH   1  25
TORSDOF 16
