REMARK SMILES CC[C@@H]1CCCN1C(=O)N1CC[C@@H](C(=O)OCCOCCOC(=O)c2ccc(-c3c4nc(c(-c5c(F)cccc5F)c5ccc([nH]5)c(-c5c(F)cccc5F)c5nc(c(-c6c(F)cccc6F)c6ccc3[nH]6)C=C5)C=C4)cc2)[C@@H]1C
REMARK SMILES IDX 18 1 17 2 16 3 14 4 15 5 13 6 10 7 11 8 79 9 12 10 80 11
REMARK SMILES IDX 8 12 9 13 7 14 3 15 4 16 5 17 6 18 2 19 1 20 19 21 20 22
REMARK SMILES IDX 21 23 22 24 23 25 24 26 25 27 26 28 78 29 27 30 77 31 28 32
REMARK SMILES IDX 29 33 30 34 71 35 31 36 76 37 70 38 72 39 32 40 75 41 69 42
REMARK SMILES IDX 68 43 33 45 59 46 42 47 58 48 43 49 46 50 57 51 73 52 44 53
REMARK SMILES IDX 45 54 56 56 74 57 47 58 34 59 35 60 40 61 36 62 37 63 39 64
REMARK SMILES IDX 41 65 38 66 60 67 61 68 66 69 62 70 63 71 65 72 67 73 64 74
REMARK SMILES IDX 48 75 49 76 54 77 50 78 51 79 53 80 55 81 52 82
REMARK H PARENT 72 44 46 55
REMARK Flexibility Score: inf
ROOT
ATOM      1  C   UNL     1      -1.141   6.935   4.054  1.00  0.00     0.202 C 
ENDROOT
BRANCH   1   2
ATOM      2  C   UNL     1      -2.195   5.830   3.943  1.00  0.00     0.261 C 
BRANCH   2   3
ATOM      3  O   UNL     1      -1.790   4.855   2.963  1.00  0.00    -0.463 OA
BRANCH   3   4
ATOM      4  C   UNL     1      -2.547   4.709   1.844  1.00  0.00     0.311 C 
ATOM      5  O   UNL     1      -3.539   5.372   1.574  1.00  0.00    -0.252 OA
BRANCH   4   6
ATOM      6  C   UNL     1      -1.989   3.642   0.926  1.00  0.00     0.123 C 
ATOM      7  N   UNL     1      -0.043   3.473  -0.389  1.00  0.00    -0.321 N 
ATOM      8  C   UNL     1       0.372   3.244   0.978  1.00  0.00     0.122 C 
ATOM      9  C   UNL     1      -1.271   4.258  -0.302  1.00  0.00     0.098 C 
ATOM     10  C   UNL     1      -0.918   2.744   1.593  1.00  0.00     0.039 C 
ATOM     11  C   UNL     1      -2.102   4.249  -1.575  1.00  0.00     0.032 C 
BRANCH   7  12
ATOM     12  C   UNL     1       0.909   3.693  -1.349  1.00  0.00     0.320 C 
ATOM     13  O   UNL     1       1.207   4.838  -1.688  1.00  0.00    -0.248 OA
BRANCH  12  14
ATOM     14  N   UNL     1       1.497   2.568  -1.904  1.00  0.00    -0.322 N 
ATOM     15  C   UNL     1       1.034   1.159  -1.968  1.00  0.00     0.086 C 
ATOM     16  C   UNL     1       2.229   0.446  -2.614  1.00  0.00     0.027 C 
ATOM     17  C   UNL     1       2.731   1.466  -3.618  1.00  0.00     0.024 C 
ATOM     18  C   UNL     1       2.559   2.786  -2.882  1.00  0.00     0.122 C 
BRANCH  15  19
ATOM     19  C   UNL     1       0.546   0.480  -0.684  1.00  0.00     0.022 C 
ATOM     20  C   UNL     1       0.875  -0.994  -0.493  1.00  0.00     0.006 C 
ENDBRANCH  15  19
ENDBRANCH  12  14
ENDBRANCH   7  12
ENDBRANCH   4   6
ENDBRANCH   3   4
ENDBRANCH   2   3
ENDBRANCH   1   2
BRANCH   1  21
ATOM     21  O   UNL     1      -1.248   7.954   3.058  1.00  0.00    -0.374 OA
BRANCH  21  22
ATOM     22  C   UNL     1      -0.751   7.620   1.763  1.00  0.00     0.202 C 
BRANCH  22  23
ATOM     23  C   UNL     1       0.721   7.965   1.530  1.00  0.00     0.261 C 
BRANCH  23  24
ATOM     24  O   UNL     1       1.577   7.147   2.349  1.00  0.00    -0.460 OA
BRANCH  24  25
ATOM     25  C   UNL     1       2.070   7.766   3.443  1.00  0.00     0.338 C 
ATOM     26  O   UNL     1       1.922   8.938   3.766  1.00  0.00    -0.246 OA
BRANCH  25  27
ATOM     27  C   UNL     1       2.723   6.784   4.327  1.00  0.00     0.060 A 
ATOM     28  C   UNL     1       2.451   6.872   5.698  1.00  0.00     0.016 A 
ATOM     29  C   UNL     1       3.637   5.844   3.843  1.00  0.00     0.016 A 
ATOM     30  C   UNL     1       3.140   6.066   6.598  1.00  0.00     0.010 A 
ATOM     31  C   UNL     1       4.331   5.036   4.749  1.00  0.00     0.010 A 
ATOM     32  C   UNL     1       4.114   5.174   6.132  1.00  0.00    -0.014 A 
BRANCH  32  33
ATOM     33  C   UNL     1       5.010   4.504   7.104  1.00  0.00     0.031 A 
ATOM     34  C   UNL     1       6.386   5.062   7.333  1.00  0.00     0.074 A 
ATOM     35  C   UNL     1       4.594   3.425   7.789  1.00  0.00     0.049 A 
ATOM     36  N   UNL     1       7.338   4.629   8.119  1.00  0.00    -0.248 NA
ATOM     37  C   UNL     1       6.737   6.269   6.567  1.00  0.00     0.031 C 
ATOM     38  C   UNL     1       3.277   2.804   7.667  1.00  0.00     0.029 A 
ATOM     39  N   UNL     1       5.249   2.656   8.717  1.00  0.00    -0.354 N 
ATOM     40  C   UNL     1       8.403   5.501   7.935  1.00  0.00     0.074 A 
ATOM     41  C   UNL     1       7.991   6.469   6.941  1.00  0.00     0.031 C 
ATOM     42  C   UNL     1       3.227   1.733   8.476  1.00  0.00     0.029 A 
ATOM     43  C   UNL     1       4.515   1.582   9.152  1.00  0.00     0.049 A 
ATOM     44  H   UNL     1       6.157   2.856   9.039  1.00  0.00     0.167 HD
ATOM     45  C   UNL     1       9.612   5.500   8.545  1.00  0.00     0.037 A 
ATOM     46  C   UNL     1       4.852   0.579   9.984  1.00  0.00     0.037 A 
ATOM     47  C   UNL     1      10.017   4.539   9.536  1.00  0.00     0.049 A 
ATOM     48  C   UNL     1       6.213   0.573  10.625  1.00  0.00     0.074 A 
ATOM     49  C   UNL     1      11.202   4.478  10.247  1.00  0.00     0.029 A 
ATOM     50  N   UNL     1       9.248   3.460   9.947  1.00  0.00    -0.354 N 
ATOM     51  N   UNL     1       7.196   1.429  10.482  1.00  0.00    -0.248 NA
ATOM     52  C   UNL     1       6.508  -0.531  11.549  1.00  0.00     0.031 C 
ATOM     53  C   UNL     1      11.171   3.333  11.051  1.00  0.00     0.029 A 
ATOM     54  C   UNL     1       9.946   2.708  10.878  1.00  0.00     0.049 A 
ATOM     55  H   UNL     1       8.340   3.258   9.624  1.00  0.00     0.167 HD
ATOM     56  C   UNL     1       8.218   0.979  11.308  1.00  0.00     0.074 A 
ATOM     57  C   UNL     1       7.730  -0.219  11.960  1.00  0.00     0.031 C 
ATOM     58  C   UNL     1       9.448   1.513  11.512  1.00  0.00     0.037 A 
BRANCH  45  59
ATOM     59  C   UNL     1      10.592   6.556   8.124  1.00  0.00     0.057 A 
ATOM     60  C   UNL     1      10.420   7.907   8.455  1.00  0.00     0.134 A 
ATOM     61  C   UNL     1      11.725   6.216   7.373  1.00  0.00     0.134 A 
ATOM     62  F   UNL     1       9.349   8.303   9.159  1.00  0.00    -0.206 F 
ATOM     63  C   UNL     1      11.319   8.885   8.024  1.00  0.00     0.040 A 
ATOM     64  C   UNL     1      12.645   7.180   6.960  1.00  0.00     0.040 A 
ATOM     65  F   UNL     1      11.953   4.940   7.025  1.00  0.00    -0.206 F 
ATOM     66  C   UNL     1      12.438   8.521   7.277  1.00  0.00     0.006 A 
ENDBRANCH  45  59
BRANCH  46  67
ATOM     67  C   UNL     1       3.878  -0.510  10.243  1.00  0.00     0.057 A 
ATOM     68  C   UNL     1       3.223  -0.625  11.473  1.00  0.00     0.134 A 
ATOM     69  C   UNL     1       3.563  -1.446   9.251  1.00  0.00     0.134 A 
ATOM     70  F   UNL     1       3.498   0.231  12.468  1.00  0.00    -0.206 F 
ATOM     71  C   UNL     1       2.289  -1.635  11.710  1.00  0.00     0.040 A 
ATOM     72  C   UNL     1       2.616  -2.448   9.466  1.00  0.00     0.040 A 
ATOM     73  F   UNL     1       4.155  -1.385   8.049  1.00  0.00    -0.206 F 
ATOM     74  C   UNL     1       1.978  -2.546  10.701  1.00  0.00     0.006 A 
ENDBRANCH  46  67
BRANCH  58  75
ATOM     75  C   UNL     1      10.347   0.816  12.492  1.00  0.00     0.057 A 
ATOM     76  C   UNL     1      10.968  -0.402  12.188  1.00  0.00     0.134 A 
ATOM     77  C   UNL     1      10.630   1.395  13.736  1.00  0.00     0.134 A 
ATOM     78  F   UNL     1      10.729  -1.014  11.018  1.00  0.00    -0.206 F 
ATOM     79  C   UNL     1      11.825  -1.029  13.095  1.00  0.00     0.040 A 
ATOM     80  C   UNL     1      11.505   0.790  14.640  1.00  0.00     0.040 A 
ATOM     81  F   UNL     1      10.075   2.565  14.086  1.00  0.00    -0.206 F 
ATOM     82  C   UNL     1      12.101  -0.428  14.322  1.00  0.00     0.006 A 
ENDBRANCH  58  75
ENDBRANCH  32  33
ENDBRANCH  25  27
ENDBRANCH  24  25
ENDBRANCH  23  24
ENDBRANCH  22  23
ENDBRANCH  21  22
ENDBRANCH   1  21
TORSDOF 17
