REMARK SMILES CC(C)[C@@H](CNC(=O)NCC1C(C)(C)C1(C)C)C(=O)OCCOCCOC(=O)c1ccc(-c2c3nc(c(-c4c(F)cccc4F)c4ccc([nH]4)c(-c4c(F)cccc4F)c4nc(c(-c5c(F)cccc5F)c5ccc2[nH]5)C=C4)C=C3)cc1
REMARK SMILES IDX 22 1 21 2 20 3 18 4 19 5 4 6 2 7 1 8 3 9 5 10 6 11 7 12 8 14
REMARK SMILES IDX 9 15 10 17 11 18 12 19 15 20 13 21 14 22 16 23 17 24 23 25
REMARK SMILES IDX 24 26 25 27 26 28 27 29 28 30 29 31 30 32 82 33 31 34 81 35
REMARK SMILES IDX 32 36 33 37 34 38 75 39 35 40 80 41 74 42 76 43 36 44 79 45
REMARK SMILES IDX 73 46 72 47 37 49 63 50 46 51 62 52 47 53 50 54 61 55 77 56
REMARK SMILES IDX 48 57 49 58 60 60 78 61 51 62 38 63 39 64 44 65 40 66 41 67
REMARK SMILES IDX 43 68 45 69 42 70 64 71 65 72 70 73 66 74 67 75 69 76 71 77
REMARK SMILES IDX 68 78 52 79 53 80 58 81 54 82 55 83 57 84 59 85 56 86
REMARK H PARENT 6 13 9 16 76 48 50 59
REMARK Flexibility Score: inf
ROOT
ATOM      1  C   UNL     1      -1.833   2.416  -4.977  1.00  0.00     0.202 C 
ENDROOT
BRANCH   1   2
ATOM      2  C   UNL     1      -2.197   2.604  -3.503  1.00  0.00     0.261 C 
BRANCH   2   3
ATOM      3  O   UNL     1      -1.224   2.077  -2.579  1.00  0.00    -0.463 OA
BRANCH   3   4
ATOM      4  C   UNL     1      -1.609   0.965  -1.898  1.00  0.00     0.311 C 
ATOM      5  O   UNL     1      -2.582   0.274  -2.186  1.00  0.00    -0.252 OA
BRANCH   4   6
ATOM      6  C   UNL     1      -0.768   0.687  -0.665  1.00  0.00     0.121 C 
BRANCH   6   7
ATOM      7  C   UNL     1       0.772   0.798  -0.836  1.00  0.00    -0.001 C 
ATOM      8  C   UNL     1       1.497   0.159   0.360  1.00  0.00     0.008 C 
ATOM      9  C   UNL     1       1.278   0.109  -2.107  1.00  0.00     0.008 C 
ENDBRANCH   6   7
BRANCH   6  10
ATOM     10  C   UNL     1      -1.331   1.495   0.522  1.00  0.00     0.133 C 
BRANCH  10  11
ATOM     11  N   UNL     1      -1.265   2.935   0.347  1.00  0.00    -0.337 N 
ATOM     12  C   UNL     1      -2.154   3.889   0.047  1.00  0.00     0.314 C 
ATOM     13  H   UNL     1      -0.357   3.291   0.479  1.00  0.00     0.165 HD
ATOM     14  O   UNL     1      -1.750   5.054   0.014  1.00  0.00    -0.249 OA
ATOM     15  N   UNL     1      -3.443   3.671  -0.224  1.00  0.00    -0.338 N 
ATOM     16  H   UNL     1      -3.935   4.508  -0.390  1.00  0.00     0.165 HD
BRANCH  15  17
ATOM     17  C   UNL     1      -4.293   2.507  -0.332  1.00  0.00     0.122 C 
BRANCH  17  18
ATOM     18  C   UNL     1      -5.104   2.352   0.914  1.00  0.00     0.021 C 
ATOM     19  C   UNL     1      -6.586   2.703   0.995  1.00  0.00    -0.025 C 
ATOM     20  C   UNL     1      -6.126   1.232   1.086  1.00  0.00    -0.025 C 
ATOM     21  C   UNL     1      -7.032   3.439   2.242  1.00  0.00     0.012 C 
ATOM     22  C   UNL     1      -7.353   3.170  -0.224  1.00  0.00     0.012 C 
ATOM     23  C   UNL     1      -6.387   0.274  -0.058  1.00  0.00     0.012 C 
ATOM     24  C   UNL     1      -6.179   0.530   2.428  1.00  0.00     0.012 C 
ENDBRANCH  17  18
ENDBRANCH  15  17
ENDBRANCH  10  11
ENDBRANCH   6  10
ENDBRANCH   4   6
ENDBRANCH   3   4
ENDBRANCH   2   3
ENDBRANCH   1   2
BRANCH   1  25
ATOM     25  O   UNL     1      -1.892   1.085  -5.484  1.00  0.00    -0.374 OA
BRANCH  25  26
ATOM     26  C   UNL     1      -0.816   0.212  -5.145  1.00  0.00     0.202 C 
BRANCH  26  27
ATOM     27  C   UNL     1       0.502   0.469  -5.887  1.00  0.00     0.261 C 
BRANCH  27  28
ATOM     28  O   UNL     1       1.083   1.735  -5.515  1.00  0.00    -0.460 OA
BRANCH  28  29
ATOM     29  C   UNL     1       1.377   2.547  -6.555  1.00  0.00     0.338 C 
ATOM     30  O   UNL     1       1.353   2.262  -7.747  1.00  0.00    -0.246 OA
BRANCH  29  31
ATOM     31  C   UNL     1       1.586   3.932  -6.096  1.00  0.00     0.060 A 
ATOM     32  C   UNL     1       0.781   4.923  -6.672  1.00  0.00     0.016 A 
ATOM     33  C   UNL     1       2.616   4.279  -5.219  1.00  0.00     0.016 A 
ATOM     34  C   UNL     1       1.051   6.269  -6.433  1.00  0.00     0.010 A 
ATOM     35  C   UNL     1       2.889   5.634  -4.983  1.00  0.00     0.010 A 
ATOM     36  C   UNL     1       2.139   6.635  -5.628  1.00  0.00    -0.014 A 
BRANCH  36  37
ATOM     37  C   UNL     1       2.579   8.054  -5.620  1.00  0.00     0.031 A 
ATOM     38  C   UNL     1       3.718   8.471  -6.514  1.00  0.00     0.074 A 
ATOM     39  C   UNL     1       1.928   8.980  -4.894  1.00  0.00     0.049 A 
ATOM     40  N   UNL     1       4.239   9.658  -6.699  1.00  0.00    -0.248 NA
ATOM     41  C   UNL     1       4.351   7.407  -7.310  1.00  0.00     0.031 C 
ATOM     42  C   UNL     1       0.786   8.722  -4.021  1.00  0.00     0.029 A 
ATOM     43  N   UNL     1       2.137  10.334  -4.786  1.00  0.00    -0.354 N 
ATOM     44  C   UNL     1       5.255   9.485  -7.631  1.00  0.00     0.074 A 
ATOM     45  C   UNL     1       5.301   8.074  -7.949  1.00  0.00     0.031 C 
ATOM     46  C   UNL     1       0.392   9.881  -3.465  1.00  0.00     0.029 A 
ATOM     47  C   UNL     1       1.268  10.958  -3.925  1.00  0.00     0.049 A 
ATOM     48  H   UNL     1       2.843  10.811  -5.278  1.00  0.00     0.167 HD
ATOM     49  C   UNL     1       6.067  10.416  -8.185  1.00  0.00     0.037 A 
ATOM     50  C   UNL     1       1.195  12.248  -3.544  1.00  0.00     0.037 A 
ATOM     51  C   UNL     1       6.024  11.822  -7.880  1.00  0.00     0.049 A 
ATOM     52  C   UNL     1       2.158  13.252  -4.119  1.00  0.00     0.074 A 
ATOM     53  C   UNL     1       6.800  12.842  -8.405  1.00  0.00     0.029 A 
ATOM     54  N   UNL     1       5.162  12.404  -6.965  1.00  0.00    -0.354 N 
ATOM     55  N   UNL     1       3.098  13.080  -5.017  1.00  0.00    -0.248 NA
ATOM     56  C   UNL     1       2.048  14.634  -3.627  1.00  0.00     0.031 C 
ATOM     57  C   UNL     1       6.434  14.037  -7.776  1.00  0.00     0.029 A 
ATOM     58  C   UNL     1       5.403  13.767  -6.892  1.00  0.00     0.049 A 
ATOM     59  H   UNL     1       4.480  11.922  -6.445  1.00  0.00     0.167 HD
ATOM     60  C   UNL     1       3.672  14.330  -5.214  1.00  0.00     0.074 A 
ATOM     61  C   UNL     1       2.967  15.256  -4.353  1.00  0.00     0.031 C 
ATOM     62  C   UNL     1       4.691  14.679  -6.036  1.00  0.00     0.037 A 
BRANCH  49  63
ATOM     63  C   UNL     1       7.088   9.940  -9.174  1.00  0.00     0.057 A 
ATOM     64  C   UNL     1       6.733   9.552 -10.472  1.00  0.00     0.134 A 
ATOM     65  C   UNL     1       8.447   9.906  -8.837  1.00  0.00     0.134 A 
ATOM     66  F   UNL     1       5.446   9.550 -10.852  1.00  0.00    -0.206 F 
ATOM     67  C   UNL     1       7.691   9.132 -11.395  1.00  0.00     0.040 A 
ATOM     68  C   UNL     1       9.417   9.508  -9.758  1.00  0.00     0.040 A 
ATOM     69  F   UNL     1       8.854  10.269  -7.611  1.00  0.00    -0.206 F 
ATOM     70  C   UNL     1       9.039   9.116 -11.040  1.00  0.00     0.006 A 
ENDBRANCH  49  63
BRANCH  50  71
ATOM     71  C   UNL     1       0.177  12.673  -2.551  1.00  0.00     0.057 A 
ATOM     72  C   UNL     1      -0.898  13.492  -2.915  1.00  0.00     0.134 A 
ATOM     73  C   UNL     1       0.276  12.297  -1.206  1.00  0.00     0.134 A 
ATOM     74  F   UNL     1      -1.030  13.909  -4.183  1.00  0.00    -0.206 F 
ATOM     75  C   UNL     1      -1.829  13.936  -1.975  1.00  0.00     0.040 A 
ATOM     76  C   UNL     1      -0.661  12.713  -0.260  1.00  0.00     0.040 A 
ATOM     77  F   UNL     1       1.288  11.520  -0.794  1.00  0.00    -0.206 F 
ATOM     78  C   UNL     1      -1.714  13.542  -0.643  1.00  0.00     0.006 A 
ENDBRANCH  50  71
BRANCH  62  79
ATOM     79  C   UNL     1       5.089  16.126  -6.066  1.00  0.00     0.057 A 
ATOM     80  C   UNL     1       5.797  16.718  -5.013  1.00  0.00     0.134 A 
ATOM     81  C   UNL     1       4.797  16.924  -7.179  1.00  0.00     0.134 A 
ATOM     82  F   UNL     1       6.098  16.011  -3.913  1.00  0.00    -0.206 F 
ATOM     83  C   UNL     1       6.183  18.059  -5.057  1.00  0.00     0.040 A 
ATOM     84  C   UNL     1       5.197  18.259  -7.245  1.00  0.00     0.040 A 
ATOM     85  F   UNL     1       4.129  16.416  -8.226  1.00  0.00    -0.206 F 
ATOM     86  C   UNL     1       5.888  18.832  -6.179  1.00  0.00     0.006 A 
ENDBRANCH  62  79
ENDBRANCH  36  37
ENDBRANCH  29  31
ENDBRANCH  28  29
ENDBRANCH  27  28
ENDBRANCH  26  27
ENDBRANCH  25  26
ENDBRANCH   1  25
TORSDOF 19
