REMARK SMILES [NH3+]C[C@@]1([C@@H](O)C(=O)OCCOCCOC(=O)c2ccc(-c3c4nc(c(-c5c(F)cccc5F)c5ccc([nH]5)c(-c5c(F)cccc5F)c5nc(c(-c6c(F)cccc6F)c6ccc3[nH]6)C=C5)C=C4)cc2)CCOc2ccccc21
REMARK SMILES IDX 10 1 9 2 8 3 6 4 7 5 4 6 3 7 71 8 79 9 72 10 74 11 78 12
REMARK SMILES IDX 73 13 75 14 77 15 76 16 2 17 1 18 5 22 11 24 12 25 13 26
REMARK SMILES IDX 14 27 15 28 16 29 17 30 18 31 70 32 19 33 69 34 20 35 21 36
REMARK SMILES IDX 22 37 63 38 23 39 68 40 62 41 64 42 24 43 67 44 61 45 60 46
REMARK SMILES IDX 25 48 51 49 34 50 50 51 35 52 38 53 49 54 65 55 36 56 37 57
REMARK SMILES IDX 48 59 66 60 39 61 26 62 27 63 32 64 28 65 29 66 31 67 33 68
REMARK SMILES IDX 30 69 52 70 53 71 58 72 54 73 55 74 57 75 59 76 56 77 40 78
REMARK SMILES IDX 41 79 46 80 42 81 43 82 45 83 47 84 44 85
REMARK H PARENT 1 19 1 20 1 21 5 23 64 47 38 58
REMARK Flexibility Score: inf
ROOT
ATOM      1  C   UNL     1       0.991  -5.083   0.019  1.00  0.00     0.202 C 
ENDROOT
BRANCH   1   2
ATOM      2  C   UNL     1       0.867  -3.923  -0.989  1.00  0.00     0.261 C 
BRANCH   2   3
ATOM      3  O   UNL     1       1.301  -2.645  -0.460  1.00  0.00    -0.461 OA
BRANCH   3   4
ATOM      4  C   UNL     1       0.375  -1.767   0.011  1.00  0.00     0.336 C 
ATOM      5  O   UNL     1      -0.834  -1.970   0.022  1.00  0.00    -0.249 OA
BRANCH   4   6
ATOM      6  C   UNL     1       1.007  -0.443   0.513  1.00  0.00     0.240 C 
BRANCH   6   7
ATOM      7  C   UNL     1       1.389  -0.339   2.046  1.00  0.00     0.088 C 
ATOM      8  C   UNL     1       1.683   1.169   2.320  1.00  0.00     0.063 C 
ATOM      9  C   UNL     1       2.676  -1.091   2.433  1.00  0.00     0.009 A 
ATOM     10  C   UNL     1       2.324   1.364   3.681  1.00  0.00     0.231 C 
ATOM     11  C   UNL     1       3.698  -0.480   3.176  1.00  0.00     0.123 A 
ATOM     12  C   UNL     1       2.902  -2.409   2.031  1.00  0.00     0.008 A 
ATOM     13  O   UNL     1       3.614   0.765   3.734  1.00  0.00    -0.493 OA
ATOM     14  C   UNL     1       4.928  -1.120   3.377  1.00  0.00     0.047 A 
ATOM     15  C   UNL     1       4.146  -3.023   2.164  1.00  0.00     0.001 A 
ATOM     16  C   UNL     1       5.168  -2.376   2.835  1.00  0.00     0.004 A 
BRANCH   7  17
ATOM     17  C   UNL     1       0.222  -0.833   2.962  1.00  0.00     0.274 C 
BRANCH  17  18
ATOM     18  N   UNL     1      -1.073  -0.176   2.800  1.00  0.00    -0.357 N 
ATOM     19  H   UNL     1      -1.745  -0.585   3.449  1.00  0.00     0.344 HD
ATOM     20  H   UNL     1      -1.402  -0.305   1.843  1.00  0.00     0.344 HD
ATOM     21  H   UNL     1      -0.975   0.821   2.994  1.00  0.00     0.344 HD
ENDBRANCH  17  18
ENDBRANCH   7  17
ENDBRANCH   6   7
BRANCH   6  22
ATOM     22  O   UNL     1       2.090   0.001  -0.313  1.00  0.00    -0.380 OA
ATOM     23  H   UNL     1       2.837  -0.610  -0.222  1.00  0.00     0.211 HD
ENDBRANCH   6  22
ENDBRANCH   4   6
ENDBRANCH   3   4
ENDBRANCH   2   3
ENDBRANCH   1   2
BRANCH   1  24
ATOM     24  O   UNL     1      -0.226  -5.395   0.702  1.00  0.00    -0.374 OA
BRANCH  24  25
ATOM     25  C   UNL     1      -0.525  -4.572   1.826  1.00  0.00     0.202 C 
BRANCH  25  26
ATOM     26  C   UNL     1      -0.120  -5.182   3.170  1.00  0.00     0.261 C 
BRANCH  26  27
ATOM     27  O   UNL     1       1.312  -5.282   3.284  1.00  0.00    -0.460 OA
BRANCH  27  28
ATOM     28  C   UNL     1       1.814  -6.538   3.164  1.00  0.00     0.338 C 
ATOM     29  O   UNL     1       1.195  -7.569   3.013  1.00  0.00    -0.246 OA
BRANCH  28  30
ATOM     30  C   UNL     1       3.292  -6.477   3.113  1.00  0.00     0.060 A 
ATOM     31  C   UNL     1       3.937  -7.220   2.119  1.00  0.00     0.016 A 
ATOM     32  C   UNL     1       4.040  -5.734   4.029  1.00  0.00     0.016 A 
ATOM     33  C   UNL     1       5.332  -7.231   2.043  1.00  0.00     0.010 A 
ATOM     34  C   UNL     1       5.440  -5.734   3.940  1.00  0.00     0.010 A 
ATOM     35  C   UNL     1       6.100  -6.499   2.960  1.00  0.00    -0.014 A 
BRANCH  35  36
ATOM     36  C   UNL     1       7.582  -6.649   2.975  1.00  0.00     0.031 A 
ATOM     37  C   UNL     1       8.227  -7.423   4.095  1.00  0.00     0.074 A 
ATOM     38  C   UNL     1       8.356  -6.144   1.994  1.00  0.00     0.049 A 
ATOM     39  N   UNL     1       9.492  -7.702   4.293  1.00  0.00    -0.248 NA
ATOM     40  C   UNL     1       7.328  -7.942   5.138  1.00  0.00     0.031 C 
ATOM     41  C   UNL     1       7.882  -5.372   0.847  1.00  0.00     0.029 A 
ATOM     42  N   UNL     1       9.717  -6.215   1.809  1.00  0.00    -0.354 N 
ATOM     43  C   UNL     1       9.537  -8.421   5.480  1.00  0.00     0.074 A 
ATOM     44  C   UNL     1       8.184  -8.488   5.986  1.00  0.00     0.031 C 
ATOM     45  C   UNL     1       8.934  -5.055   0.068  1.00  0.00     0.029 A 
ATOM     46  C   UNL     1      10.157  -5.585   0.669  1.00  0.00     0.049 A 
ATOM     47  H   UNL     1      10.321  -6.676   2.435  1.00  0.00     0.167 HD
ATOM     48  C   UNL     1      10.599  -9.001   6.088  1.00  0.00     0.037 A 
ATOM     49  C   UNL     1      11.402  -5.452   0.168  1.00  0.00     0.037 A 
ATOM     50  C   UNL     1      11.947  -8.968   5.591  1.00  0.00     0.049 A 
ATOM     51  C   UNL     1      12.575  -6.072   0.883  1.00  0.00     0.074 A 
ATOM     52  C   UNL     1      13.077  -9.562   6.127  1.00  0.00     0.029 A 
ATOM     53  N   UNL     1      12.348  -8.306   4.443  1.00  0.00    -0.354 N 
ATOM     54  N   UNL     1      12.592  -6.799   1.973  1.00  0.00    -0.248 NA
ATOM     55  C   UNL     1      13.906  -5.856   0.290  1.00  0.00     0.031 C 
ATOM     56  C   UNL     1      14.170  -9.229   5.321  1.00  0.00     0.029 A 
ATOM     57  C   UNL     1      13.713  -8.461   4.263  1.00  0.00     0.049 A 
ATOM     58  H   UNL     1      11.752  -7.801   3.844  1.00  0.00     0.167 HD
ATOM     59  C   UNL     1      13.922  -7.154   2.175  1.00  0.00     0.074 A 
ATOM     60  C   UNL     1      14.683  -6.571   1.092  1.00  0.00     0.031 C 
ATOM     61  C   UNL     1      14.462  -7.900   3.169  1.00  0.00     0.037 A 
BRANCH  48  62
ATOM     62  C   UNL     1      10.333  -9.728   7.371  1.00  0.00     0.057 A 
ATOM     63  C   UNL     1       9.661 -10.957   7.393  1.00  0.00     0.134 A 
ATOM     64  C   UNL     1      10.757  -9.197   8.595  1.00  0.00     0.134 A 
ATOM     65  F   UNL     1       9.216 -11.508   6.254  1.00  0.00    -0.206 F 
ATOM     66  C   UNL     1       9.394 -11.619   8.592  1.00  0.00     0.040 A 
ATOM     67  C   UNL     1      10.518  -9.862   9.798  1.00  0.00     0.040 A 
ATOM     68  F   UNL     1      11.409  -8.026   8.641  1.00  0.00    -0.206 F 
ATOM     69  C   UNL     1       9.827 -11.073   9.798  1.00  0.00     0.006 A 
ENDBRANCH  48  62
BRANCH  49  70
ATOM     70  C   UNL     1      11.627  -4.706  -1.098  1.00  0.00     0.057 A 
ATOM     71  C   UNL     1      12.019  -5.370  -2.267  1.00  0.00     0.134 A 
ATOM     72  C   UNL     1      11.523  -3.312  -1.151  1.00  0.00     0.134 A 
ATOM     73  F   UNL     1      12.165  -6.703  -2.269  1.00  0.00    -0.206 F 
ATOM     74  C   UNL     1      12.325  -4.672  -3.437  1.00  0.00     0.040 A 
ATOM     75  C   UNL     1      11.803  -2.603  -2.321  1.00  0.00     0.040 A 
ATOM     76  F   UNL     1      11.158  -2.618  -0.063  1.00  0.00    -0.206 F 
ATOM     77  C   UNL     1      12.216  -3.283  -3.465  1.00  0.00     0.006 A 
ENDBRANCH  49  70
BRANCH  61  78
ATOM     78  C   UNL     1      15.937  -8.173   3.119  1.00  0.00     0.057 A 
ATOM     79  C   UNL     1      16.884  -7.187   3.422  1.00  0.00     0.134 A 
ATOM     80  C   UNL     1      16.413  -9.458   2.825  1.00  0.00     0.134 A 
ATOM     81  F   UNL     1      16.495  -5.934   3.701  1.00  0.00    -0.206 F 
ATOM     82  C   UNL     1      18.252  -7.466   3.422  1.00  0.00     0.040 A 
ATOM     83  C   UNL     1      17.776  -9.754   2.844  1.00  0.00     0.040 A 
ATOM     84  F   UNL     1      15.559 -10.451   2.534  1.00  0.00    -0.206 F 
ATOM     85  C   UNL     1      18.701  -8.755   3.141  1.00  0.00     0.006 A 
ENDBRANCH  61  78
ENDBRANCH  35  36
ENDBRANCH  28  30
ENDBRANCH  27  28
ENDBRANCH  26  27
ENDBRANCH  25  26
ENDBRANCH  24  25
ENDBRANCH   1  24
TORSDOF 18
