REMARK SMILES C[C@H](NC(=O)c1cc(S(=O)(=O)N(C)C)cs1)C(=O)OCCOCCOC(=O)c1ccc(-c2c3nc(c(-c4c(F)cccc4F)c4ccc([nH]4)c(-c4c(F)cccc4F)c4nc(c(-c5c(F)cccc5F)c5ccc2[nH]5)C=C4)C=C3)cc1
REMARK SMILES IDX 21 1 20 2 19 3 17 4 18 5 2 6 1 7 3 8 4 9 5 11 6 12 7 13
REMARK SMILES IDX 16 14 8 15 15 16 9 17 10 18 11 19 12 20 13 21 14 22 22 23
REMARK SMILES IDX 23 24 24 25 25 26 26 27 27 28 28 29 29 30 81 31 30 32 80 33
REMARK SMILES IDX 31 34 32 35 33 36 74 37 34 38 79 39 73 40 75 41 35 42 78 43
REMARK SMILES IDX 72 44 71 45 36 47 62 48 45 49 61 50 46 51 49 52 60 53 76 54
REMARK SMILES IDX 47 55 48 56 59 58 77 59 50 60 37 61 38 62 43 63 39 64 40 65
REMARK SMILES IDX 42 66 44 67 41 68 63 69 64 70 69 71 65 72 66 73 68 74 70 75
REMARK SMILES IDX 67 76 51 77 52 78 57 79 53 80 54 81 56 82 58 83 55 84
REMARK H PARENT 3 10 75 46 49 57
REMARK Flexibility Score: inf
ROOT
ATOM      1  C   UNL     1      -3.761   0.736  -0.526  1.00  0.00     0.202 C 
ENDROOT
BRANCH   1   2
ATOM      2  C   UNL     1      -2.913   1.639  -1.424  1.00  0.00     0.261 C 
BRANCH   2   3
ATOM      3  O   UNL     1      -1.503   1.401  -1.229  1.00  0.00    -0.462 OA
BRANCH   3   4
ATOM      4  C   UNL     1      -0.773   2.494  -0.870  1.00  0.00     0.328 C 
ATOM      5  O   UNL     1      -1.195   3.646  -0.893  1.00  0.00    -0.250 OA
BRANCH   4   6
ATOM      6  C   UNL     1       0.704   2.171  -0.585  1.00  0.00     0.189 C 
ATOM      7  C   UNL     1       1.445   2.362  -1.907  1.00  0.00     0.043 C 
BRANCH   6   8
ATOM      8  N   UNL     1       1.071   0.848  -0.057  1.00  0.00    -0.338 N 
ATOM      9  C   UNL     1       1.593   0.529   1.180  1.00  0.00     0.262 C 
ATOM     10  H   UNL     1       0.926   0.090  -0.668  1.00  0.00     0.164 HD
ATOM     11  O   UNL     1       2.120  -0.573   1.316  1.00  0.00    -0.268 OA
BRANCH   9  12
ATOM     12  C   UNL     1       1.342   1.418   2.295  1.00  0.00     0.093 A 
ATOM     13  C   UNL     1       0.340   1.275   3.233  1.00  0.00     0.047 A 
ATOM     14  S   UNL     1       2.362   2.727   2.692  1.00  0.00    -0.137 S 
ATOM     15  C   UNL     1       0.228   2.393   4.098  1.00  0.00     0.094 A 
ATOM     16  C   UNL     1       1.310   3.237   3.958  1.00  0.00     0.087 A 
BRANCH  15  17
ATOM     17  S   UNL     1      -1.117   2.691   5.166  1.00  0.00     0.243 S 
ATOM     18  O   UNL     1      -0.642   2.259   6.461  1.00  0.00    -0.207 OA
ATOM     19  O   UNL     1      -1.439   4.071   4.877  1.00  0.00    -0.207 OA
BRANCH  17  20
ATOM     20  N   UNL     1      -2.443   1.716   4.713  1.00  0.00    -0.204 NA
ATOM     21  C   UNL     1      -2.438   0.322   5.204  1.00  0.00     0.124 C 
ATOM     22  C   UNL     1      -3.776   2.340   4.893  1.00  0.00     0.124 C 
ENDBRANCH  17  20
ENDBRANCH  15  17
ENDBRANCH   9  12
ENDBRANCH   6   8
ENDBRANCH   4   6
ENDBRANCH   3   4
ENDBRANCH   2   3
ENDBRANCH   1   2
BRANCH   1  23
ATOM     23  O   UNL     1      -3.612   0.909   0.880  1.00  0.00    -0.374 OA
BRANCH  23  24
ATOM     24  C   UNL     1      -2.379   0.498   1.452  1.00  0.00     0.202 C 
BRANCH  24  25
ATOM     25  C   UNL     1      -2.200  -0.981   1.801  1.00  0.00     0.261 C 
BRANCH  25  26
ATOM     26  O   UNL     1      -2.459  -1.837   0.699  1.00  0.00    -0.460 OA
BRANCH  26  27
ATOM     27  C   UNL     1      -3.699  -2.375   0.709  1.00  0.00     0.338 C 
ATOM     28  O   UNL     1      -4.569  -2.260   1.555  1.00  0.00    -0.246 OA
BRANCH  27  29
ATOM     29  C   UNL     1      -3.894  -3.002  -0.598  1.00  0.00     0.060 A 
ATOM     30  C   UNL     1      -5.006  -2.610  -1.353  1.00  0.00     0.016 A 
ATOM     31  C   UNL     1      -2.972  -3.935  -1.075  1.00  0.00     0.016 A 
ATOM     32  C   UNL     1      -5.224  -3.189  -2.594  1.00  0.00     0.010 A 
ATOM     33  C   UNL     1      -3.195  -4.518  -2.313  1.00  0.00     0.010 A 
ATOM     34  C   UNL     1      -4.338  -4.170  -3.054  1.00  0.00    -0.014 A 
BRANCH  34  35
ATOM     35  C   UNL     1      -4.681  -4.983  -4.231  1.00  0.00     0.031 A 
ATOM     36  C   UNL     1      -5.210  -6.363  -3.997  1.00  0.00     0.074 A 
ATOM     37  C   UNL     1      -4.459  -4.512  -5.466  1.00  0.00     0.049 A 
ATOM     38  N   UNL     1      -5.421  -7.326  -4.852  1.00  0.00    -0.248 NA
ATOM     39  C   UNL     1      -5.516  -6.712  -2.599  1.00  0.00     0.031 C 
ATOM     40  C   UNL     1      -3.966  -3.173  -5.783  1.00  0.00     0.029 A 
ATOM     41  N   UNL     1      -4.585  -5.129  -6.681  1.00  0.00    -0.354 N 
ATOM     42  C   UNL     1      -5.858  -8.404  -4.094  1.00  0.00     0.074 A 
ATOM     43  C   UNL     1      -5.853  -7.986  -2.710  1.00  0.00     0.031 C 
ATOM     44  C   UNL     1      -3.795  -3.081  -7.112  1.00  0.00     0.029 A 
ATOM     45  C   UNL     1      -4.124  -4.366  -7.723  1.00  0.00     0.049 A 
ATOM     46  H   UNL     1      -4.967  -6.029  -6.795  1.00  0.00     0.167 HD
ATOM     47  C   UNL     1      -6.228  -9.632  -4.523  1.00  0.00     0.037 A 
ATOM     48  C   UNL     1      -3.948  -4.694  -9.016  1.00  0.00     0.037 A 
ATOM     49  C   UNL     1      -6.213 -10.021  -5.908  1.00  0.00     0.049 A 
ATOM     50  C   UNL     1      -4.320  -6.078  -9.472  1.00  0.00     0.074 A 
ATOM     51  C   UNL     1      -6.604 -11.221  -6.471  1.00  0.00     0.029 A 
ATOM     52  N   UNL     1      -5.763  -9.215  -6.946  1.00  0.00    -0.354 N 
ATOM     53  N   UNL     1      -4.774  -7.086  -8.763  1.00  0.00    -0.248 NA
ATOM     54  C   UNL     1      -4.163  -6.371 -10.901  1.00  0.00     0.031 C 
ATOM     55  C   UNL     1      -6.327 -11.164  -7.841  1.00  0.00     0.029 A 
ATOM     56  C   UNL     1      -5.834  -9.903  -8.143  1.00  0.00     0.049 A 
ATOM     57  H   UNL     1      -5.441  -8.290  -6.844  1.00  0.00     0.167 HD
ATOM     58  C   UNL     1      -4.986  -8.122  -9.663  1.00  0.00     0.074 A 
ATOM     59  C   UNL     1      -4.611  -7.618 -10.970  1.00  0.00     0.031 C 
ATOM     60  C   UNL     1      -5.458  -9.373  -9.432  1.00  0.00     0.037 A 
BRANCH  47  61
ATOM     61  C   UNL     1      -6.620 -10.636  -3.478  1.00  0.00     0.057 A 
ATOM     62  C   UNL     1      -7.772 -10.491  -2.692  1.00  0.00     0.134 A 
ATOM     63  C   UNL     1      -5.816 -11.757  -3.237  1.00  0.00     0.134 A 
ATOM     64  F   UNL     1      -8.579  -9.431  -2.857  1.00  0.00    -0.206 F 
ATOM     65  C   UNL     1      -8.085 -11.398  -1.678  1.00  0.00     0.040 A 
ATOM     66  C   UNL     1      -6.136 -12.689  -2.250  1.00  0.00     0.040 A 
ATOM     67  F   UNL     1      -4.699 -11.961  -3.952  1.00  0.00    -0.206 F 
ATOM     68  C   UNL     1      -7.267 -12.504  -1.457  1.00  0.00     0.006 A 
ENDBRANCH  47  61
BRANCH  48  69
ATOM     69  C   UNL     1      -3.379  -3.690  -9.947  1.00  0.00     0.057 A 
ATOM     70  C   UNL     1      -4.171  -3.073 -10.920  1.00  0.00     0.134 A 
ATOM     71  C   UNL     1      -2.042  -3.283  -9.848  1.00  0.00     0.134 A 
ATOM     72  F   UNL     1      -5.455  -3.429 -11.070  1.00  0.00    -0.206 F 
ATOM     73  C   UNL     1      -3.655  -2.089 -11.765  1.00  0.00     0.040 A 
ATOM     74  C   UNL     1      -1.519  -2.284 -10.670  1.00  0.00     0.040 A 
ATOM     75  F   UNL     1      -1.234  -3.828  -8.926  1.00  0.00    -0.206 F 
ATOM     76  C   UNL     1      -2.327  -1.685 -11.634  1.00  0.00     0.006 A 
ENDBRANCH  48  69
BRANCH  60  77
ATOM     77  C   UNL     1      -5.642 -10.273 -10.620  1.00  0.00     0.057 A 
ATOM     78  C   UNL     1      -4.560 -10.850 -11.294  1.00  0.00     0.134 A 
ATOM     79  C   UNL     1      -6.931 -10.626 -11.042  1.00  0.00     0.134 A 
ATOM     80  F   UNL     1      -3.300 -10.544 -10.946  1.00  0.00    -0.206 F 
ATOM     81  C   UNL     1      -4.752 -11.738 -12.353  1.00  0.00     0.040 A 
ATOM     82  C   UNL     1      -7.137 -11.535 -12.079  1.00  0.00     0.040 A 
ATOM     83  F   UNL     1      -8.012 -10.116 -10.431  1.00  0.00    -0.206 F 
ATOM     84  C   UNL     1      -6.044 -12.091 -12.741  1.00  0.00     0.006 A 
ENDBRANCH  60  77
ENDBRANCH  34  35
ENDBRANCH  27  29
ENDBRANCH  26  27
ENDBRANCH  25  26
ENDBRANCH  24  25
ENDBRANCH  23  24
ENDBRANCH   1  23
TORSDOF 18
