REMARK SMILES C[C@@]1(C(=O)c2ccccc2N)[C@H](C(=O)OCCOCCOC(=O)c2ccc(-c3c4nc(c(-c5c(F)cccc5F)c5ccc([nH]5)c(-c5c(F)cccc5F)c5nc(c(-c6c(F)cccc6F)c6ccc3[nH]6)C=C5)C=C4)cc2)[C@@H]1C(=O)N1CCOCC1
REMARK SMILES IDX 17 1 16 2 15 3 13 4 14 5 12 6 1 7 2 8 78 9 3 10 4 11 5 12
REMARK SMILES IDX 6 13 10 14 7 15 9 16 8 17 11 18 79 21 80 22 81 23 82 24
REMARK SMILES IDX 86 25 83 26 85 27 84 28 18 29 19 30 20 31 21 32 22 33 23 34
REMARK SMILES IDX 24 35 25 36 77 37 26 38 76 39 27 40 28 41 29 42 70 43 30 44
REMARK SMILES IDX 75 45 69 46 71 47 31 48 74 49 68 50 67 51 32 53 58 54 41 55
REMARK SMILES IDX 57 56 42 57 45 58 56 59 72 60 43 61 44 62 55 64 73 65 46 66
REMARK SMILES IDX 33 67 34 68 39 69 35 70 36 71 38 72 40 73 37 74 59 75 60 76
REMARK SMILES IDX 65 77 61 78 62 79 64 80 66 81 63 82 47 83 48 84 53 85 49 86
REMARK SMILES IDX 50 87 52 88 54 89 51 90
REMARK H PARENT 11 19 11 20 71 52 45 63
REMARK Flexibility Score: inf
ROOT
ATOM      1  C   UNL     1       0.985  -4.324  -4.733  1.00  0.00     0.202 C 
ENDROOT
BRANCH   1   2
ATOM      2  C   UNL     1       0.299  -4.776  -3.445  1.00  0.00     0.261 C 
BRANCH   2   3
ATOM      3  O   UNL     1       0.165  -3.689  -2.511  1.00  0.00    -0.463 OA
BRANCH   3   4
ATOM      4  C   UNL     1       0.679  -3.968  -1.289  1.00  0.00     0.310 C 
ATOM      5  O   UNL     1       1.061  -5.070  -0.918  1.00  0.00    -0.252 OA
BRANCH   4   6
ATOM      6  C   UNL     1       1.012  -2.788  -0.481  1.00  0.00     0.127 C 
ATOM      7  C   UNL     1       1.338  -0.333   0.049  1.00  0.00     0.022 C 
ATOM      8  C   UNL     1       0.341  -1.475  -0.170  1.00  0.00     0.057 C 
ATOM      9  C   UNL     1       0.386  -2.617   0.878  1.00  0.00     0.108 C 
BRANCH   8  10
ATOM     10  C   UNL     1      -1.050  -0.962  -0.414  1.00  0.00     0.172 C 
ATOM     11  O   UNL     1      -1.515  -0.155   0.391  1.00  0.00    -0.293 OA
BRANCH  10  12
ATOM     12  C   UNL     1      -1.840  -1.191  -1.625  1.00  0.00     0.041 A 
ATOM     13  C   UNL     1      -1.543  -0.396  -2.737  1.00  0.00     0.014 A 
ATOM     14  C   UNL     1      -3.071  -1.873  -1.539  1.00  0.00     0.042 A 
ATOM     15  C   UNL     1      -2.460  -0.314  -3.782  1.00  0.00     0.001 A 
ATOM     16  C   UNL     1      -3.905  -1.886  -2.659  1.00  0.00     0.026 A 
ATOM     17  C   UNL     1      -3.625  -1.078  -3.756  1.00  0.00     0.002 A 
BRANCH  14  18
ATOM     18  N   UNL     1      -3.456  -2.616  -0.427  1.00  0.00    -0.398 N 
ATOM     19  H   UNL     1      -2.890  -2.628   0.378  1.00  0.00     0.156 HD
ATOM     20  H   UNL     1      -4.296  -3.130  -0.445  1.00  0.00     0.156 HD
ENDBRANCH  14  18
ENDBRANCH  10  12
ENDBRANCH   8  10
BRANCH   9  21
ATOM     21  C   UNL     1      -0.872  -3.314   1.290  1.00  0.00     0.227 C 
ATOM     22  O   UNL     1      -1.794  -2.695   1.807  1.00  0.00    -0.275 OA
ATOM     23  N   UNL     1      -0.883  -4.687   1.151  1.00  0.00    -0.338 N 
ATOM     24  C   UNL     1      -0.744  -5.446   2.386  1.00  0.00     0.148 C 
ATOM     25  C   UNL     1      -1.870  -5.278   0.243  1.00  0.00     0.148 C 
ATOM     26  C   UNL     1      -0.502  -6.928   2.098  1.00  0.00     0.181 C 
ATOM     27  C   UNL     1      -1.603  -6.769   0.020  1.00  0.00     0.181 C 
ATOM     28  O   UNL     1      -1.546  -7.471   1.272  1.00  0.00    -0.378 OA
ENDBRANCH   9  21
ENDBRANCH   4   6
ENDBRANCH   3   4
ENDBRANCH   2   3
ENDBRANCH   1   2
BRANCH   1  29
ATOM     29  O   UNL     1       2.265  -3.718  -4.571  1.00  0.00    -0.374 OA
BRANCH  29  30
ATOM     30  C   UNL     1       2.283  -2.341  -4.190  1.00  0.00     0.202 C 
BRANCH  30  31
ATOM     31  C   UNL     1       1.944  -1.327  -5.293  1.00  0.00     0.261 C 
BRANCH  31  32
ATOM     32  O   UNL     1       0.568  -1.403  -5.712  1.00  0.00    -0.460 OA
BRANCH  32  33
ATOM     33  C   UNL     1       0.362  -1.878  -6.969  1.00  0.00     0.338 C 
ATOM     34  O   UNL     1       1.203  -2.183  -7.794  1.00  0.00    -0.246 OA
BRANCH  33  35
ATOM     35  C   UNL     1      -1.079  -2.147  -7.152  1.00  0.00     0.060 A 
ATOM     36  C   UNL     1      -1.492  -3.435  -7.512  1.00  0.00     0.016 A 
ATOM     37  C   UNL     1      -2.017  -1.132  -6.996  1.00  0.00     0.016 A 
ATOM     38  C   UNL     1      -2.850  -3.708  -7.711  1.00  0.00     0.010 A 
ATOM     39  C   UNL     1      -3.376  -1.415  -7.163  1.00  0.00     0.010 A 
ATOM     40  C   UNL     1      -3.809  -2.699  -7.544  1.00  0.00    -0.014 A 
BRANCH  40  41
ATOM     41  C   UNL     1      -5.241  -2.926  -7.897  1.00  0.00     0.031 A 
ATOM     42  C   UNL     1      -5.843  -2.147  -9.042  1.00  0.00     0.074 A 
ATOM     43  C   UNL     1      -6.016  -3.791  -7.211  1.00  0.00     0.049 A 
ATOM     44  N   UNL     1      -7.082  -2.106  -9.461  1.00  0.00    -0.248 NA
ATOM     45  C   UNL     1      -4.931  -1.267  -9.791  1.00  0.00     0.031 C 
ATOM     46  C   UNL     1      -5.592  -4.599  -6.067  1.00  0.00     0.029 A 
ATOM     47  N   UNL     1      -7.337  -4.132  -7.384  1.00  0.00    -0.354 N 
ATOM     48  C   UNL     1      -7.106  -1.157 -10.476  1.00  0.00     0.074 A 
ATOM     49  C   UNL     1      -5.767  -0.623 -10.588  1.00  0.00     0.031 C 
ATOM     50  C   UNL     1      -6.624  -5.362  -5.662  1.00  0.00     0.029 A 
ATOM     51  C   UNL     1      -7.790  -5.077  -6.495  1.00  0.00     0.049 A 
ATOM     52  H   UNL     1      -7.907  -3.735  -8.082  1.00  0.00     0.167 HD
ATOM     53  C   UNL     1      -8.137  -0.777 -11.266  1.00  0.00     0.037 A 
ATOM     54  C   UNL     1      -9.006  -5.646  -6.368  1.00  0.00     0.037 A 
ATOM     55  C   UNL     1      -9.444  -1.372 -11.240  1.00  0.00     0.049 A 
ATOM     56  C   UNL     1     -10.123  -5.249  -7.300  1.00  0.00     0.074 A 
ATOM     57  C   UNL     1     -10.522  -1.118 -12.071  1.00  0.00     0.029 A 
ATOM     58  N   UNL     1      -9.843  -2.357 -10.353  1.00  0.00    -0.354 N 
ATOM     59  N   UNL     1     -10.112  -4.388  -8.287  1.00  0.00    -0.248 NA
ATOM     60  C   UNL     1     -11.424  -5.909  -7.098  1.00  0.00     0.031 C 
ATOM     61  C   UNL     1     -11.582  -1.938 -11.674  1.00  0.00     0.029 A 
ATOM     62  C   UNL     1     -11.153  -2.719 -10.614  1.00  0.00     0.049 A 
ATOM     63  H   UNL     1      -9.280  -2.742  -9.643  1.00  0.00     0.167 HD
ATOM     64  C   UNL     1     -11.386  -4.429  -8.843  1.00  0.00     0.074 A 
ATOM     65  C   UNL     1     -12.144  -5.405  -8.090  1.00  0.00     0.031 C 
ATOM     66  C   UNL     1     -11.884  -3.719  -9.883  1.00  0.00     0.037 A 
BRANCH  53  67
ATOM     67  C   UNL     1      -7.887   0.333 -12.242  1.00  0.00     0.057 A 
ATOM     68  C   UNL     1      -7.120   0.144 -13.398  1.00  0.00     0.134 A 
ATOM     69  C   UNL     1      -8.449   1.599 -12.035  1.00  0.00     0.134 A 
ATOM     70  F   UNL     1      -6.542  -1.042 -13.643  1.00  0.00    -0.206 F 
ATOM     71  C   UNL     1      -6.897   1.183 -14.301  1.00  0.00     0.040 A 
ATOM     72  C   UNL     1      -8.254   2.639 -12.944  1.00  0.00     0.040 A 
ATOM     73  F   UNL     1      -9.199   1.842 -10.950  1.00  0.00    -0.206 F 
ATOM     74  C   UNL     1      -7.471   2.434 -14.078  1.00  0.00     0.006 A 
ENDBRANCH  53  67
BRANCH  54  75
ATOM     75  C   UNL     1      -9.253  -6.683  -5.332  1.00  0.00     0.057 A 
ATOM     76  C   UNL     1      -9.456  -8.022  -5.692  1.00  0.00     0.134 A 
ATOM     77  C   UNL     1      -9.364  -6.356  -3.977  1.00  0.00     0.134 A 
ATOM     78  F   UNL     1      -9.390  -8.391  -6.980  1.00  0.00    -0.206 F 
ATOM     79  C   UNL     1      -9.790  -8.992  -4.746  1.00  0.00     0.040 A 
ATOM     80  C   UNL     1      -9.676  -7.320  -3.017  1.00  0.00     0.040 A 
ATOM     81  F   UNL     1      -9.181  -5.091  -3.569  1.00  0.00    -0.206 F 
ATOM     82  C   UNL     1      -9.900  -8.641  -3.402  1.00  0.00     0.006 A 
ENDBRANCH  54  75
BRANCH  66  83
ATOM     83  C   UNL     1     -13.292  -4.005 -10.311  1.00  0.00     0.057 A 
ATOM     84  C   UNL     1     -14.393  -3.545  -9.581  1.00  0.00     0.134 A 
ATOM     85  C   UNL     1     -13.545  -4.696 -11.503  1.00  0.00     0.134 A 
ATOM     86  F   UNL     1     -14.216  -2.886  -8.426  1.00  0.00    -0.206 F 
ATOM     87  C   UNL     1     -15.701  -3.775 -10.014  1.00  0.00     0.040 A 
ATOM     88  C   UNL     1     -14.847  -4.914 -11.957  1.00  0.00     0.040 A 
ATOM     89  F   UNL     1     -12.532  -5.155 -12.253  1.00  0.00    -0.206 F 
ATOM     90  C   UNL     1     -15.929  -4.455 -11.209  1.00  0.00     0.006 A 
ENDBRANCH  66  83
ENDBRANCH  40  41
ENDBRANCH  33  35
ENDBRANCH  32  33
ENDBRANCH  31  32
ENDBRANCH  30  31
ENDBRANCH  29  30
ENDBRANCH   1  29
TORSDOF 18
