REMARK SMILES CS(=O)(=O)c1ccc(/C=C(/C(=O)OCCOCCOC(=O)c2ccc(-c3c4nc(c(-c5c(F)cccc5F)c5ccc([nH]5)c(-c5c(F)cccc5F)c5nc(c(-c6c(F)cccc6F)c6ccc3[nH]6)C=C5)C=C4)cc2)c2ccc(-c3ccc(F)cc3F)cc2)cc1
REMARK SMILES IDX 16 1 15 2 14 3 13 4 11 5 12 6 10 7 9 8 8 9 5 10 6 11 91 12
REMARK SMILES IDX 7 13 90 14 2 15 1 16 3 17 4 18 76 19 77 20 89 21 78 22 88 23
REMARK SMILES IDX 79 24 80 25 81 26 86 27 82 28 85 29 87 30 83 31 84 32 17 33
REMARK SMILES IDX 18 34 19 35 20 36 21 37 22 38 23 39 75 40 24 41 74 42 25 43
REMARK SMILES IDX 26 44 27 45 68 46 28 47 73 48 67 49 69 50 29 51 72 52 66 53
REMARK SMILES IDX 65 54 30 56 56 57 39 58 55 59 40 60 43 61 54 62 70 63 41 64
REMARK SMILES IDX 42 65 53 67 71 68 44 69 31 70 32 71 37 72 33 73 34 74 36 75
REMARK SMILES IDX 38 76 35 77 57 78 58 79 63 80 59 81 60 82 62 83 64 84 61 85
REMARK SMILES IDX 45 86 46 87 51 88 47 89 48 90 50 91 52 92 49 93
REMARK H PARENT 69 55 43 66
REMARK Flexibility Score: inf
ROOT
ATOM      1  O   UNL     1       4.392  10.518   2.148  1.00  0.00    -0.374 OA
ENDROOT
BRANCH   1   2
ATOM      2  C   UNL     1       4.033  11.103   0.898  1.00  0.00     0.202 C 
BRANCH   2   3
ATOM      3  C   UNL     1       4.316  10.315  -0.386  1.00  0.00     0.261 C 
BRANCH   3   4
ATOM      4  O   UNL     1       3.608   9.062  -0.418  1.00  0.00    -0.460 OA
BRANCH   4   5
ATOM      5  C   UNL     1       4.412   7.970  -0.513  1.00  0.00     0.338 C 
ATOM      6  O   UNL     1       5.616   7.994  -0.731  1.00  0.00    -0.246 OA
BRANCH   5   7
ATOM      7  C   UNL     1       3.690   6.701  -0.175  1.00  0.00     0.067 C 
ATOM      8  C   UNL     1       2.430   6.484  -0.622  1.00  0.00     0.024 C 
BRANCH   8   9
ATOM      9  C   UNL     1       1.679   5.201  -0.623  1.00  0.00    -0.025 A 
ATOM     10  C   UNL     1       0.640   2.621  -1.052  1.00  0.00     0.067 A 
ATOM     11  C   UNL     1       1.397   2.880   0.085  1.00  0.00     0.021 A 
ATOM     12  C   UNL     1       0.290   3.666  -1.911  1.00  0.00     0.021 A 
ATOM     13  C   UNL     1       1.867   4.176   0.314  1.00  0.00     0.009 A 
ATOM     14  C   UNL     1       0.810   4.948  -1.696  1.00  0.00     0.009 A 
BRANCH  10  15
ATOM     15  S   UNL     1       0.152   0.975  -1.503  1.00  0.00     0.175 S 
ATOM     16  C   UNL     1       0.774  -0.122  -0.259  1.00  0.00     0.163 C 
ATOM     17  O   UNL     1       0.853   0.668  -2.736  1.00  0.00    -0.224 OA
ATOM     18  O   UNL     1      -1.296   0.943  -1.433  1.00  0.00    -0.224 OA
ENDBRANCH  10  15
ENDBRANCH   8   9
BRANCH   7  19
ATOM     19  C   UNL     1       4.479   5.714   0.587  1.00  0.00    -0.011 A 
ATOM     20  C   UNL     1       4.596   5.863   1.974  1.00  0.00     0.009 A 
ATOM     21  C   UNL     1       5.085   4.620  -0.029  1.00  0.00     0.009 A 
ATOM     22  C   UNL     1       5.317   4.942   2.732  1.00  0.00     0.009 A 
ATOM     23  C   UNL     1       5.782   3.682   0.741  1.00  0.00     0.009 A 
ATOM     24  C   UNL     1       5.922   3.828   2.134  1.00  0.00    -0.015 A 
BRANCH  24  25
ATOM     25  C   UNL     1       6.691   2.869   2.953  1.00  0.00     0.018 A 
ATOM     26  C   UNL     1       6.250   2.498   4.240  1.00  0.00     0.015 A 
ATOM     27  C   UNL     1       7.909   2.323   2.509  1.00  0.00     0.133 A 
ATOM     28  C   UNL     1       7.007   1.643   5.046  1.00  0.00     0.040 A 
ATOM     29  C   UNL     1       8.665   1.465   3.301  1.00  0.00     0.079 A 
ATOM     30  F   UNL     1       8.395   2.640   1.299  1.00  0.00    -0.206 F 
ATOM     31  C   UNL     1       8.209   1.139   4.568  1.00  0.00     0.126 A 
ATOM     32  F   UNL     1       8.937   0.328   5.345  1.00  0.00    -0.207 F 
ENDBRANCH  24  25
ENDBRANCH   7  19
ENDBRANCH   5   7
ENDBRANCH   4   5
ENDBRANCH   3   4
ENDBRANCH   2   3
ENDBRANCH   1   2
BRANCH   1  33
ATOM     33  C   UNL     1       3.641   9.394   2.591  1.00  0.00     0.202 C 
BRANCH  33  34
ATOM     34  C   UNL     1       2.234   9.618   3.159  1.00  0.00     0.261 C 
BRANCH  34  35
ATOM     35  O   UNL     1       1.374  10.347   2.276  1.00  0.00    -0.460 OA
BRANCH  35  36
ATOM     36  C   UNL     1       1.182  11.642   2.625  1.00  0.00     0.338 C 
ATOM     37  O   UNL     1       1.592  12.214   3.624  1.00  0.00    -0.246 OA
BRANCH  36  38
ATOM     38  C   UNL     1       0.545  12.350   1.505  1.00  0.00     0.060 A 
ATOM     39  C   UNL     1       1.233  13.431   0.938  1.00  0.00     0.016 A 
ATOM     40  C   UNL     1      -0.712  11.973   1.031  1.00  0.00     0.016 A 
ATOM     41  C   UNL     1       0.661  14.147  -0.108  1.00  0.00     0.010 A 
ATOM     42  C   UNL     1      -1.293  12.705  -0.006  1.00  0.00     0.010 A 
ATOM     43  C   UNL     1      -0.616  13.802  -0.568  1.00  0.00    -0.014 A 
BRANCH  43  44
ATOM     44  C   UNL     1      -1.291  14.646  -1.578  1.00  0.00     0.031 A 
ATOM     45  C   UNL     1      -2.334  15.627  -1.134  1.00  0.00     0.074 A 
ATOM     46  C   UNL     1      -0.974  14.528  -2.879  1.00  0.00     0.049 A 
ATOM     47  N   UNL     1      -3.102  16.403  -1.853  1.00  0.00    -0.248 NA
ATOM     48  C   UNL     1      -2.542  15.744   0.317  1.00  0.00     0.031 C 
ATOM     49  C   UNL     1       0.056  13.643  -3.419  1.00  0.00     0.029 A 
ATOM     50  N   UNL     1      -1.500  15.149  -3.982  1.00  0.00    -0.354 N 
ATOM     51  C   UNL     1      -3.889  17.098  -0.944  1.00  0.00     0.074 A 
ATOM     52  C   UNL     1      -3.528  16.626   0.376  1.00  0.00     0.031 C 
ATOM     53  C   UNL     1       0.081  13.772  -4.756  1.00  0.00     0.029 A 
ATOM     54  C   UNL     1      -0.959  14.713  -5.165  1.00  0.00     0.049 A 
ATOM     55  H   UNL     1      -2.198  15.842  -3.930  1.00  0.00     0.167 HD
ATOM     56  C   UNL     1      -4.822  18.048  -1.191  1.00  0.00     0.037 A 
ATOM     57  C   UNL     1      -1.289  15.019  -6.434  1.00  0.00     0.037 A 
ATOM     58  C   UNL     1      -5.183  18.498  -2.510  1.00  0.00     0.049 A 
ATOM     59  C   UNL     1      -2.406  15.994  -6.689  1.00  0.00     0.074 A 
ATOM     60  C   UNL     1      -6.101  19.469  -2.870  1.00  0.00     0.029 A 
ATOM     61  N   UNL     1      -4.655  17.991  -3.690  1.00  0.00    -0.354 N 
ATOM     62  N   UNL     1      -3.128  16.669  -5.826  1.00  0.00    -0.248 NA
ATOM     63  C   UNL     1      -2.761  16.243  -8.093  1.00  0.00     0.031 C 
ATOM     64  C   UNL     1      -6.174  19.504  -4.267  1.00  0.00     0.029 A 
ATOM     65  C   UNL     1      -5.258  18.598  -4.779  1.00  0.00     0.049 A 
ATOM     66  H   UNL     1      -3.954  17.302  -3.744  1.00  0.00     0.167 HD
ATOM     67  C   UNL     1      -4.005  17.438  -6.580  1.00  0.00     0.074 A 
ATOM     68  C   UNL     1      -3.715  17.156  -7.972  1.00  0.00     0.031 C 
ATOM     69  C   UNL     1      -4.964  18.300  -6.160  1.00  0.00     0.037 A 
BRANCH  56  70
ATOM     70  C   UNL     1      -5.541  18.628  -0.007  1.00  0.00     0.057 A 
ATOM     71  C   UNL     1      -4.896  19.452   0.926  1.00  0.00     0.134 A 
ATOM     72  C   UNL     1      -6.900  18.360   0.203  1.00  0.00     0.134 A 
ATOM     73  F   UNL     1      -3.592  19.739   0.793  1.00  0.00    -0.206 F 
ATOM     74  C   UNL     1      -5.567  19.957   2.042  1.00  0.00     0.040 A 
ATOM     75  C   UNL     1      -7.588  18.883   1.298  1.00  0.00     0.040 A 
ATOM     76  F   UNL     1      -7.582  17.583  -0.653  1.00  0.00    -0.206 F 
ATOM     77  C   UNL     1      -6.919  19.676   2.228  1.00  0.00     0.006 A 
ENDBRANCH  56  70
BRANCH  57  78
ATOM     78  C   UNL     1      -0.558  14.384  -7.559  1.00  0.00     0.057 A 
ATOM     79  C   UNL     1       0.293  15.134  -8.379  1.00  0.00     0.134 A 
ATOM     80  C   UNL     1      -0.683  13.017  -7.837  1.00  0.00     0.134 A 
ATOM     81  F   UNL     1       0.437  16.451  -8.176  1.00  0.00    -0.206 F 
ATOM     82  C   UNL     1       0.988  14.549  -9.438  1.00  0.00     0.040 A 
ATOM     83  C   UNL     1       0.025  12.415  -8.877  1.00  0.00     0.040 A 
ATOM     84  F   UNL     1      -1.482  12.244  -7.087  1.00  0.00    -0.206 F 
ATOM     85  C   UNL     1       0.861  13.183  -9.684  1.00  0.00     0.006 A 
ENDBRANCH  57  78
BRANCH  69  86
ATOM     86  C   UNL     1      -5.759  19.016  -7.214  1.00  0.00     0.057 A 
ATOM     87  C   UNL     1      -6.717  18.354  -7.992  1.00  0.00     0.134 A 
ATOM     88  C   UNL     1      -5.600  20.393  -7.419  1.00  0.00     0.134 A 
ATOM     89  F   UNL     1      -6.910  17.034  -7.857  1.00  0.00    -0.206 F 
ATOM     90  C   UNL     1      -7.477  19.033  -8.947  1.00  0.00     0.040 A 
ATOM     91  C   UNL     1      -6.373  21.088  -8.350  1.00  0.00     0.040 A 
ATOM     92  F   UNL     1      -4.705  21.089  -6.702  1.00  0.00    -0.206 F 
ATOM     93  C   UNL     1      -7.312  20.406  -9.121  1.00  0.00     0.006 A 
ENDBRANCH  69  86
ENDBRANCH  43  44
ENDBRANCH  36  38
ENDBRANCH  35  36
ENDBRANCH  34  35
ENDBRANCH  33  34
ENDBRANCH   1  33
TORSDOF 18
