REMARK SMILES COc1ccc(CCN2/C(=[NH+]/C(=O)CCC(=O)OCCOCCOC(=O)c3ccc(-c4c5nc(c(-c6c(F)cccc6F)c6ccc([nH]6)c(-c6c(F)cccc6F)c6nc(c(-c7c(F)cccc7F)c7ccc4[nH]7)C=C6)C=C5)cc3)S[C@@H]3CS(=O)(=O)C[C@@H]32)cc1
REMARK SMILES IDX 19 1 18 2 16 3 17 4 15 5 14 6 12 7 9 8 10 9 88 10 11 11
REMARK SMILES IDX 81 12 82 13 87 14 83 16 84 17 13 18 85 19 86 20 8 21 7 22
REMARK SMILES IDX 6 23 3 24 4 25 90 26 5 27 89 28 2 29 1 30 20 31 21 32 22 33
REMARK SMILES IDX 23 34 24 35 25 36 26 37 27 38 28 39 80 40 29 41 79 42 30 43
REMARK SMILES IDX 31 44 32 45 73 46 33 47 78 48 72 49 74 50 34 51 77 52 71 53
REMARK SMILES IDX 70 54 35 56 61 57 44 58 60 59 45 60 48 61 59 62 75 63 46 64
REMARK SMILES IDX 47 65 58 67 76 68 49 69 36 70 37 71 42 72 38 73 39 74 41 75
REMARK SMILES IDX 43 76 40 77 62 78 63 79 68 80 64 81 65 82 67 83 69 84 66 85
REMARK SMILES IDX 50 86 51 87 56 88 52 89 53 90 55 91 57 92 54 93
REMARK H PARENT 11 15 74 55 48 66
REMARK Flexibility Score: inf
ROOT
ATOM      1  C   UNL     1       2.646   7.809   7.289  1.00  0.00     0.261 C 
ENDROOT
BRANCH   1   2
ATOM      2  O   UNL     1       1.294   8.280   7.157  1.00  0.00    -0.463 OA
BRANCH   2   3
ATOM      3  C   UNL     1       0.915   9.366   7.872  1.00  0.00     0.306 C 
ATOM      4  O   UNL     1       1.606   9.958   8.688  1.00  0.00    -0.252 OA
BRANCH   3   5
ATOM      5  C   UNL     1      -0.487   9.790   7.494  1.00  0.00     0.135 C 
BRANCH   5   6
ATOM      6  C   UNL     1      -0.516  10.650   6.238  1.00  0.00     0.139 C 
BRANCH   6   7
ATOM      7  C   UNL     1      -0.548   9.913   4.900  1.00  0.00     0.308 C 
ATOM      8  N   UNL     1      -0.301   6.320   4.356  1.00  0.00    -0.251 N 
ATOM      9  C   UNL     1      -0.706   7.662   4.359  1.00  0.00     0.314 C 
ATOM     10  C   UNL     1      -1.354   5.378   3.941  1.00  0.00     0.206 C 
ATOM     11  N   UNL     1      -0.052   8.633   4.902  1.00  0.00    -0.205 N 
ATOM     12  S   UNL     1      -2.266   7.842   3.554  1.00  0.00    -0.030 SA
ATOM     13  C   UNL     1      -2.689   6.120   3.827  1.00  0.00     0.120 C 
ATOM     14  C   UNL     1      -1.518   4.161   4.837  1.00  0.00     0.187 C 
ATOM     15  H   UNL     1       0.818   8.453   5.325  1.00  0.00     0.316 HD
ATOM     16  C   UNL     1      -3.424   5.972   5.137  1.00  0.00     0.156 C 
ATOM     17  S   UNL     1      -3.125   4.285   5.567  1.00  0.00     0.155 S 
ATOM     18  O   UNL     1      -0.868  10.529   3.884  1.00  0.00    -0.247 OA
ATOM     19  O   UNL     1      -3.006   4.174   7.003  1.00  0.00    -0.229 OA
ATOM     20  O   UNL     1      -4.029   3.461   4.790  1.00  0.00    -0.229 OA
BRANCH   8  21
ATOM     21  C   UNL     1       1.071   6.035   3.844  1.00  0.00     0.242 C 
BRANCH  21  22
ATOM     22  C   UNL     1       1.791   4.751   4.309  1.00  0.00     0.081 C 
BRANCH  22  23
ATOM     23  C   UNL     1       2.047   3.679   3.251  1.00  0.00    -0.044 A 
ATOM     24  C   UNL     1       2.501   1.560   1.400  1.00  0.00     0.118 A 
ATOM     25  C   UNL     1       1.228   2.072   1.589  1.00  0.00     0.046 A 
ATOM     26  C   UNL     1       3.560   2.136   2.102  1.00  0.00     0.046 A 
ATOM     27  C   UNL     1       1.012   3.099   2.514  1.00  0.00     0.007 A 
ATOM     28  C   UNL     1       3.338   3.179   3.020  1.00  0.00     0.007 A 
BRANCH  24  29
ATOM     29  O   UNL     1       2.814   0.515   0.576  1.00  0.00    -0.497 OA
ATOM     30  C   UNL     1       1.716  -0.280   0.124  1.00  0.00     0.278 C 
ENDBRANCH  24  29
ENDBRANCH  22  23
ENDBRANCH  21  22
ENDBRANCH   8  21
ENDBRANCH   6   7
ENDBRANCH   5   6
ENDBRANCH   3   5
ENDBRANCH   2   3
ENDBRANCH   1   2
BRANCH   1  31
ATOM     31  C   UNL     1       3.511   8.207   6.083  1.00  0.00     0.202 C 
BRANCH  31  32
ATOM     32  O   UNL     1       4.006   9.543   6.145  1.00  0.00    -0.374 OA
BRANCH  32  33
ATOM     33  C   UNL     1       3.148  10.523   5.559  1.00  0.00     0.202 C 
BRANCH  33  34
ATOM     34  C   UNL     1       3.422  10.784   4.074  1.00  0.00     0.261 C 
BRANCH  34  35
ATOM     35  O   UNL     1       2.728   9.836   3.229  1.00  0.00    -0.460 OA
BRANCH  35  36
ATOM     36  C   UNL     1       3.501   9.056   2.439  1.00  0.00     0.338 C 
ATOM     37  O   UNL     1       4.722   9.015   2.432  1.00  0.00    -0.246 OA
BRANCH  36  38
ATOM     38  C   UNL     1       2.674   8.143   1.603  1.00  0.00     0.060 A 
ATOM     39  C   UNL     1       3.222   6.897   1.276  1.00  0.00     0.016 A 
ATOM     40  C   UNL     1       1.395   8.472   1.130  1.00  0.00     0.016 A 
ATOM     41  C   UNL     1       2.490   5.981   0.511  1.00  0.00     0.010 A 
ATOM     42  C   UNL     1       0.680   7.565   0.320  1.00  0.00     0.010 A 
ATOM     43  C   UNL     1       1.215   6.306   0.004  1.00  0.00    -0.014 A 
BRANCH  43  44
ATOM     44  C   UNL     1       0.557   5.341  -0.933  1.00  0.00     0.031 A 
ATOM     45  C   UNL     1       1.191   5.105  -2.268  1.00  0.00     0.074 A 
ATOM     46  C   UNL     1      -0.553   4.638  -0.626  1.00  0.00     0.049 A 
ATOM     47  N   UNL     1       0.843   4.263  -3.204  1.00  0.00    -0.248 NA
ATOM     48  C   UNL     1       2.317   5.983  -2.620  1.00  0.00     0.031 C 
ATOM     49  C   UNL     1      -1.378   4.874   0.539  1.00  0.00     0.029 A 
ATOM     50  N   UNL     1      -1.158   3.554  -1.224  1.00  0.00    -0.354 N 
ATOM     51  C   UNL     1       1.645   4.573  -4.289  1.00  0.00     0.074 A 
ATOM     52  C   UNL     1       2.562   5.609  -3.865  1.00  0.00     0.031 C 
ATOM     53  C   UNL     1      -2.240   3.855   0.701  1.00  0.00     0.029 A 
ATOM     54  C   UNL     1      -2.116   2.949  -0.433  1.00  0.00     0.049 A 
ATOM     55  H   UNL     1      -0.929   3.240  -2.128  1.00  0.00     0.167 HD
ATOM     56  C   UNL     1       1.553   4.109  -5.555  1.00  0.00     0.037 A 
ATOM     57  C   UNL     1      -2.815   1.806  -0.609  1.00  0.00     0.037 A 
ATOM     58  C   UNL     1       0.597   3.131  -5.992  1.00  0.00     0.049 A 
ATOM     59  C   UNL     1      -2.758   1.159  -1.967  1.00  0.00     0.074 A 
ATOM     60  C   UNL     1       0.364   2.664  -7.272  1.00  0.00     0.029 A 
ATOM     61  N   UNL     1      -0.295   2.476  -5.156  1.00  0.00    -0.354 N 
ATOM     62  N   UNL     1      -2.005   1.475  -2.991  1.00  0.00    -0.248 NA
ATOM     63  C   UNL     1      -3.712   0.070  -2.235  1.00  0.00     0.031 C 
ATOM     64  C   UNL     1      -0.687   1.743  -7.215  1.00  0.00     0.029 A 
ATOM     65  C   UNL     1      -1.075   1.602  -5.892  1.00  0.00     0.049 A 
ATOM     66  H   UNL     1      -0.363   2.613  -4.183  1.00  0.00     0.167 HD
ATOM     67  C   UNL     1      -2.441   0.679  -4.040  1.00  0.00     0.074 A 
ATOM     68  C   UNL     1      -3.458  -0.203  -3.508  1.00  0.00     0.031 C 
ATOM     69  C   UNL     1      -2.074   0.724  -5.342  1.00  0.00     0.037 A 
BRANCH  56  70
ATOM     70  C   UNL     1       2.424   4.786  -6.564  1.00  0.00     0.057 A 
ATOM     71  C   UNL     1       3.802   4.554  -6.635  1.00  0.00     0.134 A 
ATOM     72  C   UNL     1       1.877   5.750  -7.420  1.00  0.00     0.134 A 
ATOM     73  F   UNL     1       4.387   3.675  -5.808  1.00  0.00    -0.206 F 
ATOM     74  C   UNL     1       4.612   5.281  -7.508  1.00  0.00     0.040 A 
ATOM     75  C   UNL     1       2.673   6.465  -8.312  1.00  0.00     0.040 A 
ATOM     76  F   UNL     1       0.565   6.029  -7.382  1.00  0.00    -0.206 F 
ATOM     77  C   UNL     1       4.047   6.238  -8.350  1.00  0.00     0.006 A 
ENDBRANCH  56  70
BRANCH  57  78
ATOM     78  C   UNL     1      -3.661   1.202   0.464  1.00  0.00     0.057 A 
ATOM     79  C   UNL     1      -3.372  -0.085   0.948  1.00  0.00     0.134 A 
ATOM     80  C   UNL     1      -4.794   1.832   0.991  1.00  0.00     0.134 A 
ATOM     81  F   UNL     1      -2.315  -0.761   0.470  1.00  0.00    -0.206 F 
ATOM     82  C   UNL     1      -4.181  -0.724   1.892  1.00  0.00     0.040 A 
ATOM     83  C   UNL     1      -5.590   1.222   1.966  1.00  0.00     0.040 A 
ATOM     84  F   UNL     1      -5.148   3.054   0.568  1.00  0.00    -0.206 F 
ATOM     85  C   UNL     1      -5.292  -0.064   2.410  1.00  0.00     0.006 A 
ENDBRANCH  57  78
BRANCH  69  86
ATOM     86  C   UNL     1      -2.781  -0.195  -6.289  1.00  0.00     0.057 A 
ATOM     87  C   UNL     1      -4.083   0.073  -6.732  1.00  0.00     0.134 A 
ATOM     88  C   UNL     1      -2.124  -1.306  -6.827  1.00  0.00     0.134 A 
ATOM     89  F   UNL     1      -4.766   1.119  -6.243  1.00  0.00    -0.206 F 
ATOM     90  C   UNL     1      -4.708  -0.736  -7.680  1.00  0.00     0.040 A 
ATOM     91  C   UNL     1      -2.732  -2.112  -7.789  1.00  0.00     0.040 A 
ATOM     92  F   UNL     1      -0.875  -1.609  -6.442  1.00  0.00    -0.206 F 
ATOM     93  C   UNL     1      -4.027  -1.827  -8.219  1.00  0.00     0.006 A 
ENDBRANCH  69  86
ENDBRANCH  43  44
ENDBRANCH  36  38
ENDBRANCH  35  36
ENDBRANCH  34  35
ENDBRANCH  33  34
ENDBRANCH  32  33
ENDBRANCH  31  32
ENDBRANCH   1  31
TORSDOF 20
