REMARK SMILES O=C(N/N=C/c1ccc(C(=O)OCCOCCOC(=O)c2ccc(-c3c4nc(c(-c5c(F)cccc5F)c5ccc([nH]5)c(-c5c(F)cccc5F)c5nc(c(-c6c(F)cccc6F)c6ccc3[nH]6)C=C5)C=C4)cc2)cc1)C(=O)Nc1ccc2c(c1)OCO2
REMARK SMILES IDX 14 1 13 2 12 3 10 4 11 5 9 6 6 7 7 8 76 9 8 10 75 11 5 12
REMARK SMILES IDX 4 13 3 14 1 15 2 16 77 18 78 19 79 20 80 22 81 23 85 24
REMARK SMILES IDX 82 25 84 26 83 27 86 28 88 29 87 30 15 31 16 32 17 33 18 34
REMARK SMILES IDX 19 35 20 36 21 37 22 38 74 39 23 40 73 41 24 42 25 43 26 44
REMARK SMILES IDX 67 45 27 46 72 47 66 48 68 49 28 50 71 51 65 52 64 53 29 55
REMARK SMILES IDX 55 56 38 57 54 58 39 59 42 60 53 61 69 62 40 63 41 64 52 66
REMARK SMILES IDX 70 67 43 68 30 69 31 70 36 71 32 72 33 73 35 74 37 75 34 76
REMARK SMILES IDX 56 77 57 78 62 79 58 80 59 81 61 82 63 83 60 84 44 85 45 86
REMARK SMILES IDX 50 87 46 88 47 89 49 90 51 91 48 92
REMARK H PARENT 3 17 79 21 68 54 42 65
REMARK Flexibility Score: inf
ROOT
ATOM      1  C   UNL     1      13.832   0.947   0.843  1.00  0.00     0.202 C 
ENDROOT
BRANCH   1   2
ATOM      2  C   UNL     1      13.371   0.478  -0.539  1.00  0.00     0.261 C 
BRANCH   2   3
ATOM      3  O   UNL     1      11.973   0.752  -0.719  1.00  0.00    -0.460 OA
BRANCH   3   4
ATOM      4  C   UNL     1      11.181  -0.345  -0.718  1.00  0.00     0.338 C 
ATOM      5  O   UNL     1      11.540  -1.510  -0.756  1.00  0.00    -0.246 OA
BRANCH   4   6
ATOM      6  C   UNL     1       9.770   0.037  -0.502  1.00  0.00     0.060 A 
ATOM      7  C   UNL     1       6.717   0.404  -0.478  1.00  0.00    -0.005 A 
ATOM      8  C   UNL     1       7.554  -0.629   0.242  1.00  0.00     0.010 A 
ATOM      9  C   UNL     1       7.804   1.402  -0.861  1.00  0.00     0.010 A 
ATOM     10  C   UNL     1       8.955  -0.836   0.182  1.00  0.00     0.016 A 
ATOM     11  C   UNL     1       9.217   1.227  -0.906  1.00  0.00     0.016 A 
BRANCH   7  12
ATOM     12  C   UNL     1       4.640   0.343  -0.963  1.00  0.00     0.141 C 
ATOM     13  N   UNL     1       3.504   1.071  -0.668  1.00  0.00    -0.180 NA
BRANCH  13  14
ATOM     14  N   UNL     1       2.372   0.330  -0.722  1.00  0.00    -0.239 N 
ATOM     15  O   UNL     1       1.050  -1.331   0.089  1.00  0.00    -0.262 OA
ATOM     16  C   UNL     1       2.032  -0.608   0.246  1.00  0.00     0.329 C 
ATOM     17  H   UNL     1       1.761   0.461  -1.483  1.00  0.00     0.194 HD
BRANCH  16  18
ATOM     18  C   UNL     1       2.807  -0.686   1.590  1.00  0.00     0.315 C 
ATOM     19  O   UNL     1       2.165  -0.586   2.637  1.00  0.00    -0.263 OA
ATOM     20  N   UNL     1       4.169  -0.991   1.672  1.00  0.00    -0.318 N 
ATOM     21  H   UNL     1       4.474  -1.612   2.371  1.00  0.00     0.170 HD
BRANCH  20  22
ATOM     22  C   UNL     1       5.118  -0.443   0.793  1.00  0.00     0.045 A 
ATOM     23  C   UNL     1       5.530  -1.445  -0.702  1.00  0.00     0.030 A 
ATOM     24  C   UNL     1       5.221   1.385   0.745  1.00  0.00     0.076 A 
ATOM     25  C   UNL     1       5.962  -0.587  -2.267  1.00  0.00     0.053 A 
ATOM     26  C   UNL     1       5.498   2.181  -0.858  1.00  0.00     0.167 A 
ATOM     27  C   UNL     1       5.838   1.206  -2.330  1.00  0.00     0.165 A 
ATOM     28  O   UNL     1       5.293   3.453  -1.286  1.00  0.00    -0.454 OA
ATOM     29  O   UNL     1       5.821   2.070  -3.372  1.00  0.00    -0.454 OA
ATOM     30  C   UNL     1       5.213   3.268  -2.751  1.00  0.00     0.468 C 
ENDBRANCH  20  22
ENDBRANCH  16  18
ENDBRANCH  13  14
ENDBRANCH   7  12
ENDBRANCH   4   6
ENDBRANCH   3   4
ENDBRANCH   2   3
ENDBRANCH   1   2
BRANCH   1  31
ATOM     31  O   UNL     1      13.333   0.222   1.966  1.00  0.00    -0.374 OA
BRANCH  31  32
ATOM     32  C   UNL     1      12.004   0.502   2.404  1.00  0.00     0.202 C 
BRANCH  32  33
ATOM     33  C   UNL     1      11.787   1.782   3.218  1.00  0.00     0.261 C 
BRANCH  33  34
ATOM     34  O   UNL     1      12.001   2.967   2.432  1.00  0.00    -0.460 OA
BRANCH  34  35
ATOM     35  C   UNL     1      13.136   3.642   2.731  1.00  0.00     0.338 C 
ATOM     36  O   UNL     1      13.938   3.393   3.614  1.00  0.00    -0.246 OA
BRANCH  35  37
ATOM     37  C   UNL     1      13.395   4.659   1.696  1.00  0.00     0.060 A 
ATOM     38  C   UNL     1      14.628   4.609   1.033  1.00  0.00     0.016 A 
ATOM     39  C   UNL     1      12.489   5.689   1.442  1.00  0.00     0.016 A 
ATOM     40  C   UNL     1      14.984   5.620   0.146  1.00  0.00     0.010 A 
ATOM     41  C   UNL     1      12.853   6.712   0.562  1.00  0.00     0.010 A 
ATOM     42  C   UNL     1      14.116   6.700  -0.058  1.00  0.00    -0.014 A 
BRANCH  42  43
ATOM     43  C   UNL     1      14.601   7.898  -0.783  1.00  0.00     0.031 A 
ATOM     44  C   UNL     1      15.063   9.086   0.013  1.00  0.00     0.074 A 
ATOM     45  C   UNL     1      14.654   7.917  -2.126  1.00  0.00     0.049 A 
ATOM     46  N   UNL     1      15.468  10.258  -0.402  1.00  0.00    -0.248 NA
ATOM     47  C   UNL     1      15.067   8.930   1.477  1.00  0.00     0.031 C 
ATOM     48  C   UNL     1      14.285   6.808  -3.003  1.00  0.00     0.029 A 
ATOM     49  N   UNL     1      15.035   8.916  -2.985  1.00  0.00    -0.354 N 
ATOM     50  C   UNL     1      15.766  10.981   0.747  1.00  0.00     0.074 A 
ATOM     51  C   UNL     1      15.466  10.128   1.876  1.00  0.00     0.031 C 
ATOM     52  C   UNL     1      14.447   7.192  -4.280  1.00  0.00     0.029 A 
ATOM     53  C   UNL     1      14.895   8.583  -4.309  1.00  0.00     0.049 A 
ATOM     54  H   UNL     1      15.376   9.788  -2.681  1.00  0.00     0.167 HD
ATOM     55  C   UNL     1      16.253  12.240   0.850  1.00  0.00     0.037 A 
ATOM     56  C   UNL     1      15.086   9.328  -5.415  1.00  0.00     0.037 A 
ATOM     57  C   UNL     1      16.549  13.085  -0.277  1.00  0.00     0.049 A 
ATOM     58  C   UNL     1      15.547  10.754  -5.273  1.00  0.00     0.074 A 
ATOM     59  C   UNL     1      17.051  14.375  -0.281  1.00  0.00     0.029 A 
ATOM     60  N   UNL     1      16.361  12.725  -1.603  1.00  0.00    -0.354 N 
ATOM     61  N   UNL     1      15.836  11.427  -4.185  1.00  0.00    -0.248 NA
ATOM     62  C   UNL     1      15.708  11.525  -6.514  1.00  0.00     0.031 C 
ATOM     63  C   UNL     1      17.122  14.812  -1.607  1.00  0.00     0.029 A 
ATOM     64  C   UNL     1      16.716  13.775  -2.433  1.00  0.00     0.049 A 
ATOM     65  H   UNL     1      16.026  11.851  -1.909  1.00  0.00     0.167 HD
ATOM     66  C   UNL     1      16.247  12.685  -4.611  1.00  0.00     0.074 A 
ATOM     67  C   UNL     1      16.174  12.679  -6.057  1.00  0.00     0.031 C 
ATOM     68  C   UNL     1      16.652  13.747  -3.872  1.00  0.00     0.037 A 
BRANCH  55  69
ATOM     69  C   UNL     1      16.469  12.786   2.231  1.00  0.00     0.057 A 
ATOM     70  C   UNL     1      17.497  12.319   3.061  1.00  0.00     0.134 A 
ATOM     71  C   UNL     1      15.649  13.806   2.731  1.00  0.00     0.134 A 
ATOM     72  F   UNL     1      18.308  11.333   2.650  1.00  0.00    -0.206 F 
ATOM     73  C   UNL     1      17.685  12.829   4.347  1.00  0.00     0.040 A 
ATOM     74  C   UNL     1      15.844  14.342   4.004  1.00  0.00     0.040 A 
ATOM     75  F   UNL     1      14.648  14.300   1.987  1.00  0.00    -0.206 F 
ATOM     76  C   UNL     1      16.860  13.849   4.819  1.00  0.00     0.006 A 
ENDBRANCH  55  69
BRANCH  56  77
ATOM     77  C   UNL     1      14.831   8.746  -6.757  1.00  0.00     0.057 A 
ATOM     78  C   UNL     1      15.878   8.505  -7.653  1.00  0.00     0.134 A 
ATOM     79  C   UNL     1      13.533   8.436  -7.183  1.00  0.00     0.134 A 
ATOM     80  F   UNL     1      17.140   8.803  -7.311  1.00  0.00    -0.206 F 
ATOM     81  C   UNL     1      15.645   7.995  -8.931  1.00  0.00     0.040 A 
ATOM     82  C   UNL     1      13.287   7.901  -8.449  1.00  0.00     0.040 A 
ATOM     83  F   UNL     1      12.486   8.641  -6.372  1.00  0.00    -0.206 F 
ATOM     84  C   UNL     1      14.345   7.686  -9.330  1.00  0.00     0.006 A 
ENDBRANCH  56  77
BRANCH  68  85
ATOM     85  C   UNL     1      17.099  14.974  -4.613  1.00  0.00     0.057 A 
ATOM     86  C   UNL     1      16.194  15.818  -5.267  1.00  0.00     0.134 A 
ATOM     87  C   UNL     1      18.452  15.340  -4.627  1.00  0.00     0.134 A 
ATOM     88  F   UNL     1      14.887  15.518  -5.302  1.00  0.00    -0.206 F 
ATOM     89  C   UNL     1      16.620  16.972  -5.927  1.00  0.00     0.040 A 
ATOM     90  C   UNL     1      18.886  16.506  -5.259  1.00  0.00     0.040 A 
ATOM     91  F   UNL     1      19.370  14.581  -4.010  1.00  0.00    -0.206 F 
ATOM     92  C   UNL     1      17.970  17.323  -5.916  1.00  0.00     0.006 A 
ENDBRANCH  68  85
ENDBRANCH  42  43
ENDBRANCH  35  37
ENDBRANCH  34  35
ENDBRANCH  33  34
ENDBRANCH  32  33
ENDBRANCH  31  32
ENDBRANCH   1  31
TORSDOF 18
