REMARK SMILES CS(=O)(=O)c1ccc(/C=C(/C(=O)OCCOCCOC(=O)c2ccc(-c3c4nc(c(-c5c(F)cccc5F)c5ccc([nH]5)c(-c5c(F)cccc5F)c5nc(c(-c6c(F)cccc6F)c6ccc3[nH]6)C=C5)C=C4)cc2)c2ccccc2)cc1
REMARK SMILES IDX 16 1 15 2 14 3 13 4 11 5 12 6 10 7 9 8 8 9 5 10 6 11 83 12
REMARK SMILES IDX 7 13 82 14 2 15 1 16 3 17 4 18 76 19 77 20 81 21 78 22 80 23
REMARK SMILES IDX 79 24 17 25 18 26 19 27 20 28 21 29 22 30 23 31 75 32 24 33
REMARK SMILES IDX 74 34 25 35 26 36 27 37 68 38 28 39 73 40 67 41 69 42 29 43
REMARK SMILES IDX 72 44 66 45 65 46 30 48 56 49 39 50 55 51 40 52 43 53 54 54
REMARK SMILES IDX 70 55 41 56 42 57 53 59 71 60 44 61 31 62 32 63 37 64 33 65
REMARK SMILES IDX 34 66 36 67 38 68 35 69 57 70 58 71 63 72 59 73 60 74 62 75
REMARK SMILES IDX 64 76 61 77 45 78 46 79 51 80 47 81 48 82 50 83 52 84 49 85
REMARK H PARENT 69 47 43 58
REMARK Flexibility Score: inf
ROOT
ATOM      1  O   UNL     1       5.156   7.434  -7.888  1.00  0.00    -0.374 OA
ENDROOT
BRANCH   1   2
ATOM      2  C   UNL     1       3.878   8.071  -7.883  1.00  0.00     0.202 C 
BRANCH   2   3
ATOM      3  C   UNL     1       2.659   7.190  -8.171  1.00  0.00     0.261 C 
BRANCH   3   4
ATOM      4  O   UNL     1       2.467   6.211  -7.134  1.00  0.00    -0.460 OA
BRANCH   4   5
ATOM      5  C   UNL     1       2.474   4.923  -7.564  1.00  0.00     0.338 C 
ATOM      6  O   UNL     1       2.455   4.567  -8.734  1.00  0.00    -0.246 OA
BRANCH   5   7
ATOM      7  C   UNL     1       2.624   3.952  -6.431  1.00  0.00     0.067 C 
ATOM      8  C   UNL     1       1.991   4.181  -5.256  1.00  0.00     0.024 C 
BRANCH   8   9
ATOM      9  C   UNL     1       1.764   3.231  -4.137  1.00  0.00    -0.025 A 
ATOM     10  C   UNL     1       0.934   1.206  -2.375  1.00  0.00     0.067 A 
ATOM     11  C   UNL     1       2.195   1.138  -2.962  1.00  0.00     0.021 A 
ATOM     12  C   UNL     1       0.124   2.323  -2.571  1.00  0.00     0.021 A 
ATOM     13  C   UNL     1       2.620   2.171  -3.803  1.00  0.00     0.009 A 
ATOM     14  C   UNL     1       0.545   3.332  -3.445  1.00  0.00     0.009 A 
BRANCH  10  15
ATOM     15  S   UNL     1       0.295  -0.214  -1.517  1.00  0.00     0.175 S 
ATOM     16  C   UNL     1       0.988  -0.082   0.105  1.00  0.00     0.163 C 
ATOM     17  O   UNL     1       0.860  -1.390  -2.155  1.00  0.00    -0.224 OA
ATOM     18  O   UNL     1      -1.140  -0.050  -1.407  1.00  0.00    -0.224 OA
ENDBRANCH  10  15
ENDBRANCH   8   9
BRANCH   7  19
ATOM     19  C   UNL     1       3.400   2.733  -6.730  1.00  0.00    -0.011 A 
ATOM     20  C   UNL     1       4.802   2.770  -6.642  1.00  0.00     0.009 A 
ATOM     21  C   UNL     1       2.767   1.534  -7.071  1.00  0.00     0.009 A 
ATOM     22  C   UNL     1       5.556   1.621  -6.873  1.00  0.00     0.001 A 
ATOM     23  C   UNL     1       3.525   0.384  -7.294  1.00  0.00     0.001 A 
ATOM     24  C   UNL     1       4.916   0.427  -7.194  1.00  0.00     0.000 A 
ENDBRANCH   7  19
ENDBRANCH   5   7
ENDBRANCH   4   5
ENDBRANCH   3   4
ENDBRANCH   2   3
ENDBRANCH   1   2
BRANCH   1  25
ATOM     25  C   UNL     1       5.467   6.574  -6.796  1.00  0.00     0.202 C 
BRANCH  25  26
ATOM     26  C   UNL     1       5.908   7.226  -5.480  1.00  0.00     0.261 C 
BRANCH  26  27
ATOM     27  O   UNL     1       4.970   8.197  -4.996  1.00  0.00    -0.460 OA
BRANCH  27  28
ATOM     28  C   UNL     1       5.358   9.480  -5.175  1.00  0.00     0.338 C 
ATOM     29  O   UNL     1       6.437   9.880  -5.598  1.00  0.00    -0.246 OA
BRANCH  28  30
ATOM     30  C   UNL     1       4.219  10.384  -4.949  1.00  0.00     0.060 A 
ATOM     31  C   UNL     1       3.900  11.285  -5.972  1.00  0.00     0.016 A 
ATOM     32  C   UNL     1       3.509  10.389  -3.746  1.00  0.00     0.016 A 
ATOM     33  C   UNL     1       2.896  12.229  -5.780  1.00  0.00     0.010 A 
ATOM     34  C   UNL     1       2.507  11.344  -3.551  1.00  0.00     0.010 A 
ATOM     35  C   UNL     1       2.219  12.287  -4.555  1.00  0.00    -0.014 A 
BRANCH  35  36
ATOM     36  C   UNL     1       1.303  13.420  -4.288  1.00  0.00     0.031 A 
ATOM     37  C   UNL     1       1.796  14.586  -3.480  1.00  0.00     0.074 A 
ATOM     38  C   UNL     1       0.057  13.422  -4.794  1.00  0.00     0.049 A 
ATOM     39  N   UNL     1       1.168  15.681  -3.135  1.00  0.00    -0.248 NA
ATOM     40  C   UNL     1       3.183  14.507  -2.994  1.00  0.00     0.031 C 
ATOM     41  C   UNL     1      -0.523  12.360  -5.613  1.00  0.00     0.029 A 
ATOM     42  N   UNL     1      -0.944  14.353  -4.687  1.00  0.00    -0.354 N 
ATOM     43  C   UNL     1       2.079  16.418  -2.390  1.00  0.00     0.074 A 
ATOM     44  C   UNL     1       3.291  15.633  -2.305  1.00  0.00     0.031 C 
ATOM     45  C   UNL     1      -1.785  12.695  -5.929  1.00  0.00     0.029 A 
ATOM     46  C   UNL     1      -2.107  13.982  -5.314  1.00  0.00     0.049 A 
ATOM     47  H   UNL     1      -0.839  15.206  -4.207  1.00  0.00     0.167 HD
ATOM     48  C   UNL     1       1.921  17.644  -1.835  1.00  0.00     0.037 A 
ATOM     49  C   UNL     1      -3.300  14.603  -5.370  1.00  0.00     0.037 A 
ATOM     50  C   UNL     1       0.713  18.422  -1.923  1.00  0.00     0.049 A 
ATOM     51  C   UNL     1      -3.469  15.940  -4.700  1.00  0.00     0.074 A 
ATOM     52  C   UNL     1       0.466  19.690  -1.426  1.00  0.00     0.029 A 
ATOM     53  N   UNL     1      -0.455  18.000  -2.541  1.00  0.00    -0.354 N 
ATOM     54  N   UNL     1      -2.589  16.648  -4.033  1.00  0.00    -0.248 NA
ATOM     55  C   UNL     1      -4.795  16.566  -4.794  1.00  0.00     0.031 C 
ATOM     56  C   UNL     1      -0.868  20.013  -1.698  1.00  0.00     0.029 A 
ATOM     57  C   UNL     1      -1.436  18.969  -2.410  1.00  0.00     0.049 A 
ATOM     58  H   UNL     1      -0.569  17.139  -3.005  1.00  0.00     0.167 HD
ATOM     59  C   UNL     1      -3.247  17.810  -3.648  1.00  0.00     0.074 A 
ATOM     60  C   UNL     1      -4.595  17.718  -4.170  1.00  0.00     0.031 C 
ATOM     61  C   UNL     1      -2.776  18.859  -2.930  1.00  0.00     0.037 A 
BRANCH  48  62
ATOM     62  C   UNL     1       3.076  18.203  -1.058  1.00  0.00     0.057 A 
ATOM     63  C   UNL     1       4.248  18.647  -1.686  1.00  0.00     0.134 A 
ATOM     64  C   UNL     1       3.007  18.320   0.336  1.00  0.00     0.134 A 
ATOM     65  F   UNL     1       4.385  18.549  -3.017  1.00  0.00    -0.206 F 
ATOM     66  C   UNL     1       5.318  19.163  -0.952  1.00  0.00     0.040 A 
ATOM     67  C   UNL     1       4.059  18.859   1.077  1.00  0.00     0.040 A 
ATOM     68  F   UNL     1       1.912  17.917   0.999  1.00  0.00    -0.206 F 
ATOM     69  C   UNL     1       5.222  19.276   0.433  1.00  0.00     0.006 A 
ENDBRANCH  48  62
BRANCH  49  70
ATOM     70  C   UNL     1      -4.433  13.961  -6.082  1.00  0.00     0.057 A 
ATOM     71  C   UNL     1      -4.924  14.479  -7.285  1.00  0.00     0.134 A 
ATOM     72  C   UNL     1      -5.052  12.813  -5.573  1.00  0.00     0.134 A 
ATOM     73  F   UNL     1      -4.386  15.590  -7.811  1.00  0.00    -0.206 F 
ATOM     74  C   UNL     1      -5.998  13.887  -7.951  1.00  0.00     0.040 A 
ATOM     75  C   UNL     1      -6.111  12.196  -6.240  1.00  0.00     0.040 A 
ATOM     76  F   UNL     1      -4.626  12.267  -4.425  1.00  0.00    -0.206 F 
ATOM     77  C   UNL     1      -6.591  12.737  -7.431  1.00  0.00     0.006 A 
ENDBRANCH  49  70
BRANCH  61  78
ATOM     78  C   UNL     1      -3.720  20.001  -2.683  1.00  0.00     0.057 A 
ATOM     79  C   UNL     1      -4.793  19.893  -1.789  1.00  0.00     0.134 A 
ATOM     80  C   UNL     1      -3.531  21.234  -3.321  1.00  0.00     0.134 A 
ATOM     81  F   UNL     1      -5.036  18.736  -1.155  1.00  0.00    -0.206 F 
ATOM     82  C   UNL     1      -5.658  20.964  -1.556  1.00  0.00     0.040 A 
ATOM     83  C   UNL     1      -4.373  22.319  -3.076  1.00  0.00     0.040 A 
ATOM     84  F   UNL     1      -2.517  21.408  -4.182  1.00  0.00    -0.206 F 
ATOM     85  C   UNL     1      -5.445  22.183  -2.196  1.00  0.00     0.006 A 
ENDBRANCH  61  78
ENDBRANCH  35  36
ENDBRANCH  28  30
ENDBRANCH  27  28
ENDBRANCH  26  27
ENDBRANCH  25  26
ENDBRANCH   1  25
TORSDOF 17
