REMARK SMILES C/C(=N\NC(N)=S)c1nnn(-c2ccc(C(=O)OCCOCCOC(=O)c3ccc(-c4c5nc(c(-c6c(F)cccc6F)c6ccc([nH]6)c(-c6c(F)cccc6F)c6nc(c(-c7c(F)cccc7F)c7ccc4[nH]7)C=C6)C=C5)cc3)cc2)c1C
REMARK SMILES IDX 19 1 18 2 16 3 17 4 15 5 12 6 13 7 82 8 14 9 81 10 11 11
REMARK SMILES IDX 8 12 9 13 83 14 10 15 84 16 2 17 1 18 3 19 4 20 5 22 7 23
REMARK SMILES IDX 6 24 20 27 21 28 22 29 23 30 24 31 25 32 26 33 27 34 28 35
REMARK SMILES IDX 80 36 29 37 79 38 30 39 31 40 32 41 73 42 33 43 78 44 72 45
REMARK SMILES IDX 74 46 34 47 77 48 71 49 70 50 35 52 61 53 44 54 60 55 45 56
REMARK SMILES IDX 48 57 59 58 75 59 46 60 47 61 58 63 76 64 49 65 36 66 37 67
REMARK SMILES IDX 42 68 38 69 39 70 41 71 43 72 40 73 62 74 63 75 68 76 64 77
REMARK SMILES IDX 65 78 67 79 69 80 66 81 50 82 51 83 56 84 52 85 53 86 55 87
REMARK SMILES IDX 57 88 54 89
REMARK H PARENT 4 21 6 25 6 26 74 51 48 62
REMARK Flexibility Score: inf
ROOT
ATOM      1  C   UNL     1       9.060   5.486   5.271  1.00  0.00     0.261 C 
ENDROOT
BRANCH   1   2
ATOM      2  O   UNL     1       7.844   5.364   4.518  1.00  0.00    -0.460 OA
BRANCH   2   3
ATOM      3  C   UNL     1       7.040   4.342   4.904  1.00  0.00     0.338 C 
ATOM      4  O   UNL     1       7.266   3.513   5.767  1.00  0.00    -0.246 OA
BRANCH   3   5
ATOM      5  C   UNL     1       5.736   4.433   4.211  1.00  0.00     0.060 A 
ATOM      6  C   UNL     1       3.333   4.158   2.865  1.00  0.00     0.067 A 
ATOM      7  C   UNL     1       3.370   3.895   4.239  1.00  0.00     0.029 A 
ATOM      8  C   UNL     1       4.442   4.697   2.201  1.00  0.00     0.029 A 
ATOM      9  C   UNL     1       4.590   4.009   4.904  1.00  0.00     0.018 A 
ATOM     10  C   UNL     1       5.647   4.848   2.880  1.00  0.00     0.018 A 
BRANCH   6  11
ATOM     11  N   UNL     1       2.260   3.643   2.108  1.00  0.00    -0.217 N 
ATOM     12  C   UNL     1       1.058   2.308   0.876  1.00  0.00     0.132 A 
ATOM     13  N   UNL     1       0.226   2.998   1.718  1.00  0.00    -0.128 NA
ATOM     14  C   UNL     1       2.364   2.695   1.101  1.00  0.00     0.071 A 
ATOM     15  N   UNL     1       0.974   3.757   2.508  1.00  0.00    -0.061 NA
ATOM     16  C   UNL     1       3.634   2.095   0.622  1.00  0.00     0.069 C 
BRANCH  12  17
ATOM     17  C   UNL     1       0.613   1.148   0.121  1.00  0.00     0.087 C 
ATOM     18  C   UNL     1       0.711  -0.161   0.855  1.00  0.00     0.071 C 
ATOM     19  N   UNL     1       0.169   1.391  -1.075  1.00  0.00    -0.176 NA
BRANCH  19  20
ATOM     20  N   UNL     1      -0.363   0.439  -1.896  1.00  0.00    -0.254 N 
ATOM     21  H   UNL     1      -1.279   0.628  -2.203  1.00  0.00     0.193 HD
BRANCH  20  22
ATOM     22  C   UNL     1       0.168  -0.744  -2.369  1.00  0.00     0.184 C 
ATOM     23  S   UNL     1       1.633  -1.467  -2.067  1.00  0.00    -0.040 S 
BRANCH  22  24
ATOM     24  N   UNL     1      -0.689  -1.376  -3.233  1.00  0.00    -0.375 N 
ATOM     25  H   UNL     1      -1.566  -0.977  -3.435  1.00  0.00     0.159 HD
ATOM     26  H   UNL     1      -0.428  -2.228  -3.650  1.00  0.00     0.159 HD
ENDBRANCH  22  24
ENDBRANCH  20  22
ENDBRANCH  19  20
ENDBRANCH  12  17
ENDBRANCH   6  11
ENDBRANCH   3   5
ENDBRANCH   2   3
ENDBRANCH   1   2
BRANCH   1  27
ATOM     27  C   UNL     1       9.054   6.707   6.192  1.00  0.00     0.202 C 
BRANCH  27  28
ATOM     28  O   UNL     1       8.101   6.741   7.253  1.00  0.00    -0.374 OA
BRANCH  28  29
ATOM     29  C   UNL     1       6.719   6.892   6.954  1.00  0.00     0.202 C 
BRANCH  29  30
ATOM     30  C   UNL     1       6.234   8.225   6.406  1.00  0.00     0.261 C 
BRANCH  30  31
ATOM     31  O   UNL     1       6.867   8.607   5.192  1.00  0.00    -0.460 OA
BRANCH  31  32
ATOM     32  C   UNL     1       7.781   9.592   5.363  1.00  0.00     0.338 C 
ATOM     33  O   UNL     1       8.406   9.847   6.375  1.00  0.00    -0.246 OA
BRANCH  32  34
ATOM     34  C   UNL     1       7.749  10.475   4.192  1.00  0.00     0.060 A 
ATOM     35  C   UNL     1       8.563  11.605   4.251  1.00  0.00     0.016 A 
ATOM     36  C   UNL     1       6.746  10.335   3.219  1.00  0.00     0.016 A 
ATOM     37  C   UNL     1       8.245  12.679   3.452  1.00  0.00     0.010 A 
ATOM     38  C   UNL     1       6.426  11.413   2.423  1.00  0.00     0.010 A 
ATOM     39  C   UNL     1       7.132  12.597   2.600  1.00  0.00    -0.014 A 
BRANCH  39  40
ATOM     40  C   UNL     1       6.873  13.731   1.738  1.00  0.00     0.031 A 
ATOM     41  C   UNL     1       7.934  13.866   0.721  1.00  0.00     0.074 A 
ATOM     42  C   UNL     1       5.802  14.541   1.822  1.00  0.00     0.049 A 
ATOM     43  N   UNL     1       8.934  14.679   0.774  1.00  0.00    -0.248 NA
ATOM     44  C   UNL     1       8.048  12.837  -0.323  1.00  0.00     0.031 C 
ATOM     45  C   UNL     1       4.588  14.363   2.618  1.00  0.00     0.029 A 
ATOM     46  N   UNL     1       5.555  15.696   1.140  1.00  0.00    -0.354 N 
ATOM     47  C   UNL     1       9.661  14.439  -0.381  1.00  0.00     0.074 A 
ATOM     48  C   UNL     1       9.213  13.169  -0.884  1.00  0.00     0.031 C 
ATOM     49  C   UNL     1       3.650  15.252   2.209  1.00  0.00     0.029 A 
ATOM     50  C   UNL     1       4.243  16.152   1.233  1.00  0.00     0.049 A 
ATOM     51  H   UNL     1       6.248  16.169   0.625  1.00  0.00     0.167 HD
ATOM     52  C   UNL     1      10.302  15.472  -0.989  1.00  0.00     0.037 A 
ATOM     53  C   UNL     1       3.697  17.177   0.529  1.00  0.00     0.037 A 
ATOM     54  C   UNL     1      10.442  16.588  -0.078  1.00  0.00     0.049 A 
ATOM     55  C   UNL     1       4.814  18.042   0.085  1.00  0.00     0.074 A 
ATOM     56  C   UNL     1      11.068  16.818   1.130  1.00  0.00     0.029 A 
ATOM     57  N   UNL     1       9.501  17.572  -0.224  1.00  0.00    -0.354 N 
ATOM     58  N   UNL     1       5.524  18.778   0.890  1.00  0.00    -0.248 NA
ATOM     59  C   UNL     1       5.407  17.793  -1.219  1.00  0.00     0.031 C 
ATOM     60  C   UNL     1      10.228  17.741   1.826  1.00  0.00     0.029 A 
ATOM     61  C   UNL     1       9.161  18.085   0.995  1.00  0.00     0.049 A 
ATOM     62  H   UNL     1       9.123  17.867  -1.084  1.00  0.00     0.167 HD
ATOM     63  C   UNL     1       6.813  18.681   0.397  1.00  0.00     0.074 A 
ATOM     64  C   UNL     1       6.654  18.205  -0.975  1.00  0.00     0.031 C 
ATOM     65  C   UNL     1       7.878  18.703   1.253  1.00  0.00     0.037 A 
BRANCH  52  66
ATOM     66  C   UNL     1      10.288  15.681  -2.491  1.00  0.00     0.057 A 
ATOM     67  C   UNL     1      11.002  16.773  -3.019  1.00  0.00     0.134 A 
ATOM     68  C   UNL     1       9.361  15.092  -3.378  1.00  0.00     0.134 A 
ATOM     69  F   UNL     1      11.897  17.434  -2.271  1.00  0.00    -0.206 F 
ATOM     70  C   UNL     1      10.746  17.291  -4.295  1.00  0.00     0.040 A 
ATOM     71  C   UNL     1       9.136  15.570  -4.671  1.00  0.00     0.040 A 
ATOM     72  F   UNL     1       8.543  14.097  -3.024  1.00  0.00    -0.206 F 
ATOM     73  C   UNL     1       9.804  16.694  -5.123  1.00  0.00     0.006 A 
ENDBRANCH  52  66
BRANCH  53  74
ATOM     74  C   UNL     1       2.334  17.338  -0.034  1.00  0.00     0.057 A 
ATOM     75  C   UNL     1       1.915  18.567  -0.573  1.00  0.00     0.134 A 
ATOM     76  C   UNL     1       1.537  16.227  -0.351  1.00  0.00     0.134 A 
ATOM     77  F   UNL     1       2.625  19.684  -0.359  1.00  0.00    -0.206 F 
ATOM     78  C   UNL     1       0.803  18.675  -1.419  1.00  0.00     0.040 A 
ATOM     79  C   UNL     1       0.420  16.322  -1.191  1.00  0.00     0.040 A 
ATOM     80  F   UNL     1       1.871  14.996   0.060  1.00  0.00    -0.206 F 
ATOM     81  C   UNL     1       0.061  17.545  -1.744  1.00  0.00     0.006 A 
ENDBRANCH  53  74
BRANCH  65  82
ATOM     82  C   UNL     1       7.643  19.257   2.632  1.00  0.00     0.057 A 
ATOM     83  C   UNL     1       6.774  18.707   3.587  1.00  0.00     0.134 A 
ATOM     84  C   UNL     1       8.406  20.361   3.033  1.00  0.00     0.134 A 
ATOM     85  F   UNL     1       6.067  17.599   3.330  1.00  0.00    -0.206 F 
ATOM     86  C   UNL     1       6.637  19.266   4.862  1.00  0.00     0.040 A 
ATOM     87  C   UNL     1       8.307  20.903   4.314  1.00  0.00     0.040 A 
ATOM     88  F   UNL     1       9.291  20.913   2.187  1.00  0.00    -0.206 F 
ATOM     89  C   UNL     1       7.409  20.364   5.231  1.00  0.00     0.006 A 
ENDBRANCH  65  82
ENDBRANCH  39  40
ENDBRANCH  32  34
ENDBRANCH  31  32
ENDBRANCH  30  31
ENDBRANCH  29  30
ENDBRANCH  28  29
ENDBRANCH  27  28
ENDBRANCH   1  27
TORSDOF 19
