REMARK SMILES O=C(OCCOCCOC(=O)[C@H]1CCC(=O)N(C2CCCCC2)[C@H]1c1ccccc1)c1ccc(-c2c3nc(c(-c4c(F)cccc4F)c4ccc([nH]4)c(-c4c(F)cccc4F)c4nc(c(-c5c(F)cccc5F)c5ccc2[nH]5)C=C4)C=C3)cc1
REMARK SMILES IDX 5 1 4 2 3 3 2 4 1 5 31 6 32 7 84 8 33 9 83 10 34 11 35 12
REMARK SMILES IDX 36 13 77 14 37 15 82 16 76 17 78 18 38 19 81 20 75 21 74 22
REMARK SMILES IDX 39 24 65 25 48 26 64 27 49 28 52 29 63 30 79 31 50 32 51 33
REMARK SMILES IDX 62 35 80 36 53 37 40 38 41 39 46 40 42 41 43 42 45 43 47 44
REMARK SMILES IDX 44 45 66 46 67 47 72 48 68 49 69 50 71 51 73 52 70 53 54 54
REMARK SMILES IDX 55 55 60 56 56 57 57 58 59 59 61 60 58 61 6 62 7 63 8 64
REMARK SMILES IDX 9 65 10 66 11 67 12 68 13 69 24 70 14 71 17 72 15 73 16 74
REMARK SMILES IDX 25 75 26 76 30 77 27 78 29 79 28 80 18 81 19 82 23 83 20 84
REMARK SMILES IDX 22 85 21 86
REMARK H PARENT 78 23 52 34
REMARK Flexibility Score: inf
ROOT
ATOM      1  C   UNL     1       6.001  -0.373   1.101  1.00  0.00     0.202 C 
ENDROOT
BRANCH   1   2
ATOM      2  C   UNL     1       5.943  -0.740  -0.383  1.00  0.00     0.261 C 
BRANCH   2   3
ATOM      3  O   UNL     1       7.251  -1.078  -0.866  1.00  0.00    -0.460 OA
BRANCH   3   4
ATOM      4  C   UNL     1       8.228  -0.179  -1.139  1.00  0.00     0.338 C 
ATOM      5  O   UNL     1       9.404  -0.537  -1.088  1.00  0.00    -0.246 OA
BRANCH   4   6
ATOM      6  C   UNL     1       7.941   1.202  -1.635  1.00  0.00     0.060 A 
ATOM      7  C   UNL     1       7.001   2.088  -1.096  1.00  0.00     0.016 A 
ATOM      8  C   UNL     1       8.791   1.672  -2.648  1.00  0.00     0.016 A 
ATOM      9  C   UNL     1       6.918   3.403  -1.521  1.00  0.00     0.010 A 
ATOM     10  C   UNL     1       8.717   2.995  -3.083  1.00  0.00     0.010 A 
ATOM     11  C   UNL     1       7.787   3.864  -2.502  1.00  0.00    -0.014 A 
BRANCH  11  12
ATOM     12  C   UNL     1       7.636   5.250  -2.957  1.00  0.00     0.031 A 
ATOM     13  C   UNL     1       6.936   5.487  -4.253  1.00  0.00     0.074 A 
ATOM     14  C   UNL     1       8.043   6.254  -2.160  1.00  0.00     0.049 A 
ATOM     15  N   UNL     1       6.796   6.595  -4.923  1.00  0.00    -0.248 NA
ATOM     16  C   UNL     1       6.298   4.313  -4.877  1.00  0.00     0.031 C 
ATOM     17  C   UNL     1       8.611   6.090  -0.818  1.00  0.00     0.029 A 
ATOM     18  N   UNL     1       8.034   7.608  -2.354  1.00  0.00    -0.354 N 
ATOM     19  C   UNL     1       6.098   6.246  -6.069  1.00  0.00     0.074 A 
ATOM     20  C   UNL     1       5.821   4.830  -5.999  1.00  0.00     0.031 C 
ATOM     21  C   UNL     1       8.902   7.300  -0.314  1.00  0.00     0.029 A 
ATOM     22  C   UNL     1       8.617   8.309  -1.326  1.00  0.00     0.049 A 
ATOM     23  H   UNL     1       7.647   8.038  -3.151  1.00  0.00     0.167 HD
ATOM     24  C   UNL     1       5.748   7.053  -7.094  1.00  0.00     0.037 A 
ATOM     25  C   UNL     1       8.940   9.614  -1.257  1.00  0.00     0.037 A 
ATOM     26  C   UNL     1       6.038   8.460  -7.109  1.00  0.00     0.049 A 
ATOM     27  C   UNL     1       8.623  10.468  -2.457  1.00  0.00     0.074 A 
ATOM     28  C   UNL     1       5.761   9.389  -8.092  1.00  0.00     0.029 A 
ATOM     29  N   UNL     1       6.681   9.135  -6.079  1.00  0.00    -0.354 N 
ATOM     30  N   UNL     1       7.999  10.137  -3.564  1.00  0.00    -0.248 NA
ATOM     31  C   UNL     1       9.079  11.863  -2.417  1.00  0.00     0.031 C 
ATOM     32  C   UNL     1       6.289  10.616  -7.681  1.00  0.00     0.029 A 
ATOM     33  C   UNL     1       6.846  10.464  -6.419  1.00  0.00     0.049 A 
ATOM     34  H   UNL     1       6.975   8.727  -5.233  1.00  0.00     0.167 HD
ATOM     35  C   UNL     1       7.980  11.281  -4.349  1.00  0.00     0.074 A 
ATOM     36  C   UNL     1       8.626  12.323  -3.575  1.00  0.00     0.031 C 
ATOM     37  C   UNL     1       7.490  11.460  -5.601  1.00  0.00     0.037 A 
BRANCH  24  38
ATOM     38  C   UNL     1       5.112   6.418  -8.291  1.00  0.00     0.057 A 
ATOM     39  C   UNL     1       3.792   5.954  -8.286  1.00  0.00     0.134 A 
ATOM     40  C   UNL     1       5.846   6.271  -9.475  1.00  0.00     0.134 A 
ATOM     41  F   UNL     1       3.046   6.034  -7.175  1.00  0.00    -0.206 F 
ATOM     42  C   UNL     1       3.227   5.356  -9.416  1.00  0.00     0.040 A 
ATOM     43  C   UNL     1       5.287   5.696 -10.616  1.00  0.00     0.040 A 
ATOM     44  F   UNL     1       7.122   6.681  -9.540  1.00  0.00    -0.206 F 
ATOM     45  C   UNL     1       3.973   5.234 -10.587  1.00  0.00     0.006 A 
ENDBRANCH  24  38
BRANCH  25  46
ATOM     46  C   UNL     1       9.678  10.163  -0.088  1.00  0.00     0.057 A 
ATOM     47  C   UNL     1       9.139  11.177   0.712  1.00  0.00     0.134 A 
ATOM     48  C   UNL     1      10.974   9.727   0.227  1.00  0.00     0.134 A 
ATOM     49  F   UNL     1       7.912  11.657   0.458  1.00  0.00    -0.206 F 
ATOM     50  C   UNL     1       9.867  11.757   1.755  1.00  0.00     0.040 A 
ATOM     51  C   UNL     1      11.700  10.273   1.287  1.00  0.00     0.040 A 
ATOM     52  F   UNL     1      11.559   8.759  -0.496  1.00  0.00    -0.206 F 
ATOM     53  C   UNL     1      11.152  11.302   2.046  1.00  0.00     0.006 A 
ENDBRANCH  25  46
BRANCH  37  54
ATOM     54  C   UNL     1       7.627  12.832  -6.186  1.00  0.00     0.057 A 
ATOM     55  C   UNL     1       8.861  13.317  -6.633  1.00  0.00     0.134 A 
ATOM     56  C   UNL     1       6.500  13.643  -6.364  1.00  0.00     0.134 A 
ATOM     57  F   UNL     1       9.977  12.589  -6.474  1.00  0.00    -0.206 F 
ATOM     58  C   UNL     1       8.972  14.573  -7.227  1.00  0.00     0.040 A 
ATOM     59  C   UNL     1       6.594  14.886  -6.985  1.00  0.00     0.040 A 
ATOM     60  F   UNL     1       5.289  13.225  -5.965  1.00  0.00    -0.206 F 
ATOM     61  C   UNL     1       7.834  15.356  -7.415  1.00  0.00     0.006 A 
ENDBRANCH  37  54
ENDBRANCH  11  12
ENDBRANCH   4   6
ENDBRANCH   3   4
ENDBRANCH   2   3
ENDBRANCH   1   2
BRANCH   1  62
ATOM     62  O   UNL     1       6.967   0.646   1.322  1.00  0.00    -0.374 OA
BRANCH  62  63
ATOM     63  C   UNL     1       8.114   0.350   2.108  1.00  0.00     0.202 C 
BRANCH  63  64
ATOM     64  C   UNL     1       8.191   1.377   3.240  1.00  0.00     0.261 C 
BRANCH  64  65
ATOM     65  O   UNL     1       7.149   1.090   4.184  1.00  0.00    -0.463 OA
BRANCH  65  66
ATOM     66  C   UNL     1       5.904   1.484   3.804  1.00  0.00     0.311 C 
ATOM     67  O   UNL     1       5.646   2.257   2.895  1.00  0.00    -0.252 OA
BRANCH  66  68
ATOM     68  C   UNL     1       4.834   0.731   4.555  1.00  0.00     0.127 C 
ATOM     69  C   UNL     1       5.347  -0.152   5.683  1.00  0.00     0.028 C 
ATOM     70  C   UNL     1       3.731   1.676   5.047  1.00  0.00     0.130 C 
ATOM     71  C   UNL     1       4.211  -1.000   6.199  1.00  0.00     0.101 C 
ATOM     72  N   UNL     1       2.691   0.940   5.804  1.00  0.00    -0.332 N 
ATOM     73  C   UNL     1       2.930  -0.251   6.487  1.00  0.00     0.223 C 
ATOM     74  O   UNL     1       2.100  -0.788   7.222  1.00  0.00    -0.275 OA
BRANCH  70  75
ATOM     75  C   UNL     1       4.254   2.921   5.774  1.00  0.00    -0.025 A 
ATOM     76  C   UNL     1       4.358   3.008   7.167  1.00  0.00     0.006 A 
ATOM     77  C   UNL     1       4.693   4.029   5.019  1.00  0.00     0.006 A 
ATOM     78  C   UNL     1       4.889   4.153   7.774  1.00  0.00     0.000 A 
ATOM     79  C   UNL     1       5.285   5.140   5.618  1.00  0.00     0.000 A 
ATOM     80  C   UNL     1       5.375   5.206   7.001  1.00  0.00     0.000 A 
ENDBRANCH  70  75
BRANCH  72  81
ATOM     81  C   UNL     1       1.342   1.542   5.845  1.00  0.00     0.085 C 
ATOM     82  C   UNL     1       0.304   0.623   5.172  1.00  0.00     0.025 C 
ATOM     83  C   UNL     1       0.928   1.988   7.258  1.00  0.00     0.025 C 
ATOM     84  C   UNL     1      -1.113   1.180   5.265  1.00  0.00     0.002 C 
ATOM     85  C   UNL     1      -0.496   2.529   7.291  1.00  0.00     0.002 C 
ATOM     86  C   UNL     1      -1.480   1.526   6.703  1.00  0.00     0.000 C 
ENDBRANCH  72  81
ENDBRANCH  66  68
ENDBRANCH  65  66
ENDBRANCH  64  65
ENDBRANCH  63  64
ENDBRANCH  62  63
ENDBRANCH   1  62
TORSDOF 16
