REMARK SMILES CC(=O)Nc1cnc(N2CC=C(c3ccccc3C)CC2)c(C(=O)OCCOCCOC(=O)c2ccc(-c3c4nc(c(-c5c(F)cccc5F)c5ccc([nH]5)c(-c5c(F)cccc5F)c5nc(c(-c6c(F)cccc6F)c6ccc3[nH]6)C=C5)C=C4)cc2)c1
REMARK SMILES IDX 28 1 27 2 26 3 25 4 23 5 24 6 22 7 5 8 6 9 88 10 7 11 8 12
REMARK SMILES IDX 4 13 1 14 2 15 3 16 9 18 10 19 21 20 11 21 20 22 12 23 13 24
REMARK SMILES IDX 14 25 18 26 15 27 17 28 19 29 16 30 29 31 30 32 31 33 32 34
REMARK SMILES IDX 33 35 34 36 35 37 87 38 36 39 86 40 37 41 38 42 39 43 80 44
REMARK SMILES IDX 40 45 85 46 79 47 81 48 41 49 84 50 78 51 77 52 42 54 68 55
REMARK SMILES IDX 51 56 67 57 52 58 55 59 66 60 82 61 53 62 54 63 65 65 83 66
REMARK SMILES IDX 56 67 43 68 44 69 49 70 45 71 46 72 48 73 50 74 47 75 69 76
REMARK SMILES IDX 70 77 75 78 71 79 72 80 74 81 76 82 73 83 57 84 58 85 63 86
REMARK SMILES IDX 59 87 60 88 62 89 64 90 61 91
REMARK H PARENT 4 17 81 53 55 64
REMARK Flexibility Score: inf
ROOT
ATOM      1  O   UNL     1       6.720   2.541   1.105  1.00  0.00    -0.374 OA
ENDROOT
BRANCH   1   2
ATOM      2  C   UNL     1       6.381   1.751  -0.023  1.00  0.00     0.202 C 
BRANCH   2   3
ATOM      3  C   UNL     1       5.470   0.715   0.535  1.00  0.00     0.261 C 
BRANCH   3   4
ATOM      4  O   UNL     1       4.265   1.344   0.997  1.00  0.00    -0.460 OA
BRANCH   4   5
ATOM      5  C   UNL     1       4.126   1.917   2.231  1.00  0.00     0.342 C 
ATOM      6  O   UNL     1       4.835   1.771   3.193  1.00  0.00    -0.246 OA
BRANCH   5   7
ATOM      7  C   UNL     1       2.918   2.766   2.140  1.00  0.00     0.104 A 
ATOM      8  C   UNL     1       0.920   3.174   0.816  1.00  0.00     0.060 A 
ATOM      9  C   UNL     1       0.785   4.335   1.553  1.00  0.00     0.139 A 
ATOM     10  C   UNL     1       2.000   2.397   1.146  1.00  0.00     0.047 A 
ATOM     11  N   UNL     1       1.603   4.686   2.592  1.00  0.00    -0.236 NA
ATOM     12  C   UNL     1       2.688   3.917   2.891  1.00  0.00     0.143 A 
BRANCH   8  13
ATOM     13  N   UNL     1       0.112   2.852  -0.290  1.00  0.00    -0.325 N 
ATOM     14  C   UNL     1       0.328   0.344  -0.287  1.00  0.00     0.114 C 
ATOM     15  C   UNL     1      -0.037   1.655  -0.953  1.00  0.00     0.221 C 
ATOM     16  O   UNL     1      -0.515   1.661  -2.090  1.00  0.00    -0.275 OA
ATOM     17  H   UNL     1      -0.429   3.595  -0.642  1.00  0.00     0.169 HD
ENDBRANCH   8  13
BRANCH  12  18
ATOM     18  N   UNL     1       3.528   4.426   3.856  1.00  0.00    -0.352 N 
ATOM     19  C   UNL     1       3.185   4.202   5.258  1.00  0.00     0.146 C 
ATOM     20  C   UNL     1       4.942   4.629   3.572  1.00  0.00     0.123 C 
ATOM     21  C   UNL     1       3.938   5.181   6.136  1.00  0.00    -0.002 C 
ATOM     22  C   UNL     1       5.423   5.897   4.274  1.00  0.00     0.057 C 
ATOM     23  C   UNL     1       4.934   5.981   5.700  1.00  0.00    -0.041 C 
BRANCH  23  24
ATOM     24  C   UNL     1       5.596   6.975   6.572  1.00  0.00    -0.020 A 
ATOM     25  C   UNL     1       6.334   6.519   7.678  1.00  0.00     0.008 A 
ATOM     26  C   UNL     1       5.555   8.361   6.303  1.00  0.00    -0.044 A 
ATOM     27  C   UNL     1       7.044   7.412   8.486  1.00  0.00     0.001 A 
ATOM     28  C   UNL     1       6.290   9.243   7.115  1.00  0.00     0.004 A 
ATOM     29  C   UNL     1       4.775   8.945   5.156  1.00  0.00     0.045 C 
ATOM     30  C   UNL     1       7.029   8.773   8.198  1.00  0.00     0.000 A 
ENDBRANCH  23  24
ENDBRANCH  12  18
ENDBRANCH   5   7
ENDBRANCH   4   5
ENDBRANCH   3   4
ENDBRANCH   2   3
ENDBRANCH   1   2
BRANCH   1  31
ATOM     31  C   UNL     1       7.348   3.767   0.821  1.00  0.00     0.202 C 
BRANCH  31  32
ATOM     32  C   UNL     1       8.679   3.567   0.096  1.00  0.00     0.261 C 
BRANCH  32  33
ATOM     33  O   UNL     1       9.573   2.804   0.939  1.00  0.00    -0.460 OA
BRANCH  33  34
ATOM     34  C   UNL     1       9.674   1.472   0.657  1.00  0.00     0.338 C 
ATOM     35  O   UNL     1       9.891   1.003  -0.449  1.00  0.00    -0.246 OA
BRANCH  34  36
ATOM     36  C   UNL     1       9.177   0.660   1.812  1.00  0.00     0.060 A 
ATOM     37  C   UNL     1       8.900  -0.712   1.639  1.00  0.00     0.016 A 
ATOM     38  C   UNL     1       8.654   1.332   2.910  1.00  0.00     0.016 A 
ATOM     39  C   UNL     1       7.952  -1.353   2.454  1.00  0.00     0.010 A 
ATOM     40  C   UNL     1       7.635   0.733   3.620  1.00  0.00     0.010 A 
ATOM     41  C   UNL     1       7.239  -0.597   3.378  1.00  0.00    -0.014 A 
BRANCH  41  42
ATOM     42  C   UNL     1       6.047  -1.023   4.129  1.00  0.00     0.031 A 
ATOM     43  C   UNL     1       6.155  -1.028   5.605  1.00  0.00     0.074 A 
ATOM     44  C   UNL     1       4.816  -1.124   3.562  1.00  0.00     0.049 A 
ATOM     45  N   UNL     1       5.260  -1.511   6.392  1.00  0.00    -0.248 NA
ATOM     46  C   UNL     1       7.322  -0.531   6.329  1.00  0.00     0.031 C 
ATOM     47  C   UNL     1       3.503  -0.965   4.202  1.00  0.00     0.029 A 
ATOM     48  N   UNL     1       4.452  -1.344   2.228  1.00  0.00    -0.354 N 
ATOM     49  C   UNL     1       5.542  -1.071   7.663  1.00  0.00     0.074 A 
ATOM     50  C   UNL     1       6.904  -0.614   7.593  1.00  0.00     0.031 C 
ATOM     51  C   UNL     1       2.535  -1.383   3.363  1.00  0.00     0.029 A 
ATOM     52  C   UNL     1       3.196  -1.974   2.212  1.00  0.00     0.049 A 
ATOM     53  H   UNL     1       4.984  -1.099   1.437  1.00  0.00     0.167 HD
ATOM     54  C   UNL     1       4.519  -1.026   8.564  1.00  0.00     0.037 A 
ATOM     55  C   UNL     1       3.084  -3.238   1.718  1.00  0.00     0.037 A 
ATOM     56  C   UNL     1       3.302  -1.629   7.984  1.00  0.00     0.049 A 
ATOM     57  C   UNL     1       2.742  -4.186   2.834  1.00  0.00     0.074 A 
ATOM     58  C   UNL     1       2.102  -1.135   7.499  1.00  0.00     0.029 A 
ATOM     59  N   UNL     1       3.362  -2.945   7.546  1.00  0.00    -0.354 N 
ATOM     60  N   UNL     1       2.658  -3.794   4.075  1.00  0.00    -0.248 NA
ATOM     61  C   UNL     1       2.505  -5.615   2.695  1.00  0.00     0.031 C 
ATOM     62  C   UNL     1       1.470  -2.173   6.738  1.00  0.00     0.029 A 
ATOM     63  C   UNL     1       2.268  -3.304   6.784  1.00  0.00     0.049 A 
ATOM     64  H   UNL     1       4.104  -3.557   7.756  1.00  0.00     0.167 HD
ATOM     65  C   UNL     1       2.374  -4.834   4.888  1.00  0.00     0.074 A 
ATOM     66  C   UNL     1       2.331  -5.975   3.982  1.00  0.00     0.031 C 
ATOM     67  C   UNL     1       2.202  -4.658   6.231  1.00  0.00     0.037 A 
BRANCH  54  68
ATOM     68  C   UNL     1       4.527  -0.287   9.895  1.00  0.00     0.057 A 
ATOM     69  C   UNL     1       3.336  -0.182  10.643  1.00  0.00     0.134 A 
ATOM     70  C   UNL     1       5.618   0.382  10.488  1.00  0.00     0.134 A 
ATOM     71  F   UNL     1       2.207  -0.789  10.256  1.00  0.00    -0.206 F 
ATOM     72  C   UNL     1       3.233   0.555  11.834  1.00  0.00     0.040 A 
ATOM     73  C   UNL     1       5.531   1.116  11.681  1.00  0.00     0.040 A 
ATOM     74  F   UNL     1       6.846   0.376   9.974  1.00  0.00    -0.206 F 
ATOM     75  C   UNL     1       4.331   1.214  12.357  1.00  0.00     0.006 A 
ENDBRANCH  54  68
BRANCH  55  76
ATOM     76  C   UNL     1       4.015  -3.453   0.566  1.00  0.00     0.057 A 
ATOM     77  C   UNL     1       3.751  -2.750  -0.630  1.00  0.00     0.134 A 
ATOM     78  C   UNL     1       5.340  -3.852   0.777  1.00  0.00     0.134 A 
ATOM     79  F   UNL     1       2.510  -2.310  -0.893  1.00  0.00    -0.206 F 
ATOM     80  C   UNL     1       4.774  -2.341  -1.495  1.00  0.00     0.040 A 
ATOM     81  C   UNL     1       6.372  -3.433  -0.076  1.00  0.00     0.040 A 
ATOM     82  F   UNL     1       5.679  -4.510   1.894  1.00  0.00    -0.206 F 
ATOM     83  C   UNL     1       6.098  -2.636  -1.187  1.00  0.00     0.006 A 
ENDBRANCH  55  76
BRANCH  67  84
ATOM     84  C   UNL     1       1.974  -5.821   7.133  1.00  0.00     0.057 A 
ATOM     85  C   UNL     1       1.071  -6.841   6.817  1.00  0.00     0.134 A 
ATOM     86  C   UNL     1       2.633  -5.935   8.370  1.00  0.00     0.134 A 
ATOM     87  F   UNL     1       0.301  -6.769   5.720  1.00  0.00    -0.206 F 
ATOM     88  C   UNL     1       0.932  -7.973   7.619  1.00  0.00     0.040 A 
ATOM     89  C   UNL     1       2.447  -7.025   9.215  1.00  0.00     0.040 A 
ATOM     90  F   UNL     1       3.515  -5.021   8.797  1.00  0.00    -0.206 F 
ATOM     91  C   UNL     1       1.624  -8.068   8.821  1.00  0.00     0.006 A 
ENDBRANCH  67  84
ENDBRANCH  41  42
ENDBRANCH  34  36
ENDBRANCH  33  34
ENDBRANCH  32  33
ENDBRANCH  31  32
ENDBRANCH   1  31
TORSDOF 17
