REMARK SMILES O=C(OCCOCCOC(=O)c1ccc(-c2c3nc(c(-c4c(F)cccc4F)c4ccc([nH]4)c(-c4c(F)cccc4F)c4nc(c(-c5c(F)cccc5F)c5ccc2[nH]5)C=C4)C=C3)cc1)C1=Cc2cc(S(F)(F)(F)(F)F)ccc2O[C@H]1C(F)(F)F
REMARK SMILES IDX 7 1 6 2 5 3 4 4 3 5 2 6 1 7 66 8 67 9 81 10 68 11 80 12
REMARK SMILES IDX 69 13 79 14 70 15 78 16 77 17 82 18 83 19 84 20 85 21 71 22
REMARK SMILES IDX 72 23 73 24 74 25 75 26 76 27 8 28 9 29 10 30 11 31 12 32
REMARK SMILES IDX 13 33 65 34 14 35 64 36 15 37 16 38 17 39 58 40 18 41 63 42
REMARK SMILES IDX 57 43 59 44 19 45 62 46 56 47 55 48 20 50 46 51 29 52 45 53
REMARK SMILES IDX 30 54 33 55 44 56 60 57 31 58 32 59 43 61 61 62 34 63 21 64
REMARK SMILES IDX 22 65 27 66 23 67 24 68 26 69 28 70 25 71 47 72 48 73 53 74
REMARK SMILES IDX 49 75 50 76 52 77 54 78 51 79 35 80 36 81 41 82 37 83 38 84
REMARK SMILES IDX 40 85 42 86 39 87
REMARK H PARENT 59 49 33 60
REMARK Flexibility Score: inf
ROOT
ATOM      1  C   UNL     1       2.982  -1.101   0.860  1.00  0.00     0.202 C 
ENDROOT
BRANCH   1   2
ATOM      2  O   UNL     1       4.402  -1.101   0.860  1.00  0.00    -0.374 OA
BRANCH   2   3
ATOM      3  C   UNL     1       4.876   0.164   1.297  1.00  0.00     0.202 C 
BRANCH   3   4
ATOM      4  C   UNL     1       4.369   1.247   0.358  1.00  0.00     0.261 C 
BRANCH   4   5
ATOM      5  O   UNL     1       2.949   1.247   0.358  1.00  0.00    -0.460 OA
BRANCH   5   6
ATOM      6  C   UNL     1       2.239   0.084  -0.043  1.00  0.00     0.338 C 
ATOM      7  O   UNL     1       0.968   0.084  -0.043  1.00  0.00    -0.246 OA
BRANCH   6   8
ATOM      8  C   UNL     1       2.999  -1.160  -0.473  1.00  0.00     0.087 C 
ATOM      9  C   UNL     1       4.359  -1.160  -0.473  1.00  0.00     0.027 C 
ATOM     10  C   UNL     1       2.239  -2.404  -0.903  1.00  0.00     0.316 C 
ATOM     11  C   UNL     1       5.120   0.084  -0.043  1.00  0.00     0.019 A 
ATOM     12  O   UNL     1       3.476   0.327   1.657  1.00  0.00    -0.475 OA
ATOM     13  C   UNL     1       6.228   0.528  -0.746  1.00  0.00     0.036 A 
ATOM     14  C   UNL     1       4.704   0.707   1.053  1.00  0.00     0.128 A 
ATOM     15  C   UNL     1       7.010   1.475  -0.043  1.00  0.00     0.107 A 
ATOM     16  C   UNL     1       5.452   1.717   1.610  1.00  0.00     0.048 A 
ATOM     17  C   UNL     1       6.591   2.166   1.001  1.00  0.00     0.028 A 
BRANCH  10  18
ATOM     18  C   UNL     1       0.745  -2.142  -0.812  1.00  0.00     0.430 C 
ATOM     19  F   UNL     1       0.394  -1.901   0.448  1.00  0.00    -0.167 F 
ATOM     20  F   UNL     1       0.408  -1.103  -1.573  1.00  0.00    -0.167 F 
ATOM     21  F   UNL     1       0.117  -3.231  -1.246  1.00  0.00    -0.167 F 
ENDBRANCH  10  18
BRANCH  15  22
ATOM     22  S   UNL     1       8.704   1.759  -0.616  1.00  0.00     0.310 S 
ATOM     23  F   UNL     1       9.271   1.793   0.865  1.00  0.00    -0.094 F 
ATOM     24  F   UNL     1       8.456   3.309  -0.484  1.00  0.00    -0.094 F 
ATOM     25  F   UNL     1      10.156   2.005  -1.113  1.00  0.00    -0.094 F 
ATOM     26  F   UNL     1       8.979   0.203  -0.608  1.00  0.00    -0.094 F 
ATOM     27  F   UNL     1       7.270   1.494  -0.005  1.00  0.00    -0.094 F 
ENDBRANCH  15  22
ENDBRANCH   6   8
ENDBRANCH   5   6
ENDBRANCH   4   5
ENDBRANCH   3   4
ENDBRANCH   2   3
ENDBRANCH   1   2
BRANCH   1  28
ATOM     28  C   UNL     1       2.476  -0.829   2.267  1.00  0.00     0.261 C 
BRANCH  28  29
ATOM     29  O   UNL     1       2.949   0.436   2.704  1.00  0.00    -0.460 OA
BRANCH  29  30
ATOM     30  C   UNL     1       4.345   0.681   2.789  1.00  0.00     0.338 C 
ATOM     31  O   UNL     1       5.171  -0.232   2.474  1.00  0.00    -0.246 OA
BRANCH  30  32
ATOM     32  C   UNL     1       4.852   2.036   3.257  1.00  0.00     0.060 A 
ATOM     33  C   UNL     1       5.931   2.651   2.645  1.00  0.00     0.016 A 
ATOM     34  C   UNL     1       4.269   2.570   4.324  1.00  0.00     0.016 A 
ATOM     35  C   UNL     1       6.510   3.690   3.413  1.00  0.00     0.010 A 
ATOM     36  C   UNL     1       4.815   3.667   4.944  1.00  0.00     0.010 A 
ATOM     37  C   UNL     1       5.917   4.291   4.427  1.00  0.00    -0.014 A 
BRANCH  37  38
ATOM     38  C   UNL     1       6.430   5.606   4.991  1.00  0.00     0.031 A 
ATOM     39  C   UNL     1       6.799   5.554   6.336  1.00  0.00     0.074 A 
ATOM     40  C   UNL     1       6.603   6.717   4.184  1.00  0.00     0.049 A 
ATOM     41  N   UNL     1       7.390   6.509   7.056  1.00  0.00    -0.248 NA
ATOM     42  C   UNL     1       6.585   4.386   7.205  1.00  0.00     0.031 C 
ATOM     43  C   UNL     1       6.242   6.775   2.823  1.00  0.00     0.029 A 
ATOM     44  N   UNL     1       7.137   7.939   4.530  1.00  0.00    -0.354 N 
ATOM     45  C   UNL     1       7.602   6.082   8.302  1.00  0.00     0.074 A 
ATOM     46  C   UNL     1       7.082   4.713   8.418  1.00  0.00     0.031 C 
ATOM     47  C   UNL     1       6.543   8.016   2.359  1.00  0.00     0.029 A 
ATOM     48  C   UNL     1       7.099   8.755   3.421  1.00  0.00     0.049 A 
ATOM     49  H   UNL     1       7.487   8.185   5.417  1.00  0.00     0.167 HD
ATOM     50  C   UNL     1       8.211   6.781   9.347  1.00  0.00     0.037 A 
ATOM     51  C   UNL     1       7.517  10.072   3.322  1.00  0.00     0.037 A 
ATOM     52  C   UNL     1       8.669   8.084   9.235  1.00  0.00     0.049 A 
ATOM     53  C   UNL     1       8.073  10.791   4.384  1.00  0.00     0.074 A 
ATOM     54  C   UNL     1       9.291   8.800  10.276  1.00  0.00     0.029 A 
ATOM     55  N   UNL     1       8.608   8.908   8.134  1.00  0.00    -0.354 N 
ATOM     56  N   UNL     1       8.321  10.351   5.618  1.00  0.00    -0.248 NA
ATOM     57  C   UNL     1       8.490  12.197   4.299  1.00  0.00     0.031 C 
ATOM     58  C   UNL     1       9.593  10.042   9.812  1.00  0.00     0.029 A 
ATOM     59  C   UNL     1       9.163  10.122   8.473  1.00  0.00     0.049 A 
ATOM     60  H   UNL     1       8.232   8.671   7.255  1.00  0.00     0.167 HD
ATOM     61  C   UNL     1       8.875  11.321   6.349  1.00  0.00     0.074 A 
ATOM     62  C   UNL     1       8.985  12.524   5.513  1.00  0.00     0.031 C 
ATOM     63  C   UNL     1       9.296  11.250   7.678  1.00  0.00     0.037 A 
BRANCH  50  64
ATOM     64  C   UNL     1       8.380   6.072  10.681  1.00  0.00     0.057 A 
ATOM     65  C   UNL     1       9.037   4.855  10.758  1.00  0.00     0.134 A 
ATOM     66  C   UNL     1       7.796   6.608  11.745  1.00  0.00     0.134 A 
ATOM     67  F   UNL     1       9.842   4.403   9.801  1.00  0.00    -0.206 F 
ATOM     68  C   UNL     1       8.772   4.135  11.947  1.00  0.00     0.040 A 
ATOM     69  C   UNL     1       7.692   5.899  12.918  1.00  0.00     0.040 A 
ATOM     70  F   UNL     1       7.306   7.843  11.677  1.00  0.00    -0.206 F 
ATOM     71  C   UNL     1       8.266   4.665  13.046  1.00  0.00     0.006 A 
ENDBRANCH  50  64
BRANCH  51  72
ATOM     72  C   UNL     1       7.363  10.775   1.984  1.00  0.00     0.057 A 
ATOM     73  C   UNL     1       8.526  11.172   1.345  1.00  0.00     0.134 A 
ATOM     74  C   UNL     1       6.175  10.932   1.410  1.00  0.00     0.134 A 
ATOM     75  F   UNL     1       9.739  10.812   1.758  1.00  0.00    -0.206 F 
ATOM     76  C   UNL     1       8.309  11.994   0.215  1.00  0.00     0.040 A 
ATOM     77  C   UNL     1       6.053  11.632   0.234  1.00  0.00     0.040 A 
ATOM     78  F   UNL     1       5.094  10.407   1.980  1.00  0.00    -0.206 F 
ATOM     79  C   UNL     1       7.156  12.104  -0.421  1.00  0.00     0.006 A 
ENDBRANCH  51  72
BRANCH  63  80
ATOM     80  C   UNL     1       9.940  12.483   8.290  1.00  0.00     0.057 A 
ATOM     81  C   UNL     1       9.306  13.714   8.298  1.00  0.00     0.134 A 
ATOM     82  C   UNL     1      11.185  12.346   8.731  1.00  0.00     0.134 A 
ATOM     83  F   UNL     1       7.997  13.858   8.108  1.00  0.00    -0.206 F 
ATOM     84  C   UNL     1      10.177  14.806   8.525  1.00  0.00     0.040 A 
ATOM     85  C   UNL     1      11.934  13.449   9.065  1.00  0.00     0.040 A 
ATOM     86  F   UNL     1      11.712  11.131   8.851  1.00  0.00    -0.206 F 
ATOM     87  C   UNL     1      11.389  14.703   9.039  1.00  0.00     0.006 A 
ENDBRANCH  63  80
ENDBRANCH  37  38
ENDBRANCH  30  32
ENDBRANCH  29  30
ENDBRANCH  28  29
ENDBRANCH   1  28
TORSDOF 16
