REMARK SMILES CC(C)C[C@H](NC(=O)CNC(=O)[C@@H](NC(=O)OCc1ccccc1)C(C)C)C(=O)N[C@@H](C)C(=O)OCCOCCOC(=O)c1ccc(-c2c3nc(c(-c4c(F)cccc4F)c4ccc([nH]4)c(-c4c(F)cccc4F)c4nc(c(-c5c(F)cccc5F)c5ccc2[nH]5)C=C4)C=C3)cc1
REMARK SMILES IDX 33 1 34 2 31 3 32 4 30 5 28 6 29 7 5 9 4 10 2 11 1 12 3 13
REMARK SMILES IDX 6 14 7 15 8 17 9 18 10 19 11 20 12 22 13 23 14 24 15 25
REMARK SMILES IDX 16 27 17 28 18 29 19 30 20 31 24 32 21 33 23 34 22 35 25 36
REMARK SMILES IDX 26 37 27 38 35 39 36 40 37 41 38 42 39 43 40 44 41 45 42 46
REMARK SMILES IDX 43 47 44 48 45 49 97 50 46 51 96 52 47 53 48 54 49 55 90 56
REMARK SMILES IDX 50 57 95 58 89 59 91 60 51 61 94 62 88 63 87 64 52 66 78 67
REMARK SMILES IDX 61 68 77 69 62 70 65 71 76 72 92 73 63 74 64 75 75 77 93 78
REMARK SMILES IDX 66 79 53 80 54 81 59 82 55 83 56 84 58 85 60 86 57 87 79 88
REMARK SMILES IDX 80 89 85 90 81 91 82 92 84 93 86 94 83 95 67 96 68 97 73 98
REMARK SMILES IDX 69 99 70 100 72 101 74 102 71 103
REMARK H PARENT 30 8 6 16 10 21 14 26 91 65 65 76
REMARK Flexibility Score: inf
ROOT
ATOM      1  C   UNL     1      -3.295   0.683  -5.463  1.00  0.00     0.328 C 
ATOM      2  O   UNL     1      -2.527   0.605  -6.416  1.00  0.00    -0.250 OA
ENDROOT
BRANCH   1   3
ATOM      3  C   UNL     1      -3.005  -0.016  -4.119  1.00  0.00     0.189 C 
ATOM      4  C   UNL     1      -3.301  -1.499  -4.307  1.00  0.00     0.043 C 
BRANCH   3   5
ATOM      5  N   UNL     1      -3.740   0.455  -2.934  1.00  0.00    -0.341 N 
ATOM      6  C   UNL     1      -3.319   0.831  -1.688  1.00  0.00     0.243 C 
ATOM      7  O   UNL     1      -4.198   1.208  -0.904  1.00  0.00    -0.273 OA
ATOM      8  H   UNL     1      -4.715   0.510  -3.062  1.00  0.00     0.164 HD
BRANCH   6   9
ATOM      9  C   UNL     1      -1.815   1.022  -1.315  1.00  0.00     0.171 C 
BRANCH   9  10
ATOM     10  C   UNL     1      -1.358   2.381  -1.825  1.00  0.00     0.038 C 
BRANCH  10  11
ATOM     11  C   UNL     1      -1.986   3.673  -1.281  1.00  0.00    -0.015 C 
ATOM     12  C   UNL     1      -2.261   3.889   0.203  1.00  0.00     0.007 C 
ATOM     13  C   UNL     1      -1.314   4.915  -1.890  1.00  0.00     0.007 C 
ENDBRANCH  10  11
ENDBRANCH   9  10
BRANCH   9  14
ATOM     14  N   UNL     1      -0.974  -0.081  -1.819  1.00  0.00    -0.343 N 
ATOM     15  C   UNL     1       0.348  -0.369  -1.918  1.00  0.00     0.240 C 
ATOM     16  H   UNL     1      -1.525  -0.810  -2.184  1.00  0.00     0.164 HD
ATOM     17  O   UNL     1       0.582  -1.533  -2.281  1.00  0.00    -0.273 OA
BRANCH  15  18
ATOM     18  C   UNL     1       1.554   0.524  -1.528  1.00  0.00     0.216 C 
BRANCH  18  19
ATOM     19  N   UNL     1       1.743   1.854  -2.084  1.00  0.00    -0.345 N 
ATOM     20  C   UNL     1       1.826   3.098  -1.534  1.00  0.00     0.243 C 
ATOM     21  H   UNL     1       1.829   1.856  -3.065  1.00  0.00     0.164 HD
ATOM     22  O   UNL     1       2.113   4.004  -2.326  1.00  0.00    -0.273 OA
BRANCH  20  23
ATOM     23  C   UNL     1       1.535   3.438  -0.028  1.00  0.00     0.177 C 
BRANCH  23  24
ATOM     24  N   UNL     1       0.644   2.496   0.649  1.00  0.00    -0.309 N 
ATOM     25  C   UNL     1       0.814   1.452   1.481  1.00  0.00     0.408 C 
ATOM     26  H   UNL     1      -0.305   2.666   0.449  1.00  0.00     0.167 HD
ATOM     27  O   UNL     1      -0.110   0.667   1.654  1.00  0.00    -0.225 OA
BRANCH  25  28
ATOM     28  O   UNL     1       2.009   1.422   2.089  1.00  0.00    -0.445 OA
BRANCH  28  29
ATOM     29  C   UNL     1       2.095   0.447   3.130  1.00  0.00     0.270 C 
BRANCH  29  30
ATOM     30  C   UNL     1       1.410   0.832   4.430  1.00  0.00    -0.011 A 
ATOM     31  C   UNL     1       0.375   1.779   4.528  1.00  0.00     0.007 A 
ATOM     32  C   UNL     1       1.773   0.134   5.590  1.00  0.00     0.007 A 
ATOM     33  C   UNL     1      -0.277   2.016   5.739  1.00  0.00     0.000 A 
ATOM     34  C   UNL     1       1.128   0.378   6.804  1.00  0.00     0.000 A 
ATOM     35  C   UNL     1       0.101   1.315   6.877  1.00  0.00     0.000 A 
ENDBRANCH  29  30
ENDBRANCH  28  29
ENDBRANCH  25  28
ENDBRANCH  23  24
BRANCH  23  36
ATOM     36  C   UNL     1       2.748   3.952   0.769  1.00  0.00     0.015 C 
ATOM     37  C   UNL     1       3.468   5.095   0.036  1.00  0.00     0.010 C 
ATOM     38  C   UNL     1       2.325   4.505   2.140  1.00  0.00     0.010 C 
ENDBRANCH  23  36
ENDBRANCH  20  23
ENDBRANCH  18  19
ENDBRANCH  15  18
ENDBRANCH   9  14
ENDBRANCH   6   9
ENDBRANCH   3   5
ENDBRANCH   1   3
BRANCH   1  39
ATOM     39  O   UNL     1      -4.501   1.317  -5.493  1.00  0.00    -0.462 OA
BRANCH  39  40
ATOM     40  C   UNL     1      -4.714   2.189  -6.625  1.00  0.00     0.261 C 
BRANCH  40  41
ATOM     41  C   UNL     1      -4.971   3.635  -6.181  1.00  0.00     0.202 C 
BRANCH  41  42
ATOM     42  O   UNL     1      -3.894   4.256  -5.481  1.00  0.00    -0.374 OA
BRANCH  42  43
ATOM     43  C   UNL     1      -3.696   3.825  -4.143  1.00  0.00     0.202 C 
BRANCH  43  44
ATOM     44  C   UNL     1      -4.545   4.487  -3.068  1.00  0.00     0.261 C 
BRANCH  44  45
ATOM     45  O   UNL     1      -5.891   4.520  -3.429  1.00  0.00    -0.460 OA
BRANCH  45  46
ATOM     46  C   UNL     1      -6.371   5.746  -3.659  1.00  0.00     0.338 C 
ATOM     47  O   UNL     1      -5.822   6.826  -3.696  1.00  0.00    -0.246 OA
BRANCH  46  48
ATOM     48  C   UNL     1      -7.738   5.416  -3.986  1.00  0.00     0.060 A 
ATOM     49  C   UNL     1      -8.151   5.653  -5.292  1.00  0.00     0.016 A 
ATOM     50  C   UNL     1      -8.490   4.692  -3.048  1.00  0.00     0.016 A 
ATOM     51  C   UNL     1      -9.406   5.220  -5.652  1.00  0.00     0.010 A 
ATOM     52  C   UNL     1      -9.726   4.227  -3.421  1.00  0.00     0.010 A 
ATOM     53  C   UNL     1     -10.195   4.554  -4.700  1.00  0.00    -0.014 A 
BRANCH  53  54
ATOM     54  C   UNL     1     -11.619   4.405  -4.968  1.00  0.00     0.031 A 
ATOM     55  C   UNL     1     -12.537   5.395  -4.329  1.00  0.00     0.074 A 
ATOM     56  C   UNL     1     -12.025   3.426  -5.784  1.00  0.00     0.049 A 
ATOM     57  N   UNL     1     -13.831   5.498  -4.425  1.00  0.00    -0.248 NA
ATOM     58  C   UNL     1     -11.914   6.402  -3.447  1.00  0.00     0.031 C 
ATOM     59  C   UNL     1     -11.149   2.451  -6.437  1.00  0.00     0.029 A 
ATOM     60  N   UNL     1     -13.277   3.106  -6.209  1.00  0.00    -0.354 N 
ATOM     61  C   UNL     1     -14.175   6.566  -3.610  1.00  0.00     0.074 A 
ATOM     62  C   UNL     1     -12.969   7.048  -2.984  1.00  0.00     0.031 C 
ATOM     63  C   UNL     1     -11.900   1.650  -7.210  1.00  0.00     0.029 A 
ATOM     64  C   UNL     1     -13.298   2.041  -7.069  1.00  0.00     0.049 A 
ATOM     65  H   UNL     1     -14.086   3.591  -5.927  1.00  0.00     0.167 HD
ATOM     66  C   UNL     1     -15.402   7.100  -3.423  1.00  0.00     0.037 A 
ATOM     67  C   UNL     1     -14.353   1.462  -7.665  1.00  0.00     0.037 A 
ATOM     68  C   UNL     1     -16.574   6.584  -4.072  1.00  0.00     0.049 A 
ATOM     69  C   UNL     1     -15.712   2.044  -7.399  1.00  0.00     0.074 A 
ATOM     70  C   UNL     1     -17.873   7.041  -4.003  1.00  0.00     0.029 A 
ATOM     71  N   UNL     1     -16.576   5.473  -4.909  1.00  0.00    -0.354 N 
ATOM     72  N   UNL     1     -16.039   3.085  -6.667  1.00  0.00    -0.248 NA
ATOM     73  C   UNL     1     -16.846   1.377  -8.043  1.00  0.00     0.031 C 
ATOM     74  C   UNL     1     -18.674   6.168  -4.747  1.00  0.00     0.029 A 
ATOM     75  C   UNL     1     -17.863   5.205  -5.335  1.00  0.00     0.049 A 
ATOM     76  H   UNL     1     -15.779   4.954  -5.161  1.00  0.00     0.167 HD
ATOM     77  C   UNL     1     -17.415   3.217  -6.782  1.00  0.00     0.074 A 
ATOM     78  C   UNL     1     -17.854   2.153  -7.668  1.00  0.00     0.031 C 
ATOM     79  C   UNL     1     -18.246   4.129  -6.217  1.00  0.00     0.037 A 
BRANCH  66  80
ATOM     80  C   UNL     1     -15.514   8.242  -2.458  1.00  0.00     0.057 A 
ATOM     81  C   UNL     1     -14.935   9.496  -2.706  1.00  0.00     0.134 A 
ATOM     82  C   UNL     1     -16.182   8.073  -1.239  1.00  0.00     0.134 A 
ATOM     83  F   UNL     1     -14.254   9.719  -3.841  1.00  0.00    -0.206 F 
ATOM     84  C   UNL     1     -14.986  10.525  -1.763  1.00  0.00     0.040 A 
ATOM     85  C   UNL     1     -16.269   9.105  -0.303  1.00  0.00     0.040 A 
ATOM     86  F   UNL     1     -16.750   6.898  -0.931  1.00  0.00    -0.206 F 
ATOM     87  C   UNL     1     -15.661  10.332  -0.560  1.00  0.00     0.006 A 
ENDBRANCH  66  80
BRANCH  67  88
ATOM     88  C   UNL     1     -14.145   0.315  -8.578  1.00  0.00     0.057 A 
ATOM     89  C   UNL     1     -14.354   0.446  -9.954  1.00  0.00     0.134 A 
ATOM     90  C   UNL     1     -13.698  -0.925  -8.107  1.00  0.00     0.134 A 
ATOM     91  F   UNL     1     -14.784   1.610 -10.464  1.00  0.00    -0.206 F 
ATOM     92  C   UNL     1     -14.141  -0.620 -10.829  1.00  0.00     0.040 A 
ATOM     93  C   UNL     1     -13.457  -1.992  -8.973  1.00  0.00     0.040 A 
ATOM     94  F   UNL     1     -13.460  -1.108  -6.799  1.00  0.00    -0.206 F 
ATOM     95  C   UNL     1     -13.686  -1.842 -10.339  1.00  0.00     0.006 A 
ENDBRANCH  67  88
BRANCH  79  96
ATOM     96  C   UNL     1     -19.699   4.025  -6.574  1.00  0.00     0.057 A 
ATOM     97  C   UNL     1     -20.506   2.986  -6.095  1.00  0.00     0.134 A 
ATOM     98  C   UNL     1     -20.302   5.005  -7.372  1.00  0.00     0.134 A 
ATOM     99  F   UNL     1     -19.982   2.012  -5.335  1.00  0.00    -0.206 F 
ATOM    100  C   UNL     1     -21.859   2.909  -6.423  1.00  0.00     0.040 A 
ATOM    101  C   UNL     1     -21.661   4.957  -7.678  1.00  0.00     0.040 A 
ATOM    102  F   UNL     1     -19.585   6.033  -7.851  1.00  0.00    -0.206 F 
ATOM    103  C   UNL     1     -22.441   3.902  -7.210  1.00  0.00     0.006 A 
ENDBRANCH  79  96
ENDBRANCH  53  54
ENDBRANCH  46  48
ENDBRANCH  45  46
ENDBRANCH  44  45
ENDBRANCH  43  44
ENDBRANCH  42  43
ENDBRANCH  41  42
ENDBRANCH  40  41
ENDBRANCH  39  40
ENDBRANCH   1  39
TORSDOF 27
