REMARK SMILES CNC(=O)[C@H](C)S(=O)(=O)c1cc(C(=O)OCCOCCOC(=O)c2ccc(-c3c4nc(c(-c5c(F)cccc5F)c5ccc([nH]5)c(-c5c(F)cccc5F)c5nc(c(-c6c(F)cccc6F)c6ccc3[nH]6)C=C5)C=C4)cc2)c(C)cc1C
REMARK SMILES IDX 17 1 16 2 15 3 13 4 14 5 12 6 10 7 11 8 81 9 80 10 82 11
REMARK SMILES IDX 78 12 79 13 7 14 8 15 9 16 5 17 6 18 3 19 1 20 2 21 4 23
REMARK SMILES IDX 18 24 19 25 20 26 21 27 22 28 23 29 24 30 25 31 77 32 26 33
REMARK SMILES IDX 76 34 27 35 28 36 29 37 70 38 30 39 75 40 69 41 71 42 31 43
REMARK SMILES IDX 74 44 68 45 67 46 32 48 58 49 41 50 57 51 42 52 45 53 56 54
REMARK SMILES IDX 72 55 43 56 44 57 55 59 73 60 46 61 33 62 34 63 39 64 35 65
REMARK SMILES IDX 36 66 38 67 40 68 37 69 59 70 60 71 65 72 61 73 62 74 64 75
REMARK SMILES IDX 66 76 63 77 47 78 48 79 53 80 49 81 50 82 52 83 54 84 51 85
REMARK H PARENT 2 22 71 47 45 58
REMARK Flexibility Score: inf
ROOT
ATOM      1  C   UNL     1       4.052  -0.757   5.903  1.00  0.00     0.202 C 
ENDROOT
BRANCH   1   2
ATOM      2  C   UNL     1       4.470  -0.245   4.526  1.00  0.00     0.261 C 
BRANCH   2   3
ATOM      3  O   UNL     1       3.380   0.481   3.931  1.00  0.00    -0.460 OA
BRANCH   3   4
ATOM      4  C   UNL     1       3.015   0.059   2.703  1.00  0.00     0.338 C 
ATOM      5  O   UNL     1       3.621  -0.743   2.007  1.00  0.00    -0.246 OA
BRANCH   4   6
ATOM      6  C   UNL     1       1.655   0.535   2.344  1.00  0.00     0.064 A 
ATOM      7  C   UNL     1      -0.429  -0.137   1.252  1.00  0.00     0.071 A 
ATOM      8  C   UNL     1       0.818  -0.453   1.804  1.00  0.00     0.036 A 
ATOM      9  C   UNL     1      -0.846   1.201   1.208  1.00  0.00    -0.032 A 
ATOM     10  C   UNL     1      -0.051   2.163   1.867  1.00  0.00     0.009 A 
ATOM     11  C   UNL     1      -2.099   1.681   0.531  1.00  0.00     0.046 C 
ATOM     12  C   UNL     1       1.180   1.846   2.475  1.00  0.00    -0.036 A 
ATOM     13  C   UNL     1       1.928   2.943   3.176  1.00  0.00     0.045 C 
BRANCH   7  14
ATOM     14  S   UNL     1      -1.461  -1.524   0.785  1.00  0.00     0.190 S 
ATOM     15  O   UNL     1      -2.756  -1.018   0.363  1.00  0.00    -0.223 OA
ATOM     16  O   UNL     1      -1.425  -2.432   1.919  1.00  0.00    -0.223 OA
BRANCH  14  17
ATOM     17  C   UNL     1      -0.733  -2.308  -0.636  1.00  0.00     0.199 C 
ATOM     18  C   UNL     1      -0.522  -1.313  -1.776  1.00  0.00     0.036 C 
BRANCH  17  19
ATOM     19  C   UNL     1       0.565  -2.987  -0.273  1.00  0.00     0.238 C 
ATOM     20  C   UNL     1      -0.509  -5.040   0.783  1.00  0.00     0.142 C 
ATOM     21  N   UNL     1       0.584  -4.211   0.323  1.00  0.00    -0.358 N 
ATOM     22  H   UNL     1       1.482  -4.592   0.461  1.00  0.00     0.163 HD
ATOM     23  O   UNL     1       1.652  -2.469  -0.535  1.00  0.00    -0.274 OA
ENDBRANCH  17  19
ENDBRANCH  14  17
ENDBRANCH   7  14
ENDBRANCH   4   6
ENDBRANCH   3   4
ENDBRANCH   2   3
ENDBRANCH   1   2
BRANCH   1  24
ATOM     24  O   UNL     1       3.100  -1.823   5.897  1.00  0.00    -0.374 OA
BRANCH  24  25
ATOM     25  C   UNL     1       1.739  -1.488   5.622  1.00  0.00     0.202 C 
BRANCH  25  26
ATOM     26  C   UNL     1       0.931  -0.942   6.804  1.00  0.00     0.261 C 
BRANCH  26  27
ATOM     27  O   UNL     1       1.429   0.330   7.257  1.00  0.00    -0.460 OA
BRANCH  27  28
ATOM     28  C   UNL     1       2.104   0.282   8.427  1.00  0.00     0.338 C 
ATOM     29  O   UNL     1       2.257  -0.692   9.155  1.00  0.00    -0.246 OA
BRANCH  28  30
ATOM     30  C   UNL     1       2.804   1.556   8.675  1.00  0.00     0.060 A 
ATOM     31  C   UNL     1       4.144   1.480   9.078  1.00  0.00     0.016 A 
ATOM     32  C   UNL     1       2.148   2.788   8.618  1.00  0.00     0.016 A 
ATOM     33  C   UNL     1       4.808   2.624   9.509  1.00  0.00     0.010 A 
ATOM     34  C   UNL     1       2.816   3.938   9.056  1.00  0.00     0.010 A 
ATOM     35  C   UNL     1       4.129   3.849   9.555  1.00  0.00    -0.014 A 
BRANCH  35  36
ATOM     36  C   UNL     1       4.732   4.968  10.318  1.00  0.00     0.031 A 
ATOM     37  C   UNL     1       4.284   5.199  11.737  1.00  0.00     0.074 A 
ATOM     38  C   UNL     1       5.710   5.722   9.789  1.00  0.00     0.049 A 
ATOM     39  N   UNL     1       4.700   6.084  12.607  1.00  0.00    -0.248 NA
ATOM     40  C   UNL     1       3.222   4.313  12.241  1.00  0.00     0.031 C 
ATOM     41  C   UNL     1       6.254   5.578   8.441  1.00  0.00     0.029 A 
ATOM     42  N   UNL     1       6.425   6.759  10.334  1.00  0.00    -0.354 N 
ATOM     43  C   UNL     1       3.950   5.862  13.757  1.00  0.00     0.074 A 
ATOM     44  C   UNL     1       3.029   4.787  13.462  1.00  0.00     0.031 C 
ATOM     45  C   UNL     1       7.220   6.496   8.261  1.00  0.00     0.029 A 
ATOM     46  C   UNL     1       7.349   7.300   9.476  1.00  0.00     0.049 A 
ATOM     47  H   UNL     1       6.288   7.083  11.253  1.00  0.00     0.167 HD
ATOM     48  C   UNL     1       4.030   6.487  14.955  1.00  0.00     0.037 A 
ATOM     49  C   UNL     1       8.200   8.329   9.652  1.00  0.00     0.037 A 
ATOM     50  C   UNL     1       4.950   7.553  15.254  1.00  0.00     0.049 A 
ATOM     51  C   UNL     1       8.248   9.032  10.983  1.00  0.00     0.074 A 
ATOM     52  C   UNL     1       5.115   8.245  16.441  1.00  0.00     0.029 A 
ATOM     53  N   UNL     1       5.860   8.082  14.352  1.00  0.00    -0.354 N 
ATOM     54  N   UNL     1       7.553   8.797  12.070  1.00  0.00    -0.248 NA
ATOM     55  C   UNL     1       9.211  10.135  11.113  1.00  0.00     0.031 C 
ATOM     56  C   UNL     1       6.100   9.219  16.246  1.00  0.00     0.029 A 
ATOM     57  C   UNL     1       6.581   9.102  14.952  1.00  0.00     0.049 A 
ATOM     58  H   UNL     1       5.977   7.779  13.423  1.00  0.00     0.167 HD
ATOM     59  C   UNL     1       8.019   9.697  13.022  1.00  0.00     0.074 A 
ATOM     60  C   UNL     1       9.060  10.476  12.385  1.00  0.00     0.031 C 
ATOM     61  C   UNL     1       7.623   9.860  14.309  1.00  0.00     0.037 A 
BRANCH  48  62
ATOM     62  C   UNL     1       3.076   6.042  16.024  1.00  0.00     0.057 A 
ATOM     63  C   UNL     1       3.213   4.806  16.671  1.00  0.00     0.134 A 
ATOM     64  C   UNL     1       2.011   6.862  16.417  1.00  0.00     0.134 A 
ATOM     65  F   UNL     1       4.202   3.966  16.330  1.00  0.00    -0.206 F 
ATOM     66  C   UNL     1       2.308   4.391  17.650  1.00  0.00     0.040 A 
ATOM     67  C   UNL     1       1.115   6.469  17.412  1.00  0.00     0.040 A 
ATOM     68  F   UNL     1       1.825   8.059  15.839  1.00  0.00    -0.206 F 
ATOM     69  C   UNL     1       1.258   5.227  18.026  1.00  0.00     0.006 A 
ENDBRANCH  48  62
BRANCH  49  70
ATOM     70  C   UNL     1       9.090   8.751   8.543  1.00  0.00     0.057 A 
ATOM     71  C   UNL     1      10.471   8.529   8.595  1.00  0.00     0.134 A 
ATOM     72  C   UNL     1       8.582   9.399   7.411  1.00  0.00     0.134 A 
ATOM     73  F   UNL     1      11.019   7.933   9.664  1.00  0.00    -0.206 F 
ATOM     74  C   UNL     1      11.318   8.952   7.569  1.00  0.00     0.040 A 
ATOM     75  C   UNL     1       9.414   9.807   6.368  1.00  0.00     0.040 A 
ATOM     76  F   UNL     1       7.267   9.638   7.302  1.00  0.00    -0.206 F 
ATOM     77  C   UNL     1      10.787   9.589   6.449  1.00  0.00     0.006 A 
ENDBRANCH  49  70
BRANCH  61  78
ATOM     78  C   UNL     1       8.353  10.885  15.127  1.00  0.00     0.057 A 
ATOM     79  C   UNL     1       8.177  12.259  14.926  1.00  0.00     0.134 A 
ATOM     80  C   UNL     1       9.226  10.487  16.148  1.00  0.00     0.134 A 
ATOM     81  F   UNL     1       7.363  12.706  13.957  1.00  0.00    -0.206 F 
ATOM     82  C   UNL     1       8.864  13.202  15.693  1.00  0.00     0.040 A 
ATOM     83  C   UNL     1       9.899  11.420  16.938  1.00  0.00     0.040 A 
ATOM     84  F   UNL     1       9.432   9.185  16.400  1.00  0.00    -0.206 F 
ATOM     85  C   UNL     1       9.725  12.782  16.706  1.00  0.00     0.006 A 
ENDBRANCH  61  78
ENDBRANCH  35  36
ENDBRANCH  28  30
ENDBRANCH  27  28
ENDBRANCH  26  27
ENDBRANCH  25  26
ENDBRANCH  24  25
ENDBRANCH   1  24
TORSDOF 17
