REMARK SMILES O=C(Cn1nc(C(=O)OCCOCCOC(=O)c2ccc(-c3c4nc(c(-c5c(F)cccc5F)c5ccc([nH]5)c(-c5c(F)cccc5F)c5nc(c(-c6c(F)cccc6F)c6ccc3[nH]6)C=C5)C=C4)cc2)c2ccccc2c1=O)Nc1ccc2c(c1)C(=O)c1ccccc1C2=O
REMARK SMILES IDX 11 1 10 2 9 3 7 4 8 5 6 6 4 7 5 8 78 9 77 10 79 11 72 12
REMARK SMILES IDX 76 13 73 14 75 15 74 16 3 17 2 18 1 19 80 20 81 22 82 23
REMARK SMILES IDX 86 24 83 25 85 26 84 27 87 28 95 29 88 30 89 31 94 32 96 33
REMARK SMILES IDX 90 34 93 35 91 36 92 37 12 38 13 39 14 40 15 41 16 42 17 43
REMARK SMILES IDX 18 44 19 45 71 46 20 47 70 48 21 49 22 50 23 51 64 52 24 53
REMARK SMILES IDX 69 54 63 55 65 56 25 57 68 58 62 59 61 60 26 62 52 63 35 64
REMARK SMILES IDX 51 65 36 66 39 67 50 68 66 69 37 70 38 71 49 73 67 74 40 75
REMARK SMILES IDX 27 76 28 77 33 78 29 79 30 80 32 81 34 82 31 83 53 84 54 85
REMARK SMILES IDX 59 86 55 87 56 88 58 89 60 90 57 91 41 92 42 93 47 94 43 95
REMARK SMILES IDX 44 96 46 97 48 98 45 99
REMARK H PARENT 80 21 65 61 39 72
REMARK Flexibility Score: inf
ROOT
ATOM      1  C   UNL     1       3.671  -6.181   2.558  1.00  0.00     0.202 C 
ENDROOT
BRANCH   1   2
ATOM      2  C   UNL     1       2.669  -5.215   3.216  1.00  0.00     0.261 C 
BRANCH   2   3
ATOM      3  O   UNL     1       2.895  -3.857   2.779  1.00  0.00    -0.458 OA
BRANCH   3   4
ATOM      4  C   UNL     1       2.875  -2.921   3.752  1.00  0.00     0.359 C 
ATOM      5  O   UNL     1       2.539  -3.062   4.914  1.00  0.00    -0.244 OA
BRANCH   4   6
ATOM      6  C   UNL     1       3.549  -1.640   3.265  1.00  0.00     0.176 A 
ATOM      7  N   UNL     1       3.510   0.273   1.951  1.00  0.00    -0.219 N 
ATOM      8  N   UNL     1       2.939  -0.928   2.356  1.00  0.00    -0.161 NA
ATOM      9  C   UNL     1       4.681   0.793   2.517  1.00  0.00     0.275 A 
ATOM     10  C   UNL     1       5.399  -0.061   3.481  1.00  0.00     0.051 A 
ATOM     11  O   UNL     1       5.132   1.903   2.252  1.00  0.00    -0.267 OA
ATOM     12  C   UNL     1       4.850  -1.276   3.863  1.00  0.00     0.022 A 
ATOM     13  C   UNL     1       6.635   0.349   4.005  1.00  0.00     0.014 A 
ATOM     14  C   UNL     1       5.551  -2.100   4.760  1.00  0.00     0.011 A 
ATOM     15  C   UNL     1       7.341  -0.483   4.876  1.00  0.00     0.001 A 
ATOM     16  C   UNL     1       6.805  -1.713   5.243  1.00  0.00     0.001 A 
BRANCH   7  17
ATOM     17  C   UNL     1       2.734   1.176   1.068  1.00  0.00     0.248 C 
BRANCH  17  18
ATOM     18  C   UNL     1       1.743   0.571   0.062  1.00  0.00     0.246 C 
ATOM     19  O   UNL     1       0.788   1.197  -0.387  1.00  0.00    -0.273 OA
ATOM     20  N   UNL     1       2.131  -0.677  -0.340  1.00  0.00    -0.324 N 
ATOM     21  H   UNL     1       2.955  -1.017   0.077  1.00  0.00     0.169 HD
BRANCH  20  22
ATOM     22  C   UNL     1       1.527  -1.538  -1.254  1.00  0.00     0.042 A 
ATOM     23  C   UNL     1       0.771  -1.219  -2.348  1.00  0.00     0.027 A 
ATOM     24  C   UNL     1       1.792  -2.888  -1.034  1.00  0.00     0.039 A 
ATOM     25  C   UNL     1       0.430  -2.269  -3.215  1.00  0.00     0.015 A 
ATOM     26  C   UNL     1       1.536  -4.125  -2.025  1.00  0.00     0.036 A 
ATOM     27  C   UNL     1       0.893  -3.628  -3.079  1.00  0.00     0.034 A 
ATOM     28  C   UNL     1       1.951  -6.238  -1.942  1.00  0.00     0.194 C 
ATOM     29  C   UNL     1       2.237  -4.196  -3.079  1.00  0.00     0.194 C 
ATOM     30  O   UNL     1       1.264  -7.343  -1.893  1.00  0.00    -0.289 OA
ATOM     31  C   UNL     1       3.117  -6.822  -1.615  1.00  0.00     0.034 A 
ATOM     32  C   UNL     1       3.008  -6.220  -2.803  1.00  0.00     0.034 A 
ATOM     33  O   UNL     1       2.750  -3.137  -3.675  1.00  0.00    -0.289 OA
ATOM     34  C   UNL     1       3.768  -7.846  -0.928  1.00  0.00     0.013 A 
ATOM     35  C   UNL     1       4.086  -7.054  -3.540  1.00  0.00     0.013 A 
ATOM     36  C   UNL     1       4.878  -8.311  -1.569  1.00  0.00     0.001 A 
ATOM     37  C   UNL     1       5.021  -7.953  -2.909  1.00  0.00     0.001 A 
ENDBRANCH  20  22
ENDBRANCH  17  18
ENDBRANCH   7  17
ENDBRANCH   4   6
ENDBRANCH   3   4
ENDBRANCH   2   3
ENDBRANCH   1   2
BRANCH   1  38
ATOM     38  O   UNL     1       5.032  -6.045   2.967  1.00  0.00    -0.374 OA
BRANCH  38  39
ATOM     39  C   UNL     1       5.712  -4.843   2.609  1.00  0.00     0.202 C 
BRANCH  39  40
ATOM     40  C   UNL     1       5.978  -4.604   1.126  1.00  0.00     0.261 C 
BRANCH  40  41
ATOM     41  O   UNL     1       4.749  -4.400   0.421  1.00  0.00    -0.460 OA
BRANCH  41  42
ATOM     42  C   UNL     1       4.933  -4.257  -0.907  1.00  0.00     0.338 C 
ATOM     43  O   UNL     1       5.974  -4.022  -1.488  1.00  0.00    -0.246 OA
BRANCH  42  44
ATOM     44  C   UNL     1       3.670  -4.620  -1.583  1.00  0.00     0.060 A 
ATOM     45  C   UNL     1       3.888  -4.776  -3.528  1.00  0.00     0.016 A 
ATOM     46  C   UNL     1       2.101  -5.075  -0.478  1.00  0.00     0.016 A 
ATOM     47  C   UNL     1       2.217  -5.447  -4.403  1.00  0.00     0.010 A 
ATOM     48  C   UNL     1       0.403  -5.511  -1.388  1.00  0.00     0.010 A 
ATOM     49  C   UNL     1       0.591  -5.753  -3.342  1.00  0.00    -0.014 A 
BRANCH  49  50
ATOM     50  C   UNL     1      -0.748  -5.917  -4.138  1.00  0.00     0.031 A 
ATOM     51  C   UNL     1      -2.092  -5.353  -3.644  1.00  0.00     0.074 A 
ATOM     52  C   UNL     1      -0.743  -6.463  -5.374  1.00  0.00     0.049 A 
ATOM     53  N   UNL     1      -3.294  -5.446  -4.180  1.00  0.00    -0.248 NA
ATOM     54  C   UNL     1      -2.131  -4.652  -2.361  1.00  0.00     0.031 C 
ATOM     55  C   UNL     1       0.378  -7.161  -5.992  1.00  0.00     0.029 A 
ATOM     56  N   UNL     1      -1.692  -6.443  -6.375  1.00  0.00    -0.354 N 
ATOM     57  C   UNL     1      -4.185  -4.926  -3.235  1.00  0.00     0.074 A 
ATOM     58  C   UNL     1      -3.415  -4.636  -2.059  1.00  0.00     0.031 C 
ATOM     59  C   UNL     1       0.150  -7.297  -7.307  1.00  0.00     0.029 A 
ATOM     60  C   UNL     1      -1.204  -6.843  -7.603  1.00  0.00     0.049 A 
ATOM     61  H   UNL     1      -2.626  -6.171  -6.228  1.00  0.00     0.167 HD
ATOM     62  C   UNL     1      -5.500  -4.601  -3.335  1.00  0.00     0.037 A 
ATOM     63  C   UNL     1      -1.779  -6.854  -8.824  1.00  0.00     0.037 A 
ATOM     64  C   UNL     1      -6.250  -4.706  -4.553  1.00  0.00     0.049 A 
ATOM     65  C   UNL     1      -3.227  -6.459  -8.943  1.00  0.00     0.074 A 
ATOM     66  C   UNL     1      -7.571  -4.378  -4.793  1.00  0.00     0.029 A 
ATOM     67  N   UNL     1      -5.713  -5.135  -5.756  1.00  0.00    -0.354 N 
ATOM     68  N   UNL     1      -4.042  -6.002  -8.022  1.00  0.00    -0.248 NA
ATOM     69  C   UNL     1      -3.851  -6.630 -10.264  1.00  0.00     0.031 C 
ATOM     70  C   UNL     1      -7.844  -4.644  -6.139  1.00  0.00     0.029 A 
ATOM     71  C   UNL     1      -6.679  -5.090  -6.744  1.00  0.00     0.049 A 
ATOM     72  H   UNL     1      -4.782  -5.428  -5.888  1.00  0.00     0.167 HD
ATOM     73  C   UNL     1      -5.272  -5.841  -8.647  1.00  0.00     0.074 A 
ATOM     74  C   UNL     1      -5.085  -6.205 -10.036  1.00  0.00     0.031 C 
ATOM     75  C   UNL     1      -6.459  -5.452  -8.119  1.00  0.00     0.037 A 
BRANCH  62  76
ATOM     76  C   UNL     1      -6.188  -4.078  -2.093  1.00  0.00     0.057 A 
ATOM     77  C   UNL     1      -7.163  -4.845  -1.442  1.00  0.00     0.134 A 
ATOM     78  C   UNL     1      -5.850  -2.849  -1.502  1.00  0.00     0.134 A 
ATOM     79  F   UNL     1      -7.564  -6.017  -1.957  1.00  0.00    -0.206 F 
ATOM     80  C   UNL     1      -7.739  -4.434  -0.236  1.00  0.00     0.040 A 
ATOM     81  C   UNL     1      -6.386  -2.449  -0.274  1.00  0.00     0.040 A 
ATOM     82  F   UNL     1      -4.920  -2.059  -2.061  1.00  0.00    -0.206 F 
ATOM     83  C   UNL     1      -7.332  -3.245   0.364  1.00  0.00     0.006 A 
ENDBRANCH  62  76
BRANCH  63  84
ATOM     84  C   UNL     1      -1.002  -7.269 -10.030  1.00  0.00     0.057 A 
ATOM     85  C   UNL     1      -0.493  -8.567 -10.171  1.00  0.00     0.134 A 
ATOM     86  C   UNL     1      -0.755  -6.377 -11.084  1.00  0.00     0.134 A 
ATOM     87  F   UNL     1      -0.699  -9.482  -9.213  1.00  0.00    -0.206 F 
ATOM     88  C   UNL     1       0.261  -8.950 -11.283  1.00  0.00     0.040 A 
ATOM     89  C   UNL     1      -0.036  -6.757 -12.222  1.00  0.00     0.040 A 
ATOM     90  F   UNL     1      -1.240  -5.127 -11.039  1.00  0.00    -0.206 F 
ATOM     91  C   UNL     1       0.486  -8.045 -12.317  1.00  0.00     0.006 A 
ENDBRANCH  63  84
BRANCH  75  92
ATOM     92  C   UNL     1      -7.629  -5.382  -9.052  1.00  0.00     0.057 A 
ATOM     93  C   UNL     1      -8.163  -4.146  -9.433  1.00  0.00     0.134 A 
ATOM     94  C   UNL     1      -8.244  -6.538  -9.547  1.00  0.00     0.134 A 
ATOM     95  F   UNL     1      -7.628  -3.002  -8.979  1.00  0.00    -0.206 F 
ATOM     96  C   UNL     1      -9.268  -4.062 -10.279  1.00  0.00     0.040 A 
ATOM     97  C   UNL     1      -9.331  -6.466 -10.417  1.00  0.00     0.040 A 
ATOM     98  F   UNL     1      -7.772  -7.752  -9.223  1.00  0.00    -0.206 F 
ATOM     99  C   UNL     1      -9.849  -5.225 -10.781  1.00  0.00     0.006 A 
ENDBRANCH  75  92
ENDBRANCH  49  50
ENDBRANCH  42  44
ENDBRANCH  41  42
ENDBRANCH  40  41
ENDBRANCH  39  40
ENDBRANCH  38  39
ENDBRANCH   1  38
TORSDOF 17
