REMARK SMILES C[C@@H](NC(=O)NCCC(=O)NC1CC1)C(=O)OCCOCCOC(=O)c1ccc(-c2c3nc(c(-c4c(F)cccc4F)c4ccc([nH]4)c(-c4c(F)cccc4F)c4nc(c(-c5c(F)cccc5F)c5ccc2[nH]5)C=C4)C=C3)cc1
REMARK SMILES IDX 18 1 17 2 15 3 16 4 2 5 1 6 3 7 4 8 5 10 6 11 7 13 8 14 9 15
REMARK SMILES IDX 10 16 11 17 12 19 13 20 14 21 19 22 20 23 21 24 22 25 23 26
REMARK SMILES IDX 24 27 25 28 26 29 27 30 79 31 28 32 78 33 29 34 30 35 31 36
REMARK SMILES IDX 72 37 32 38 77 39 71 40 73 41 33 42 76 43 70 44 69 45 34 47
REMARK SMILES IDX 60 48 43 49 59 50 44 51 47 52 58 53 74 54 45 55 46 56 57 58
REMARK SMILES IDX 75 59 48 60 35 61 36 62 41 63 37 64 38 65 40 66 42 67 39 68
REMARK SMILES IDX 61 69 62 70 67 71 63 72 64 73 66 74 68 75 65 76 49 77 50 78
REMARK SMILES IDX 55 79 51 80 52 81 54 82 56 83 53 84
REMARK H PARENT 3 9 6 12 11 18 73 46 47 57
REMARK Flexibility Score: inf
ROOT
ATOM      1  C   UNL     1      -2.508  -0.142  -0.550  1.00  0.00     0.261 C 
ENDROOT
BRANCH   1   2
ATOM      2  O   UNL     1      -1.194   0.075   0.009  1.00  0.00    -0.462 OA
BRANCH   2   3
ATOM      3  C   UNL     1      -0.366   1.026  -0.492  1.00  0.00     0.328 C 
ATOM      4  O   UNL     1      -0.602   2.229  -0.471  1.00  0.00    -0.250 OA
BRANCH   3   5
ATOM      5  C   UNL     1       0.897   0.445  -1.132  1.00  0.00     0.190 C 
ATOM      6  C   UNL     1       1.383  -0.829  -0.446  1.00  0.00     0.043 C 
BRANCH   5   7
ATOM      7  N   UNL     1       0.924   0.378  -2.603  1.00  0.00    -0.325 N 
ATOM      8  C   UNL     1      -0.038  -0.180  -3.371  1.00  0.00     0.315 C 
ATOM      9  H   UNL     1       1.702   0.770  -3.061  1.00  0.00     0.166 HD
ATOM     10  O   UNL     1       0.157  -1.250  -3.938  1.00  0.00    -0.249 OA
ATOM     11  N   UNL     1      -1.176   0.513  -3.608  1.00  0.00    -0.338 N 
ATOM     12  H   UNL     1      -1.881   0.013  -4.080  1.00  0.00     0.165 HD
BRANCH  11  13
ATOM     13  C   UNL     1      -1.515   1.889  -3.267  1.00  0.00     0.127 C 
BRANCH  13  14
ATOM     14  C   UNL     1      -2.737   2.539  -3.903  1.00  0.00     0.121 C 
BRANCH  14  15
ATOM     15  C   UNL     1      -3.836   1.592  -4.307  1.00  0.00     0.221 C 
ATOM     16  O   UNL     1      -4.809   1.371  -3.588  1.00  0.00    -0.275 OA
ATOM     17  N   UNL     1      -3.710   0.959  -5.516  1.00  0.00    -0.353 N 
ATOM     18  H   UNL     1      -4.504   0.480  -5.846  1.00  0.00     0.163 HD
BRANCH  17  19
ATOM     19  C   UNL     1      -2.551   0.917  -6.350  1.00  0.00     0.082 C 
ATOM     20  C   UNL     1      -2.169  -0.414  -6.938  1.00  0.00     0.027 C 
ATOM     21  C   UNL     1      -2.609   0.712  -7.829  1.00  0.00     0.027 C 
ENDBRANCH  17  19
ENDBRANCH  14  15
ENDBRANCH  13  14
ENDBRANCH  11  13
ENDBRANCH   5   7
ENDBRANCH   3   5
ENDBRANCH   2   3
ENDBRANCH   1   2
BRANCH   1  22
ATOM     22  C   UNL     1      -3.713   0.733  -0.140  1.00  0.00     0.202 C 
BRANCH  22  23
ATOM     23  O   UNL     1      -3.904   1.219   1.181  1.00  0.00    -0.374 OA
BRANCH  23  24
ATOM     24  C   UNL     1      -2.782   1.734   1.871  1.00  0.00     0.202 C 
BRANCH  24  25
ATOM     25  C   UNL     1      -2.155   0.689   2.805  1.00  0.00     0.261 C 
BRANCH  25  26
ATOM     26  O   UNL     1      -2.405  -0.669   2.395  1.00  0.00    -0.460 OA
BRANCH  26  27
ATOM     27  C   UNL     1      -3.635  -1.136   2.724  1.00  0.00     0.338 C 
ATOM     28  O   UNL     1      -4.467  -0.599   3.433  1.00  0.00    -0.246 OA
BRANCH  27  29
ATOM     29  C   UNL     1      -3.886  -2.412   2.022  1.00  0.00     0.060 A 
ATOM     30  C   UNL     1      -5.107  -2.575   1.356  1.00  0.00     0.016 A 
ATOM     31  C   UNL     1      -2.976  -3.470   2.102  1.00  0.00     0.016 A 
ATOM     32  C   UNL     1      -5.453  -3.821   0.832  1.00  0.00     0.010 A 
ATOM     33  C   UNL     1      -3.330  -4.722   1.589  1.00  0.00     0.010 A 
ATOM     34  C   UNL     1      -4.590  -4.914   0.996  1.00  0.00    -0.014 A 
BRANCH  34  35
ATOM     35  C   UNL     1      -5.100  -6.285   0.749  1.00  0.00     0.031 A 
ATOM     36  C   UNL     1      -5.646  -7.067   1.915  1.00  0.00     0.074 A 
ATOM     37  C   UNL     1      -5.125  -6.813  -0.487  1.00  0.00     0.049 A 
ATOM     38  N   UNL     1      -6.133  -8.281   1.950  1.00  0.00    -0.248 NA
ATOM     39  C   UNL     1      -5.644  -6.382   3.218  1.00  0.00     0.031 C 
ATOM     40  C   UNL     1      -4.673  -6.140  -1.702  1.00  0.00     0.029 A 
ATOM     41  N   UNL     1      -5.551  -8.044  -0.919  1.00  0.00    -0.354 N 
ATOM     42  C   UNL     1      -6.494  -8.504   3.273  1.00  0.00     0.074 A 
ATOM     43  C   UNL     1      -6.142  -7.314   4.016  1.00  0.00     0.031 C 
ATOM     44  C   UNL     1      -4.838  -6.972  -2.746  1.00  0.00     0.029 A 
ATOM     45  C   UNL     1      -5.379  -8.244  -2.267  1.00  0.00     0.049 A 
ATOM     46  H   UNL     1      -5.943  -8.720  -0.320  1.00  0.00     0.167 HD
ATOM     47  C   UNL     1      -7.076  -9.597   3.820  1.00  0.00     0.037 A 
ATOM     48  C   UNL     1      -5.614  -9.336  -3.020  1.00  0.00     0.037 A 
ATOM     49  C   UNL     1      -7.421 -10.783   3.082  1.00  0.00     0.049 A 
ATOM     50  C   UNL     1      -6.184 -10.573  -2.374  1.00  0.00     0.074 A 
ATOM     51  C   UNL     1      -8.020 -11.942   3.543  1.00  0.00     0.029 A 
ATOM     52  N   UNL     1      -7.190 -10.963   1.727  1.00  0.00    -0.354 N 
ATOM     53  N   UNL     1      -6.539 -10.768  -1.126  1.00  0.00    -0.248 NA
ATOM     54  C   UNL     1      -6.388 -11.742  -3.242  1.00  0.00     0.031 C 
ATOM     55  C   UNL     1      -8.105 -12.843   2.477  1.00  0.00     0.029 A 
ATOM     56  C   UNL     1      -7.609 -12.225   1.340  1.00  0.00     0.049 A 
ATOM     57  H   UNL     1      -6.788 -10.293   1.128  1.00  0.00     0.167 HD
ATOM     58  C   UNL     1      -7.032 -12.066  -1.067  1.00  0.00     0.074 A 
ATOM     59  C   UNL     1      -6.942 -12.608  -2.406  1.00  0.00     0.031 C 
ATOM     60  C   UNL     1      -7.518 -12.747   0.000  1.00  0.00     0.037 A 
BRANCH  47  61
ATOM     61  C   UNL     1      -7.344  -9.570   5.296  1.00  0.00     0.057 A 
ATOM     62  C   UNL     1      -8.352  -8.771   5.852  1.00  0.00     0.134 A 
ATOM     63  C   UNL     1      -6.596 -10.367   6.171  1.00  0.00     0.134 A 
ATOM     64  F   UNL     1      -9.095  -7.972   5.071  1.00  0.00    -0.206 F 
ATOM     65  C   UNL     1      -8.590  -8.749   7.227  1.00  0.00     0.040 A 
ATOM     66  C   UNL     1      -6.842 -10.374   7.544  1.00  0.00     0.040 A 
ATOM     67  F   UNL     1      -5.617 -11.158   5.704  1.00  0.00    -0.206 F 
ATOM     68  C   UNL     1      -7.837  -9.557   8.077  1.00  0.00     0.006 A 
ENDBRANCH  47  61
BRANCH  48  69
ATOM     69  C   UNL     1      -5.293  -9.324  -4.470  1.00  0.00     0.057 A 
ATOM     70  C   UNL     1      -6.300  -9.379  -5.440  1.00  0.00     0.134 A 
ATOM     71  C   UNL     1      -3.967  -9.287  -4.920  1.00  0.00     0.134 A 
ATOM     72  F   UNL     1      -7.588  -9.444  -5.073  1.00  0.00    -0.206 F 
ATOM     73  C   UNL     1      -6.002  -9.413  -6.804  1.00  0.00     0.040 A 
ATOM     74  C   UNL     1      -3.655  -9.294  -6.280  1.00  0.00     0.040 A 
ATOM     75  F   UNL     1      -2.955  -9.238  -4.042  1.00  0.00    -0.206 F 
ATOM     76  C   UNL     1      -4.675  -9.365  -7.227  1.00  0.00     0.006 A 
ENDBRANCH  48  69
BRANCH  60  77
ATOM     77  C   UNL     1      -8.023 -14.141  -0.242  1.00  0.00     0.057 A 
ATOM     78  C   UNL     1      -7.155 -15.210  -0.495  1.00  0.00     0.134 A 
ATOM     79  C   UNL     1      -9.394 -14.423  -0.173  1.00  0.00     0.134 A 
ATOM     80  F   UNL     1      -5.832 -15.006  -0.585  1.00  0.00    -0.206 F 
ATOM     81  C   UNL     1      -7.634 -16.506  -0.694  1.00  0.00     0.040 A 
ATOM     82  C   UNL     1      -9.883 -15.719  -0.343  1.00  0.00     0.040 A 
ATOM     83  F   UNL     1     -10.279 -13.446   0.077  1.00  0.00    -0.206 F 
ATOM     84  C   UNL     1      -9.002 -16.764  -0.611  1.00  0.00     0.006 A 
ENDBRANCH  60  77
ENDBRANCH  34  35
ENDBRANCH  27  29
ENDBRANCH  26  27
ENDBRANCH  25  26
ENDBRANCH  24  25
ENDBRANCH  23  24
ENDBRANCH  22  23
ENDBRANCH   1  22
TORSDOF 19
