REMARK SMILES O=C(OCCOCCOC(=O)c1cc(-c2ccc(Cl)cc2)nc2c3c(C4CC4)cc(C(F)(F)F)nc3nn12)c1ccc(-c2c3nc(c(-c4c(F)cccc4F)c4ccc([nH]4)c(-c4c(F)cccc4F)c4nc(c(-c5c(F)cccc5F)c5ccc2[nH]5)C=C4)C=C3)cc1
REMARK SMILES IDX 5 1 4 2 3 3 2 4 1 5 39 6 40 7 92 8 41 9 91 10 42 11 43 12
REMARK SMILES IDX 44 13 85 14 45 15 90 16 84 17 86 18 46 19 89 20 83 21 82 22
REMARK SMILES IDX 47 24 73 25 56 26 72 27 57 28 60 29 71 30 87 31 58 32 59 33
REMARK SMILES IDX 70 35 88 36 61 37 48 38 49 39 54 40 50 41 51 42 53 43 55 44
REMARK SMILES IDX 52 45 74 46 75 47 80 48 76 49 77 50 79 51 81 52 78 53 62 54
REMARK SMILES IDX 63 55 68 56 64 57 65 58 67 59 69 60 66 61 6 62 7 63 8 64
REMARK SMILES IDX 9 65 10 66 11 67 12 68 13 69 38 70 14 71 23 72 37 73 22 74
REMARK SMILES IDX 24 75 36 76 25 77 35 78 29 79 30 80 15 81 16 82 21 83 17 84
REMARK SMILES IDX 20 85 18 86 19 87 26 88 27 89 28 90 31 91 32 92 33 93 34 94
REMARK H PARENT 86 23 60 34
REMARK Flexibility Score: inf
ROOT
ATOM      1  C   UNL     1       4.082  -1.321  -0.338  1.00  0.00     0.202 C 
ENDROOT
BRANCH   1   2
ATOM      2  C   UNL     1       4.140  -0.810   1.097  1.00  0.00     0.261 C 
BRANCH   2   3
ATOM      3  O   UNL     1       3.031   0.052   1.359  1.00  0.00    -0.460 OA
BRANCH   3   4
ATOM      4  C   UNL     1       3.004   1.296   0.809  1.00  0.00     0.338 C 
ATOM      5  O   UNL     1       1.950   1.853   0.528  1.00  0.00    -0.246 OA
BRANCH   4   6
ATOM      6  C   UNL     1       4.277   2.052   0.801  1.00  0.00     0.060 A 
ATOM      7  C   UNL     1       5.351   1.812  -0.074  1.00  0.00     0.016 A 
ATOM      8  C   UNL     1       4.354   3.092   1.714  1.00  0.00     0.016 A 
ATOM      9  C   UNL     1       6.495   2.592  -0.042  1.00  0.00     0.010 A 
ATOM     10  C   UNL     1       5.501   3.868   1.751  1.00  0.00     0.010 A 
ATOM     11  C   UNL     1       6.559   3.651   0.848  1.00  0.00    -0.014 A 
BRANCH  11  12
ATOM     12  C   UNL     1       7.655   4.623   0.674  1.00  0.00     0.031 A 
ATOM     13  C   UNL     1       7.178   6.031   0.765  1.00  0.00     0.074 A 
ATOM     14  C   UNL     1       8.942   4.289   0.904  1.00  0.00     0.049 A 
ATOM     15  N   UNL     1       6.929   6.526   1.940  1.00  0.00    -0.248 NA
ATOM     16  C   UNL     1       6.543   6.775  -0.324  1.00  0.00     0.031 C 
ATOM     17  C   UNL     1       9.331   3.139   1.736  1.00  0.00     0.029 A 
ATOM     18  N   UNL     1      10.123   4.963   0.692  1.00  0.00    -0.354 N 
ATOM     19  C   UNL     1       5.967   7.495   1.783  1.00  0.00     0.074 A 
ATOM     20  C   UNL     1       5.840   7.702   0.356  1.00  0.00     0.031 C 
ATOM     21  C   UNL     1      10.598   3.320   2.153  1.00  0.00     0.029 A 
ATOM     22  C   UNL     1      11.147   4.528   1.535  1.00  0.00     0.049 A 
ATOM     23  H   UNL     1      10.233   5.674   0.019  1.00  0.00     0.167 HD
ATOM     24  C   UNL     1       5.263   7.961   2.847  1.00  0.00     0.037 A 
ATOM     25  C   UNL     1      11.987   5.376   2.192  1.00  0.00     0.037 A 
ATOM     26  C   UNL     1       5.454   7.250   4.085  1.00  0.00     0.049 A 
ATOM     27  C   UNL     1      11.046   6.045   3.169  1.00  0.00     0.074 A 
ATOM     28  C   UNL     1       4.763   6.324   4.840  1.00  0.00     0.029 A 
ATOM     29  N   UNL     1       6.647   7.409   4.748  1.00  0.00    -0.354 N 
ATOM     30  N   UNL     1      10.549   5.513   4.254  1.00  0.00    -0.248 NA
ATOM     31  C   UNL     1      10.386   7.280   2.748  1.00  0.00     0.031 C 
ATOM     32  C   UNL     1       5.757   5.652   5.627  1.00  0.00     0.029 A 
ATOM     33  C   UNL     1       6.995   6.189   5.275  1.00  0.00     0.049 A 
ATOM     34  H   UNL     1       7.159   8.245   4.830  1.00  0.00     0.167 HD
ATOM     35  C   UNL     1       9.359   6.203   4.505  1.00  0.00     0.074 A 
ATOM     36  C   UNL     1       9.365   7.327   3.593  1.00  0.00     0.031 C 
ATOM     37  C   UNL     1       8.363   5.710   5.304  1.00  0.00     0.037 A 
BRANCH  24  38
ATOM     38  C   UNL     1       4.517   9.225   2.850  1.00  0.00     0.057 A 
ATOM     39  C   UNL     1       3.159   9.359   2.574  1.00  0.00     0.134 A 
ATOM     40  C   UNL     1       5.197  10.326   3.391  1.00  0.00     0.134 A 
ATOM     41  F   UNL     1       2.456   8.337   2.068  1.00  0.00    -0.206 F 
ATOM     42  C   UNL     1       2.491  10.553   2.868  1.00  0.00     0.040 A 
ATOM     43  C   UNL     1       4.542  11.511   3.701  1.00  0.00     0.040 A 
ATOM     44  F   UNL     1       6.505  10.230   3.684  1.00  0.00    -0.206 F 
ATOM     45  C   UNL     1       3.179  11.622   3.450  1.00  0.00     0.006 A 
ENDBRANCH  24  38
BRANCH  25  46
ATOM     46  C   UNL     1      12.956   6.151   1.354  1.00  0.00     0.057 A 
ATOM     47  C   UNL     1      13.309   7.490   1.573  1.00  0.00     0.134 A 
ATOM     48  C   UNL     1      13.602   5.521   0.275  1.00  0.00     0.134 A 
ATOM     49  F   UNL     1      12.886   8.153   2.658  1.00  0.00    -0.206 F 
ATOM     50  C   UNL     1      14.107   8.207   0.675  1.00  0.00     0.040 A 
ATOM     51  C   UNL     1      14.425   6.215  -0.616  1.00  0.00     0.040 A 
ATOM     52  F   UNL     1      13.447   4.205   0.059  1.00  0.00    -0.206 F 
ATOM     53  C   UNL     1      14.649   7.574  -0.438  1.00  0.00     0.006 A 
ENDBRANCH  25  46
BRANCH  37  54
ATOM     54  C   UNL     1       8.719   4.443   6.018  1.00  0.00     0.057 A 
ATOM     55  C   UNL     1       8.100   3.217   5.732  1.00  0.00     0.134 A 
ATOM     56  C   UNL     1       9.743   4.432   6.975  1.00  0.00     0.134 A 
ATOM     57  F   UNL     1       7.123   3.129   4.816  1.00  0.00    -0.206 F 
ATOM     58  C   UNL     1       8.476   2.036   6.380  1.00  0.00     0.040 A 
ATOM     59  C   UNL     1      10.152   3.253   7.600  1.00  0.00     0.040 A 
ATOM     60  F   UNL     1      10.369   5.571   7.315  1.00  0.00    -0.206 F 
ATOM     61  C   UNL     1       9.514   2.050   7.308  1.00  0.00     0.006 A 
ENDBRANCH  37  54
ENDBRANCH  11  12
ENDBRANCH   4   6
ENDBRANCH   3   4
ENDBRANCH   2   3
ENDBRANCH   1   2
BRANCH   1  62
ATOM     62  O   UNL     1       3.834  -0.290  -1.290  1.00  0.00    -0.374 OA
BRANCH  62  63
ATOM     63  C   UNL     1       2.590  -0.348  -1.981  1.00  0.00     0.202 C 
BRANCH  63  64
ATOM     64  C   UNL     1       2.780  -1.047  -3.322  1.00  0.00     0.261 C 
BRANCH  64  65
ATOM     65  O   UNL     1       3.349  -2.342  -3.094  1.00  0.00    -0.459 OA
BRANCH  65  66
ATOM     66  C   UNL     1       4.697  -2.472  -3.131  1.00  0.00     0.357 C 
ATOM     67  O   UNL     1       5.520  -1.618  -3.442  1.00  0.00    -0.244 OA
BRANCH  66  68
ATOM     68  C   UNL     1       5.045  -3.770  -2.519  1.00  0.00     0.154 A 
ATOM     69  C   UNL     1       6.074  -3.838  -1.656  1.00  0.00     0.065 A 
ATOM     70  N   UNL     1       4.284  -4.897  -2.791  1.00  0.00    -0.205 N 
ATOM     71  C   UNL     1       6.229  -5.147  -0.956  1.00  0.00     0.075 A 
ATOM     72  C   UNL     1       4.601  -6.138  -2.211  1.00  0.00     0.166 A 
ATOM     73  N   UNL     1       3.233  -4.967  -3.632  1.00  0.00    -0.145 NA
ATOM     74  N   UNL     1       5.562  -6.233  -1.229  1.00  0.00    -0.228 NA
ATOM     75  C   UNL     1       3.795  -7.043  -2.880  1.00  0.00     0.069 A 
ATOM     76  C   UNL     1       2.958  -6.252  -3.716  1.00  0.00     0.184 A 
ATOM     77  C   UNL     1       3.791  -8.442  -2.805  1.00  0.00    -0.028 A 
ATOM     78  N   UNL     1       2.025  -6.764  -4.540  1.00  0.00    -0.222 NA
ATOM     79  C   UNL     1       2.822  -8.949  -3.706  1.00  0.00     0.038 A 
ATOM     80  C   UNL     1       1.994  -8.126  -4.527  1.00  0.00     0.147 A 
BRANCH  71  81
ATOM     81  C   UNL     1       7.229  -5.132   0.138  1.00  0.00     0.000 A 
ATOM     82  C   UNL     1       8.528  -5.574  -0.123  1.00  0.00     0.012 A 
ATOM     83  C   UNL     1       6.888  -4.639   1.405  1.00  0.00     0.012 A 
ATOM     84  C   UNL     1       9.495  -5.512   0.884  1.00  0.00     0.021 A 
ATOM     85  C   UNL     1       7.860  -4.583   2.412  1.00  0.00     0.021 A 
ATOM     86  C   UNL     1       9.159  -5.017   2.145  1.00  0.00     0.041 A 
ATOM     87  Cl  UNL     1      10.358  -4.939   3.378  1.00  0.00    -0.084 Cl
ENDBRANCH  71  81
BRANCH  77  88
ATOM     88  C   UNL     1       4.751  -9.216  -1.962  1.00  0.00     0.020 C 
ATOM     89  C   UNL     1       4.758 -10.725  -1.922  1.00  0.00     0.009 C 
ATOM     90  C   UNL     1       5.843  -9.998  -2.659  1.00  0.00     0.009 C 
ENDBRANCH  77  88
BRANCH  80  91
ATOM     91  C   UNL     1       1.020  -8.770  -5.505  1.00  0.00     0.433 C 
ATOM     92  F   UNL     1      -0.281  -8.467  -5.237  1.00  0.00    -0.165 F 
ATOM     93  F   UNL     1       1.239  -8.386  -6.796  1.00  0.00    -0.165 F 
ATOM     94  F   UNL     1       1.085 -10.133  -5.516  1.00  0.00    -0.165 F 
ENDBRANCH  80  91
ENDBRANCH  66  68
ENDBRANCH  65  66
ENDBRANCH  64  65
ENDBRANCH  63  64
ENDBRANCH  62  63
ENDBRANCH   1  62
TORSDOF 17
