REMARK SMILES COc1ccc(-c2sc(N)nc2C(=O)OCCOCCOC(=O)c2ccc(-c3c4nc(c(-c5c(F)cccc5F)c5ccc([nH]5)c(-c5c(F)cccc5F)c5nc(c(-c6c(F)cccc6F)c6ccc3[nH]6)C=C5)C=C4)cc2)cc1OC
REMARK SMILES IDX 18 1 17 2 16 3 15 4 13 5 14 6 12 7 7 8 8 9 9 10 11 11 6 12
REMARK SMILES IDX 3 13 4 14 79 15 5 16 78 17 2 18 1 19 80 20 81 21 10 22 19 25
REMARK SMILES IDX 20 26 21 27 22 28 23 29 24 30 25 31 77 32 26 33 76 34 27 35
REMARK SMILES IDX 28 36 29 37 70 38 30 39 75 40 69 41 71 42 31 43 74 44 68 45
REMARK SMILES IDX 67 46 32 48 58 49 41 50 57 51 42 52 45 53 56 54 72 55 43 56
REMARK SMILES IDX 44 57 55 59 73 60 46 61 33 62 34 63 39 64 35 65 36 66 38 67
REMARK SMILES IDX 40 68 37 69 59 70 60 71 65 72 61 73 62 74 64 75 66 76 63 77
REMARK SMILES IDX 47 78 48 79 53 80 49 81 50 82 52 83 54 84 51 85
REMARK H PARENT 10 23 10 24 71 47 45 58
REMARK Flexibility Score: inf
ROOT
ATOM      1  O   UNL     1       5.522   4.232  -3.336  1.00  0.00    -0.374 OA
ENDROOT
BRANCH   1   2
ATOM      2  C   UNL     1       5.696   5.349  -4.205  1.00  0.00     0.202 C 
BRANCH   2   3
ATOM      3  C   UNL     1       4.438   6.096  -4.662  1.00  0.00     0.261 C 
BRANCH   3   4
ATOM      4  O   UNL     1       3.846   6.837  -3.582  1.00  0.00    -0.458 OA
BRANCH   4   5
ATOM      5  C   UNL     1       2.623   6.400  -3.155  1.00  0.00     0.358 C 
ATOM      6  O   UNL     1       1.965   5.530  -3.715  1.00  0.00    -0.244 OA
BRANCH   5   7
ATOM      7  C   UNL     1       2.232   7.009  -1.880  1.00  0.00     0.169 A 
ATOM      8  C   UNL     1       1.607   6.316  -0.848  1.00  0.00     0.071 A 
ATOM      9  S   UNL     1       1.310   7.377   0.463  1.00  0.00    -0.096 S 
ATOM     10  C   UNL     1       2.084   8.648  -0.390  1.00  0.00     0.181 A 
ATOM     11  N   UNL     1       2.535   8.339  -1.578  1.00  0.00    -0.213 NA
BRANCH   8  12
ATOM     12  C   UNL     1       1.299   4.891  -0.731  1.00  0.00    -0.002 A 
ATOM     13  C   UNL     1       0.944   2.101  -0.820  1.00  0.00     0.160 A 
ATOM     14  C   UNL     1      -0.059   2.967  -1.281  1.00  0.00     0.051 A 
ATOM     15  C   UNL     1       2.124   2.624  -0.284  1.00  0.00     0.161 A 
ATOM     16  C   UNL     1       0.118   4.355  -1.243  1.00  0.00     0.014 A 
ATOM     17  C   UNL     1       2.265   4.019  -0.209  1.00  0.00     0.060 A 
BRANCH  13  18
ATOM     18  O   UNL     1       0.756   0.766  -1.052  1.00  0.00    -0.493 OA
ATOM     19  C   UNL     1       0.173   0.098   0.064  1.00  0.00     0.278 C 
ENDBRANCH  13  18
BRANCH  15  20
ATOM     20  O   UNL     1       3.233   1.968   0.173  1.00  0.00    -0.493 OA
ATOM     21  C   UNL     1       3.385   0.584  -0.102  1.00  0.00     0.278 C 
ENDBRANCH  15  20
ENDBRANCH   8  12
BRANCH  10  22
ATOM     22  N   UNL     1       2.215   9.866   0.143  1.00  0.00    -0.375 N 
ATOM     23  H   UNL     1       1.858  10.052   1.042  1.00  0.00     0.159 HD
ATOM     24  H   UNL     1       2.667  10.579  -0.363  1.00  0.00     0.159 HD
ENDBRANCH  10  22
ENDBRANCH   5   7
ENDBRANCH   4   5
ENDBRANCH   3   4
ENDBRANCH   2   3
ENDBRANCH   1   2
BRANCH   1  25
ATOM     25  C   UNL     1       5.193   4.497  -1.976  1.00  0.00     0.202 C 
BRANCH  25  26
ATOM     26  C   UNL     1       6.320   4.903  -1.018  1.00  0.00     0.261 C 
BRANCH  26  27
ATOM     27  O   UNL     1       7.113   5.989  -1.507  1.00  0.00    -0.460 OA
BRANCH  27  28
ATOM     28  C   UNL     1       8.264   5.601  -2.104  1.00  0.00     0.338 C 
ATOM     29  O   UNL     1       8.718   4.471  -2.191  1.00  0.00    -0.246 OA
BRANCH  28  30
ATOM     30  C   UNL     1       8.852   6.751  -2.806  1.00  0.00     0.060 A 
ATOM     31  C   UNL     1       9.147   6.601  -4.167  1.00  0.00     0.016 A 
ATOM     32  C   UNL     1       9.156   7.934  -2.130  1.00  0.00     0.016 A 
ATOM     33  C   UNL     1       9.797   7.623  -4.851  1.00  0.00     0.010 A 
ATOM     34  C   UNL     1       9.815   8.953  -2.816  1.00  0.00     0.010 A 
ATOM     35  C   UNL     1      10.172   8.785  -4.167  1.00  0.00    -0.014 A 
BRANCH  35  36
ATOM     36  C   UNL     1      11.090   9.754  -4.805  1.00  0.00     0.031 A 
ATOM     37  C   UNL     1      12.541   9.728  -4.416  1.00  0.00     0.074 A 
ATOM     38  C   UNL     1      10.641  10.636  -5.713  1.00  0.00     0.049 A 
ATOM     39  N   UNL     1      13.510  10.535  -4.762  1.00  0.00    -0.248 NA
ATOM     40  C   UNL     1      12.951   8.649  -3.502  1.00  0.00     0.031 C 
ATOM     41  C   UNL     1       9.267  10.719  -6.203  1.00  0.00     0.029 A 
ATOM     42  N   UNL     1      11.299  11.641  -6.373  1.00  0.00    -0.354 N 
ATOM     43  C   UNL     1      14.639  10.070  -4.100  1.00  0.00     0.074 A 
ATOM     44  C   UNL     1      14.228   8.935  -3.303  1.00  0.00     0.031 C 
ATOM     45  C   UNL     1       9.181  11.733  -7.081  1.00  0.00     0.029 A 
ATOM     46  C   UNL     1      10.482  12.392  -7.180  1.00  0.00     0.049 A 
ATOM     47  H   UNL     1      12.265  11.808  -6.278  1.00  0.00     0.167 HD
ATOM     48  C   UNL     1      15.906  10.544  -4.158  1.00  0.00     0.037 A 
ATOM     49  C   UNL     1      10.752  13.502  -7.892  1.00  0.00     0.037 A 
ATOM     50  C   UNL     1      16.302  11.679  -4.950  1.00  0.00     0.049 A 
ATOM     51  C   UNL     1      12.149  14.065  -7.873  1.00  0.00     0.074 A 
ATOM     52  C   UNL     1      17.559  12.239  -5.088  1.00  0.00     0.029 A 
ATOM     53  N   UNL     1      15.439  12.433  -5.733  1.00  0.00    -0.354 N 
ATOM     54  N   UNL     1      13.215  13.617  -7.255  1.00  0.00    -0.248 NA
ATOM     55  C   UNL     1      12.380  15.290  -8.652  1.00  0.00     0.031 C 
ATOM     56  C   UNL     1      17.446  13.366  -5.907  1.00  0.00     0.029 A 
ATOM     57  C   UNL     1      16.132  13.469  -6.336  1.00  0.00     0.049 A 
ATOM     58  H   UNL     1      14.476  12.257  -5.843  1.00  0.00     0.167 HD
ATOM     59  C   UNL     1      14.250  14.478  -7.602  1.00  0.00     0.074 A 
ATOM     60  C   UNL     1      13.682  15.474  -8.487  1.00  0.00     0.031 C 
ATOM     61  C   UNL     1      15.553  14.443  -7.229  1.00  0.00     0.037 A 
BRANCH  48  62
ATOM     62  C   UNL     1      16.940   9.855  -3.315  1.00  0.00     0.057 A 
ATOM     63  C   UNL     1      17.376   8.552  -3.589  1.00  0.00     0.134 A 
ATOM     64  C   UNL     1      17.513  10.508  -2.216  1.00  0.00     0.134 A 
ATOM     65  F   UNL     1      16.858   7.863  -4.617  1.00  0.00    -0.206 F 
ATOM     66  C   UNL     1      18.319   7.912  -2.782  1.00  0.00     0.040 A 
ATOM     67  C   UNL     1      18.481   9.891  -1.422  1.00  0.00     0.040 A 
ATOM     68  F   UNL     1      17.146  11.759  -1.898  1.00  0.00    -0.206 F 
ATOM     69  C   UNL     1      18.879   8.585  -1.698  1.00  0.00     0.006 A 
ENDBRANCH  48  62
BRANCH  49  70
ATOM     70  C   UNL     1       9.679  14.159  -8.680  1.00  0.00     0.057 A 
ATOM     71  C   UNL     1       9.711  14.167 -10.079  1.00  0.00     0.134 A 
ATOM     72  C   UNL     1       8.603  14.804  -8.057  1.00  0.00     0.134 A 
ATOM     73  F   UNL     1      10.727  13.585 -10.734  1.00  0.00    -0.206 F 
ATOM     74  C   UNL     1       8.723  14.806 -10.831  1.00  0.00     0.040 A 
ATOM     75  C   UNL     1       7.593  15.423  -8.796  1.00  0.00     0.040 A 
ATOM     76  F   UNL     1       8.511  14.831  -6.720  1.00  0.00    -0.206 F 
ATOM     77  C   UNL     1       7.657  15.432 -10.188  1.00  0.00     0.006 A 
ENDBRANCH  49  70
BRANCH  61  78
ATOM     78  C   UNL     1      16.473  15.472  -7.821  1.00  0.00     0.057 A 
ATOM     79  C   UNL     1      16.423  16.821  -7.449  1.00  0.00     0.134 A 
ATOM     80  C   UNL     1      17.462  15.091  -8.738  1.00  0.00     0.134 A 
ATOM     81  F   UNL     1      15.493  17.255  -6.585  1.00  0.00    -0.206 F 
ATOM     82  C   UNL     1      17.310  17.758  -7.984  1.00  0.00     0.040 A 
ATOM     83  C   UNL     1      18.374  16.012  -9.255  1.00  0.00     0.040 A 
ATOM     84  F   UNL     1      17.573  13.813  -9.129  1.00  0.00    -0.206 F 
ATOM     85  C   UNL     1      18.295  17.352  -8.883  1.00  0.00     0.006 A 
ENDBRANCH  61  78
ENDBRANCH  35  36
ENDBRANCH  28  30
ENDBRANCH  27  28
ENDBRANCH  26  27
ENDBRANCH  25  26
ENDBRANCH   1  25
TORSDOF 18
