REMARK SMILES O=C(Cn1cc(/C=C2\SC(N3CCOCC3)=[NH+]C2=O)c2ccccc21)OCCOCCOC(=O)c1ccc(-c2c3nc(c(-c4c(F)cccc4F)c4ccc([nH]4)c(-c4c(F)cccc4F)c4nc(c(-c5c(F)cccc5F)c5ccc2[nH]5)C=C4)C=C3)cc1
REMARK SMILES IDX 29 1 28 2 27 3 26 4 2 5 1 6 3 7 4 8 5 9 25 10 6 11 20 12
REMARK SMILES IDX 24 13 21 14 23 15 22 16 7 17 8 18 9 19 18 20 10 21 17 22
REMARK SMILES IDX 19 23 11 24 12 26 16 27 13 28 15 29 14 30 30 31 31 32 32 33
REMARK SMILES IDX 33 34 34 35 35 36 36 37 88 38 37 39 87 40 38 41 39 42 40 43
REMARK SMILES IDX 81 44 41 45 86 46 80 47 82 48 42 49 85 50 79 51 78 52 43 54
REMARK SMILES IDX 69 55 52 56 68 57 53 58 56 59 67 60 83 61 54 62 55 63 66 65
REMARK SMILES IDX 84 66 57 67 44 68 45 69 50 70 46 71 47 72 49 73 51 74 48 75
REMARK SMILES IDX 70 76 71 77 76 78 72 79 73 80 75 81 77 82 74 83 58 84 59 85
REMARK SMILES IDX 64 86 60 87 61 88 63 89 65 90 62 91
REMARK H PARENT 17 25 82 53 56 64
REMARK Flexibility Score: inf
ROOT
ATOM      1  O   UNL     1       3.735  -1.457  -0.739  1.00  0.00    -0.374 OA
ENDROOT
BRANCH   1   2
ATOM      2  C   UNL     1       4.134  -0.852   0.488  1.00  0.00     0.202 C 
BRANCH   2   3
ATOM      3  C   UNL     1       3.742   0.595   0.735  1.00  0.00     0.261 C 
BRANCH   3   4
ATOM      4  O   UNL     1       2.368   0.847   0.434  1.00  0.00    -0.462 OA
BRANCH   4   5
ATOM      5  C   UNL     1       1.869   0.894  -0.821  1.00  0.00     0.326 C 
ATOM      6  O   UNL     1       0.649   0.791  -0.972  1.00  0.00    -0.250 OA
BRANCH   5   7
ATOM      7  C   UNL     1       2.773   1.040  -2.026  1.00  0.00     0.244 C 
BRANCH   7   8
ATOM      8  N   UNL     1       3.746   2.111  -1.929  1.00  0.00    -0.336 N 
ATOM      9  C   UNL     1       3.383   3.410  -1.718  1.00  0.00     0.095 A 
ATOM     10  C   UNL     1       5.123   2.001  -1.981  1.00  0.00     0.049 A 
ATOM     11  C   UNL     1       4.527   4.144  -1.509  1.00  0.00     0.001 A 
ATOM     12  C   UNL     1       5.639   3.288  -1.754  1.00  0.00     0.007 A 
ATOM     13  C   UNL     1       5.959   0.879  -2.134  1.00  0.00     0.027 A 
ATOM     14  C   UNL     1       7.039   3.457  -1.762  1.00  0.00     0.011 A 
ATOM     15  C   UNL     1       7.340   1.070  -2.095  1.00  0.00     0.002 A 
ATOM     16  C   UNL     1       7.873   2.345  -1.952  1.00  0.00     0.001 A 
BRANCH  11  17
ATOM     17  C   UNL     1       4.476   5.528  -1.160  1.00  0.00     0.034 C 
ATOM     18  C   UNL     1       3.744   6.045  -0.159  1.00  0.00     0.110 C 
ATOM     19  S   UNL     1       2.894   5.206   1.081  1.00  0.00     0.006 SA
ATOM     20  C   UNL     1       3.467   7.505  -0.030  1.00  0.00     0.346 C 
ATOM     21  C   UNL     1       2.113   6.702   1.552  1.00  0.00     0.319 C 
ATOM     22  N   UNL     1       2.479   7.756   0.903  1.00  0.00    -0.200 N 
ATOM     23  O   UNL     1       4.020   8.353  -0.712  1.00  0.00    -0.240 OA
ATOM     24  N   UNL     1       1.135   6.631   2.504  1.00  0.00    -0.251 N 
ATOM     25  H   UNL     1       2.093   8.648   1.057  1.00  0.00     0.316 HD
ATOM     26  C   UNL     1       1.368   6.114   3.856  1.00  0.00     0.265 C 
ATOM     27  C   UNL     1      -0.132   7.351   2.360  1.00  0.00     0.265 C 
ATOM     28  C   UNL     1       0.169   5.272   4.307  1.00  0.00     0.206 C 
ATOM     29  C   UNL     1      -1.274   6.441   2.846  1.00  0.00     0.206 C 
ATOM     30  O   UNL     1      -1.060   6.012   4.202  1.00  0.00    -0.373 OA
ENDBRANCH  11  17
ENDBRANCH   7   8
ENDBRANCH   5   7
ENDBRANCH   4   5
ENDBRANCH   3   4
ENDBRANCH   2   3
ENDBRANCH   1   2
BRANCH   1  31
ATOM     31  C   UNL     1       2.635  -2.372  -0.603  1.00  0.00     0.202 C 
BRANCH  31  32
ATOM     32  C   UNL     1       3.011  -3.769  -0.066  1.00  0.00     0.261 C 
BRANCH  32  33
ATOM     33  O   UNL     1       3.662  -3.664   1.213  1.00  0.00    -0.460 OA
BRANCH  33  34
ATOM     34  C   UNL     1       4.936  -4.136   1.262  1.00  0.00     0.338 C 
ATOM     35  O   UNL     1       5.403  -5.041   0.594  1.00  0.00    -0.246 OA
BRANCH  34  36
ATOM     36  C   UNL     1       5.755  -3.137   1.993  1.00  0.00     0.060 A 
ATOM     37  C   UNL     1       5.233  -2.386   3.055  1.00  0.00     0.016 A 
ATOM     38  C   UNL     1       6.975  -2.771   1.402  1.00  0.00     0.016 A 
ATOM     39  C   UNL     1       5.878  -1.211   3.441  1.00  0.00     0.010 A 
ATOM     40  C   UNL     1       7.623  -1.602   1.798  1.00  0.00     0.010 A 
ATOM     41  C   UNL     1       7.060  -0.801   2.796  1.00  0.00    -0.014 A 
BRANCH  41  42
ATOM     42  C   UNL     1       7.829   0.296   3.399  1.00  0.00     0.031 A 
ATOM     43  C   UNL     1       8.263  -0.019   4.780  1.00  0.00     0.074 A 
ATOM     44  C   UNL     1       8.290   1.421   2.813  1.00  0.00     0.049 A 
ATOM     45  N   UNL     1       7.954   0.624   5.856  1.00  0.00    -0.248 NA
ATOM     46  C   UNL     1       9.010  -1.266   5.005  1.00  0.00     0.031 C 
ATOM     47  C   UNL     1       8.127   1.827   1.424  1.00  0.00     0.029 A 
ATOM     48  N   UNL     1       9.094   2.409   3.329  1.00  0.00    -0.354 N 
ATOM     49  C   UNL     1       8.638  -0.017   6.877  1.00  0.00     0.074 A 
ATOM     50  C   UNL     1       9.133  -1.255   6.332  1.00  0.00     0.031 C 
ATOM     51  C   UNL     1       8.983   2.838   1.153  1.00  0.00     0.029 A 
ATOM     52  C   UNL     1       9.669   3.230   2.365  1.00  0.00     0.049 A 
ATOM     53  H   UNL     1       9.248   2.526   4.295  1.00  0.00     0.167 HD
ATOM     54  C   UNL     1       8.969   0.645   8.015  1.00  0.00     0.037 A 
ATOM     55  C   UNL     1      10.635   4.174   2.501  1.00  0.00     0.037 A 
ATOM     56  C   UNL     1       8.168   1.828   8.202  1.00  0.00     0.049 A 
ATOM     57  C   UNL     1      10.626   4.621   3.905  1.00  0.00     0.074 A 
ATOM     58  C   UNL     1       6.817   2.096   8.316  1.00  0.00     0.029 A 
ATOM     59  N   UNL     1       8.766   3.043   7.985  1.00  0.00    -0.354 N 
ATOM     60  N   UNL     1       9.670   5.332   4.428  1.00  0.00    -0.248 NA
ATOM     61  C   UNL     1      11.491   3.937   4.849  1.00  0.00     0.031 C 
ATOM     62  C   UNL     1       6.632   3.375   7.712  1.00  0.00     0.029 A 
ATOM     63  C   UNL     1       7.883   3.829   7.295  1.00  0.00     0.049 A 
ATOM     64  H   UNL     1       9.670   3.304   8.274  1.00  0.00     0.167 HD
ATOM     65  C   UNL     1       9.512   4.800   5.696  1.00  0.00     0.074 A 
ATOM     66  C   UNL     1      10.738   4.047   5.946  1.00  0.00     0.031 C 
ATOM     67  C   UNL     1       8.284   4.785   6.292  1.00  0.00     0.037 A 
BRANCH  54  68
ATOM     68  C   UNL     1      10.290   0.448   8.714  1.00  0.00     0.057 A 
ATOM     69  C   UNL     1      11.458  -0.015   8.073  1.00  0.00     0.134 A 
ATOM     70  C   UNL     1      10.487   1.039   9.972  1.00  0.00     0.134 A 
ATOM     71  F   UNL     1      11.449  -0.521   6.834  1.00  0.00    -0.206 F 
ATOM     72  C   UNL     1      12.730   0.119   8.632  1.00  0.00     0.040 A 
ATOM     73  C   UNL     1      11.763   1.229  10.515  1.00  0.00     0.040 A 
ATOM     74  F   UNL     1       9.453   1.537  10.667  1.00  0.00    -0.206 F 
ATOM     75  C   UNL     1      12.890   0.775   9.840  1.00  0.00     0.006 A 
ENDBRANCH  54  68
BRANCH  55  76
ATOM     76  C   UNL     1      11.699   4.577   1.549  1.00  0.00     0.057 A 
ATOM     77  C   UNL     1      12.234   3.656   0.631  1.00  0.00     0.134 A 
ATOM     78  C   UNL     1      12.414   5.776   1.699  1.00  0.00     0.134 A 
ATOM     79  F   UNL     1      11.673   2.451   0.456  1.00  0.00    -0.206 F 
ATOM     80  C   UNL     1      13.418   3.899  -0.076  1.00  0.00     0.040 A 
ATOM     81  C   UNL     1      13.603   6.031   0.999  1.00  0.00     0.040 A 
ATOM     82  F   UNL     1      12.012   6.705   2.578  1.00  0.00    -0.206 F 
ATOM     83  C   UNL     1      14.116   5.084   0.118  1.00  0.00     0.006 A 
ENDBRANCH  55  76
BRANCH  67  84
ATOM     84  C   UNL     1       7.213   5.650   5.689  1.00  0.00     0.057 A 
ATOM     85  C   UNL     1       6.633   6.648   6.478  1.00  0.00     0.134 A 
ATOM     86  C   UNL     1       6.681   5.472   4.403  1.00  0.00     0.134 A 
ATOM     87  F   UNL     1       7.055   6.843   7.738  1.00  0.00    -0.206 F 
ATOM     88  C   UNL     1       5.588   7.448   6.008  1.00  0.00     0.040 A 
ATOM     89  C   UNL     1       5.662   6.290   3.908  1.00  0.00     0.040 A 
ATOM     90  F   UNL     1       7.101   4.480   3.607  1.00  0.00    -0.206 F 
ATOM     91  C   UNL     1       5.108   7.281   4.712  1.00  0.00     0.006 A 
ENDBRANCH  67  84
ENDBRANCH  41  42
ENDBRANCH  34  36
ENDBRANCH  33  34
ENDBRANCH  32  33
ENDBRANCH  31  32
ENDBRANCH   1  31
TORSDOF 16
