REMARK SMILES COCCOc1ccc([C@H]([NH3+])C(=O)OCCOCCOC(=O)c2ccc(-c3c4nc(c(-c5c(F)cccc5F)c5ccc([nH]5)c(-c5c(F)cccc5F)c5nc(c(-c6c(F)cccc6F)c6ccc3[nH]6)C=C5)C=C4)cc2)cc1OC
REMARK SMILES IDX 15 1 14 2 12 3 13 4 10 5 9 6 6 7 7 8 78 9 8 10 77 11 5 12
REMARK SMILES IDX 4 13 3 14 2 15 1 16 79 17 80 18 11 19 16 23 17 24 18 25
REMARK SMILES IDX 19 26 20 27 21 28 22 29 23 30 24 31 76 32 25 33 75 34 26 35
REMARK SMILES IDX 27 36 28 37 69 38 29 39 74 40 68 41 70 42 30 43 73 44 67 45
REMARK SMILES IDX 66 46 31 48 57 49 40 50 56 51 41 52 44 53 55 54 71 55 42 56
REMARK SMILES IDX 43 57 54 59 72 60 45 61 32 62 33 63 38 64 34 65 35 66 37 67
REMARK SMILES IDX 39 68 36 69 58 70 59 71 64 72 60 73 61 74 63 75 65 76 62 77
REMARK SMILES IDX 46 78 47 79 52 80 48 81 49 82 51 83 53 84 50 85
REMARK H PARENT 11 20 11 21 11 22 70 47 44 58
REMARK Flexibility Score: inf
ROOT
ATOM      1  C   UNL     1      -3.637  -2.399  -4.943  1.00  0.00     0.261 C 
ENDROOT
BRANCH   1   2
ATOM      2  O   UNL     1      -2.326  -2.206  -4.389  1.00  0.00    -0.459 OA
BRANCH   2   3
ATOM      3  C   UNL     1      -1.483  -1.426  -5.128  1.00  0.00     0.369 C 
ATOM      4  O   UNL     1      -1.675  -1.114  -6.300  1.00  0.00    -0.245 OA
BRANCH   3   5
ATOM      5  C   UNL     1      -0.281  -0.917  -4.302  1.00  0.00     0.323 C 
BRANCH   5   6
ATOM      6  C   UNL     1       1.037  -1.287  -4.950  1.00  0.00     0.025 A 
ATOM      7  C   UNL     1       3.518  -1.831  -6.149  1.00  0.00     0.161 A 
ATOM      8  C   UNL     1       2.977  -2.727  -5.226  1.00  0.00     0.051 A 
ATOM      9  C   UNL     1       2.803  -0.688  -6.515  1.00  0.00     0.161 A 
ATOM     10  C   UNL     1       1.727  -2.472  -4.652  1.00  0.00     0.014 A 
ATOM     11  C   UNL     1       1.585  -0.406  -5.896  1.00  0.00     0.061 A 
BRANCH   7  12
ATOM     12  O   UNL     1       4.791  -2.000  -6.627  1.00  0.00    -0.487 OA
BRANCH  12  13
ATOM     13  C   UNL     1       4.947  -3.142  -7.480  1.00  0.00     0.258 C 
BRANCH  13  14
ATOM     14  C   UNL     1       4.599  -2.796  -8.932  1.00  0.00     0.201 C 
BRANCH  14  15
ATOM     15  O   UNL     1       3.637  -3.682  -9.513  1.00  0.00    -0.381 OA
ATOM     16  C   UNL     1       2.342  -3.571  -8.935  1.00  0.00     0.195 C 
ENDBRANCH  14  15
ENDBRANCH  13  14
ENDBRANCH  12  13
ENDBRANCH   7  12
BRANCH   9  17
ATOM     17  O   UNL     1       3.344   0.166  -7.439  1.00  0.00    -0.493 OA
ATOM     18  C   UNL     1       2.463   0.472  -8.523  1.00  0.00     0.278 C 
ENDBRANCH   9  17
ENDBRANCH   5   6
BRANCH   5  19
ATOM     19  N   UNL     1      -0.339  -1.282  -2.867  1.00  0.00    -0.342 N 
ATOM     20  H   UNL     1      -0.279  -2.296  -2.771  1.00  0.00     0.345 HD
ATOM     21  H   UNL     1      -1.219  -0.954  -2.468  1.00  0.00     0.345 HD
ATOM     22  H   UNL     1       0.440  -0.847  -2.374  1.00  0.00     0.345 HD
ENDBRANCH   5  19
ENDBRANCH   3   5
ENDBRANCH   2   3
ENDBRANCH   1   2
BRANCH   1  23
ATOM     23  C   UNL     1      -4.718  -2.050  -3.916  1.00  0.00     0.202 C 
BRANCH  23  24
ATOM     24  O   UNL     1      -4.795  -0.687  -3.499  1.00  0.00    -0.374 OA
BRANCH  24  25
ATOM     25  C   UNL     1      -3.736  -0.170  -2.694  1.00  0.00     0.202 C 
BRANCH  25  26
ATOM     26  C   UNL     1      -3.646  -0.662  -1.242  1.00  0.00     0.261 C 
BRANCH  26  27
ATOM     27  O   UNL     1      -3.461  -2.085  -1.130  1.00  0.00    -0.460 OA
BRANCH  27  28
ATOM     28  C   UNL     1      -4.476  -2.739  -0.519  1.00  0.00     0.338 C 
ATOM     29  O   UNL     1      -5.479  -2.255  -0.010  1.00  0.00    -0.246 OA
BRANCH  28  30
ATOM     30  C   UNL     1      -4.313  -4.194  -0.672  1.00  0.00     0.060 A 
ATOM     31  C   UNL     1      -5.330  -4.891  -1.335  1.00  0.00     0.016 A 
ATOM     32  C   UNL     1      -3.254  -4.877  -0.071  1.00  0.00     0.016 A 
ATOM     33  C   UNL     1      -5.320  -6.283  -1.355  1.00  0.00     0.010 A 
ATOM     34  C   UNL     1      -3.251  -6.277  -0.084  1.00  0.00     0.010 A 
ATOM     35  C   UNL     1      -4.304  -6.985  -0.691  1.00  0.00    -0.014 A 
BRANCH  35  36
ATOM     36  C   UNL     1      -4.449  -8.448  -0.502  1.00  0.00     0.031 A 
ATOM     37  C   UNL     1      -5.016  -8.965   0.792  1.00  0.00     0.074 A 
ATOM     38  C   UNL     1      -4.139  -9.304  -1.491  1.00  0.00     0.049 A 
ATOM     39  N   UNL     1      -5.261 -10.197   1.158  1.00  0.00    -0.248 NA
ATOM     40  C   UNL     1      -5.353  -7.956   1.809  1.00  0.00     0.031 C 
ATOM     41  C   UNL     1      -3.618  -8.926  -2.803  1.00  0.00     0.029 A 
ATOM     42  N   UNL     1      -4.225 -10.672  -1.542  1.00  0.00    -0.354 N 
ATOM     43  C   UNL     1      -5.783 -10.113   2.443  1.00  0.00     0.074 A 
ATOM     44  C   UNL     1      -5.787  -8.712   2.807  1.00  0.00     0.031 C 
ATOM     45  C   UNL     1      -3.430 -10.039  -3.533  1.00  0.00     0.029 A 
ATOM     46  C   UNL     1      -3.796 -11.206  -2.732  1.00  0.00     0.049 A 
ATOM     47  H   UNL     1      -4.561 -11.220  -0.796  1.00  0.00     0.167 HD
ATOM     48  C   UNL     1      -6.231 -11.109   3.243  1.00  0.00     0.037 A 
ATOM     49  C   UNL     1      -3.704 -12.490  -3.125  1.00  0.00     0.037 A 
ATOM     50  C   UNL     1      -6.227 -12.502   2.885  1.00  0.00     0.049 A 
ATOM     51  C   UNL     1      -4.147 -13.586  -2.194  1.00  0.00     0.074 A 
ATOM     52  C   UNL     1      -6.675 -13.585   3.622  1.00  0.00     0.029 A 
ATOM     53  N   UNL     1      -5.745 -13.006   1.686  1.00  0.00    -0.354 N 
ATOM     54  N   UNL     1      -4.664 -13.492  -0.992  1.00  0.00    -0.248 NA
ATOM     55  C   UNL     1      -3.999 -14.966  -2.676  1.00  0.00     0.031 C 
ATOM     56  C   UNL     1      -6.424 -14.749   2.886  1.00  0.00     0.029 A 
ATOM     57  C   UNL     1      -5.862 -14.386   1.673  1.00  0.00     0.049 A 
ATOM     58  H   UNL     1      -5.375 -12.463   0.953  1.00  0.00     0.167 HD
ATOM     59  C   UNL     1      -4.925 -14.795  -0.586  1.00  0.00     0.074 A 
ATOM     60  C   UNL     1      -4.520 -15.661  -1.674  1.00  0.00     0.031 C 
ATOM     61  C   UNL     1      -5.456 -15.234   0.581  1.00  0.00     0.037 A 
BRANCH  48  62
ATOM     62  C   UNL     1      -6.741 -10.722   4.599  1.00  0.00     0.057 A 
ATOM     63  C   UNL     1      -7.970 -10.071   4.768  1.00  0.00     0.134 A 
ATOM     64  C   UNL     1      -6.002 -11.016   5.751  1.00  0.00     0.134 A 
ATOM     65  F   UNL     1      -8.719  -9.746   3.703  1.00  0.00    -0.206 F 
ATOM     66  C   UNL     1      -8.434  -9.705   6.033  1.00  0.00     0.040 A 
ATOM     67  C   UNL     1      -6.466 -10.676   7.023  1.00  0.00     0.040 A 
ATOM     68  F   UNL     1      -4.818 -11.641   5.659  1.00  0.00    -0.206 F 
ATOM     69  C   UNL     1      -7.683 -10.013   7.165  1.00  0.00     0.006 A 
ENDBRANCH  48  62
BRANCH  49  70
ATOM     70  C   UNL     1      -3.169 -12.814  -4.471  1.00  0.00     0.057 A 
ATOM     71  C   UNL     1      -4.000 -13.310  -5.481  1.00  0.00     0.134 A 
ATOM     72  C   UNL     1      -1.812 -12.648  -4.772  1.00  0.00     0.134 A 
ATOM     73  F   UNL     1      -5.304 -13.513  -5.244  1.00  0.00    -0.206 F 
ATOM     74  C   UNL     1      -3.499 -13.640  -6.742  1.00  0.00     0.040 A 
ATOM     75  C   UNL     1      -1.302 -12.953  -6.034  1.00  0.00     0.040 A 
ATOM     76  F   UNL     1      -0.966 -12.176  -3.845  1.00  0.00    -0.206 F 
ATOM     77  C   UNL     1      -2.146 -13.457  -7.022  1.00  0.00     0.006 A 
ENDBRANCH  49  70
BRANCH  61  78
ATOM     78  C   UNL     1      -5.655 -16.714   0.731  1.00  0.00     0.057 A 
ATOM     79  C   UNL     1      -4.580 -17.586   0.941  1.00  0.00     0.134 A 
ATOM     80  C   UNL     1      -6.941 -17.267   0.701  1.00  0.00     0.134 A 
ATOM     81  F   UNL     1      -3.322 -17.120   0.968  1.00  0.00    -0.206 F 
ATOM     82  C   UNL     1      -4.775 -18.960   1.094  1.00  0.00     0.040 A 
ATOM     83  C   UNL     1      -7.151 -18.636   0.876  1.00  0.00     0.040 A 
ATOM     84  F   UNL     1      -8.015 -16.485   0.512  1.00  0.00    -0.206 F 
ATOM     85  C   UNL     1      -6.065 -19.487   1.067  1.00  0.00     0.006 A 
ENDBRANCH  61  78
ENDBRANCH  35  36
ENDBRANCH  28  30
ENDBRANCH  27  28
ENDBRANCH  26  27
ENDBRANCH  25  26
ENDBRANCH  24  25
ENDBRANCH  23  24
ENDBRANCH   1  23
TORSDOF 21
