REMARK SMILES C[C@@H](C(=O)OCCOCCOC(=O)c1ccc(-c2c3nc(c(-c4c(F)cccc4F)c4ccc([nH]4)c(-c4c(F)cccc4F)c4nc(c(-c5c(F)cccc5F)c5ccc2[nH]5)C=C4)C=C3)cc1)N1C(=O)CSc2cccn2-c2ccccc21
REMARK SMILES IDX 6 1 5 2 3 3 4 4 2 5 1 6 68 7 69 8 70 9 83 11 78 12 82 13
REMARK SMILES IDX 79 14 81 15 80 16 77 17 73 18 76 19 74 20 75 21 72 22 71 23
REMARK SMILES IDX 7 25 8 26 9 27 10 28 11 29 12 30 13 31 14 32 15 33 67 34
REMARK SMILES IDX 16 35 66 36 17 37 18 38 19 39 60 40 20 41 65 42 59 43 61 44
REMARK SMILES IDX 21 45 64 46 58 47 57 48 22 50 48 51 31 52 47 53 32 54 35 55
REMARK SMILES IDX 46 56 62 57 33 58 34 59 45 61 63 62 36 63 23 64 24 65 29 66
REMARK SMILES IDX 25 67 26 68 28 69 30 70 27 71 49 72 50 73 55 74 51 75 52 76
REMARK SMILES IDX 54 77 56 78 53 79 37 80 38 81 43 82 39 83 40 84 42 85 44 86
REMARK SMILES IDX 41 87
REMARK H PARENT 61 49 35 60
REMARK Flexibility Score: 80.00
ROOT
ATOM      1  C   UNL     1       2.082  -2.792  -2.398  1.00  0.00     0.261 C 
ENDROOT
BRANCH   1   2
ATOM      2  O   UNL     1       1.492  -1.988  -1.349  1.00  0.00    -0.462 OA
BRANCH   2   3
ATOM      3  C   UNL     1       0.441  -1.220  -1.761  1.00  0.00     0.329 C 
ATOM      4  O   UNL     1       0.122  -1.127  -2.941  1.00  0.00    -0.250 OA
BRANCH   3   5
ATOM      5  C   UNL     1      -0.313  -0.516  -0.594  1.00  0.00     0.197 C 
ATOM      6  C   UNL     1       0.626  -0.066   0.531  1.00  0.00     0.044 C 
BRANCH   5   7
ATOM      7  N   UNL     1      -1.629  -1.087  -0.192  1.00  0.00    -0.296 N 
BRANCH   7   8
ATOM      8  C   UNL     1      -2.676  -1.026  -1.111  1.00  0.00     0.238 CG0
ATOM      9  O   UNL     1      -2.510  -0.967  -2.326  1.00  0.00    -0.274 OA
ATOM     10  G   UNL     1      -4.063  -0.920  -0.513  1.00  0.00     0.000 G0
ENDBRANCH   7   8
BRANCH   7  11
ATOM     11  C   UNL     1      -1.903  -1.685   1.071  1.00  0.00     0.069 A 
ATOM     12  C   UNL     1      -2.404  -1.012   2.197  1.00  0.00     0.070 A 
ATOM     13  C   UNL     1      -1.938  -3.093   1.097  1.00  0.00     0.028 A 
ATOM     14  C   UNL     1      -2.760  -1.747   3.356  1.00  0.00     0.029 A 
ATOM     15  C   UNL     1      -2.300  -3.815   2.239  1.00  0.00     0.002 A 
ATOM     16  C   UNL     1      -2.699  -3.138   3.379  1.00  0.00     0.002 A 
BRANCH  12  17
ATOM     17  N   UNL     1      -2.693   0.380   2.236  1.00  0.00    -0.310 N 
ATOM     18  C   UNL     1      -3.357   1.208   1.335  1.00  0.00     0.080 A 
ATOM     19  C   UNL     1      -2.435   1.144   3.372  1.00  0.00     0.092 A 
ATOM     20  C   UNL     1      -3.354   2.492   1.859  1.00  0.00     0.035 A 
ATOM     21  C   UNL     1      -2.815   2.444   3.156  1.00  0.00     0.021 A 
BRANCH  18  22
ATOM     22  S   UNL     1      -4.322   0.804  -0.069  1.00  0.00    -0.098 SA
BRANCH  22  23
ATOM     23  C   UNL     1      -4.063  -0.920  -0.513  1.00  0.00     0.177 CG0
ATOM     24  G   UNL     1      -2.676  -1.026  -1.111  1.00  0.00     0.000 G0
ENDBRANCH  22  23
ENDBRANCH  18  22
ENDBRANCH  12  17
ENDBRANCH   7  11
ENDBRANCH   5   7
ENDBRANCH   3   5
ENDBRANCH   2   3
ENDBRANCH   1   2
BRANCH   1  25
ATOM     25  C   UNL     1       2.658  -4.096  -1.846  1.00  0.00     0.202 C 
BRANCH  25  26
ATOM     26  O   UNL     1       1.763  -5.022  -1.230  1.00  0.00    -0.374 OA
BRANCH  26  27
ATOM     27  C   UNL     1       0.780  -4.510  -0.344  1.00  0.00     0.202 C 
BRANCH  27  28
ATOM     28  C   UNL     1       1.237  -3.879   0.986  1.00  0.00     0.261 C 
BRANCH  28  29
ATOM     29  O   UNL     1       2.625  -3.590   1.067  1.00  0.00    -0.460 OA
BRANCH  29  30
ATOM     30  C   UNL     1       3.358  -4.642   1.493  1.00  0.00     0.338 C 
ATOM     31  O   UNL     1       2.966  -5.711   1.911  1.00  0.00    -0.246 OA
BRANCH  30  32
ATOM     32  C   UNL     1       4.761  -4.332   1.203  1.00  0.00     0.060 A 
ATOM     33  C   UNL     1       5.426  -5.175   0.310  1.00  0.00     0.016 A 
ATOM     34  C   UNL     1       5.399  -3.239   1.794  1.00  0.00     0.016 A 
ATOM     35  C   UNL     1       6.770  -4.962   0.048  1.00  0.00     0.010 A 
ATOM     36  C   UNL     1       6.751  -3.030   1.535  1.00  0.00     0.010 A 
ATOM     37  C   UNL     1       7.445  -3.919   0.695  1.00  0.00    -0.014 A 
BRANCH  37  38
ATOM     38  C   UNL     1       8.918  -3.876   0.621  1.00  0.00     0.031 A 
ATOM     39  C   UNL     1       9.705  -4.438   1.768  1.00  0.00     0.074 A 
ATOM     40  C   UNL     1       9.525  -3.400  -0.477  1.00  0.00     0.049 A 
ATOM     41  N   UNL     1      10.999  -4.521   1.923  1.00  0.00    -0.248 NA
ATOM     42  C   UNL     1       8.927  -4.979   2.896  1.00  0.00     0.031 C 
ATOM     43  C   UNL     1       8.842  -2.875  -1.659  1.00  0.00     0.029 A 
ATOM     44  N   UNL     1      10.856  -3.288  -0.777  1.00  0.00    -0.354 N 
ATOM     45  C   UNL     1      11.190  -5.116   3.163  1.00  0.00     0.074 A 
ATOM     46  C   UNL     1       9.883  -5.342   3.736  1.00  0.00     0.031 C 
ATOM     47  C   UNL     1       9.763  -2.497  -2.561  1.00  0.00     0.029 A 
ATOM     48  C   UNL     1      11.094  -2.722  -2.004  1.00  0.00     0.049 A 
ATOM     49  H   UNL     1      11.573  -3.584  -0.170  1.00  0.00     0.167 HD
ATOM     50  C   UNL     1      12.357  -5.451   3.762  1.00  0.00     0.037 A 
ATOM     51  C   UNL     1      12.262  -2.409  -2.595  1.00  0.00     0.037 A 
ATOM     52  C   UNL     1      13.649  -5.219   3.174  1.00  0.00     0.049 A 
ATOM     53  C   UNL     1      13.545  -2.727  -1.875  1.00  0.00     0.074 A 
ATOM     54  C   UNL     1      14.896  -5.534   3.680  1.00  0.00     0.029 A 
ATOM     55  N   UNL     1      13.855  -4.602   1.947  1.00  0.00    -0.354 N 
ATOM     56  N   UNL     1      13.720  -3.314  -0.715  1.00  0.00    -0.248 NA
ATOM     57  C   UNL     1      14.793  -2.342  -2.548  1.00  0.00     0.031 C 
ATOM     58  C   UNL     1      15.860  -5.052   2.788  1.00  0.00     0.029 A 
ATOM     59  C   UNL     1      15.212  -4.497   1.695  1.00  0.00     0.049 A 
ATOM     60  H   UNL     1      13.142  -4.286   1.346  1.00  0.00     0.167 HD
ATOM     61  C   UNL     1      15.095  -3.397  -0.532  1.00  0.00     0.074 A 
ATOM     62  C   UNL     1      15.705  -2.812  -1.709  1.00  0.00     0.031 C 
ATOM     63  C   UNL     1      15.792  -3.913   0.511  1.00  0.00     0.037 A 
BRANCH  50  64
ATOM     64  C   UNL     1      12.283  -6.065   5.130  1.00  0.00     0.057 A 
ATOM     65  C   UNL     1      11.787  -7.358   5.343  1.00  0.00     0.134 A 
ATOM     66  C   UNL     1      12.733  -5.355   6.250  1.00  0.00     0.134 A 
ATOM     67  F   UNL     1      11.322  -8.086   4.317  1.00  0.00    -0.206 F 
ATOM     68  C   UNL     1      11.720  -7.912   6.624  1.00  0.00     0.040 A 
ATOM     69  C   UNL     1      12.698  -5.909   7.531  1.00  0.00     0.040 A 
ATOM     70  F   UNL     1      13.220  -4.111   6.119  1.00  0.00    -0.206 F 
ATOM     71  C   UNL     1      12.183  -7.189   7.721  1.00  0.00     0.006 A 
ENDBRANCH  50  64
BRANCH  51  72
ATOM     72  C   UNL     1      12.270  -1.757  -3.928  1.00  0.00     0.057 A 
ATOM     73  C   UNL     1      12.762  -2.419  -5.059  1.00  0.00     0.134 A 
ATOM     74  C   UNL     1      11.795  -0.451  -4.103  1.00  0.00     0.134 A 
ATOM     75  F   UNL     1      13.247  -3.665  -4.954  1.00  0.00    -0.206 F 
ATOM     76  C   UNL     1      12.799  -1.801  -6.310  1.00  0.00     0.040 A 
ATOM     77  C   UNL     1      11.800   0.170  -5.353  1.00  0.00     0.040 A 
ATOM     78  F   UNL     1      11.306   0.237  -3.061  1.00  0.00    -0.206 F 
ATOM     79  C   UNL     1      12.312  -0.504  -6.460  1.00  0.00     0.006 A 
ENDBRANCH  51  72
BRANCH  63  80
ATOM     80  C   UNL     1      17.290  -3.901   0.406  1.00  0.00     0.057 A 
ATOM     81  C   UNL     1      18.032  -2.716   0.497  1.00  0.00     0.134 A 
ATOM     82  C   UNL     1      18.000  -5.099   0.253  1.00  0.00     0.134 A 
ATOM     83  F   UNL     1      17.412  -1.534   0.632  1.00  0.00    -0.206 F 
ATOM     84  C   UNL     1      19.424  -2.721   0.411  1.00  0.00     0.040 A 
ATOM     85  C   UNL     1      19.393  -5.120   0.199  1.00  0.00     0.040 A 
ATOM     86  F   UNL     1      17.351  -6.271   0.172  1.00  0.00    -0.206 F 
ATOM     87  C   UNL     1      20.109  -3.927   0.270  1.00  0.00     0.006 A 
ENDBRANCH  63  80
ENDBRANCH  37  38
ENDBRANCH  30  32
ENDBRANCH  29  30
ENDBRANCH  28  29
ENDBRANCH  27  28
ENDBRANCH  26  27
ENDBRANCH  25  26
ENDBRANCH   1  25
TORSDOF 15
