REMARK SMILES COc1cc2cc(C(=O)OCCOCCOC(=O)c3ccc(-c4c5nc(c(-c6c(F)cccc6F)c6ccc([nH]6)c(-c6c(F)cccc6F)c6nc(c(-c7c(F)cccc7F)c7ccc4[nH]7)C=C6)C=C5)cc3)n(Cc3ccccc3)c2c(OC)c1OC
REMARK SMILES IDX 13 1 12 2 11 3 10 4 8 5 9 6 7 7 3 8 4 9 85 10 5 11 82 12
REMARK SMILES IDX 6 13 81 14 73 15 2 16 1 17 86 18 87 19 83 20 84 21 74 22
REMARK SMILES IDX 75 23 76 24 80 25 77 26 79 27 78 28 14 29 15 30 16 31 17 32
REMARK SMILES IDX 18 33 19 34 20 35 72 36 21 37 71 38 22 39 23 40 24 41 65 42
REMARK SMILES IDX 25 43 70 44 64 45 66 46 26 47 69 48 63 49 62 50 27 52 53 53
REMARK SMILES IDX 36 54 52 55 37 56 40 57 51 58 67 59 38 60 39 61 50 63 68 64
REMARK SMILES IDX 41 65 28 66 29 67 34 68 30 69 31 70 33 71 35 72 32 73 54 74
REMARK SMILES IDX 55 75 60 76 56 77 57 78 59 79 61 80 58 81 42 82 43 83 48 84
REMARK SMILES IDX 44 85 45 86 47 87 49 88 46 89
REMARK H PARENT 66 51 40 62
REMARK Flexibility Score: inf
ROOT
ATOM      1  O   UNL     1      -1.716   0.974   9.838  1.00  0.00    -0.374 OA
ENDROOT
BRANCH   1   2
ATOM      2  C   UNL     1      -0.831   0.173  10.606  1.00  0.00     0.202 C 
BRANCH   2   3
ATOM      3  C   UNL     1      -0.315  -1.127   9.989  1.00  0.00     0.261 C 
BRANCH   3   4
ATOM      4  O   UNL     1       0.427  -0.850   8.794  1.00  0.00    -0.459 OA
BRANCH   4   5
ATOM      5  C   UNL     1      -0.280  -1.082   7.667  1.00  0.00     0.355 C 
ATOM      6  O   UNL     1      -1.391  -1.610   7.636  1.00  0.00    -0.244 OA
BRANCH   5   7
ATOM      7  C   UNL     1       0.353  -0.517   6.500  1.00  0.00     0.129 A 
ATOM      8  C   UNL     1       1.254   0.667   2.129  1.00  0.00     0.165 A 
ATOM      9  C   UNL     1       0.200   0.576   3.035  1.00  0.00     0.061 A 
ATOM     10  C   UNL     1       2.579   0.436   2.535  1.00  0.00     0.205 A 
ATOM     11  C   UNL     1       0.462   0.204   4.359  1.00  0.00     0.008 A 
ATOM     12  C   UNL     1       2.866   0.082   3.888  1.00  0.00     0.189 A 
ATOM     13  C   UNL     1      -0.395  -0.051   5.438  1.00  0.00     0.044 A 
ATOM     14  C   UNL     1       1.772  -0.021   4.790  1.00  0.00     0.096 A 
ATOM     15  N   UNL     1       1.691  -0.326   6.160  1.00  0.00    -0.327 N 
BRANCH   8  16
ATOM     16  O   UNL     1       0.954   1.098   0.860  1.00  0.00    -0.493 OA
ATOM     17  C   UNL     1       0.226   0.115   0.119  1.00  0.00     0.278 C 
ENDBRANCH   8  16
BRANCH  10  18
ATOM     18  O   UNL     1       3.659   0.622   1.702  1.00  0.00    -0.490 OA
ATOM     19  C   UNL     1       3.498   0.310   0.324  1.00  0.00     0.278 C 
ENDBRANCH  10  18
BRANCH  12  20
ATOM     20  O   UNL     1       4.111  -0.156   4.407  1.00  0.00    -0.491 OA
ATOM     21  C   UNL     1       5.140  -0.597   3.532  1.00  0.00     0.278 C 
ENDBRANCH  12  20
BRANCH  15  22
ATOM     22  C   UNL     1       2.849  -0.558   7.038  1.00  0.00     0.158 C 
BRANCH  22  23
ATOM     23  C   UNL     1       3.469   0.697   7.633  1.00  0.00    -0.028 A 
ATOM     24  C   UNL     1       2.698   1.775   8.081  1.00  0.00     0.005 A 
ATOM     25  C   UNL     1       4.856   0.764   7.849  1.00  0.00     0.005 A 
ATOM     26  C   UNL     1       3.282   2.880   8.713  1.00  0.00     0.000 A 
ATOM     27  C   UNL     1       5.441   1.863   8.495  1.00  0.00     0.000 A 
ATOM     28  C   UNL     1       4.651   2.918   8.937  1.00  0.00     0.000 A 
ENDBRANCH  22  23
ENDBRANCH  15  22
ENDBRANCH   5   7
ENDBRANCH   4   5
ENDBRANCH   3   4
ENDBRANCH   2   3
ENDBRANCH   1   2
BRANCH   1  29
ATOM     29  C   UNL     1      -1.113   2.011   9.060  1.00  0.00     0.202 C 
BRANCH  29  30
ATOM     30  C   UNL     1      -0.433   3.163   9.835  1.00  0.00     0.261 C 
BRANCH  30  31
ATOM     31  O   UNL     1       0.774   2.703  10.468  1.00  0.00    -0.460 OA
BRANCH  31  32
ATOM     32  C   UNL     1       1.040   3.168  11.715  1.00  0.00     0.338 C 
ATOM     33  O   UNL     1       0.673   4.223  12.200  1.00  0.00    -0.246 OA
BRANCH  32  34
ATOM     34  C   UNL     1       1.473   1.981  12.491  1.00  0.00     0.060 A 
ATOM     35  C   UNL     1       2.390   1.056  11.968  1.00  0.00     0.016 A 
ATOM     36  C   UNL     1       0.638   1.636  13.561  1.00  0.00     0.016 A 
ATOM     37  C   UNL     1       2.360  -0.261  12.422  1.00  0.00     0.010 A 
ATOM     38  C   UNL     1       0.608   0.323  14.005  1.00  0.00     0.010 A 
ATOM     39  C   UNL     1       1.416  -0.640  13.388  1.00  0.00    -0.014 A 
BRANCH  39  40
ATOM     40  C   UNL     1       1.364  -2.034  13.851  1.00  0.00     0.031 A 
ATOM     41  C   UNL     1       2.555  -2.445  14.658  1.00  0.00     0.074 A 
ATOM     42  C   UNL     1       0.241  -2.786  13.755  1.00  0.00     0.049 A 
ATOM     43  N   UNL     1       3.259  -3.529  14.593  1.00  0.00    -0.248 NA
ATOM     44  C   UNL     1       3.081  -1.456  15.622  1.00  0.00     0.031 C 
ATOM     45  C   UNL     1      -1.056  -2.371  13.223  1.00  0.00     0.029 A 
ATOM     46  N   UNL     1      -0.037  -4.047  14.202  1.00  0.00    -0.354 N 
ATOM     47  C   UNL     1       4.194  -3.437  15.628  1.00  0.00     0.074 A 
ATOM     48  C   UNL     1       4.130  -2.094  16.131  1.00  0.00     0.031 C 
ATOM     49  C   UNL     1      -2.016  -3.256  13.546  1.00  0.00     0.029 A 
ATOM     50  C   UNL     1      -1.400  -4.344  14.265  1.00  0.00     0.049 A 
ATOM     51  H   UNL     1       0.663  -4.690  14.458  1.00  0.00     0.167 HD
ATOM     52  C   UNL     1       4.804  -4.533  16.154  1.00  0.00     0.037 A 
ATOM     53  C   UNL     1      -2.010  -5.351  14.940  1.00  0.00     0.037 A 
ATOM     54  C   UNL     1       4.807  -5.630  15.229  1.00  0.00     0.049 A 
ATOM     55  C   UNL     1      -0.970  -6.342  15.290  1.00  0.00     0.074 A 
ATOM     56  C   UNL     1       5.378  -5.852  13.991  1.00  0.00     0.029 A 
ATOM     57  N   UNL     1       3.867  -6.615  15.386  1.00  0.00    -0.354 N 
ATOM     58  N   UNL     1      -0.359  -7.082  14.409  1.00  0.00    -0.248 NA
ATOM     59  C   UNL     1      -0.260  -6.136  16.544  1.00  0.00     0.031 C 
ATOM     60  C   UNL     1       4.419  -6.628  13.279  1.00  0.00     0.029 A 
ATOM     61  C   UNL     1       3.354  -6.883  14.143  1.00  0.00     0.049 A 
ATOM     62  H   UNL     1       3.609  -7.048  16.231  1.00  0.00     0.167 HD
ATOM     63  C   UNL     1       0.969  -7.078  14.810  1.00  0.00     0.074 A 
ATOM     64  C   UNL     1       0.960  -6.524  16.163  1.00  0.00     0.031 C 
ATOM     65  C   UNL     1       1.980  -7.251  13.910  1.00  0.00     0.037 A 
BRANCH  52  66
ATOM     66  C   UNL     1       5.072  -4.711  17.629  1.00  0.00     0.057 A 
ATOM     67  C   UNL     1       4.386  -4.012  18.645  1.00  0.00     0.134 A 
ATOM     68  C   UNL     1       5.810  -5.825  18.067  1.00  0.00     0.134 A 
ATOM     69  F   UNL     1       3.584  -2.972  18.388  1.00  0.00    -0.206 F 
ATOM     70  C   UNL     1       4.405  -4.408  19.985  1.00  0.00     0.040 A 
ATOM     71  C   UNL     1       5.796  -6.258  19.399  1.00  0.00     0.040 A 
ATOM     72  F   UNL     1       6.503  -6.577  17.198  1.00  0.00    -0.206 F 
ATOM     73  C   UNL     1       5.082  -5.556  20.361  1.00  0.00     0.006 A 
ENDBRANCH  52  66
BRANCH  53  74
ATOM     74  C   UNL     1      -3.348  -5.313  15.582  1.00  0.00     0.057 A 
ATOM     75  C   UNL     1      -3.876  -4.117  16.107  1.00  0.00     0.134 A 
ATOM     76  C   UNL     1      -4.053  -6.481  15.898  1.00  0.00     0.134 A 
ATOM     77  F   UNL     1      -3.234  -2.950  15.954  1.00  0.00    -0.206 F 
ATOM     78  C   UNL     1      -5.040  -4.079  16.881  1.00  0.00     0.040 A 
ATOM     79  C   UNL     1      -5.217  -6.459  16.683  1.00  0.00     0.040 A 
ATOM     80  F   UNL     1      -3.605  -7.677  15.491  1.00  0.00    -0.206 F 
ATOM     81  C   UNL     1      -5.712  -5.256  17.180  1.00  0.00     0.006 A 
ENDBRANCH  53  74
BRANCH  65  82
ATOM     82  C   UNL     1       1.606  -7.623  12.502  1.00  0.00     0.057 A 
ATOM     83  C   UNL     1       2.114  -8.806  11.958  1.00  0.00     0.134 A 
ATOM     84  C   UNL     1       0.899  -6.777  11.632  1.00  0.00     0.134 A 
ATOM     85  F   UNL     1       2.856  -9.632  12.713  1.00  0.00    -0.206 F 
ATOM     86  C   UNL     1       1.921  -9.142  10.616  1.00  0.00     0.040 A 
ATOM     87  C   UNL     1       0.670  -7.117  10.295  1.00  0.00     0.040 A 
ATOM     88  F   UNL     1       0.468  -5.575  12.034  1.00  0.00    -0.206 F 
ATOM     89  C   UNL     1       1.187  -8.302   9.782  1.00  0.00     0.006 A 
ENDBRANCH  65  82
ENDBRANCH  39  40
ENDBRANCH  32  34
ENDBRANCH  31  32
ENDBRANCH  30  31
ENDBRANCH  29  30
ENDBRANCH   1  29
TORSDOF 19
