REMARK SMILES O=C(OCCOCCOC(=O)C1(Cc2ccncc2)Cc2ccccc2C1)c1ccc(-c2c3nc(c(-c4c(F)cccc4F)c4ccc([nH]4)c(-c4c(F)cccc4F)c4nc(c(-c5c(F)cccc5F)c5ccc2[nH]5)C=C4)C=C3)cc1
REMARK SMILES IDX 6 1 5 2 4 3 3 4 2 5 1 6 28 7 29 8 81 9 30 10 80 11 31 12
REMARK SMILES IDX 32 13 33 14 74 15 34 16 79 17 73 18 75 19 35 20 78 21 72 22
REMARK SMILES IDX 71 23 36 25 62 26 45 27 61 28 46 29 49 30 60 31 76 32 47 33
REMARK SMILES IDX 48 34 59 36 77 37 50 38 37 39 38 40 43 41 39 42 40 43 42 44
REMARK SMILES IDX 44 45 41 46 63 47 64 48 69 49 65 50 66 51 68 52 70 53 67 54
REMARK SMILES IDX 51 55 52 56 57 57 53 58 54 59 56 60 58 61 55 62 7 63 8 64
REMARK SMILES IDX 9 65 10 66 11 67 12 68 20 69 27 70 21 71 26 72 22 73 25 74
REMARK SMILES IDX 23 75 24 76 13 77 14 78 15 79 19 80 16 81 18 82 17 83
REMARK H PARENT 75 24 49 35
REMARK Flexibility Score: inf
ROOT
ATOM      1  O   UNL     1       3.852  -1.377  -0.819  1.00  0.00    -0.374 OA
ENDROOT
BRANCH   1   2
ATOM      2  C   UNL     1       4.321  -1.220   0.522  1.00  0.00     0.202 C 
BRANCH   2   3
ATOM      3  C   UNL     1       4.124   0.139   1.200  1.00  0.00     0.261 C 
BRANCH   3   4
ATOM      4  O   UNL     1       2.744   0.512   1.204  1.00  0.00    -0.460 OA
BRANCH   4   5
ATOM      5  C   UNL     1       2.092   1.210   0.249  1.00  0.00     0.338 C 
ATOM      6  O   UNL     1       0.873   1.342   0.346  1.00  0.00    -0.246 OA
BRANCH   5   7
ATOM      7  C   UNL     1       2.776   1.845  -0.918  1.00  0.00     0.060 A 
ATOM      8  C   UNL     1       3.966   1.405  -1.505  1.00  0.00     0.016 A 
ATOM      9  C   UNL     1       2.110   2.927  -1.513  1.00  0.00     0.016 A 
ATOM     10  C   UNL     1       4.496   1.999  -2.629  1.00  0.00     0.010 A 
ATOM     11  C   UNL     1       2.635   3.545  -2.645  1.00  0.00     0.010 A 
ATOM     12  C   UNL     1       3.835   3.077  -3.188  1.00  0.00    -0.014 A 
BRANCH  12  13
ATOM     13  C   UNL     1       4.537   3.802  -4.241  1.00  0.00     0.031 A 
ATOM     14  C   UNL     1       5.297   5.016  -3.837  1.00  0.00     0.074 A 
ATOM     15  C   UNL     1       4.572   3.291  -5.479  1.00  0.00     0.049 A 
ATOM     16  N   UNL     1       5.870   5.916  -4.580  1.00  0.00    -0.248 NA
ATOM     17  C   UNL     1       5.436   5.242  -2.386  1.00  0.00     0.031 C 
ATOM     18  C   UNL     1       3.993   2.006  -5.879  1.00  0.00     0.029 A 
ATOM     19  N   UNL     1       5.117   3.791  -6.625  1.00  0.00    -0.354 N 
ATOM     20  C   UNL     1       6.390   6.845  -3.692  1.00  0.00     0.074 A 
ATOM     21  C   UNL     1       6.086   6.392  -2.355  1.00  0.00     0.031 C 
ATOM     22  C   UNL     1       4.185   1.836  -7.196  1.00  0.00     0.029 A 
ATOM     23  C   UNL     1       4.828   3.031  -7.729  1.00  0.00     0.049 A 
ATOM     24  H   UNL     1       5.662   4.610  -6.655  1.00  0.00     0.167 HD
ATOM     25  C   UNL     1       7.035   7.992  -3.994  1.00  0.00     0.037 A 
ATOM     26  C   UNL     1       5.004   3.327  -9.028  1.00  0.00     0.037 A 
ATOM     27  C   UNL     1       7.286   8.393  -5.351  1.00  0.00     0.049 A 
ATOM     28  C   UNL     1       5.628   4.654  -9.355  1.00  0.00     0.074 A 
ATOM     29  C   UNL     1       7.868   9.550  -5.823  1.00  0.00     0.029 A 
ATOM     30  N   UNL     1       6.948   7.623  -6.461  1.00  0.00    -0.354 N 
ATOM     31  N   UNL     1       6.050   5.588  -8.531  1.00  0.00    -0.248 NA
ATOM     32  C   UNL     1       5.790   4.983 -10.773  1.00  0.00     0.031 C 
ATOM     33  C   UNL     1       7.834   9.504  -7.222  1.00  0.00     0.029 A 
ATOM     34  C   UNL     1       7.288   8.289  -7.621  1.00  0.00     0.049 A 
ATOM     35  H   UNL     1       6.528   6.734  -6.424  1.00  0.00     0.167 HD
ATOM     36  C   UNL     1       6.548   6.607  -9.327  1.00  0.00     0.074 A 
ATOM     37  C   UNL     1       6.375   6.172 -10.702  1.00  0.00     0.031 C 
ATOM     38  C   UNL     1       7.102   7.792  -8.965  1.00  0.00     0.037 A 
BRANCH  25  39
ATOM     39  C   UNL     1       7.373   8.897  -2.848  1.00  0.00     0.057 A 
ATOM     40  C   UNL     1       8.337   8.569  -1.885  1.00  0.00     0.134 A 
ATOM     41  C   UNL     1       6.644  10.077  -2.651  1.00  0.00     0.134 A 
ATOM     42  F   UNL     1       9.044   7.433  -1.990  1.00  0.00    -0.206 F 
ATOM     43  C   UNL     1       8.531   9.356  -0.747  1.00  0.00     0.040 A 
ATOM     44  C   UNL     1       6.849  10.887  -1.533  1.00  0.00     0.040 A 
ATOM     45  F   UNL     1       5.696  10.446  -3.525  1.00  0.00    -0.206 F 
ATOM     46  C   UNL     1       7.785  10.520  -0.570  1.00  0.00     0.006 A 
ENDBRANCH  25  39
BRANCH  26  47
ATOM     47  C   UNL     1       4.516   2.387 -10.067  1.00  0.00     0.057 A 
ATOM     48  C   UNL     1       5.401   1.671 -10.877  1.00  0.00     0.134 A 
ATOM     49  C   UNL     1       3.146   2.133 -10.230  1.00  0.00     0.134 A 
ATOM     50  F   UNL     1       6.723   1.874 -10.778  1.00  0.00    -0.206 F 
ATOM     51  C   UNL     1       4.944   0.737 -11.811  1.00  0.00     0.040 A 
ATOM     52  C   UNL     1       2.677   1.185 -11.140  1.00  0.00     0.040 A 
ATOM     53  F   UNL     1       2.243   2.779  -9.476  1.00  0.00    -0.206 F 
ATOM     54  C   UNL     1       3.579   0.485 -11.937  1.00  0.00     0.006 A 
ENDBRANCH  26  47
BRANCH  38  55
ATOM     55  C   UNL     1       7.604   8.670 -10.068  1.00  0.00     0.057 A 
ATOM     56  C   UNL     1       6.735   9.428 -10.860  1.00  0.00     0.134 A 
ATOM     57  C   UNL     1       8.981   8.836 -10.258  1.00  0.00     0.134 A 
ATOM     58  F   UNL     1       5.406   9.301 -10.728  1.00  0.00    -0.206 F 
ATOM     59  C   UNL     1       7.223  10.325 -11.809  1.00  0.00     0.040 A 
ATOM     60  C   UNL     1       9.480   9.748 -11.184  1.00  0.00     0.040 A 
ATOM     61  F   UNL     1       9.859   8.142  -9.517  1.00  0.00    -0.206 F 
ATOM     62  C   UNL     1       8.599  10.496 -11.963  1.00  0.00     0.006 A 
ENDBRANCH  38  55
ENDBRANCH  12  13
ENDBRANCH   5   7
ENDBRANCH   4   5
ENDBRANCH   3   4
ENDBRANCH   2   3
ENDBRANCH   1   2
BRANCH   1  63
ATOM     63  C   UNL     1       2.462  -1.698  -0.969  1.00  0.00     0.202 C 
BRANCH  63  64
ATOM     64  C   UNL     1       2.303  -3.099  -1.554  1.00  0.00     0.261 C 
BRANCH  64  65
ATOM     65  O   UNL     1       2.861  -4.011  -0.599  1.00  0.00    -0.463 OA
BRANCH  65  66
ATOM     66  C   UNL     1       4.151  -4.380  -0.824  1.00  0.00     0.313 C 
ATOM     67  O   UNL     1       4.655  -4.393  -1.935  1.00  0.00    -0.252 OA
BRANCH  66  68
ATOM     68  C   UNL     1       4.849  -4.825   0.466  1.00  0.00     0.080 C 
ATOM     69  C   UNL     1       4.060  -4.396   1.755  1.00  0.00     0.055 C 
ATOM     70  C   UNL     1       4.834  -6.376   0.460  1.00  0.00     0.055 C 
ATOM     71  C   UNL     1       4.046  -5.623   2.591  1.00  0.00    -0.044 A 
ATOM     72  C   UNL     1       4.478  -6.731   1.870  1.00  0.00    -0.044 A 
ATOM     73  C   UNL     1       3.623  -5.718   3.906  1.00  0.00     0.004 A 
ATOM     74  C   UNL     1       4.488  -7.981   2.458  1.00  0.00     0.004 A 
ATOM     75  C   UNL     1       3.642  -6.971   4.509  1.00  0.00     0.000 A 
ATOM     76  C   UNL     1       4.071  -8.096   3.788  1.00  0.00     0.000 A 
BRANCH  68  77
ATOM     77  C   UNL     1       6.290  -4.242   0.620  1.00  0.00     0.055 C 
BRANCH  77  78
ATOM     78  C   UNL     1       7.280  -4.310  -0.516  1.00  0.00    -0.044 A 
ATOM     79  C   UNL     1       7.272  -3.362  -1.547  1.00  0.00     0.024 A 
ATOM     80  C   UNL     1       8.271  -5.291  -0.539  1.00  0.00     0.024 A 
ATOM     81  C   UNL     1       8.207  -3.467  -2.565  1.00  0.00     0.111 A 
ATOM     82  C   UNL     1       9.179  -5.299  -1.587  1.00  0.00     0.111 A 
ATOM     83  N   UNL     1       9.169  -4.412  -2.604  1.00  0.00    -0.265 NA
ENDBRANCH  77  78
ENDBRANCH  68  77
ENDBRANCH  66  68
ENDBRANCH  65  66
ENDBRANCH  64  65
ENDBRANCH  63  64
ENDBRANCH   1  63
TORSDOF 16
