REMARK SMILES O=C(OCCOCCOC(=O)c1nnn(-c2cccc(C(F)(F)F)c2)c1[C@H]1COc2ccccc2O1)c1ccc(-c2c3nc(c(-c4c(F)cccc4F)c4ccc([nH]4)c(-c4c(F)cccc4F)c4nc(c(-c5c(F)cccc5F)c5ccc2[nH]5)C=C4)C=C3)cc1
REMARK SMILES IDX 6 1 5 2 4 3 3 4 2 5 1 6 37 7 38 8 90 9 39 10 89 11 40 12
REMARK SMILES IDX 41 13 42 14 83 15 43 16 88 17 82 18 84 19 44 20 87 21 81 22
REMARK SMILES IDX 80 23 45 25 71 26 54 27 70 28 55 29 58 30 69 31 85 32 56 33
REMARK SMILES IDX 57 34 68 36 86 37 59 38 46 39 47 40 52 41 48 42 49 43 51 44
REMARK SMILES IDX 53 45 50 46 72 47 73 48 78 49 74 50 75 51 77 52 79 53 76 54
REMARK SMILES IDX 60 55 61 56 66 57 62 58 63 59 65 60 67 61 64 62 7 63 8 64
REMARK SMILES IDX 9 65 10 66 11 67 12 68 13 69 26 70 14 71 15 72 27 73 28 74
REMARK SMILES IDX 36 75 29 76 35 77 30 78 34 79 31 80 33 81 32 82 16 83 17 84
REMARK SMILES IDX 25 85 18 86 20 87 19 88 21 89 22 90 23 91 24 92
REMARK H PARENT 84 24 58 35
REMARK Flexibility Score: inf
ROOT
ATOM      1  O   UNL     1      -2.316  -2.484  -3.516  1.00  0.00    -0.374 OA
ENDROOT
BRANCH   1   2
ATOM      2  C   UNL     1      -1.573  -1.340  -3.104  1.00  0.00     0.202 C 
BRANCH   2   3
ATOM      3  C   UNL     1      -0.983  -1.305  -1.688  1.00  0.00     0.261 C 
BRANCH   3   4
ATOM      4  O   UNL     1      -0.111  -2.415  -1.435  1.00  0.00    -0.460 OA
BRANCH   4   5
ATOM      5  C   UNL     1      -0.392  -3.631  -0.920  1.00  0.00     0.338 C 
ATOM      6  O   UNL     1       0.504  -4.475  -0.910  1.00  0.00    -0.246 OA
BRANCH   5   7
ATOM      7  C   UNL     1      -1.725  -4.025  -0.363  1.00  0.00     0.060 A 
ATOM      8  C   UNL     1      -2.914  -3.299  -0.460  1.00  0.00     0.016 A 
ATOM      9  C   UNL     1      -1.760  -5.257   0.316  1.00  0.00     0.016 A 
ATOM     10  C   UNL     1      -4.024  -3.653   0.288  1.00  0.00     0.010 A 
ATOM     11  C   UNL     1      -2.896  -5.662   1.002  1.00  0.00     0.010 A 
ATOM     12  C   UNL     1      -3.991  -4.806   1.063  1.00  0.00    -0.014 A 
BRANCH  12  13
ATOM     13  C   UNL     1      -5.159  -5.087   1.887  1.00  0.00     0.031 A 
ATOM     14  C   UNL     1      -6.446  -5.261   1.158  1.00  0.00     0.074 A 
ATOM     15  C   UNL     1      -5.060  -5.263   3.218  1.00  0.00     0.049 A 
ATOM     16  N   UNL     1      -7.571  -4.651   1.353  1.00  0.00    -0.248 NA
ATOM     17  C   UNL     1      -6.453  -6.183   0.012  1.00  0.00     0.031 C 
ATOM     18  C   UNL     1      -3.833  -5.370   4.012  1.00  0.00     0.029 A 
ATOM     19  N   UNL     1      -6.043  -5.515   4.128  1.00  0.00    -0.354 N 
ATOM     20  C   UNL     1      -8.481  -5.246   0.480  1.00  0.00     0.074 A 
ATOM     21  C   UNL     1      -7.714  -6.080  -0.406  1.00  0.00     0.031 C 
ATOM     22  C   UNL     1      -4.133  -5.904   5.214  1.00  0.00     0.029 A 
ATOM     23  C   UNL     1      -5.573  -6.064   5.311  1.00  0.00     0.049 A 
ATOM     24  H   UNL     1      -6.994  -5.324   3.961  1.00  0.00     0.167 HD
ATOM     25  C   UNL     1      -9.822  -5.200   0.712  1.00  0.00     0.037 A 
ATOM     26  C   UNL     1      -6.304  -6.694   6.261  1.00  0.00     0.037 A 
ATOM     27  C   UNL     1     -10.182  -4.068   1.527  1.00  0.00     0.049 A 
ATOM     28  C   UNL     1      -7.724  -6.311   6.080  1.00  0.00     0.074 A 
ATOM     29  C   UNL     1     -10.006  -2.699   1.433  1.00  0.00     0.029 A 
ATOM     30  N   UNL     1     -10.591  -4.289   2.818  1.00  0.00    -0.354 N 
ATOM     31  N   UNL     1      -8.211  -5.132   6.346  1.00  0.00    -0.248 NA
ATOM     32  C   UNL     1      -8.552  -7.146   5.221  1.00  0.00     0.031 C 
ATOM     33  C   UNL     1      -9.841  -2.249   2.776  1.00  0.00     0.029 A 
ATOM     34  C   UNL     1      -9.955  -3.366   3.602  1.00  0.00     0.049 A 
ATOM     35  H   UNL     1     -11.223  -4.980   3.122  1.00  0.00     0.167 HD
ATOM     36  C   UNL     1      -9.166  -4.916   5.364  1.00  0.00     0.074 A 
ATOM     37  C   UNL     1      -9.417  -6.230   4.781  1.00  0.00     0.031 C 
ATOM     38  C   UNL     1      -9.453  -3.656   4.922  1.00  0.00     0.037 A 
BRANCH  25  39
ATOM     39  C   UNL     1     -10.724  -6.411   0.562  1.00  0.00     0.057 A 
ATOM     40  C   UNL     1     -12.101  -6.270   0.818  1.00  0.00     0.134 A 
ATOM     41  C   UNL     1     -10.263  -7.744   0.515  1.00  0.00     0.134 A 
ATOM     42  F   UNL     1     -12.672  -5.057   0.872  1.00  0.00    -0.206 F 
ATOM     43  C   UNL     1     -12.921  -7.359   1.141  1.00  0.00     0.040 A 
ATOM     44  C   UNL     1     -11.086  -8.841   0.785  1.00  0.00     0.040 A 
ATOM     45  F   UNL     1      -8.982  -8.062   0.302  1.00  0.00    -0.206 F 
ATOM     46  C   UNL     1     -12.408  -8.649   1.145  1.00  0.00     0.006 A 
ENDBRANCH  25  39
BRANCH  26  47
ATOM     47  C   UNL     1      -5.882  -7.804   7.144  1.00  0.00     0.057 A 
ATOM     48  C   UNL     1      -6.618  -8.140   8.286  1.00  0.00     0.134 A 
ATOM     49  C   UNL     1      -4.880  -8.717   6.766  1.00  0.00     0.134 A 
ATOM     50  F   UNL     1      -7.629  -7.363   8.699  1.00  0.00    -0.206 F 
ATOM     51  C   UNL     1      -6.377  -9.317   9.007  1.00  0.00     0.040 A 
ATOM     52  C   UNL     1      -4.616  -9.885   7.486  1.00  0.00     0.040 A 
ATOM     53  F   UNL     1      -4.176  -8.553   5.636  1.00  0.00    -0.206 F 
ATOM     54  C   UNL     1      -5.375 -10.195   8.605  1.00  0.00     0.006 A 
ENDBRANCH  26  47
BRANCH  38  55
ATOM     55  C   UNL     1      -8.953  -2.496   5.731  1.00  0.00     0.057 A 
ATOM     56  C   UNL     1      -7.595  -2.225   5.950  1.00  0.00     0.134 A 
ATOM     57  C   UNL     1      -9.873  -1.549   6.194  1.00  0.00     0.134 A 
ATOM     58  F   UNL     1      -6.638  -3.018   5.447  1.00  0.00    -0.206 F 
ATOM     59  C   UNL     1      -7.176  -1.092   6.653  1.00  0.00     0.040 A 
ATOM     60  C   UNL     1      -9.466  -0.395   6.866  1.00  0.00     0.040 A 
ATOM     61  F   UNL     1     -11.186  -1.711   5.963  1.00  0.00    -0.206 F 
ATOM     62  C   UNL     1      -8.114  -0.171   7.111  1.00  0.00     0.006 A 
ENDBRANCH  38  55
ENDBRANCH  12  13
ENDBRANCH   5   7
ENDBRANCH   4   5
ENDBRANCH   3   4
ENDBRANCH   2   3
ENDBRANCH   1   2
BRANCH   1  63
ATOM     63  C   UNL     1      -1.648  -3.690  -3.894  1.00  0.00     0.202 C 
BRANCH  63  64
ATOM     64  C   UNL     1      -0.658  -3.674  -5.057  1.00  0.00     0.261 C 
BRANCH  64  65
ATOM     65  O   UNL     1       0.520  -2.917  -4.742  1.00  0.00    -0.458 OA
BRANCH  65  66
ATOM     66  C   UNL     1       0.681  -1.762  -5.453  1.00  0.00     0.361 C 
ATOM     67  O   UNL     1      -0.076  -1.345  -6.303  1.00  0.00    -0.244 OA
BRANCH  66  68
ATOM     68  C   UNL     1       1.845  -1.020  -4.993  1.00  0.00     0.198 A 
ATOM     69  N   UNL     1       1.771   0.210  -4.389  1.00  0.00    -0.122 NA
ATOM     70  C   UNL     1       3.167  -1.410  -5.066  1.00  0.00     0.123 A 
ATOM     71  N   UNL     1       3.006   0.603  -4.102  1.00  0.00    -0.061 NA
ATOM     72  N   UNL     1       3.848  -0.277  -4.681  1.00  0.00    -0.213 N 
BRANCH  70  73
ATOM     73  C   UNL     1       3.824  -2.697  -5.431  1.00  0.00     0.262 C 
ATOM     74  C   UNL     1       4.196  -3.494  -4.174  1.00  0.00     0.281 C 
ATOM     75  O   UNL     1       2.891  -3.385  -6.268  1.00  0.00    -0.477 OA
ATOM     76  O   UNL     1       4.756  -4.761  -4.534  1.00  0.00    -0.485 OA
ATOM     77  C   UNL     1       2.989  -4.746  -6.198  1.00  0.00     0.162 A 
ATOM     78  C   UNL     1       3.896  -5.417  -5.375  1.00  0.00     0.161 A 
ATOM     79  C   UNL     1       2.095  -5.465  -6.987  1.00  0.00     0.050 A 
ATOM     80  C   UNL     1       3.941  -6.807  -5.375  1.00  0.00     0.050 A 
ATOM     81  C   UNL     1       2.110  -6.858  -6.956  1.00  0.00     0.004 A 
ATOM     82  C   UNL     1       3.038  -7.528  -6.158  1.00  0.00     0.004 A 
ENDBRANCH  70  73
BRANCH  72  83
ATOM     83  C   UNL     1       5.170   0.053  -5.007  1.00  0.00     0.067 A 
ATOM     84  C   UNL     1       6.058   0.497  -4.032  1.00  0.00     0.028 A 
ATOM     85  C   UNL     1       5.585  -0.152  -6.330  1.00  0.00     0.041 A 
ATOM     86  C   UNL     1       7.404   0.632  -4.376  1.00  0.00     0.003 A 
ATOM     87  C   UNL     1       6.926  -0.002  -6.683  1.00  0.00     0.058 A 
ATOM     88  C   UNL     1       7.837   0.370  -5.685  1.00  0.00     0.013 A 
BRANCH  87  89
ATOM     89  C   UNL     1       7.369  -0.288  -8.096  1.00  0.00     0.416 C 
ATOM     90  F   UNL     1       8.103   0.721  -8.636  1.00  0.00    -0.166 F 
ATOM     91  F   UNL     1       8.139  -1.407  -8.175  1.00  0.00    -0.166 F 
ATOM     92  F   UNL     1       6.329  -0.494  -8.953  1.00  0.00    -0.166 F 
ENDBRANCH  87  89
ENDBRANCH  72  83
ENDBRANCH  66  68
ENDBRANCH  65  66
ENDBRANCH  64  65
ENDBRANCH  63  64
ENDBRANCH   1  63
TORSDOF 17
