REMARK SMILES C[C@@H](Oc1ccc(I)cc1)C(=O)NCc1ccc(C(=O)OCCOCCOC(=O)c2ccc(-c3c4nc(c(-c5c(F)cccc5F)c5ccc([nH]5)c(-c5c(F)cccc5F)c5nc(c(-c6c(F)cccc6F)c6ccc3[nH]6)C=C5)C=C4)cc2)cc1
REMARK SMILES IDX 22 1 21 2 19 3 20 4 18 5 15 6 16 7 85 8 17 9 84 10 14 11
REMARK SMILES IDX 13 12 11 13 12 14 2 16 1 17 3 18 4 19 5 20 10 21 6 22 9 23
REMARK SMILES IDX 7 24 8 25 23 26 24 27 25 28 26 29 27 30 28 31 29 32 30 33
REMARK SMILES IDX 31 34 83 35 32 36 82 37 33 38 34 39 35 40 76 41 36 42 81 43
REMARK SMILES IDX 75 44 77 45 37 46 80 47 74 48 73 49 38 51 64 52 47 53 63 54
REMARK SMILES IDX 48 55 51 56 62 57 78 58 49 59 50 60 61 62 79 63 52 64 39 65
REMARK SMILES IDX 40 66 45 67 41 68 42 69 44 70 46 71 43 72 65 73 66 74 71 75
REMARK SMILES IDX 67 76 68 77 70 78 72 79 69 80 53 81 54 82 59 83 55 84 56 85
REMARK SMILES IDX 58 86 60 87 57 88
REMARK H PARENT 13 15 77 50 51 61
REMARK Flexibility Score: inf
ROOT
ATOM      1  C   UNL     1      -3.228  -4.418   6.639  1.00  0.00     0.261 C 
ENDROOT
BRANCH   1   2
ATOM      2  O   UNL     1      -2.895  -4.332   5.245  1.00  0.00    -0.460 OA
BRANCH   2   3
ATOM      3  C   UNL     1      -3.371  -3.228   4.621  1.00  0.00     0.338 C 
ATOM      4  O   UNL     1      -4.137  -2.398   5.089  1.00  0.00    -0.246 OA
BRANCH   3   5
ATOM      5  C   UNL     1      -2.735  -3.058   3.296  1.00  0.00     0.060 A 
ATOM      6  C   UNL     1      -1.673  -2.573   0.741  1.00  0.00    -0.029 A 
ATOM      7  C   UNL     1      -2.027  -1.506   1.579  1.00  0.00     0.006 A 
ATOM      8  C   UNL     1      -1.788  -3.885   1.232  1.00  0.00     0.006 A 
ATOM      9  C   UNL     1      -2.565  -1.747   2.840  1.00  0.00     0.016 A 
ATOM     10  C   UNL     1      -2.315  -4.131   2.505  1.00  0.00     0.016 A 
BRANCH   6  11
ATOM     11  C   UNL     1      -1.122  -2.338  -0.645  1.00  0.00     0.151 C 
BRANCH  11  12
ATOM     12  N   UNL     1      -1.600  -1.098  -1.233  1.00  0.00    -0.349 N 
ATOM     13  C   UNL     1      -0.903  -0.004  -1.662  1.00  0.00     0.261 C 
ATOM     14  O   UNL     1      -1.546   0.952  -2.106  1.00  0.00    -0.271 OA
ATOM     15  H   UNL     1      -2.577  -1.037  -1.338  1.00  0.00     0.163 HD
BRANCH  13  16
ATOM     16  C   UNL     1       0.625   0.070  -1.518  1.00  0.00     0.258 C 
ATOM     17  C   UNL     1       0.960   0.342  -0.052  1.00  0.00     0.064 C 
BRANCH  16  18
ATOM     18  O   UNL     1       1.163  -1.157  -2.024  1.00  0.00    -0.481 OA
BRANCH  18  19
ATOM     19  C   UNL     1       2.494  -1.136  -2.310  1.00  0.00     0.120 A 
ATOM     20  C   UNL     1       3.440  -1.295  -1.300  1.00  0.00     0.047 A 
ATOM     21  C   UNL     1       2.880  -1.159  -3.648  1.00  0.00     0.047 A 
ATOM     22  C   UNL     1       4.789  -1.432  -1.625  1.00  0.00     0.018 A 
ATOM     23  C   UNL     1       4.229  -1.309  -3.978  1.00  0.00     0.018 A 
ATOM     24  C   UNL     1       5.179  -1.443  -2.964  1.00  0.00     0.013 A 
ATOM     25  I   UNL     1       7.181  -1.709  -3.449  1.00  0.00    -0.044 I 
ENDBRANCH  18  19
ENDBRANCH  16  18
ENDBRANCH  13  16
ENDBRANCH  11  12
ENDBRANCH   6  11
ENDBRANCH   3   5
ENDBRANCH   2   3
ENDBRANCH   1   2
BRANCH   1  26
ATOM     26  C   UNL     1      -1.996  -4.211   7.523  1.00  0.00     0.202 C 
BRANCH  26  27
ATOM     27  O   UNL     1      -1.349  -2.944   7.411  1.00  0.00    -0.374 OA
BRANCH  27  28
ATOM     28  C   UNL     1      -0.426  -2.781   6.332  1.00  0.00     0.202 C 
BRANCH  28  29
ATOM     29  C   UNL     1       0.963  -3.397   6.539  1.00  0.00     0.261 C 
BRANCH  29  30
ATOM     30  O   UNL     1       0.913  -4.837   6.521  1.00  0.00    -0.460 OA
BRANCH  30  31
ATOM     31  C   UNL     1       1.177  -5.433   7.707  1.00  0.00     0.338 C 
ATOM     32  O   UNL     1       1.545  -4.896   8.743  1.00  0.00    -0.246 OA
BRANCH  31  33
ATOM     33  C   UNL     1       0.783  -6.853   7.653  1.00  0.00     0.060 A 
ATOM     34  C   UNL     1      -0.066  -7.326   8.663  1.00  0.00     0.016 A 
ATOM     35  C   UNL     1       1.280  -7.721   6.679  1.00  0.00     0.016 A 
ATOM     36  C   UNL     1      -0.379  -8.681   8.733  1.00  0.00     0.010 A 
ATOM     37  C   UNL     1       0.971  -9.084   6.756  1.00  0.00     0.010 A 
ATOM     38  C   UNL     1       0.170  -9.575   7.803  1.00  0.00    -0.014 A 
BRANCH  38  39
ATOM     39  C   UNL     1       0.020 -11.034   8.018  1.00  0.00     0.031 A 
ATOM     40  C   UNL     1       1.151 -11.799   8.649  1.00  0.00     0.074 A 
ATOM     41  C   UNL     1      -1.120 -11.665   7.689  1.00  0.00     0.049 A 
ATOM     42  N   UNL     1       1.242 -13.076   8.917  1.00  0.00    -0.248 NA
ATOM     43  C   UNL     1       2.340 -11.018   9.027  1.00  0.00     0.031 C 
ATOM     44  C   UNL     1      -2.299 -11.029   7.105  1.00  0.00     0.029 A 
ATOM     45  N   UNL     1      -1.469 -12.988   7.800  1.00  0.00    -0.354 N 
ATOM     46  C   UNL     1       2.495 -13.253   9.491  1.00  0.00     0.074 A 
ATOM     47  C   UNL     1       3.142 -11.959   9.504  1.00  0.00     0.031 C 
ATOM     48  C   UNL     1      -3.241 -11.966   6.900  1.00  0.00     0.029 A 
ATOM     49  C   UNL     1      -2.722 -13.268   7.314  1.00  0.00     0.049 A 
ATOM     50  H   UNL     1      -0.877 -13.670   8.190  1.00  0.00     0.167 HD
ATOM     51  C   UNL     1       3.052 -14.389   9.974  1.00  0.00     0.037 A 
ATOM     52  C   UNL     1      -3.367 -14.445   7.201  1.00  0.00     0.037 A 
ATOM     53  C   UNL     1       2.408 -15.676   9.964  1.00  0.00     0.049 A 
ATOM     54  C   UNL     1      -2.700 -15.705   7.686  1.00  0.00     0.074 A 
ATOM     55  C   UNL     1       2.883 -16.882  10.451  1.00  0.00     0.029 A 
ATOM     56  N   UNL     1       1.152 -15.925   9.434  1.00  0.00    -0.354 N 
ATOM     57  N   UNL     1      -1.528 -15.856   8.252  1.00  0.00    -0.248 NA
ATOM     58  C   UNL     1      -3.450 -16.959   7.516  1.00  0.00     0.031 C 
ATOM     59  C   UNL     1       1.932 -17.870  10.174  1.00  0.00     0.029 A 
ATOM     60  C   UNL     1       0.845 -17.271   9.558  1.00  0.00     0.049 A 
ATOM     61  H   UNL     1       0.564 -15.247   9.029  1.00  0.00     0.167 HD
ATOM     62  C   UNL     1      -1.411 -17.212   8.532  1.00  0.00     0.074 A 
ATOM     63  C   UNL     1      -2.636 -17.839   8.083  1.00  0.00     0.031 C 
ATOM     64  C   UNL     1      -0.381 -17.879   9.110  1.00  0.00     0.037 A 
BRANCH  51  65
ATOM     65  C   UNL     1       4.439 -14.292  10.536  1.00  0.00     0.057 A 
ATOM     66  C   UNL     1       4.698 -13.669  11.764  1.00  0.00     0.134 A 
ATOM     67  C   UNL     1       5.526 -14.853   9.854  1.00  0.00     0.134 A 
ATOM     68  F   UNL     1       3.703 -13.099  12.460  1.00  0.00    -0.206 F 
ATOM     69  C   UNL     1       5.991 -13.590  12.284  1.00  0.00     0.040 A 
ATOM     70  C   UNL     1       6.820 -14.802  10.375  1.00  0.00     0.040 A 
ATOM     71  F   UNL     1       5.347 -15.466   8.675  1.00  0.00    -0.206 F 
ATOM     72  C   UNL     1       7.056 -14.164  11.591  1.00  0.00     0.006 A 
ENDBRANCH  51  65
BRANCH  52  73
ATOM     73  C   UNL     1      -4.721 -14.495   6.595  1.00  0.00     0.057 A 
ATOM     74  C   UNL     1      -5.851 -14.790   7.365  1.00  0.00     0.134 A 
ATOM     75  C   UNL     1      -4.913 -14.269   5.226  1.00  0.00     0.134 A 
ATOM     76  F   UNL     1      -5.727 -15.039   8.677  1.00  0.00    -0.206 F 
ATOM     77  C   UNL     1      -7.122 -14.876   6.794  1.00  0.00     0.040 A 
ATOM     78  C   UNL     1      -6.181 -14.329   4.646  1.00  0.00     0.040 A 
ATOM     79  F   UNL     1      -3.870 -13.981   4.434  1.00  0.00    -0.206 F 
ATOM     80  C   UNL     1      -7.290 -14.640   5.431  1.00  0.00     0.006 A 
ENDBRANCH  52  73
BRANCH  64  81
ATOM     81  C   UNL     1      -0.548 -19.356   9.319  1.00  0.00     0.057 A 
ATOM     82  C   UNL     1      -0.495 -20.264   8.254  1.00  0.00     0.134 A 
ATOM     83  C   UNL     1      -0.725 -19.878  10.607  1.00  0.00     0.134 A 
ATOM     84  F   UNL     1      -0.340 -19.828   6.995  1.00  0.00    -0.206 F 
ATOM     85  C   UNL     1      -0.634 -21.638   8.461  1.00  0.00     0.040 A 
ATOM     86  C   UNL     1      -0.840 -21.251  10.829  1.00  0.00     0.040 A 
ATOM     87  F   UNL     1      -0.776 -19.063  11.671  1.00  0.00    -0.206 F 
ATOM     88  C   UNL     1      -0.800 -22.135   9.752  1.00  0.00     0.006 A 
ENDBRANCH  64  81
ENDBRANCH  38  39
ENDBRANCH  31  33
ENDBRANCH  30  31
ENDBRANCH  29  30
ENDBRANCH  28  29
ENDBRANCH  27  28
ENDBRANCH  26  27
ENDBRANCH   1  26
TORSDOF 19
