REMARK SMILES C/C(=C(/F)C(=O)OCCOCCOC(=O)c1ccc(-c2c3nc(c(-c4c(F)cccc4F)c4ccc([nH]4)c(-c4c(F)cccc4F)c4nc(c(-c5c(F)cccc5F)c5ccc2[nH]5)C=C4)C=C3)cc1)c1cccc(-n2cnnn2)c1
REMARK SMILES IDX 10 1 9 2 8 3 7 4 5 5 6 6 3 7 1 8 2 9 4 10 70 11 71 12 80 13
REMARK SMILES IDX 72 14 74 15 73 16 75 17 76 18 79 19 77 20 78 21 11 22 12 23
REMARK SMILES IDX 13 24 14 25 15 26 16 27 17 28 69 29 18 30 68 31 19 32 20 33
REMARK SMILES IDX 21 34 62 35 22 36 67 37 61 38 63 39 23 40 66 41 60 42 59 43
REMARK SMILES IDX 24 45 50 46 33 47 49 48 34 49 37 50 48 51 64 52 35 53 36 54
REMARK SMILES IDX 47 56 65 57 38 58 25 59 26 60 31 61 27 62 28 63 30 64 32 65
REMARK SMILES IDX 29 66 51 67 52 68 57 69 53 70 54 71 56 72 58 73 55 74 39 75
REMARK SMILES IDX 40 76 45 77 41 78 42 79 44 80 46 81 43 82
REMARK H PARENT 63 44 37 55
REMARK Flexibility Score: inf
ROOT
ATOM      1  O   UNL     1       0.285  -3.829  -1.005  1.00  0.00    -0.374 OA
ENDROOT
BRANCH   1   2
ATOM      2  C   UNL     1      -0.962  -4.144  -1.625  1.00  0.00     0.202 C 
BRANCH   2   3
ATOM      3  C   UNL     1      -2.092  -3.136  -1.398  1.00  0.00     0.261 C 
BRANCH   3   4
ATOM      4  O   UNL     1      -1.741  -1.848  -1.926  1.00  0.00    -0.458 OA
BRANCH   4   5
ATOM      5  C   UNL     1      -1.576  -0.875  -0.996  1.00  0.00     0.367 C 
ATOM      6  O   UNL     1      -1.885  -0.938   0.185  1.00  0.00    -0.243 OA
BRANCH   5   7
ATOM      7  C   UNL     1      -0.862   0.273  -1.603  1.00  0.00     0.211 C 
ATOM      8  C   UNL     1       0.850   0.380   0.239  1.00  0.00     0.048 C 
ATOM      9  C   UNL     1       0.196   0.881  -1.029  1.00  0.00    -0.000 C 
ATOM     10  F   UNL     1      -1.342   0.662  -2.805  1.00  0.00    -0.199 F 
BRANCH   9  11
ATOM     11  C   UNL     1       0.761   2.137  -1.595  1.00  0.00    -0.017 A 
ATOM     12  C   UNL     1      -0.106   3.166  -1.999  1.00  0.00     0.008 A 
ATOM     13  C   UNL     1       2.145   2.394  -1.603  1.00  0.00     0.037 A 
ATOM     14  C   UNL     1       0.380   4.424  -2.356  1.00  0.00     0.003 A 
ATOM     15  C   UNL     1       2.636   3.669  -1.936  1.00  0.00     0.069 A 
ATOM     16  C   UNL     1       1.746   4.686  -2.300  1.00  0.00     0.028 A 
BRANCH  15  17
ATOM     17  N   UNL     1       4.020   3.957  -1.865  1.00  0.00    -0.201 N 
ATOM     18  C   UNL     1       5.087   3.101  -1.757  1.00  0.00     0.252 A 
ATOM     19  N   UNL     1       4.503   5.221  -1.875  1.00  0.00    -0.040 NA
ATOM     20  N   UNL     1       6.194   3.797  -1.647  1.00  0.00    -0.117 NA
ATOM     21  N   UNL     1       5.814   5.112  -1.709  1.00  0.00    -0.024 NA
ENDBRANCH  15  17
ENDBRANCH   9  11
ENDBRANCH   5   7
ENDBRANCH   4   5
ENDBRANCH   3   4
ENDBRANCH   2   3
ENDBRANCH   1   2
BRANCH   1  22
ATOM     22  C   UNL     1       1.143  -2.916  -1.692  1.00  0.00     0.202 C 
BRANCH  22  23
ATOM     23  C   UNL     1       1.942  -3.479  -2.873  1.00  0.00     0.261 C 
BRANCH  23  24
ATOM     24  O   UNL     1       1.093  -3.787  -3.992  1.00  0.00    -0.460 OA
BRANCH  24  25
ATOM     25  C   UNL     1       0.946  -5.105  -4.255  1.00  0.00     0.338 C 
ATOM     26  O   UNL     1       1.513  -6.040  -3.702  1.00  0.00    -0.246 OA
BRANCH  25  27
ATOM     27  C   UNL     1      -0.159  -5.303  -5.207  1.00  0.00     0.060 A 
ATOM     28  C   UNL     1      -1.163  -6.216  -4.860  1.00  0.00     0.016 A 
ATOM     29  C   UNL     1      -0.187  -4.652  -6.442  1.00  0.00     0.016 A 
ATOM     30  C   UNL     1      -2.177  -6.518  -5.766  1.00  0.00     0.010 A 
ATOM     31  C   UNL     1      -1.198  -4.964  -7.355  1.00  0.00     0.010 A 
ATOM     32  C   UNL     1      -2.178  -5.921  -7.033  1.00  0.00    -0.014 A 
BRANCH  32  33
ATOM     33  C   UNL     1      -3.110  -6.404  -8.079  1.00  0.00     0.031 A 
ATOM     34  C   UNL     1      -2.600  -7.369  -9.112  1.00  0.00     0.074 A 
ATOM     35  C   UNL     1      -4.389  -5.993  -8.106  1.00  0.00     0.049 A 
ATOM     36  N   UNL     1      -3.203  -7.852 -10.167  1.00  0.00    -0.248 NA
ATOM     37  C   UNL     1      -1.222  -7.854  -8.931  1.00  0.00     0.031 C 
ATOM     38  C   UNL     1      -5.011  -5.099  -7.131  1.00  0.00     0.029 A 
ATOM     39  N   UNL     1      -5.392  -6.269  -9.001  1.00  0.00    -0.354 N 
ATOM     40  C   UNL     1      -2.279  -8.688 -10.780  1.00  0.00     0.074 A 
ATOM     41  C   UNL     1      -1.065  -8.627  -9.995  1.00  0.00     0.031 C 
ATOM     42  C   UNL     1      -6.289  -4.886  -7.491  1.00  0.00     0.029 A 
ATOM     43  C   UNL     1      -6.561  -5.598  -8.739  1.00  0.00     0.049 A 
ATOM     44  H   UNL     1      -5.284  -6.888  -9.758  1.00  0.00     0.167 HD
ATOM     45  C   UNL     1      -2.431  -9.444 -11.893  1.00  0.00     0.037 A 
ATOM     46  C   UNL     1      -7.707  -5.543  -9.444  1.00  0.00     0.037 A 
ATOM     47  C   UNL     1      -3.639  -9.500 -12.672  1.00  0.00     0.049 A 
ATOM     48  C   UNL     1      -7.822  -6.325 -10.726  1.00  0.00     0.074 A 
ATOM     49  C   UNL     1      -3.896 -10.239 -13.813  1.00  0.00     0.029 A 
ATOM     50  N   UNL     1      -4.792  -8.784 -12.389  1.00  0.00    -0.354 N 
ATOM     51  N   UNL     1      -6.947  -7.120 -11.293  1.00  0.00    -0.248 NA
ATOM     52  C   UNL     1      -9.085  -6.198 -11.470  1.00  0.00     0.031 C 
ATOM     53  C   UNL     1      -5.190  -9.936 -14.247  1.00  0.00     0.029 A 
ATOM     54  C   UNL     1      -5.756  -9.047 -13.348  1.00  0.00     0.049 A 
ATOM     55  H   UNL     1      -4.908  -8.179 -11.622  1.00  0.00     0.167 HD
ATOM     56  C   UNL     1      -7.564  -7.614 -12.437  1.00  0.00     0.074 A 
ATOM     57  C   UNL     1      -8.889  -7.032 -12.481  1.00  0.00     0.031 C 
ATOM     58  C   UNL     1      -7.078  -8.473 -13.365  1.00  0.00     0.037 A 
BRANCH  45  59
ATOM     59  C   UNL     1      -1.252 -10.254 -12.345  1.00  0.00     0.057 A 
ATOM     60  C   UNL     1      -0.831 -11.396 -11.651  1.00  0.00     0.134 A 
ATOM     61  C   UNL     1      -0.549  -9.905 -13.505  1.00  0.00     0.134 A 
ATOM     62  F   UNL     1      -1.452 -11.774 -10.524  1.00  0.00    -0.206 F 
ATOM     63  C   UNL     1       0.261 -12.151 -12.085  1.00  0.00     0.040 A 
ATOM     64  C   UNL     1       0.527 -10.667 -13.962  1.00  0.00     0.040 A 
ATOM     65  F   UNL     1      -0.903  -8.825 -14.217  1.00  0.00    -0.206 F 
ATOM     66  C   UNL     1       0.938 -11.790 -13.248  1.00  0.00     0.006 A 
ENDBRANCH  45  59
BRANCH  46  67
ATOM     67  C   UNL     1      -8.837  -4.706  -8.969  1.00  0.00     0.057 A 
ATOM     68  C   UNL     1     -10.027  -5.285  -8.516  1.00  0.00     0.134 A 
ATOM     69  C   UNL     1      -8.766  -3.307  -8.984  1.00  0.00     0.134 A 
ATOM     70  F   UNL     1     -10.165  -6.619  -8.501  1.00  0.00    -0.206 F 
ATOM     71  C   UNL     1     -11.113  -4.506  -8.113  1.00  0.00     0.040 A 
ATOM     72  C   UNL     1      -9.834  -2.516  -8.561  1.00  0.00     0.040 A 
ATOM     73  F   UNL     1      -7.653  -2.690  -9.408  1.00  0.00    -0.206 F 
ATOM     74  C   UNL     1     -11.016  -3.116  -8.131  1.00  0.00     0.006 A 
ENDBRANCH  46  67
BRANCH  58  75
ATOM     75  C   UNL     1      -7.996  -8.879 -14.480  1.00  0.00     0.057 A 
ATOM     76  C   UNL     1      -8.316  -8.009 -15.530  1.00  0.00     0.134 A 
ATOM     77  C   UNL     1      -8.521 -10.177 -14.531  1.00  0.00     0.134 A 
ATOM     78  F   UNL     1      -7.856  -6.749 -15.534  1.00  0.00    -0.206 F 
ATOM     79  C   UNL     1      -9.140  -8.412 -16.583  1.00  0.00     0.040 A 
ATOM     80  C   UNL     1      -9.324 -10.599 -15.590  1.00  0.00     0.040 A 
ATOM     81  F   UNL     1      -8.244 -11.062 -13.560  1.00  0.00    -0.206 F 
ATOM     82  C   UNL     1      -9.639  -9.713 -16.619  1.00  0.00     0.006 A 
ENDBRANCH  58  75
ENDBRANCH  32  33
ENDBRANCH  25  27
ENDBRANCH  24  25
ENDBRANCH  23  24
ENDBRANCH  22  23
ENDBRANCH   1  22
TORSDOF 16
