REMARK SMILES O=C(OCCOCCOC(=O)c1ccc(-c2ccc(F)c(C(F)(F)F)c2)cc1[N+](=O)[O-])c1ccc(-c2c3nc(c(-c4c(F)cccc4F)c4ccc([nH]4)c(-c4c(F)cccc4F)c4nc(c(-c5c(F)cccc5F)c5ccc2[nH]5)C=C4)C=C3)cc1
REMARK SMILES IDX 6 1 5 2 4 3 3 4 2 5 1 6 32 7 33 8 85 9 34 10 84 11 35 12
REMARK SMILES IDX 36 13 37 14 78 15 38 16 83 17 77 18 79 19 39 20 82 21 76 22
REMARK SMILES IDX 75 23 40 25 66 26 49 27 65 28 50 29 53 30 64 31 80 32 51 33
REMARK SMILES IDX 52 34 63 36 81 37 54 38 41 39 42 40 47 41 43 42 44 43 46 44
REMARK SMILES IDX 48 45 45 46 67 47 68 48 73 49 69 50 70 51 72 52 74 53 71 54
REMARK SMILES IDX 55 55 56 56 61 57 57 58 58 59 60 60 62 61 59 62 7 63 8 64
REMARK SMILES IDX 9 65 10 66 11 67 12 68 13 69 28 70 14 71 27 72 15 73 29 74
REMARK SMILES IDX 30 75 31 76 16 77 17 78 26 79 18 80 21 81 19 82 20 83 22 84
REMARK SMILES IDX 23 85 24 86 25 87
REMARK H PARENT 79 24 53 35
REMARK Flexibility Score: inf
ROOT
ATOM      1  O   UNL     1       4.113  -0.070   1.643  1.00  0.00    -0.374 OA
ENDROOT
BRANCH   1   2
ATOM      2  C   UNL     1       4.405   1.193   1.041  1.00  0.00     0.202 C 
BRANCH   2   3
ATOM      3  C   UNL     1       4.146   1.277  -0.468  1.00  0.00     0.261 C 
BRANCH   3   4
ATOM      4  O   UNL     1       2.779   0.962  -0.773  1.00  0.00    -0.460 OA
BRANCH   4   5
ATOM      5  C   UNL     1       2.275  -0.191  -1.273  1.00  0.00     0.338 C 
ATOM      6  O   UNL     1       1.074  -0.242  -1.533  1.00  0.00    -0.246 OA
BRANCH   5   7
ATOM      7  C   UNL     1       3.091  -1.422  -1.504  1.00  0.00     0.060 A 
ATOM      8  C   UNL     1       4.275  -1.728  -0.834  1.00  0.00     0.016 A 
ATOM      9  C   UNL     1       2.566  -2.388  -2.381  1.00  0.00     0.016 A 
ATOM     10  C   UNL     1       4.937  -2.924  -1.026  1.00  0.00     0.010 A 
ATOM     11  C   UNL     1       3.210  -3.616  -2.563  1.00  0.00     0.010 A 
ATOM     12  C   UNL     1       4.399  -3.879  -1.877  1.00  0.00    -0.014 A 
BRANCH  12  13
ATOM     13  C   UNL     1       5.187  -5.101  -2.070  1.00  0.00     0.031 A 
ATOM     14  C   UNL     1       6.022  -5.209  -3.302  1.00  0.00     0.074 A 
ATOM     15  C   UNL     1       5.272  -5.986  -1.060  1.00  0.00     0.049 A 
ATOM     16  N   UNL     1       6.780  -6.191  -3.701  1.00  0.00    -0.248 NA
ATOM     17  C   UNL     1       6.024  -4.038  -4.199  1.00  0.00     0.031 C 
ATOM     18  C   UNL     1       4.606  -5.849   0.240  1.00  0.00     0.029 A 
ATOM     19  N   UNL     1       5.981  -7.149  -0.949  1.00  0.00    -0.354 N 
ATOM     20  C   UNL     1       7.320  -5.774  -4.909  1.00  0.00     0.074 A 
ATOM     21  C   UNL     1       6.819  -4.446  -5.176  1.00  0.00     0.031 C 
ATOM     22  C   UNL     1       4.949  -6.886   1.020  1.00  0.00     0.029 A 
ATOM     23  C   UNL     1       5.790  -7.793   0.250  1.00  0.00     0.049 A 
ATOM     24  H   UNL     1       6.571  -7.493  -1.659  1.00  0.00     0.167 HD
ATOM     25  C   UNL     1       8.149  -6.465  -5.721  1.00  0.00     0.037 A 
ATOM     26  C   UNL     1       6.215  -9.006   0.645  1.00  0.00     0.037 A 
ATOM     27  C   UNL     1       8.623  -7.785  -5.411  1.00  0.00     0.049 A 
ATOM     28  C   UNL     1       7.042  -9.798  -0.332  1.00  0.00     0.074 A 
ATOM     29  C   UNL     1       9.411  -8.624  -6.173  1.00  0.00     0.029 A 
ATOM     30  N   UNL     1       8.341  -8.456  -4.226  1.00  0.00    -0.354 N 
ATOM     31  N   UNL     1       7.494  -9.440  -1.513  1.00  0.00    -0.248 NA
ATOM     32  C   UNL     1       7.401 -11.165   0.060  1.00  0.00     0.031 C 
ATOM     33  C   UNL     1       9.562  -9.824  -5.470  1.00  0.00     0.029 A 
ATOM     34  C   UNL     1       8.918  -9.711  -4.246  1.00  0.00     0.049 A 
ATOM     35  H   UNL     1       7.809  -8.090  -3.483  1.00  0.00     0.167 HD
ATOM     36  C   UNL     1       8.202 -10.528  -1.998  1.00  0.00     0.074 A 
ATOM     37  C   UNL     1       8.142 -11.550  -0.969  1.00  0.00     0.031 C 
ATOM     38  C   UNL     1       8.838 -10.684  -3.186  1.00  0.00     0.037 A 
BRANCH  25  39
ATOM     39  C   UNL     1       8.499  -5.841  -7.036  1.00  0.00     0.057 A 
ATOM     40  C   UNL     1       9.380  -4.758  -7.145  1.00  0.00     0.134 A 
ATOM     41  C   UNL     1       7.922  -6.326  -8.217  1.00  0.00     0.134 A 
ATOM     42  F   UNL     1       9.939  -4.222  -6.050  1.00  0.00    -0.206 F 
ATOM     43  C   UNL     1       9.665  -4.172  -8.381  1.00  0.00     0.040 A 
ATOM     44  C   UNL     1       8.215  -5.763  -9.460  1.00  0.00     0.040 A 
ATOM     45  F   UNL     1       7.058  -7.351  -8.180  1.00  0.00    -0.206 F 
ATOM     46  C   UNL     1       9.085  -4.679  -9.544  1.00  0.00     0.006 A 
ENDBRANCH  25  39
BRANCH  26  47
ATOM     47  C   UNL     1       5.802  -9.576   1.955  1.00  0.00     0.057 A 
ATOM     48  C   UNL     1       6.738  -9.919   2.937  1.00  0.00     0.134 A 
ATOM     49  C   UNL     1       4.454  -9.846   2.237  1.00  0.00     0.134 A 
ATOM     50  F   UNL     1       8.045  -9.708   2.727  1.00  0.00    -0.206 F 
ATOM     51  C   UNL     1       6.356 -10.535   4.133  1.00  0.00     0.040 A 
ATOM     52  C   UNL     1       4.055 -10.430   3.441  1.00  0.00     0.040 A 
ATOM     53  F   UNL     1       3.500  -9.545   1.344  1.00  0.00    -0.206 F 
ATOM     54  C   UNL     1       5.010 -10.790   4.387  1.00  0.00     0.006 A 
ENDBRANCH  26  47
BRANCH  38  55
ATOM     55  C   UNL     1       9.540 -11.988  -3.404  1.00  0.00     0.057 A 
ATOM     56  C   UNL     1       8.836 -13.173  -3.650  1.00  0.00     0.134 A 
ATOM     57  C   UNL     1      10.939 -12.043  -3.419  1.00  0.00     0.134 A 
ATOM     58  F   UNL     1       7.495 -13.183  -3.634  1.00  0.00    -0.206 F 
ATOM     59  C   UNL     1       9.502 -14.375  -3.883  1.00  0.00     0.040 A 
ATOM     60  C   UNL     1      11.616 -13.232  -3.682  1.00  0.00     0.040 A 
ATOM     61  F   UNL     1      11.668 -10.937  -3.201  1.00  0.00    -0.206 F 
ATOM     62  C   UNL     1      10.896 -14.404  -3.909  1.00  0.00     0.006 A 
ENDBRANCH  38  55
ENDBRANCH  12  13
ENDBRANCH   5   7
ENDBRANCH   4   5
ENDBRANCH   3   4
ENDBRANCH   2   3
ENDBRANCH   1   2
BRANCH   1  63
ATOM     63  C   UNL     1       2.736  -0.307   1.968  1.00  0.00     0.202 C 
BRANCH  63  64
ATOM     64  C   UNL     1       2.623  -0.718   3.434  1.00  0.00     0.261 C 
BRANCH  64  65
ATOM     65  O   UNL     1       3.114   0.377   4.216  1.00  0.00    -0.459 OA
BRANCH  65  66
ATOM     66  C   UNL     1       4.438   0.309   4.505  1.00  0.00     0.345 C 
ATOM     67  O   UNL     1       5.180  -0.641   4.426  1.00  0.00    -0.246 OA
BRANCH  66  68
ATOM     68  C   UNL     1       4.904   1.695   4.684  1.00  0.00     0.137 A 
ATOM     69  C   UNL     1       6.062   2.067   3.984  1.00  0.00     0.023 A 
ATOM     70  C   UNL     1       4.243   2.643   5.460  1.00  0.00     0.284 A 
ATOM     71  C   UNL     1       6.573   3.362   4.100  1.00  0.00     0.010 A 
ATOM     72  C   UNL     1       4.745   3.942   5.577  1.00  0.00     0.095 A 
ATOM     73  C   UNL     1       5.947   4.293   4.940  1.00  0.00    -0.011 A 
BRANCH  70  74
ATOM     74  N   UNL     1       3.094   2.287   6.273  1.00  0.00     0.063 N 
ATOM     75  O   UNL     1       2.139   3.074   6.267  1.00  0.00    -0.258 OA
ATOM     76  O   UNL     1       3.178   1.262   6.960  1.00  0.00    -0.258 OA
ENDBRANCH  70  74
BRANCH  73  77
ATOM     77  C   UNL     1       6.653   5.500   5.363  1.00  0.00    -0.017 A 
ATOM     78  C   UNL     1       6.912   6.591   4.528  1.00  0.00     0.012 A 
ATOM     79  C   UNL     1       7.125   5.533   6.689  1.00  0.00     0.025 A 
ATOM     80  C   UNL     1       7.619   7.692   5.024  1.00  0.00     0.040 A 
ATOM     81  C   UNL     1       7.832   6.626   7.193  1.00  0.00     0.092 A 
ATOM     82  C   UNL     1       8.069   7.700   6.346  1.00  0.00     0.135 A 
ATOM     83  F   UNL     1       8.745   8.765   6.793  1.00  0.00    -0.206 F 
BRANCH  81  84
ATOM     84  C   UNL     1       8.326   6.636   8.606  1.00  0.00     0.419 C 
ATOM     85  F   UNL     1       9.680   6.723   8.697  1.00  0.00    -0.166 F 
ATOM     86  F   UNL     1       7.818   7.660   9.341  1.00  0.00    -0.166 F 
ATOM     87  F   UNL     1       7.989   5.500   9.287  1.00  0.00    -0.166 F 
ENDBRANCH  81  84
ENDBRANCH  73  77
ENDBRANCH  66  68
ENDBRANCH  65  66
ENDBRANCH  64  65
ENDBRANCH  63  64
ENDBRANCH   1  63
TORSDOF 17
