REMARK SMILES Cc1cc(C)c2c(=O)n(CCCC(=O)OCCOCCOC(=O)c3ccc(-c4c5nc(c(-c6c(F)cccc6F)c6ccc([nH]6)c(-c6c(F)cccc6F)c6nc(c(-c7c(F)cccc7F)c7ccc4[nH]7)C=C6)C=C5)cc3)sc2n1
REMARK SMILES IDX 17 1 16 2 15 3 13 4 14 5 12 6 11 7 10 8 9 9 1 10 2 11 3 12
REMARK SMILES IDX 80 13 4 14 79 15 5 16 6 17 78 18 7 19 8 20 18 21 19 22 20 23
REMARK SMILES IDX 21 24 22 25 23 26 24 27 25 28 77 29 26 30 76 31 27 32 28 33
REMARK SMILES IDX 29 34 70 35 30 36 75 37 69 38 71 39 31 40 74 41 68 42 67 43
REMARK SMILES IDX 32 45 58 46 41 47 57 48 42 49 45 50 56 51 72 52 43 53 44 54
REMARK SMILES IDX 55 56 73 57 46 58 33 59 34 60 39 61 35 62 36 63 38 64 40 65
REMARK SMILES IDX 37 66 59 67 60 68 65 69 61 70 62 71 64 72 66 73 63 74 47 75
REMARK SMILES IDX 48 76 53 77 49 78 50 79 52 80 54 81 51 82
REMARK H PARENT 71 44 45 55
REMARK Flexibility Score: inf
ROOT
ATOM      1  C   UNL     1       5.137   8.643  -1.420  1.00  0.00     0.202 C 
ENDROOT
BRANCH   1   2
ATOM      2  C   UNL     1       4.743   7.165  -1.439  1.00  0.00     0.261 C 
BRANCH   2   3
ATOM      3  O   UNL     1       3.623   6.864  -0.553  1.00  0.00    -0.463 OA
BRANCH   3   4
ATOM      4  C   UNL     1       3.816   6.753   0.800  1.00  0.00     0.305 C 
ATOM      5  O   UNL     1       4.931   6.761   1.310  1.00  0.00    -0.252 OA
BRANCH   4   6
ATOM      6  C   UNL     1       2.509   6.873   1.677  1.00  0.00     0.124 C 
BRANCH   6   7
ATOM      7  C   UNL     1       1.177   7.554   1.239  1.00  0.00     0.035 C 
BRANCH   7   8
ATOM      8  C   UNL     1       0.730   7.304  -0.200  1.00  0.00     0.139 C 
BRANCH   8   9
ATOM      9  N   UNL     1       0.522   5.901  -0.428  1.00  0.00    -0.262 N 
ATOM     10  C   UNL     1       1.001  -0.081  -0.097  1.00  0.00     0.067 C 
ATOM     11  C   UNL     1       0.445   1.286  -0.268  1.00  0.00     0.039 A 
ATOM     12  C   UNL     1      -0.884   1.507  -0.650  1.00  0.00     0.027 A 
ATOM     13  N   UNL     1       1.301   2.277  -0.044  1.00  0.00    -0.241 NA
ATOM     14  C   UNL     1      -1.387   2.811  -0.792  1.00  0.00    -0.033 A 
ATOM     15  C   UNL     1       0.787   3.487  -0.241  1.00  0.00     0.146 A 
ATOM     16  C   UNL     1      -2.781   3.082  -1.223  1.00  0.00     0.045 C 
ATOM     17  C   UNL     1      -0.508   3.832  -0.559  1.00  0.00     0.081 A 
ATOM     18  S   UNL     1       1.840   4.824  -0.397  1.00  0.00    -0.035 S 
ATOM     19  C   UNL     1      -0.691   5.299  -0.659  1.00  0.00     0.270 A 
ATOM     20  O   UNL     1      -1.750   5.857  -0.887  1.00  0.00    -0.268 OA
ENDBRANCH   8   9
ENDBRANCH   7   8
ENDBRANCH   6   7
ENDBRANCH   4   6
ENDBRANCH   3   4
ENDBRANCH   2   3
ENDBRANCH   1   2
BRANCH   1  21
ATOM     21  O   UNL     1       5.341   9.403  -0.232  1.00  0.00    -0.374 OA
BRANCH  21  22
ATOM     22  C   UNL     1       4.151   9.574   0.530  1.00  0.00     0.202 C 
BRANCH  22  23
ATOM     23  C   UNL     1       2.884  10.288   0.050  1.00  0.00     0.261 C 
BRANCH  23  24
ATOM     24  O   UNL     1       2.293   9.789  -1.179  1.00  0.00    -0.460 OA
BRANCH  24  25
ATOM     25  C   UNL     1       2.845  10.255  -2.332  1.00  0.00     0.338 C 
ATOM     26  O   UNL     1       3.790  11.025  -2.387  1.00  0.00    -0.246 OA
BRANCH  25  27
ATOM     27  C   UNL     1       2.253   9.597  -3.541  1.00  0.00     0.060 A 
ATOM     28  C   UNL     1       2.810  10.027  -4.701  1.00  0.00     0.016 A 
ATOM     29  C   UNL     1       0.841   9.596  -3.550  1.00  0.00     0.016 A 
ATOM     30  C   UNL     1       1.860  10.988  -5.454  1.00  0.00     0.010 A 
ATOM     31  C   UNL     1       0.012  10.222  -4.535  1.00  0.00     0.010 A 
ATOM     32  C   UNL     1       0.380  11.503  -4.912  1.00  0.00    -0.014 A 
BRANCH  32  33
ATOM     33  C   UNL     1      -1.192  12.630  -5.282  1.00  0.00     0.031 A 
ATOM     34  C   UNL     1      -1.195  11.234  -6.724  1.00  0.00     0.074 A 
ATOM     35  C   UNL     1      -2.100  13.980  -4.689  1.00  0.00     0.049 A 
ATOM     36  N   UNL     1      -0.399  11.174  -7.805  1.00  0.00    -0.248 NA
ATOM     37  C   UNL     1      -1.392   9.412  -6.889  1.00  0.00     0.031 C 
ATOM     38  C   UNL     1      -2.589  15.216  -3.293  1.00  0.00     0.029 A 
ATOM     39  N   UNL     1      -3.222  15.185  -5.171  1.00  0.00    -0.354 N 
ATOM     40  C   UNL     1      -1.158  10.343  -8.733  1.00  0.00     0.074 A 
ATOM     41  C   UNL     1      -1.520   9.111  -8.205  1.00  0.00     0.031 C 
ATOM     42  C   UNL     1      -3.786  16.067  -3.074  1.00  0.00     0.029 A 
ATOM     43  C   UNL     1      -4.414  15.841  -4.345  1.00  0.00     0.049 A 
ATOM     44  H   UNL     1      -3.113  15.519  -6.091  1.00  0.00     0.167 HD
ATOM     45  C   UNL     1      -2.142  10.938  -9.423  1.00  0.00     0.037 A 
ATOM     46  C   UNL     1      -5.773  16.058  -4.703  1.00  0.00     0.037 A 
ATOM     47  C   UNL     1      -1.852  12.312  -9.372  1.00  0.00     0.049 A 
ATOM     48  C   UNL     1      -5.601  15.490  -6.046  1.00  0.00     0.074 A 
ATOM     49  C   UNL     1      -0.660  12.955  -9.615  1.00  0.00     0.029 A 
ATOM     50  N   UNL     1      -2.501  12.983  -8.400  1.00  0.00    -0.354 N 
ATOM     51  N   UNL     1      -4.847  16.055  -6.966  1.00  0.00    -0.248 NA
ATOM     52  C   UNL     1      -5.652  14.031  -5.966  1.00  0.00     0.031 C 
ATOM     53  C   UNL     1      -0.665  14.115  -8.838  1.00  0.00     0.029 A 
ATOM     54  C   UNL     1      -1.881  14.166  -8.184  1.00  0.00     0.049 A 
ATOM     55  H   UNL     1      -3.299  12.664  -7.922  1.00  0.00     0.167 HD
ATOM     56  C   UNL     1      -3.968  15.039  -7.359  1.00  0.00     0.074 A 
ATOM     57  C   UNL     1      -4.619  13.765  -6.771  1.00  0.00     0.031 C 
ATOM     58  C   UNL     1      -2.583  15.226  -7.560  1.00  0.00     0.037 A 
BRANCH  45  59
ATOM     59  C   UNL     1      -3.434  10.368  -9.853  1.00  0.00     0.057 A 
ATOM     60  C   UNL     1      -3.809  10.909 -11.071  1.00  0.00     0.134 A 
ATOM     61  C   UNL     1      -4.327   9.469  -9.221  1.00  0.00     0.134 A 
ATOM     62  F   UNL     1      -2.977  11.740 -11.716  1.00  0.00    -0.206 F 
ATOM     63  C   UNL     1      -5.017  10.615 -11.653  1.00  0.00     0.040 A 
ATOM     64  C   UNL     1      -5.545   9.140  -9.817  1.00  0.00     0.040 A 
ATOM     65  F   UNL     1      -4.074   8.893  -8.033  1.00  0.00    -0.206 F 
ATOM     66  C   UNL     1      -5.889   9.730 -11.031  1.00  0.00     0.006 A 
ENDBRANCH  45  59
BRANCH  46  67
ATOM     67  C   UNL     1      -7.080  15.821  -3.822  1.00  0.00     0.057 A 
ATOM     68  C   UNL     1      -8.375  16.374  -4.024  1.00  0.00     0.134 A 
ATOM     69  C   UNL     1      -7.083  14.784  -2.858  1.00  0.00     0.134 A 
ATOM     70  F   UNL     1      -8.548  17.445  -4.811  1.00  0.00    -0.206 F 
ATOM     71  C   UNL     1      -9.560  15.851  -3.416  1.00  0.00     0.040 A 
ATOM     72  C   UNL     1      -8.248  14.243  -2.257  1.00  0.00     0.040 A 
ATOM     73  F   UNL     1      -5.926  14.217  -2.496  1.00  0.00    -0.206 F 
ATOM     74  C   UNL     1      -9.501  14.753  -2.564  1.00  0.00     0.006 A 
ENDBRANCH  46  67
BRANCH  58  75
ATOM     75  C   UNL     1      -1.727  16.534  -7.380  1.00  0.00     0.057 A 
ATOM     76  C   UNL     1      -1.024  17.052  -6.240  1.00  0.00     0.134 A 
ATOM     77  C   UNL     1      -1.454  17.227  -8.547  1.00  0.00     0.134 A 
ATOM     78  F   UNL     1      -0.977  16.433  -5.061  1.00  0.00    -0.206 F 
ATOM     79  C   UNL     1      -0.326  18.265  -6.220  1.00  0.00     0.040 A 
ATOM     80  C   UNL     1      -0.674  18.390  -8.570  1.00  0.00     0.040 A 
ATOM     81  F   UNL     1      -1.894  16.741  -9.715  1.00  0.00    -0.206 F 
ATOM     82  C   UNL     1      -0.146  18.940  -7.404  1.00  0.00     0.006 A 
ENDBRANCH  58  75
ENDBRANCH  32  33
ENDBRANCH  25  27
ENDBRANCH  24  25
ENDBRANCH  23  24
ENDBRANCH  22  23
ENDBRANCH  21  22
ENDBRANCH   1  21
TORSDOF 17
