REMARK SMILES [NH3+][C@@]1(C(=O)OCCOCCOC(=O)c2ccc(-c3c4nc(c(-c5c(F)cccc5F)c5ccc([nH]5)c(-c5c(F)cccc5F)c5nc(c(-c6c(F)cccc6F)c6ccc3[nH]6)C=C5)C=C4)cc2)CC[N@H+](Cc2ccc(OCC(=O)N3CCCCC3)cc2)C1
REMARK SMILES IDX 6 1 5 2 3 3 4 4 2 5 68 6 88 7 69 8 70 9 1 11 71 15 72 16
REMARK SMILES IDX 73 17 87 18 74 19 86 20 75 21 76 22 77 23 78 24 79 25 80 26
REMARK SMILES IDX 81 27 85 28 82 29 84 30 83 31 7 32 8 33 9 34 10 35 11 36
REMARK SMILES IDX 12 37 13 38 14 39 15 40 67 41 16 42 66 43 17 44 18 45 19 46
REMARK SMILES IDX 60 47 20 48 65 49 59 50 61 51 21 52 64 53 58 54 57 55 22 57
REMARK SMILES IDX 48 58 31 59 47 60 32 61 35 62 46 63 62 64 33 65 34 66 45 68
REMARK SMILES IDX 63 69 36 70 23 71 24 72 29 73 25 74 26 75 28 76 30 77 27 78
REMARK SMILES IDX 49 79 50 80 55 81 51 82 52 83 54 84 56 85 53 86 37 87 38 88
REMARK SMILES IDX 43 89 39 90 40 91 42 92 44 93 41 94
REMARK H PARENT 70 10 1 12 1 13 1 14 61 56 35 67
REMARK Flexibility Score: inf
ROOT
ATOM      1  C   UNL     1      -0.564   1.119  -2.755  1.00  0.00     0.261 C 
ENDROOT
BRANCH   1   2
ATOM      2  O   UNL     1      -0.054   1.716  -1.569  1.00  0.00    -0.458 OA
BRANCH   2   3
ATOM      3  C   UNL     1      -0.200   1.018  -0.423  1.00  0.00     0.374 C 
ATOM      4  O   UNL     1      -0.810  -0.039  -0.311  1.00  0.00    -0.244 OA
BRANCH   3   5
ATOM      5  C   UNL     1       0.697   1.623   0.678  1.00  0.00     0.246 C 
ATOM      6  C   UNL     1      -0.104   1.804   1.963  1.00  0.00     0.148 C 
ATOM      7  C   UNL     1       1.127   3.078   0.365  1.00  0.00     0.344 C 
ATOM      8  C   UNL     1      -0.826   3.125   1.734  1.00  0.00     0.270 C 
ATOM      9  N   UNL     1       0.100   3.941   0.960  1.00  0.00    -0.325 N 
ATOM     10  H   UNL     1       0.586   4.561   1.609  1.00  0.00     0.348 HD
BRANCH   5  11
ATOM     11  N   UNL     1       1.826   0.677   0.881  1.00  0.00    -0.338 N 
ATOM     12  H   UNL     1       1.458  -0.253   1.081  1.00  0.00     0.345 HD
ATOM     13  H   UNL     1       2.397   0.993   1.665  1.00  0.00     0.345 HD
ATOM     14  H   UNL     1       2.397   0.643   0.037  1.00  0.00     0.345 HD
ENDBRANCH   5  11
BRANCH   9  15
ATOM     15  C   UNL     1      -0.461   5.026   0.150  1.00  0.00     0.299 C 
BRANCH  15  16
ATOM     16  C   UNL     1      -1.329   4.656  -1.042  1.00  0.00     0.006 A 
ATOM     17  C   UNL     1      -0.847   4.851  -2.336  1.00  0.00     0.013 A 
ATOM     18  C   UNL     1      -2.626   4.130  -0.919  1.00  0.00     0.013 A 
ATOM     19  C   UNL     1      -1.570   4.384  -3.437  1.00  0.00     0.047 A 
ATOM     20  C   UNL     1      -3.329   3.618  -2.030  1.00  0.00     0.047 A 
ATOM     21  C   UNL     1      -2.756   3.669  -3.290  1.00  0.00     0.120 A 
BRANCH  21  22
ATOM     22  O   UNL     1      -3.147   3.028  -4.429  1.00  0.00    -0.484 OA
BRANCH  22  23
ATOM     23  C   UNL     1      -4.165   2.047  -4.395  1.00  0.00     0.329 C 
BRANCH  23  24
ATOM     24  C   UNL     1      -4.056   0.735  -3.578  1.00  0.00     0.260 C 
ATOM     25  O   UNL     1      -4.617   0.682  -2.476  1.00  0.00    -0.271 OA
ATOM     26  N   UNL     1      -3.420  -0.383  -4.116  1.00  0.00    -0.340 N 
ATOM     27  C   UNL     1      -3.696  -1.685  -3.514  1.00  0.00     0.119 C 
ATOM     28  C   UNL     1      -2.551  -0.433  -5.294  1.00  0.00     0.119 C 
ATOM     29  C   UNL     1      -2.412  -2.342  -3.044  1.00  0.00     0.022 C 
ATOM     30  C   UNL     1      -1.292  -1.302  -5.089  1.00  0.00     0.022 C 
ATOM     31  C   UNL     1      -1.465  -2.550  -4.219  1.00  0.00     0.004 C 
ENDBRANCH  23  24
ENDBRANCH  22  23
ENDBRANCH  21  22
ENDBRANCH  15  16
ENDBRANCH   9  15
ENDBRANCH   3   5
ENDBRANCH   2   3
ENDBRANCH   1   2
BRANCH   1  32
ATOM     32  C   UNL     1       0.196   1.730  -3.932  1.00  0.00     0.202 C 
BRANCH  32  33
ATOM     33  O   UNL     1       1.389   0.996  -4.232  1.00  0.00    -0.374 OA
BRANCH  33  34
ATOM     34  C   UNL     1       2.487   1.305  -3.377  1.00  0.00     0.202 C 
BRANCH  34  35
ATOM     35  C   UNL     1       3.405   2.395  -3.940  1.00  0.00     0.261 C 
BRANCH  35  36
ATOM     36  O   UNL     1       2.693   3.607  -4.245  1.00  0.00    -0.460 OA
BRANCH  36  37
ATOM     37  C   UNL     1       2.319   3.744  -5.549  1.00  0.00     0.338 C 
ATOM     38  O   UNL     1       2.581   2.999  -6.467  1.00  0.00    -0.246 OA
BRANCH  37  39
ATOM     39  C   UNL     1       1.413   4.913  -5.688  1.00  0.00     0.060 A 
ATOM     40  C   UNL     1       0.376   4.838  -6.630  1.00  0.00     0.016 A 
ATOM     41  C   UNL     1       1.559   6.062  -4.905  1.00  0.00     0.016 A 
ATOM     42  C   UNL     1      -0.519   5.904  -6.782  1.00  0.00     0.010 A 
ATOM     43  C   UNL     1       0.666   7.129  -5.058  1.00  0.00     0.010 A 
ATOM     44  C   UNL     1      -0.372   7.062  -6.004  1.00  0.00    -0.014 A 
BRANCH  44  45
ATOM     45  C   UNL     1      -1.177   8.275  -6.294  1.00  0.00     0.031 A 
ATOM     46  C   UNL     1      -0.597   9.299  -7.227  1.00  0.00     0.074 A 
ATOM     47  C   UNL     1      -2.377   8.494  -5.725  1.00  0.00     0.049 A 
ATOM     48  N   UNL     1      -1.084  10.452  -7.604  1.00  0.00    -0.248 NA
ATOM     49  C   UNL     1       0.718   8.979  -7.807  1.00  0.00     0.031 C 
ATOM     50  C   UNL     1      -3.062   7.587  -4.811  1.00  0.00     0.029 A 
ATOM     51  N   UNL     1      -3.226   9.572  -5.822  1.00  0.00    -0.354 N 
ATOM     52  C   UNL     1      -0.144  10.989  -8.473  1.00  0.00     0.074 A 
ATOM     53  C   UNL     1       0.962  10.058  -8.533  1.00  0.00     0.031 C 
ATOM     54  C   UNL     1      -4.215   8.152  -4.410  1.00  0.00     0.029 A 
ATOM     55  C   UNL     1      -4.344   9.469  -5.028  1.00  0.00     0.049 A 
ATOM     56  H   UNL     1      -3.050  10.345  -6.406  1.00  0.00     0.167 HD
ATOM     57  C   UNL     1      -0.199  12.147  -9.169  1.00  0.00     0.037 A 
ATOM     58  C   UNL     1      -5.347  10.344  -4.816  1.00  0.00     0.037 A 
ATOM     59  C   UNL     1      -1.280  13.091  -9.094  1.00  0.00     0.049 A 
ATOM     60  C   UNL     1      -5.346  11.666  -5.541  1.00  0.00     0.074 A 
ATOM     61  C   UNL     1      -1.433  14.282  -9.780  1.00  0.00     0.029 A 
ATOM     62  N   UNL     1      -2.385  12.958  -8.268  1.00  0.00    -0.354 N 
ATOM     63  N   UNL     1      -4.487  12.131  -6.415  1.00  0.00    -0.248 NA
ATOM     64  C   UNL     1      -6.460  12.583  -5.253  1.00  0.00     0.031 C 
ATOM     65  C   UNL     1      -2.608  14.896  -9.332  1.00  0.00     0.029 A 
ATOM     66  C   UNL     1      -3.210  14.062  -8.403  1.00  0.00     0.049 A 
ATOM     67  H   UNL     1      -2.558  12.193  -7.673  1.00  0.00     0.167 HD
ATOM     68  C   UNL     1      -4.972  13.374  -6.804  1.00  0.00     0.074 A 
ATOM     69  C   UNL     1      -6.206  13.588  -6.079  1.00  0.00     0.031 C 
ATOM     70  C   UNL     1      -4.442  14.259  -7.684  1.00  0.00     0.037 A 
BRANCH  57  71
ATOM     71  C   UNL     1       0.964  12.458 -10.061  1.00  0.00     0.057 A 
ATOM     72  C   UNL     1       1.182  11.756 -11.254  1.00  0.00     0.134 A 
ATOM     73  C   UNL     1       1.871  13.470  -9.727  1.00  0.00     0.134 A 
ATOM     74  F   UNL     1       0.359  10.761 -11.617  1.00  0.00    -0.206 F 
ATOM     75  C   UNL     1       2.277  12.034 -12.072  1.00  0.00     0.040 A 
ATOM     76  C   UNL     1       2.956  13.774 -10.550  1.00  0.00     0.040 A 
ATOM     77  F   UNL     1       1.718  14.177  -8.597  1.00  0.00    -0.206 F 
ATOM     78  C   UNL     1       3.164  13.050 -11.723  1.00  0.00     0.006 A 
ENDBRANCH  57  71
BRANCH  58  79
ATOM     79  C   UNL     1      -6.447  10.017  -3.871  1.00  0.00     0.057 A 
ATOM     80  C   UNL     1      -7.751   9.791  -4.328  1.00  0.00     0.134 A 
ATOM     81  C   UNL     1      -6.235   9.982  -2.488  1.00  0.00     0.134 A 
ATOM     82  F   UNL     1      -8.023   9.840  -5.641  1.00  0.00    -0.206 F 
ATOM     83  C   UNL     1      -8.808   9.566  -3.445  1.00  0.00     0.040 A 
ATOM     84  C   UNL     1      -7.279   9.735  -1.594  1.00  0.00     0.040 A 
ATOM     85  F   UNL     1      -5.011  10.197  -1.984  1.00  0.00    -0.206 F 
ATOM     86  C   UNL     1      -8.572   9.536  -2.072  1.00  0.00     0.006 A 
ENDBRANCH  58  79
BRANCH  70  87
ATOM     87  C   UNL     1      -5.208  15.524  -7.943  1.00  0.00     0.057 A 
ATOM     88  C   UNL     1      -5.276  16.555  -6.998  1.00  0.00     0.134 A 
ATOM     89  C   UNL     1      -5.841  15.733  -9.176  1.00  0.00     0.134 A 
ATOM     90  F   UNL     1      -4.702  16.413  -5.794  1.00  0.00    -0.206 F 
ATOM     91  C   UNL     1      -5.961  17.743  -7.264  1.00  0.00     0.040 A 
ATOM     92  C   UNL     1      -6.506  16.926  -9.463  1.00  0.00     0.040 A 
ATOM     93  F   UNL     1      -5.806  14.789 -10.129  1.00  0.00    -0.206 F 
ATOM     94  C   UNL     1      -6.571  17.934  -8.502  1.00  0.00     0.006 A 
ENDBRANCH  70  87
ENDBRANCH  44  45
ENDBRANCH  37  39
ENDBRANCH  36  37
ENDBRANCH  35  36
ENDBRANCH  34  35
ENDBRANCH  33  34
ENDBRANCH  32  33
ENDBRANCH   1  32
TORSDOF 20
