REMARK SMILES C[C@H]1[C@H](C(=O)OCCOCCOC(=O)c2ccc(-c3c4nc(c(-c5c(F)cccc5F)c5ccc([nH]5)c(-c5c(F)cccc5F)c5nc(c(-c6c(F)cccc6F)c6ccc3[nH]6)C=C5)C=C4)cc2)CCN1C(=O)[C@H]1CC[C@@H](C[NH3+])CC1
REMARK SMILES IDX 8 1 7 2 6 3 4 4 5 5 3 6 1 7 2 8 71 9 69 10 70 11 72 12 73 13
REMARK SMILES IDX 74 14 81 15 75 16 80 17 76 18 77 19 78 20 79 21 9 25 10 26
REMARK SMILES IDX 11 27 12 28 13 29 14 30 15 31 16 32 68 33 17 34 67 35 18 36
REMARK SMILES IDX 19 37 20 38 61 39 21 40 66 41 60 42 62 43 22 44 65 45 59 46
REMARK SMILES IDX 58 47 23 49 49 50 32 51 48 52 33 53 36 54 47 55 63 56 34 57
REMARK SMILES IDX 35 58 46 60 64 61 37 62 24 63 25 64 30 65 26 66 27 67 29 68
REMARK SMILES IDX 31 69 28 70 50 71 51 72 56 73 52 74 53 75 55 76 57 77 54 78
REMARK SMILES IDX 38 79 39 80 44 81 40 82 41 83 43 84 45 85 42 86
REMARK H PARENT 79 22 79 23 79 24 62 48 36 59
REMARK Flexibility Score: inf
ROOT
ATOM      1  C   UNL     1       0.190   4.023   3.374  1.00  0.00     0.202 C 
ENDROOT
BRANCH   1   2
ATOM      2  C   UNL     1      -1.052   3.291   2.855  1.00  0.00     0.261 C 
BRANCH   2   3
ATOM      3  O   UNL     1      -0.757   2.161   2.013  1.00  0.00    -0.463 OA
BRANCH   3   4
ATOM      4  C   UNL     1      -1.104   2.315   0.708  1.00  0.00     0.311 C 
ATOM      5  O   UNL     1      -1.621   3.321   0.235  1.00  0.00    -0.252 OA
BRANCH   4   6
ATOM      6  C   UNL     1      -0.862   1.089  -0.137  1.00  0.00     0.123 C 
ATOM      7  C   UNL     1       1.436   0.523  -0.857  1.00  0.00     0.032 C 
ATOM      8  C   UNL     1       0.363   0.193   0.189  1.00  0.00     0.096 C 
ATOM      9  N   UNL     1      -0.152  -1.192   0.075  1.00  0.00    -0.339 N 
ATOM     10  C   UNL     1      -2.063   0.161  -0.082  1.00  0.00     0.039 C 
ATOM     11  C   UNL     1      -1.478  -1.158  -0.533  1.00  0.00     0.121 C 
BRANCH   9  12
ATOM     12  C   UNL     1       0.312  -2.424   0.486  1.00  0.00     0.225 C 
ATOM     13  O   UNL     1      -0.365  -3.435   0.236  1.00  0.00    -0.275 OA
BRANCH  12  14
ATOM     14  C   UNL     1       1.632  -2.671   1.224  1.00  0.00     0.078 C 
ATOM     15  C   UNL     1       2.865  -2.615   0.324  1.00  0.00     0.014 C 
ATOM     16  C   UNL     1       1.822  -1.966   2.566  1.00  0.00     0.014 C 
ATOM     17  C   UNL     1       4.135  -3.059   1.050  1.00  0.00     0.010 C 
ATOM     18  C   UNL     1       3.098  -2.475   3.255  1.00  0.00     0.010 C 
ATOM     19  C   UNL     1       4.351  -2.311   2.377  1.00  0.00     0.044 C 
BRANCH  19  20
ATOM     20  C   UNL     1       4.746  -0.839   2.129  1.00  0.00     0.262 C 
BRANCH  20  21
ATOM     21  N   UNL     1       5.135  -0.162   3.360  1.00  0.00    -0.357 N 
ATOM     22  H   UNL     1       4.348  -0.158   4.009  1.00  0.00     0.344 HD
ATOM     23  H   UNL     1       5.406   0.798   3.149  1.00  0.00     0.344 HD
ATOM     24  H   UNL     1       5.922  -0.653   3.784  1.00  0.00     0.344 HD
ENDBRANCH  20  21
ENDBRANCH  19  20
ENDBRANCH  12  14
ENDBRANCH   9  12
ENDBRANCH   4   6
ENDBRANCH   3   4
ENDBRANCH   2   3
ENDBRANCH   1   2
BRANCH   1  25
ATOM     25  O   UNL     1       1.126   4.493   2.410  1.00  0.00    -0.374 OA
BRANCH  25  26
ATOM     26  C   UNL     1       1.933   3.533   1.735  1.00  0.00     0.202 C 
BRANCH  26  27
ATOM     27  C   UNL     1       2.988   2.794   2.566  1.00  0.00     0.261 C 
BRANCH  27  28
ATOM     28  O   UNL     1       2.413   1.982   3.609  1.00  0.00    -0.460 OA
BRANCH  28  29
ATOM     29  C   UNL     1       2.829   2.311   4.857  1.00  0.00     0.338 C 
ATOM     30  O   UNL     1       3.700   3.120   5.149  1.00  0.00    -0.246 OA
BRANCH  29  31
ATOM     31  C   UNL     1       2.013   1.656   5.896  1.00  0.00     0.060 A 
ATOM     32  C   UNL     1       1.498   2.465   6.915  1.00  0.00     0.016 A 
ATOM     33  C   UNL     1       1.875   0.269   5.964  1.00  0.00     0.016 A 
ATOM     34  C   UNL     1       0.920   1.883   8.041  1.00  0.00     0.010 A 
ATOM     35  C   UNL     1       1.302  -0.317   7.099  1.00  0.00     0.010 A 
ATOM     36  C   UNL     1       0.870   0.487   8.165  1.00  0.00    -0.014 A 
BRANCH  36  37
ATOM     37  C   UNL     1       0.498  -0.100   9.475  1.00  0.00     0.031 A 
ATOM     38  C   UNL     1       1.582  -0.518  10.432  1.00  0.00     0.074 A 
ATOM     39  C   UNL     1      -0.792  -0.190   9.840  1.00  0.00     0.049 A 
ATOM     40  N   UNL     1       1.481  -0.934  11.669  1.00  0.00    -0.248 NA
ATOM     41  C   UNL     1       2.964  -0.458   9.928  1.00  0.00     0.031 C 
ATOM     42  C   UNL     1      -1.933   0.180   9.006  1.00  0.00     0.029 A 
ATOM     43  N   UNL     1      -1.356  -0.611  11.018  1.00  0.00    -0.354 N 
ATOM     44  C   UNL     1       2.782  -1.172  12.095  1.00  0.00     0.074 A 
ATOM     45  C   UNL     1       3.652  -0.897  10.972  1.00  0.00     0.031 C 
ATOM     46  C   UNL     1      -3.065  -0.022   9.703  1.00  0.00     0.029 A 
ATOM     47  C   UNL     1      -2.726  -0.539  11.027  1.00  0.00     0.049 A 
ATOM     48  H   UNL     1      -0.828  -0.935  11.783  1.00  0.00     0.167 HD
ATOM     49  C   UNL     1       3.215  -1.566  13.317  1.00  0.00     0.037 A 
ATOM     50  C   UNL     1      -3.606  -0.845  11.999  1.00  0.00     0.037 A 
ATOM     51  C   UNL     1       2.353  -1.843  14.436  1.00  0.00     0.049 A 
ATOM     52  C   UNL     1      -3.102  -1.306  13.340  1.00  0.00     0.074 A 
ATOM     53  C   UNL     1       2.700  -2.222  15.721  1.00  0.00     0.029 A 
ATOM     54  N   UNL     1       0.969  -1.779  14.398  1.00  0.00    -0.354 N 
ATOM     55  N   UNL     1      -1.867  -1.466  13.750  1.00  0.00    -0.248 NA
ATOM     56  C   UNL     1      -4.117  -1.611  14.359  1.00  0.00     0.031 C 
ATOM     57  C   UNL     1       1.523  -2.423  16.451  1.00  0.00     0.029 A 
ATOM     58  C   UNL     1       0.446  -2.129  15.632  1.00  0.00     0.049 A 
ATOM     59  H   UNL     1       0.437  -1.522  13.611  1.00  0.00     0.167 HD
ATOM     60  C   UNL     1      -1.956  -1.864  15.078  1.00  0.00     0.074 A 
ATOM     61  C   UNL     1      -3.365  -1.908  15.409  1.00  0.00     0.031 C 
ATOM     62  C   UNL     1      -0.959  -2.164  15.947  1.00  0.00     0.037 A 
BRANCH  49  63
ATOM     63  C   UNL     1       4.695  -1.724  13.504  1.00  0.00     0.057 A 
ATOM     64  C   UNL     1       5.548  -0.616  13.594  1.00  0.00     0.134 A 
ATOM     65  C   UNL     1       5.270  -2.995  13.629  1.00  0.00     0.134 A 
ATOM     66  F   UNL     1       5.061   0.628  13.470  1.00  0.00    -0.206 F 
ATOM     67  C   UNL     1       6.923  -0.767  13.780  1.00  0.00     0.040 A 
ATOM     68  C   UNL     1       6.641  -3.158  13.836  1.00  0.00     0.040 A 
ATOM     69  F   UNL     1       4.509  -4.097  13.557  1.00  0.00    -0.206 F 
ATOM     70  C   UNL     1       7.472  -2.042  13.907  1.00  0.00     0.006 A 
ENDBRANCH  49  63
BRANCH  50  71
ATOM     71  C   UNL     1      -5.061  -0.700  11.750  1.00  0.00     0.057 A 
ATOM     72  C   UNL     1      -5.803   0.318  12.357  1.00  0.00     0.134 A 
ATOM     73  C   UNL     1      -5.743  -1.585  10.908  1.00  0.00     0.134 A 
ATOM     74  F   UNL     1      -5.207   1.184  13.190  1.00  0.00    -0.206 F 
ATOM     75  C   UNL     1      -7.178   0.442  12.149  1.00  0.00     0.040 A 
ATOM     76  C   UNL     1      -7.113  -1.460  10.674  1.00  0.00     0.040 A 
ATOM     77  F   UNL     1      -5.085  -2.580  10.295  1.00  0.00    -0.206 F 
ATOM     78  C   UNL     1      -7.835  -0.447  11.301  1.00  0.00     0.006 A 
ENDBRANCH  50  71
BRANCH  62  79
ATOM     79  C   UNL     1      -1.359  -2.538  17.344  1.00  0.00     0.057 A 
ATOM     80  C   UNL     1      -1.942  -3.776  17.639  1.00  0.00     0.134 A 
ATOM     81  C   UNL     1      -1.136  -1.656  18.409  1.00  0.00     0.134 A 
ATOM     82  F   UNL     1      -2.192  -4.660  16.661  1.00  0.00    -0.206 F 
ATOM     83  C   UNL     1      -2.313  -4.115  18.941  1.00  0.00     0.040 A 
ATOM     84  C   UNL     1      -1.481  -1.993  19.719  1.00  0.00     0.040 A 
ATOM     85  F   UNL     1      -0.573  -0.457  18.196  1.00  0.00    -0.206 F 
ATOM     86  C   UNL     1      -2.078  -3.224  19.986  1.00  0.00     0.006 A 
ENDBRANCH  62  79
ENDBRANCH  36  37
ENDBRANCH  29  31
ENDBRANCH  28  29
ENDBRANCH  27  28
ENDBRANCH  26  27
ENDBRANCH  25  26
ENDBRANCH   1  25
TORSDOF 18
