REMARK SMILES CC(C)[NH2+][C@]1(C(=O)OCCOCCOC(=O)c2ccc(-c3c4nc(c(-c5c(F)cccc5F)c5ccc([nH]5)c(-c5c(F)cccc5F)c5nc(c(-c6c(F)cccc6F)c6ccc3[nH]6)C=C5)C=C4)cc2)CCC[C@H]([N@H+](C)C2CCCCC2)C1
REMARK SMILES IDX 11 1 10 2 9 3 8 4 6 5 7 6 5 7 71 8 83 9 72 10 74 11 73 12
REMARK SMILES IDX 4 13 2 16 1 17 3 18 75 19 76 20 77 22 78 23 82 24 79 25
REMARK SMILES IDX 81 26 80 27 12 28 13 29 14 30 15 31 16 32 17 33 18 34 70 35
REMARK SMILES IDX 19 36 69 37 20 38 21 39 22 40 63 41 23 42 68 43 62 44 64 45
REMARK SMILES IDX 24 46 67 47 61 48 60 49 25 51 51 52 34 53 50 54 35 55 38 56
REMARK SMILES IDX 49 57 65 58 36 59 37 60 48 62 66 63 39 64 26 65 27 66 32 67
REMARK SMILES IDX 28 68 29 69 31 70 33 71 30 72 52 73 53 74 58 75 54 76 55 77
REMARK SMILES IDX 57 78 59 79 56 80 40 81 41 82 46 83 42 84 43 85 45 86 47 87
REMARK SMILES IDX 44 88
REMARK H PARENT 4 14 4 15 75 21 64 50 38 61
REMARK Flexibility Score: inf
ROOT
ATOM      1  O   UNL     1      -1.569   0.557   1.748  1.00  0.00    -0.374 OA
ENDROOT
BRANCH   1   2
ATOM      2  C   UNL     1      -0.213   0.274   1.397  1.00  0.00     0.202 C 
BRANCH   2   3
ATOM      3  C   UNL     1       0.005  -0.712   0.243  1.00  0.00     0.261 C 
BRANCH   3   4
ATOM      4  O   UNL     1      -0.450  -0.174  -1.009  1.00  0.00    -0.459 OA
BRANCH   4   5
ATOM      5  C   UNL     1      -1.456  -0.829  -1.662  1.00  0.00     0.368 C 
ATOM      6  O   UNL     1      -1.944  -1.890  -1.290  1.00  0.00    -0.245 OA
BRANCH   5   7
ATOM      7  C   UNL     1      -1.826  -0.135  -3.036  1.00  0.00     0.200 C 
ATOM      8  C   UNL     1      -3.361  -0.173  -3.174  1.00  0.00     0.081 C 
ATOM      9  C   UNL     1      -1.498   1.379  -2.888  1.00  0.00     0.146 C 
ATOM     10  C   UNL     1      -3.920   0.686  -4.312  1.00  0.00     0.013 C 
ATOM     11  C   UNL     1      -1.875   2.350  -4.026  1.00  0.00     0.190 C 
ATOM     12  C   UNL     1      -3.376   2.122  -4.376  1.00  0.00     0.065 C 
BRANCH   7  13
ATOM     13  N   UNL     1      -1.010  -0.887  -4.037  1.00  0.00    -0.330 N 
ATOM     14  H   UNL     1      -0.123  -0.388  -4.115  1.00  0.00     0.347 HD
ATOM     15  H   UNL     1      -1.016  -1.831  -3.651  1.00  0.00     0.347 HD
BRANCH  13  16
ATOM     16  C   UNL     1      -1.474  -1.111  -5.406  1.00  0.00     0.176 C 
ATOM     17  C   UNL     1      -0.258  -1.435  -6.285  1.00  0.00     0.075 C 
ATOM     18  C   UNL     1      -2.434  -2.297  -5.546  1.00  0.00     0.075 C 
ENDBRANCH  13  16
ENDBRANCH   7  13
BRANCH  11  19
ATOM     19  N   UNL     1      -0.855   2.618  -5.075  1.00  0.00    -0.332 N 
ATOM     20  C   UNL     1      -1.318   2.705  -6.442  1.00  0.00     0.333 C 
ATOM     21  H   UNL     1      -0.669   3.610  -4.925  1.00  0.00     0.348 HD
BRANCH  19  22
ATOM     22  C   UNL     1       0.489   2.073  -4.832  1.00  0.00     0.184 C 
ATOM     23  C   UNL     1       1.492   1.932  -5.996  1.00  0.00     0.065 C 
ATOM     24  C   UNL     1       1.243   2.861  -3.729  1.00  0.00     0.065 C 
ATOM     25  C   UNL     1       2.671   1.056  -5.533  1.00  0.00     0.006 C 
ATOM     26  C   UNL     1       2.351   1.969  -3.164  1.00  0.00     0.006 C 
ATOM     27  C   UNL     1       3.341   1.556  -4.250  1.00  0.00     0.000 C 
ENDBRANCH  19  22
ENDBRANCH  11  19
ENDBRANCH   5   7
ENDBRANCH   4   5
ENDBRANCH   3   4
ENDBRANCH   2   3
ENDBRANCH   1   2
BRANCH   1  28
ATOM     28  C   UNL     1      -2.284   1.438   0.887  1.00  0.00     0.202 C 
BRANCH  28  29
ATOM     29  C   UNL     1      -2.029   2.942   1.059  1.00  0.00     0.261 C 
BRANCH  29  30
ATOM     30  O   UNL     1      -0.649   3.308   0.887  1.00  0.00    -0.460 OA
BRANCH  30  31
ATOM     31  C   UNL     1      -0.018   3.650   2.037  1.00  0.00     0.338 C 
ATOM     32  O   UNL     1      -0.501   3.727   3.153  1.00  0.00    -0.246 OA
BRANCH  31  33
ATOM     33  C   UNL     1       1.430   3.804   1.807  1.00  0.00     0.060 A 
ATOM     34  C   UNL     1       2.292   3.031   2.595  1.00  0.00     0.016 A 
ATOM     35  C   UNL     1       1.938   4.769   0.934  1.00  0.00     0.016 A 
ATOM     36  C   UNL     1       3.666   3.254   2.549  1.00  0.00     0.010 A 
ATOM     37  C   UNL     1       3.319   4.996   0.895  1.00  0.00     0.010 A 
ATOM     38  C   UNL     1       4.186   4.264   1.727  1.00  0.00    -0.014 A 
BRANCH  38  39
ATOM     39  C   UNL     1       5.619   4.632   1.834  1.00  0.00     0.031 A 
ATOM     40  C   UNL     1       6.012   5.838   2.643  1.00  0.00     0.074 A 
ATOM     41  C   UNL     1       6.563   3.882   1.239  1.00  0.00     0.049 A 
ATOM     42  N   UNL     1       7.198   6.360   2.832  1.00  0.00    -0.248 NA
ATOM     43  C   UNL     1       4.924   6.550   3.330  1.00  0.00     0.031 C 
ATOM     44  C   UNL     1       6.312   2.668   0.465  1.00  0.00     0.029 A 
ATOM     45  N   UNL     1       7.925   4.041   1.189  1.00  0.00    -0.354 N 
ATOM     46  C   UNL     1       6.998   7.463   3.652  1.00  0.00     0.074 A 
ATOM     47  C   UNL     1       5.576   7.551   3.904  1.00  0.00     0.031 C 
ATOM     48  C   UNL     1       7.484   2.196   0.005  1.00  0.00     0.029 A 
ATOM     49  C   UNL     1       8.559   3.093   0.424  1.00  0.00     0.049 A 
ATOM     50  H   UNL     1       8.402   4.764   1.656  1.00  0.00     0.167 HD
ATOM     51  C   UNL     1       7.918   8.321   4.155  1.00  0.00     0.037 A 
ATOM     52  C   UNL     1       9.857   2.979   0.079  1.00  0.00     0.037 A 
ATOM     53  C   UNL     1       9.333   8.230   3.906  1.00  0.00     0.049 A 
ATOM     54  C   UNL     1      10.850   3.990   0.587  1.00  0.00     0.074 A 
ATOM     55  C   UNL     1      10.348   9.038   4.389  1.00  0.00     0.029 A 
ATOM     56  N   UNL     1       9.932   7.279   3.095  1.00  0.00    -0.354 N 
ATOM     57  N   UNL     1      10.655   5.015   1.380  1.00  0.00    -0.248 NA
ATOM     58  C   UNL     1      12.244   3.828   0.149  1.00  0.00     0.031 C 
ATOM     59  C   UNL     1      11.555   8.605   3.832  1.00  0.00     0.029 A 
ATOM     60  C   UNL     1      11.299   7.497   3.041  1.00  0.00     0.049 A 
ATOM     61  H   UNL     1       9.457   6.555   2.627  1.00  0.00     0.167 HD
ATOM     62  C   UNL     1      11.900   5.604   1.557  1.00  0.00     0.074 A 
ATOM     63  C   UNL     1      12.847   4.815   0.797  1.00  0.00     0.031 C 
ATOM     64  C   UNL     1      12.231   6.700   2.283  1.00  0.00     0.037 A 
BRANCH  51  65
ATOM     65  C   UNL     1       7.419   9.450   5.008  1.00  0.00     0.057 A 
ATOM     66  C   UNL     1       6.942   9.242   6.309  1.00  0.00     0.134 A 
ATOM     67  C   UNL     1       7.452  10.768   4.536  1.00  0.00     0.134 A 
ATOM     68  F   UNL     1       6.873   8.003   6.817  1.00  0.00    -0.206 F 
ATOM     69  C   UNL     1       6.495  10.302   7.100  1.00  0.00     0.040 A 
ATOM     70  C   UNL     1       7.032  11.839   5.326  1.00  0.00     0.040 A 
ATOM     71  F   UNL     1       7.904  11.038   3.301  1.00  0.00    -0.206 F 
ATOM     72  C   UNL     1       6.546  11.606   6.611  1.00  0.00     0.006 A 
ENDBRANCH  51  65
BRANCH  52  73
ATOM     73  C   UNL     1      10.292   1.874  -0.812  1.00  0.00     0.057 A 
ATOM     74  C   UNL     1      11.097   0.833  -0.338  1.00  0.00     0.134 A 
ATOM     75  C   UNL     1       9.925   1.844  -2.163  1.00  0.00     0.134 A 
ATOM     76  F   UNL     1      11.501   0.820   0.940  1.00  0.00    -0.206 F 
ATOM     77  C   UNL     1      11.534  -0.193  -1.179  1.00  0.00     0.040 A 
ATOM     78  C   UNL     1      10.334   0.812  -3.009  1.00  0.00     0.040 A 
ATOM     79  F   UNL     1       9.156   2.813  -2.679  1.00  0.00    -0.206 F 
ATOM     80  C   UNL     1      11.147  -0.208  -2.518  1.00  0.00     0.006 A 
ENDBRANCH  52  73
BRANCH  64  81
ATOM     81  C   UNL     1      13.678   7.094   2.319  1.00  0.00     0.057 A 
ATOM     82  C   UNL     1      14.310   7.686   1.218  1.00  0.00     0.134 A 
ATOM     83  C   UNL     1      14.435   6.924   3.485  1.00  0.00     0.134 A 
ATOM     84  F   UNL     1      13.645   7.865   0.067  1.00  0.00    -0.206 F 
ATOM     85  C   UNL     1      15.649   8.077   1.270  1.00  0.00     0.040 A 
ATOM     86  C   UNL     1      15.767   7.335   3.558  1.00  0.00     0.040 A 
ATOM     87  F   UNL     1      13.888   6.372   4.579  1.00  0.00    -0.206 F 
ATOM     88  C   UNL     1      16.379   7.909   2.446  1.00  0.00     0.006 A 
ENDBRANCH  64  81
ENDBRANCH  38  39
ENDBRANCH  31  33
ENDBRANCH  30  31
ENDBRANCH  29  30
ENDBRANCH  28  29
ENDBRANCH   1  28
TORSDOF 18
