REMARK SMILES COc1cc2c(cc1OC)[C@H](C(=O)OCCOCCOC(=O)c1ccc(-c3c4nc(c(-c5c(F)cccc5F)c5ccc([nH]5)c(-c5c(F)cccc5F)c5nc(c(-c6c(F)cccc6F)c6ccc3[nH]6)C=C5)C=C4)cc1)[C@@H](c1ccc(SC)cc1)N(C)C2=O
REMARK SMILES IDX 17 1 16 2 15 3 14 4 12 5 13 6 11 7 3 8 4 9 8 10 5 11 7 12
REMARK SMILES IDX 6 13 88 14 86 15 89 16 77 17 87 18 2 19 1 20 9 21 10 22
REMARK SMILES IDX 78 23 79 24 85 25 80 26 84 27 81 28 82 29 83 30 18 31 19 32
REMARK SMILES IDX 20 33 21 34 22 35 23 36 24 37 76 38 25 39 75 40 26 41 27 42
REMARK SMILES IDX 28 43 69 44 29 45 74 46 68 47 70 48 30 49 73 50 67 51 66 52
REMARK SMILES IDX 31 54 57 55 40 56 56 57 41 58 44 59 55 60 71 61 42 62 43 63
REMARK SMILES IDX 54 65 72 66 45 67 32 68 33 69 38 70 34 71 35 72 37 73 39 74
REMARK SMILES IDX 36 75 58 76 59 77 64 78 60 79 61 80 63 81 65 82 62 83 46 84
REMARK SMILES IDX 47 85 52 86 48 87 49 88 51 89 53 90 50 91
REMARK H PARENT 70 53 44 64
REMARK Flexibility Score: inf
ROOT
ATOM      1  O   UNL     1      -2.569   6.789   3.763  1.00  0.00    -0.374 OA
ENDROOT
BRANCH   1   2
ATOM      2  C   UNL     1      -2.460   7.678   2.648  1.00  0.00     0.202 C 
BRANCH   2   3
ATOM      3  C   UNL     1      -1.036   8.018   2.172  1.00  0.00     0.261 C 
BRANCH   3   4
ATOM      4  O   UNL     1      -0.185   6.870   2.238  1.00  0.00    -0.463 OA
BRANCH   4   5
ATOM      5  C   UNL     1       1.147   7.047   2.024  1.00  0.00     0.316 C 
ATOM      6  O   UNL     1       1.636   8.061   1.548  1.00  0.00    -0.251 OA
BRANCH   5   7
ATOM      7  C   UNL     1       1.906   5.817   2.531  1.00  0.00     0.157 C 
ATOM      8  C   UNL     1       1.493   2.096   0.288  1.00  0.00     0.161 A 
ATOM      9  C   UNL     1       2.614   2.347   1.079  1.00  0.00     0.064 A 
ATOM     10  C   UNL     1       0.512   3.078   0.176  1.00  0.00     0.161 A 
ATOM     11  C   UNL     1       2.746   3.558   1.784  1.00  0.00     0.048 A 
ATOM     12  C   UNL     1       0.684   4.311   0.830  1.00  0.00     0.056 A 
ATOM     13  C   UNL     1       1.783   4.568   1.664  1.00  0.00    -0.015 A 
ATOM     14  C   UNL     1       3.931   3.718   2.664  1.00  0.00     0.254 C 
ATOM     15  N   UNL     1       4.180   4.977   3.201  1.00  0.00    -0.333 N 
ATOM     16  O   UNL     1       4.640   2.738   2.877  1.00  0.00    -0.269 OA
ATOM     17  C   UNL     1       3.399   6.167   2.776  1.00  0.00     0.134 C 
ATOM     18  C   UNL     1       5.449   5.158   3.900  1.00  0.00     0.147 C 
BRANCH   8  19
ATOM     19  O   UNL     1       1.394   0.953  -0.458  1.00  0.00    -0.493 OA
ATOM     20  C   UNL     1       1.582  -0.240   0.300  1.00  0.00     0.278 C 
ENDBRANCH   8  19
BRANCH  10  21
ATOM     21  O   UNL     1      -0.649   2.990  -0.540  1.00  0.00    -0.493 OA
ATOM     22  C   UNL     1      -1.247   1.705  -0.668  1.00  0.00     0.278 C 
ENDBRANCH  10  21
BRANCH  17  23
ATOM     23  C   UNL     1       3.597   7.349   3.732  1.00  0.00    -0.024 A 
ATOM     24  C   UNL     1       2.953   7.436   4.974  1.00  0.00     0.007 A 
ATOM     25  C   UNL     1       4.470   8.385   3.364  1.00  0.00     0.007 A 
ATOM     26  C   UNL     1       3.147   8.553   5.798  1.00  0.00     0.015 A 
ATOM     27  C   UNL     1       4.668   9.494   4.194  1.00  0.00     0.015 A 
ATOM     28  C   UNL     1       4.004   9.593   5.418  1.00  0.00     0.007 A 
BRANCH  28  29
ATOM     29  S   UNL     1       4.131  11.005   6.507  1.00  0.00    -0.130 SA
ATOM     30  C   UNL     1       5.804  11.617   6.167  1.00  0.00     0.091 C 
ENDBRANCH  28  29
ENDBRANCH  17  23
ENDBRANCH   5   7
ENDBRANCH   4   5
ENDBRANCH   3   4
ENDBRANCH   2   3
ENDBRANCH   1   2
BRANCH   1  31
ATOM     31  C   UNL     1      -2.187   5.419   3.572  1.00  0.00     0.202 C 
BRANCH  31  32
ATOM     32  C   UNL     1      -2.843   4.672   2.403  1.00  0.00     0.261 C 
BRANCH  32  33
ATOM     33  O   UNL     1      -2.487   5.267   1.144  1.00  0.00    -0.460 OA
BRANCH  33  34
ATOM     34  C   UNL     1      -3.204   4.822   0.088  1.00  0.00     0.338 C 
ATOM     35  O   UNL     1      -3.987   3.890   0.065  1.00  0.00    -0.246 OA
BRANCH  34  36
ATOM     36  C   UNL     1      -3.003   5.754  -1.036  1.00  0.00     0.060 A 
ATOM     37  C   UNL     1      -3.861   6.851  -1.154  1.00  0.00     0.016 A 
ATOM     38  C   UNL     1      -2.055   5.491  -2.026  1.00  0.00     0.016 A 
ATOM     39  C   UNL     1      -3.813   7.646  -2.301  1.00  0.00     0.010 A 
ATOM     40  C   UNL     1      -1.989   6.302  -3.160  1.00  0.00     0.010 A 
ATOM     41  C   UNL     1      -2.905   7.349  -3.329  1.00  0.00    -0.014 A 
BRANCH  41  42
ATOM     42  C   UNL     1      -3.016   8.031  -4.640  1.00  0.00     0.031 A 
ATOM     43  C   UNL     1      -3.673   7.314  -5.789  1.00  0.00     0.074 A 
ATOM     44  C   UNL     1      -2.541   9.277  -4.810  1.00  0.00     0.049 A 
ATOM     45  N   UNL     1      -3.928   7.746  -6.998  1.00  0.00    -0.248 NA
ATOM     46  C   UNL     1      -4.090   5.923  -5.548  1.00  0.00     0.031 C 
ATOM     47  C   UNL     1      -1.852  10.066  -3.792  1.00  0.00     0.029 A 
ATOM     48  N   UNL     1      -2.565  10.092  -5.913  1.00  0.00    -0.354 N 
ATOM     49  C   UNL     1      -4.534   6.684  -7.658  1.00  0.00     0.074 A 
ATOM     50  C   UNL     1      -4.569   5.574  -6.732  1.00  0.00     0.031 C 
ATOM     51  C   UNL     1      -1.516  11.256  -4.319  1.00  0.00     0.029 A 
ATOM     52  C   UNL     1      -1.961  11.307  -5.711  1.00  0.00     0.049 A 
ATOM     53  H   UNL     1      -2.975   9.830  -6.769  1.00  0.00     0.167 HD
ATOM     54  C   UNL     1      -5.036   6.643  -8.915  1.00  0.00     0.037 A 
ATOM     55  C   UNL     1      -1.789  12.344  -6.553  1.00  0.00     0.037 A 
ATOM     56  C   UNL     1      -5.015   7.747  -9.836  1.00  0.00     0.049 A 
ATOM     57  C   UNL     1      -2.345  12.273  -7.949  1.00  0.00     0.074 A 
ATOM     58  C   UNL     1      -5.570   7.826 -11.101  1.00  0.00     0.029 A 
ATOM     59  N   UNL     1      -4.392   8.961  -9.594  1.00  0.00    -0.354 N 
ATOM     60  N   UNL     1      -3.005  11.300  -8.527  1.00  0.00    -0.248 NA
ATOM     61  C   UNL     1      -2.142  13.452  -8.804  1.00  0.00     0.031 C 
ATOM     62  C   UNL     1      -5.246   9.075 -11.643  1.00  0.00     0.029 A 
ATOM     63  C   UNL     1      -4.522   9.786 -10.699  1.00  0.00     0.049 A 
ATOM     64  H   UNL     1      -3.926   9.202  -8.761  1.00  0.00     0.167 HD
ATOM     65  C   UNL     1      -3.313  11.754  -9.804  1.00  0.00     0.074 A 
ATOM     66  C   UNL     1      -2.778  13.095  -9.911  1.00  0.00     0.031 C 
ATOM     67  C   UNL     1      -3.981  11.117 -10.796  1.00  0.00     0.037 A 
BRANCH  54  68
ATOM     68  C   UNL     1      -5.654   5.354  -9.366  1.00  0.00     0.057 A 
ATOM     69  C   UNL     1      -6.900   4.929  -8.889  1.00  0.00     0.134 A 
ATOM     70  C   UNL     1      -5.011   4.545 -10.310  1.00  0.00     0.134 A 
ATOM     71  F   UNL     1      -7.561   5.654  -7.973  1.00  0.00    -0.206 F 
ATOM     72  C   UNL     1      -7.476   3.732  -9.319  1.00  0.00     0.040 A 
ATOM     73  C   UNL     1      -5.586   3.357 -10.764  1.00  0.00     0.040 A 
ATOM     74  F   UNL     1      -3.817   4.898 -10.810  1.00  0.00    -0.206 F 
ATOM     75  C   UNL     1      -6.820   2.946 -10.264  1.00  0.00     0.006 A 
ENDBRANCH  54  68
BRANCH  55  76
ATOM     76  C   UNL     1      -1.069  13.553  -6.087  1.00  0.00     0.057 A 
ATOM     77  C   UNL     1      -1.753  14.741  -5.811  1.00  0.00     0.134 A 
ATOM     78  C   UNL     1       0.319  13.545  -5.905  1.00  0.00     0.134 A 
ATOM     79  F   UNL     1      -3.080  14.813  -5.988  1.00  0.00    -0.206 F 
ATOM     80  C   UNL     1      -1.081  15.885  -5.380  1.00  0.00     0.040 A 
ATOM     81  C   UNL     1       1.001  14.675  -5.456  1.00  0.00     0.040 A 
ATOM     82  F   UNL     1       1.027  12.434  -6.153  1.00  0.00    -0.206 F 
ATOM     83  C   UNL     1       0.301  15.852  -5.195  1.00  0.00     0.006 A 
ENDBRANCH  55  76
BRANCH  67  84
ATOM     84  C   UNL     1      -4.183  11.864 -12.080  1.00  0.00     0.057 A 
ATOM     85  C   UNL     1      -3.136  12.061 -12.989  1.00  0.00     0.134 A 
ATOM     86  C   UNL     1      -5.447  12.354 -12.432  1.00  0.00     0.134 A 
ATOM     87  F   UNL     1      -1.899  11.625 -12.705  1.00  0.00    -0.206 F 
ATOM     88  C   UNL     1      -3.335  12.734 -14.195  1.00  0.00     0.040 A 
ATOM     89  C   UNL     1      -5.664  13.010 -13.645  1.00  0.00     0.040 A 
ATOM     90  F   UNL     1      -6.494  12.191 -11.609  1.00  0.00    -0.206 F 
ATOM     91  C   UNL     1      -4.604  13.205 -14.528  1.00  0.00     0.006 A 
ENDBRANCH  67  84
ENDBRANCH  41  42
ENDBRANCH  34  36
ENDBRANCH  33  34
ENDBRANCH  32  33
ENDBRANCH  31  32
ENDBRANCH   1  31
TORSDOF 18
