REMARK SMILES CCC(CC)(Nc1cc2ccccc2c(=O)[nH]1)C(=O)OCCOCCOC(=O)c1ccc(-c2c3nc(c(-c4c(F)cccc4F)c4ccc([nH]4)c(-c4c(F)cccc4F)c4nc(c(-c5c(F)cccc5F)c5ccc2[nH]5)C=C4)C=C3)cc1
REMARK SMILES IDX 23 1 22 2 21 3 20 4 18 5 19 6 3 7 2 8 1 9 4 10 5 11 6 12
REMARK SMILES IDX 7 14 8 15 17 16 9 17 15 18 10 20 14 21 16 22 11 23 13 24
REMARK SMILES IDX 12 25 24 26 25 27 26 28 27 29 28 30 29 31 30 32 82 33 31 34
REMARK SMILES IDX 81 35 32 36 33 37 34 38 75 39 35 40 80 41 74 42 76 43 36 44
REMARK SMILES IDX 79 45 73 46 72 47 37 49 63 50 46 51 62 52 47 53 50 54 61 55
REMARK SMILES IDX 77 56 48 57 49 58 60 60 78 61 51 62 38 63 39 64 44 65 40 66
REMARK SMILES IDX 41 67 43 68 45 69 42 70 64 71 65 72 70 73 66 74 67 75 69 76
REMARK SMILES IDX 71 77 68 78 52 79 53 80 58 81 54 82 55 83 57 84 59 85 56 86
REMARK H PARENT 6 13 17 19 76 48 50 59
REMARK Flexibility Score: inf
ROOT
ATOM      1  O   UNL     1       5.074  -0.306   2.487  1.00  0.00    -0.374 OA
ENDROOT
BRANCH   1   2
ATOM      2  C   UNL     1       5.336   1.030   2.914  1.00  0.00     0.202 C 
BRANCH   2   3
ATOM      3  C   UNL     1       4.412   2.135   2.405  1.00  0.00     0.261 C 
BRANCH   3   4
ATOM      4  O   UNL     1       3.032   1.899   2.749  1.00  0.00    -0.461 OA
BRANCH   4   5
ATOM      5  C   UNL     1       2.348   1.265   1.759  1.00  0.00     0.331 C 
ATOM      6  O   UNL     1       2.864   1.015   0.672  1.00  0.00    -0.249 OA
BRANCH   5   7
ATOM      7  C   UNL     1       0.847   1.017   2.045  1.00  0.00     0.136 C 
BRANCH   7   8
ATOM      8  C   UNL     1       0.390  -0.171   1.115  1.00  0.00     0.037 C 
ATOM      9  C   UNL     1       0.550  -0.040  -0.394  1.00  0.00     0.007 C 
ENDBRANCH   7   8
BRANCH   7  10
ATOM     10  C   UNL     1       0.150   2.363   1.743  1.00  0.00     0.037 C 
ATOM     11  C   UNL     1      -1.371   2.332   1.754  1.00  0.00     0.007 C 
ENDBRANCH   7  10
BRANCH   7  12
ATOM     12  N   UNL     1       0.413   0.547   3.388  1.00  0.00    -0.356 N 
ATOM     13  H   UNL     1      -0.515   0.220   3.365  1.00  0.00     0.163 HD
BRANCH  12  14
ATOM     14  C   UNL     1       0.942   0.442   4.649  1.00  0.00     0.107 A 
ATOM     15  C   UNL     1       0.643  -0.652   5.383  1.00  0.00     0.053 A 
ATOM     16  N   UNL     1       1.664   1.436   5.243  1.00  0.00    -0.308 N 
ATOM     17  C   UNL     1       1.232  -0.874   6.703  1.00  0.00    -0.009 A 
ATOM     18  C   UNL     1       2.060   1.447   6.567  1.00  0.00     0.257 A 
ATOM     19  H   UNL     1       1.922   2.205   4.686  1.00  0.00     0.171 HD
ATOM     20  C   UNL     1       1.166  -2.124   7.331  1.00  0.00     0.009 A 
ATOM     21  C   UNL     1       1.948   0.158   7.306  1.00  0.00     0.047 A 
ATOM     22  O   UNL     1       2.519   2.449   7.104  1.00  0.00    -0.269 OA
ATOM     23  C   UNL     1       1.888  -2.360   8.505  1.00  0.00     0.001 A 
ATOM     24  C   UNL     1       2.631  -0.064   8.511  1.00  0.00     0.014 A 
ATOM     25  C   UNL     1       2.636  -1.337   9.084  1.00  0.00     0.001 A 
ENDBRANCH  12  14
ENDBRANCH   7  12
ENDBRANCH   5   7
ENDBRANCH   4   5
ENDBRANCH   3   4
ENDBRANCH   2   3
ENDBRANCH   1   2
BRANCH   1  26
ATOM     26  C   UNL     1       4.079  -1.038   3.206  1.00  0.00     0.202 C 
BRANCH  26  27
ATOM     27  C   UNL     1       4.484  -1.596   4.575  1.00  0.00     0.261 C 
BRANCH  27  28
ATOM     28  O   UNL     1       4.867  -0.556   5.484  1.00  0.00    -0.460 OA
BRANCH  28  29
ATOM     29  C   UNL     1       6.207  -0.395   5.659  1.00  0.00     0.338 C 
ATOM     30  O   UNL     1       7.086  -1.129   5.255  1.00  0.00    -0.246 OA
BRANCH  29  31
ATOM     31  C   UNL     1       6.478   0.904   6.332  1.00  0.00     0.060 A 
ATOM     32  C   UNL     1       7.731   1.500   6.200  1.00  0.00     0.016 A 
ATOM     33  C   UNL     1       5.506   1.534   7.103  1.00  0.00     0.016 A 
ATOM     34  C   UNL     1       8.043   2.628   6.962  1.00  0.00     0.010 A 
ATOM     35  C   UNL     1       5.789   2.679   7.836  1.00  0.00     0.010 A 
ATOM     36  C   UNL     1       7.092   3.168   7.841  1.00  0.00    -0.014 A 
BRANCH  36  37
ATOM     37  C   UNL     1       7.498   4.119   8.893  1.00  0.00     0.031 A 
ATOM     38  C   UNL     1       7.740   3.601  10.285  1.00  0.00     0.074 A 
ATOM     39  C   UNL     1       7.613   5.426   8.612  1.00  0.00     0.049 A 
ATOM     40  N   UNL     1       8.287   4.200  11.311  1.00  0.00    -0.248 NA
ATOM     41  C   UNL     1       7.283   2.229  10.571  1.00  0.00     0.031 C 
ATOM     42  C   UNL     1       7.274   6.044   7.332  1.00  0.00     0.029 A 
ATOM     43  N   UNL     1       8.044   6.464   9.391  1.00  0.00    -0.354 N 
ATOM     44  C   UNL     1       8.263   3.273  12.347  1.00  0.00     0.074 A 
ATOM     45  C   UNL     1       7.579   2.100  11.855  1.00  0.00     0.031 C 
ATOM     46  C   UNL     1       7.533   7.360   7.406  1.00  0.00     0.029 A 
ATOM     47  C   UNL     1       8.074   7.664   8.728  1.00  0.00     0.049 A 
ATOM     48  H   UNL     1       8.306   6.360  10.335  1.00  0.00     0.167 HD
ATOM     49  C   UNL     1       8.792   3.386  13.589  1.00  0.00     0.037 A 
ATOM     50  C   UNL     1       8.531   8.860   9.140  1.00  0.00     0.037 A 
ATOM     51  C   UNL     1       9.443   4.582  14.057  1.00  0.00     0.049 A 
ATOM     52  C   UNL     1       9.171   8.954  10.500  1.00  0.00     0.074 A 
ATOM     53  C   UNL     1      10.091   4.806  15.258  1.00  0.00     0.029 A 
ATOM     54  N   UNL     1       9.502   5.770  13.341  1.00  0.00    -0.354 N 
ATOM     55  N   UNL     1       9.304   8.028  11.421  1.00  0.00    -0.248 NA
ATOM     56  C   UNL     1       9.762  10.248  10.859  1.00  0.00     0.031 C 
ATOM     57  C   UNL     1      10.495   6.146  15.289  1.00  0.00     0.029 A 
ATOM     58  C   UNL     1      10.158   6.737  14.081  1.00  0.00     0.049 A 
ATOM     59  H   UNL     1       9.133   5.904  12.438  1.00  0.00     0.167 HD
ATOM     60  C   UNL     1      10.029   8.613  12.450  1.00  0.00     0.074 A 
ATOM     61  C   UNL     1      10.319   9.970  12.029  1.00  0.00     0.031 C 
ATOM     62  C   UNL     1      10.429   8.081  13.633  1.00  0.00     0.037 A 
BRANCH  49  63
ATOM     63  C   UNL     1       8.699   2.198  14.507  1.00  0.00     0.057 A 
ATOM     64  C   UNL     1       9.380   1.000  14.239  1.00  0.00     0.134 A 
ATOM     65  C   UNL     1       7.958   2.257  15.694  1.00  0.00     0.134 A 
ATOM     66  F   UNL     1      10.105   0.866  13.118  1.00  0.00    -0.206 F 
ATOM     67  C   UNL     1       9.305  -0.098  15.100  1.00  0.00     0.040 A 
ATOM     68  C   UNL     1       7.900   1.176  16.578  1.00  0.00     0.040 A 
ATOM     69  F   UNL     1       7.284   3.370  16.023  1.00  0.00    -0.206 F 
ATOM     70  C   UNL     1       8.569  -0.008  16.279  1.00  0.00     0.006 A 
ENDBRANCH  49  63
BRANCH  50  71
ATOM     71  C   UNL     1       8.504  10.017   8.212  1.00  0.00     0.057 A 
ATOM     72  C   UNL     1       9.683  10.513   7.644  1.00  0.00     0.134 A 
ATOM     73  C   UNL     1       7.303  10.635   7.846  1.00  0.00     0.134 A 
ATOM     74  F   UNL     1      10.867   9.966   7.958  1.00  0.00    -0.206 F 
ATOM     75  C   UNL     1       9.674  11.597   6.764  1.00  0.00     0.040 A 
ATOM     76  C   UNL     1       7.275  11.703   6.947  1.00  0.00     0.040 A 
ATOM     77  F   UNL     1       6.137  10.194   8.339  1.00  0.00    -0.206 F 
ATOM     78  C   UNL     1       8.465  12.192   6.410  1.00  0.00     0.006 A 
ENDBRANCH  50  71
BRANCH  62  79
ATOM     79  C   UNL     1      11.256   8.959  14.527  1.00  0.00     0.057 A 
ATOM     80  C   UNL     1      10.720  10.080  15.175  1.00  0.00     0.134 A 
ATOM     81  C   UNL     1      12.607   8.665  14.753  1.00  0.00     0.134 A 
ATOM     82  F   UNL     1       9.435  10.420  14.995  1.00  0.00    -0.206 F 
ATOM     83  C   UNL     1      11.511  10.903  15.978  1.00  0.00     0.040 A 
ATOM     84  C   UNL     1      13.398   9.460  15.582  1.00  0.00     0.040 A 
ATOM     85  F   UNL     1      13.179   7.597  14.176  1.00  0.00    -0.206 F 
ATOM     86  C   UNL     1      12.853  10.591  16.187  1.00  0.00     0.006 A 
ENDBRANCH  62  79
ENDBRANCH  36  37
ENDBRANCH  29  31
ENDBRANCH  28  29
ENDBRANCH  27  28
ENDBRANCH  26  27
ENDBRANCH   1  26
TORSDOF 18
