REMARK SMILES [NH3+][C@@H](Cc1cn(-c2nc(Cl)nc(N3CCOCC3)n2)c2ccccc12)C(=O)OCCOCCOC(=O)c1ccc(-c2c3nc(c(-c4c(F)cccc4F)c4ccc([nH]4)c(-c4c(F)cccc4F)c4nc(c(-c5c(F)cccc5F)c5ccc2[nH]5)C=C4)C=C3)cc1
REMARK SMILES IDX 30 1 29 2 28 3 26 4 27 5 2 6 1 7 3 11 4 12 5 13 25 14 6 15
REMARK SMILES IDX 20 16 24 17 21 18 23 19 22 20 7 21 8 22 19 23 9 24 12 25
REMARK SMILES IDX 10 26 11 27 13 28 14 29 18 30 15 31 17 32 16 33 31 34 32 35
REMARK SMILES IDX 33 36 34 37 35 38 36 39 37 40 38 41 90 42 39 43 89 44 40 45
REMARK SMILES IDX 41 46 42 47 83 48 43 49 88 50 82 51 84 52 44 53 87 54 81 55
REMARK SMILES IDX 80 56 45 58 71 59 54 60 70 61 55 62 58 63 69 64 85 65 56 66
REMARK SMILES IDX 57 67 68 69 86 70 59 71 46 72 47 73 52 74 48 75 49 76 51 77
REMARK SMILES IDX 53 78 50 79 72 80 73 81 78 82 74 83 75 84 77 85 79 86 76 87
REMARK SMILES IDX 60 88 61 89 66 90 62 91 63 92 65 93 67 94 64 95
REMARK H PARENT 1 8 1 9 1 10 84 57 58 68
REMARK Flexibility Score: inf
ROOT
ATOM      1  C   UNL     1      -3.666  -1.362  -0.425  1.00  0.00     0.202 C 
ENDROOT
BRANCH   1   2
ATOM      2  C   UNL     1      -2.898  -1.882   0.797  1.00  0.00     0.261 C 
BRANCH   2   3
ATOM      3  O   UNL     1      -1.527  -1.473   0.817  1.00  0.00    -0.459 OA
BRANCH   3   4
ATOM      4  C   UNL     1      -0.618  -2.489   0.767  1.00  0.00     0.365 C 
ATOM      5  O   UNL     1      -0.890  -3.683   0.853  1.00  0.00    -0.245 OA
BRANCH   4   6
ATOM      6  C   UNL     1       0.821  -1.983   0.609  1.00  0.00     0.296 C 
BRANCH   6   7
ATOM      7  N   UNL     1       0.909  -0.755  -0.217  1.00  0.00    -0.346 N 
ATOM      8  H   UNL     1       1.884  -0.463  -0.289  1.00  0.00     0.345 HD
ATOM      9  H   UNL     1       0.363  -0.012   0.219  1.00  0.00     0.345 HD
ATOM     10  H   UNL     1       0.541  -0.945  -1.149  1.00  0.00     0.345 HD
ENDBRANCH   6   7
BRANCH   6  11
ATOM     11  C   UNL     1       1.524  -1.887   1.971  1.00  0.00     0.115 C 
BRANCH  11  12
ATOM     12  C   UNL     1       0.968  -0.877   2.936  1.00  0.00    -0.015 A 
ATOM     13  C   UNL     1       0.315  -1.181   4.115  1.00  0.00     0.099 A 
ATOM     14  C   UNL     1       1.054   0.553   2.887  1.00  0.00     0.004 A 
ATOM     15  N   UNL     1      -0.087  -0.015   4.736  1.00  0.00    -0.285 N 
ATOM     16  C   UNL     1       0.322   1.067   3.966  1.00  0.00     0.056 A 
ATOM     17  C   UNL     1       1.700   1.468   2.026  1.00  0.00     0.010 A 
ATOM     18  C   UNL     1       0.203   2.454   4.182  1.00  0.00     0.027 A 
ATOM     19  C   UNL     1       1.574   2.844   2.231  1.00  0.00     0.001 A 
ATOM     20  C   UNL     1       0.831   3.329   3.296  1.00  0.00     0.002 A 
BRANCH  15  21
ATOM     21  C   UNL     1      -0.719   0.045   6.013  1.00  0.00     0.240 A 
ATOM     22  N   UNL     1      -1.501   1.076   6.299  1.00  0.00    -0.181 NA
ATOM     23  N   UNL     1      -0.397  -0.917   6.876  1.00  0.00    -0.176 NA
ATOM     24  C   UNL     1      -1.998   1.022   7.526  1.00  0.00     0.228 A 
ATOM     25  C   UNL     1      -0.886  -0.801   8.106  1.00  0.00     0.231 A 
ATOM     26  Cl  UNL     1      -2.962   2.358   7.975  1.00  0.00    -0.041 Cl
ATOM     27  N   UNL     1      -1.742   0.133   8.476  1.00  0.00    -0.182 NA
BRANCH  25  28
ATOM     28  N   UNL     1      -0.379  -1.670   9.022  1.00  0.00    -0.336 N 
ATOM     29  C   UNL     1       0.978  -1.437   9.504  1.00  0.00     0.148 C 
ATOM     30  C   UNL     1      -1.234  -2.438   9.906  1.00  0.00     0.148 C 
ATOM     31  C   UNL     1       1.620  -2.796   9.819  1.00  0.00     0.181 C 
ATOM     32  C   UNL     1      -0.515  -3.777  10.165  1.00  0.00     0.181 C 
ATOM     33  O   UNL     1       0.802  -3.572  10.717  1.00  0.00    -0.378 OA
ENDBRANCH  25  28
ENDBRANCH  15  21
ENDBRANCH  11  12
ENDBRANCH   6  11
ENDBRANCH   4   6
ENDBRANCH   3   4
ENDBRANCH   2   3
ENDBRANCH   1   2
BRANCH   1  34
ATOM     34  O   UNL     1      -3.098  -1.464  -1.724  1.00  0.00    -0.374 OA
BRANCH  34  35
ATOM     35  C   UNL     1      -1.957  -0.651  -2.017  1.00  0.00     0.202 C 
BRANCH  35  36
ATOM     36  C   UNL     1      -2.085   0.886  -1.954  1.00  0.00     0.261 C 
BRANCH  36  37
ATOM     37  O   UNL     1      -2.439   1.357  -0.646  1.00  0.00    -0.460 OA
BRANCH  37  38
ATOM     38  C   UNL     1      -3.369   2.352  -0.629  1.00  0.00     0.338 C 
ATOM     39  O   UNL     1      -3.614   3.160  -1.507  1.00  0.00    -0.246 OA
BRANCH  38  40
ATOM     40  C   UNL     1      -4.302   1.982   0.451  1.00  0.00     0.060 A 
ATOM     41  C   UNL     1      -3.835   1.729   1.744  1.00  0.00     0.016 A 
ATOM     42  C   UNL     1      -5.574   1.552   0.036  1.00  0.00     0.016 A 
ATOM     43  C   UNL     1      -4.622   0.966   2.600  1.00  0.00     0.010 A 
ATOM     44  C   UNL     1      -6.331   0.746   0.877  1.00  0.00     0.010 A 
ATOM     45  C   UNL     1      -5.842   0.429   2.148  1.00  0.00    -0.014 A 
BRANCH  45  46
ATOM     46  C   UNL     1      -6.700  -0.260   3.115  1.00  0.00     0.031 A 
ATOM     47  C   UNL     1      -7.301   0.677   4.106  1.00  0.00     0.074 A 
ATOM     48  C   UNL     1      -7.095  -1.550   3.057  1.00  0.00     0.049 A 
ATOM     49  N   UNL     1      -7.178   0.675   5.393  1.00  0.00    -0.248 NA
ATOM     50  C   UNL     1      -8.034   1.838   3.572  1.00  0.00     0.031 C 
ATOM     51  C   UNL     1      -6.847  -2.529   1.998  1.00  0.00     0.029 A 
ATOM     52  N   UNL     1      -7.908  -2.236   3.918  1.00  0.00    -0.354 N 
ATOM     53  C   UNL     1      -7.956   1.740   5.845  1.00  0.00     0.074 A 
ATOM     54  C   UNL     1      -8.327   2.505   4.686  1.00  0.00     0.031 C 
ATOM     55  C   UNL     1      -7.655  -3.601   2.177  1.00  0.00     0.029 A 
ATOM     56  C   UNL     1      -8.398  -3.438   3.416  1.00  0.00     0.049 A 
ATOM     57  H   UNL     1      -8.129  -1.906   4.819  1.00  0.00     0.167 HD
ATOM     58  C   UNL     1      -8.435   1.793   7.116  1.00  0.00     0.037 A 
ATOM     59  C   UNL     1      -9.378  -4.214   3.949  1.00  0.00     0.037 A 
ATOM     60  C   UNL     1      -7.716   0.916   7.997  1.00  0.00     0.049 A 
ATOM     61  C   UNL     1      -9.542  -3.826   5.367  1.00  0.00     0.074 A 
ATOM     62  C   UNL     1      -6.424   0.833   8.471  1.00  0.00     0.029 A 
ATOM     63  N   UNL     1      -8.303  -0.277   8.325  1.00  0.00    -0.354 N 
ATOM     64  N   UNL     1      -8.678  -4.087   6.303  1.00  0.00    -0.248 NA
ATOM     65  C   UNL     1     -10.512  -2.790   5.682  1.00  0.00     0.031 C 
ATOM     66  C   UNL     1      -6.166  -0.563   8.609  1.00  0.00     0.029 A 
ATOM     67  C   UNL     1      -7.335  -1.242   8.264  1.00  0.00     0.049 A 
ATOM     68  H   UNL     1      -9.248  -0.415   8.562  1.00  0.00     0.167 HD
ATOM     69  C   UNL     1      -8.701  -2.970   7.121  1.00  0.00     0.074 A 
ATOM     70  C   UNL     1      -9.927  -2.262   6.760  1.00  0.00     0.031 C 
ATOM     71  C   UNL     1      -7.587  -2.587   7.810  1.00  0.00     0.037 A 
BRANCH  58  72
ATOM     72  C   UNL     1      -9.800   2.327   7.473  1.00  0.00     0.057 A 
ATOM     73  C   UNL     1     -10.880   2.401   6.569  1.00  0.00     0.134 A 
ATOM     74  C   UNL     1     -10.145   2.453   8.831  1.00  0.00     0.134 A 
ATOM     75  F   UNL     1     -10.729   2.235   5.250  1.00  0.00    -0.206 F 
ATOM     76  C   UNL     1     -12.206   2.542   6.986  1.00  0.00     0.040 A 
ATOM     77  C   UNL     1     -11.474   2.540   9.260  1.00  0.00     0.040 A 
ATOM     78  F   UNL     1      -9.206   2.398   9.788  1.00  0.00    -0.206 F 
ATOM     79  C   UNL     1     -12.510   2.571   8.336  1.00  0.00     0.006 A 
ENDBRANCH  58  72
BRANCH  59  80
ATOM     80  C   UNL     1     -10.361  -5.107   3.287  1.00  0.00     0.057 A 
ATOM     81  C   UNL     1     -10.815  -4.853   1.982  1.00  0.00     0.134 A 
ATOM     82  C   UNL     1     -11.091  -6.061   4.014  1.00  0.00     0.134 A 
ATOM     83  F   UNL     1     -10.245  -3.905   1.225  1.00  0.00    -0.206 F 
ATOM     84  C   UNL     1     -11.934  -5.494   1.439  1.00  0.00     0.040 A 
ATOM     85  C   UNL     1     -12.219  -6.705   3.486  1.00  0.00     0.040 A 
ATOM     86  F   UNL     1     -10.769  -6.344   5.285  1.00  0.00    -0.206 F 
ATOM     87  C   UNL     1     -12.650  -6.414   2.196  1.00  0.00     0.006 A 
ENDBRANCH  59  80
BRANCH  71  88
ATOM     88  C   UNL     1      -6.449  -3.568   7.886  1.00  0.00     0.057 A 
ATOM     89  C   UNL     1      -5.984  -3.965   9.144  1.00  0.00     0.134 A 
ATOM     90  C   UNL     1      -5.748  -4.052   6.771  1.00  0.00     0.134 A 
ATOM     91  F   UNL     1      -6.565  -3.497  10.260  1.00  0.00    -0.206 F 
ATOM     92  C   UNL     1      -4.891  -4.823   9.290  1.00  0.00     0.040 A 
ATOM     93  C   UNL     1      -4.677  -4.941   6.902  1.00  0.00     0.040 A 
ATOM     94  F   UNL     1      -6.050  -3.647   5.530  1.00  0.00    -0.206 F 
ATOM     95  C   UNL     1      -4.244  -5.327   8.166  1.00  0.00     0.006 A 
ENDBRANCH  71  88
ENDBRANCH  45  46
ENDBRANCH  38  40
ENDBRANCH  37  38
ENDBRANCH  36  37
ENDBRANCH  35  36
ENDBRANCH  34  35
ENDBRANCH   1  34
TORSDOF 19
