REMARK SMILES CS(=O)(=O)c1ccc(N2N=C(C(=O)OCCOCCOC(=O)c3ccc(-c4c5nc(c(-c6c(F)cccc6F)c6ccc([nH]6)c(-c6c(F)cccc6F)c6nc(c(-c7c(F)cccc7F)c7ccc4[nH]7)C=C6)C=C5)cc3)C[C@H]2c2ccco2)cc1
REMARK SMILES IDX 17 1 16 2 15 3 14 4 12 5 13 6 11 7 9 8 10 9 78 10 77 11 8 12
REMARK SMILES IDX 5 13 6 14 85 15 7 16 84 17 2 18 1 19 3 20 4 21 79 22 80 23
REMARK SMILES IDX 83 24 81 25 82 26 18 27 19 28 20 29 21 30 22 31 23 32 24 33
REMARK SMILES IDX 76 34 25 35 75 36 26 37 27 38 28 39 69 40 29 41 74 42 68 43
REMARK SMILES IDX 70 44 30 45 73 46 67 47 66 48 31 50 57 51 40 52 56 53 41 54
REMARK SMILES IDX 44 55 55 56 71 57 42 58 43 59 54 61 72 62 45 63 32 64 33 65
REMARK SMILES IDX 38 66 34 67 35 68 37 69 39 70 36 71 58 72 59 73 64 74 60 75
REMARK SMILES IDX 61 76 63 77 65 78 62 79 46 80 47 81 52 82 48 83 49 84 51 85
REMARK SMILES IDX 53 86 50 87
REMARK H PARENT 70 49 44 60
REMARK Flexibility Score: inf
ROOT
ATOM      1  O   UNL     1       4.074  -7.537   7.228  1.00  0.00    -0.374 OA
ENDROOT
BRANCH   1   2
ATOM      2  C   UNL     1       4.286  -7.409   8.639  1.00  0.00     0.202 C 
BRANCH   2   3
ATOM      3  C   UNL     1       4.949  -6.078   8.998  1.00  0.00     0.261 C 
BRANCH   3   4
ATOM      4  O   UNL     1       3.952  -5.053   8.882  1.00  0.00    -0.459 OA
BRANCH   4   5
ATOM      5  C   UNL     1       4.393  -3.854   8.452  1.00  0.00     0.354 C 
ATOM      6  O   UNL     1       5.533  -3.443   8.410  1.00  0.00    -0.245 OA
BRANCH   5   7
ATOM      7  C   UNL     1       3.204  -3.132   7.877  1.00  0.00     0.148 C 
ATOM      8  N   UNL     1       1.942  -2.129   6.522  1.00  0.00    -0.254 N 
ATOM      9  N   UNL     1       3.200  -2.623   6.682  1.00  0.00    -0.169 NA
ATOM     10  C   UNL     1       1.187  -2.045   7.776  1.00  0.00     0.180 C 
ATOM     11  C   UNL     1       1.896  -3.120   8.607  1.00  0.00     0.101 C 
BRANCH   8  12
ATOM     12  C   UNL     1       1.597  -1.467   5.358  1.00  0.00     0.060 A 
ATOM     13  C   UNL     1       0.876  -0.163   2.986  1.00  0.00     0.067 A 
ATOM     14  C   UNL     1       0.496  -1.491   3.186  1.00  0.00     0.022 A 
ATOM     15  C   UNL     1       1.606   0.523   3.957  1.00  0.00     0.022 A 
ATOM     16  C   UNL     1       0.862  -2.136   4.369  1.00  0.00     0.029 A 
ATOM     17  C   UNL     1       1.972  -0.137   5.132  1.00  0.00     0.029 A 
BRANCH  13  18
ATOM     18  S   UNL     1       0.388   0.658   1.488  1.00  0.00     0.175 S 
ATOM     19  C   UNL     1       1.376  -0.120   0.237  1.00  0.00     0.163 C 
ATOM     20  O   UNL     1       0.806   2.044   1.584  1.00  0.00    -0.224 OA
ATOM     21  O   UNL     1      -1.001   0.315   1.253  1.00  0.00    -0.224 OA
ENDBRANCH  13  18
ENDBRANCH   8  12
BRANCH  10  22
ATOM     22  C   UNL     1       1.191  -0.708   8.462  1.00  0.00     0.128 A 
ATOM     23  C   UNL     1       0.420   0.428   8.308  1.00  0.00     0.048 A 
ATOM     24  O   UNL     1       2.120  -0.499   9.444  1.00  0.00    -0.467 OA
ATOM     25  C   UNL     1       0.905   1.374   9.243  1.00  0.00     0.042 A 
ATOM     26  C   UNL     1       1.936   0.760   9.911  1.00  0.00     0.195 A 
ENDBRANCH  10  22
ENDBRANCH   5   7
ENDBRANCH   4   5
ENDBRANCH   3   4
ENDBRANCH   2   3
ENDBRANCH   1   2
BRANCH   1  27
ATOM     27  C   UNL     1       2.865  -6.957   6.728  1.00  0.00     0.202 C 
BRANCH  27  28
ATOM     28  C   UNL     1       1.732  -7.978   6.612  1.00  0.00     0.261 C 
BRANCH  28  29
ATOM     29  O   UNL     1       1.296  -8.377   7.925  1.00  0.00    -0.460 OA
BRANCH  29  30
ATOM     30  C   UNL     1       1.684  -9.619   8.303  1.00  0.00     0.338 C 
ATOM     31  O   UNL     1       2.240 -10.456   7.613  1.00  0.00    -0.246 OA
BRANCH  30  32
ATOM     32  C   UNL     1       1.437  -9.815   9.751  1.00  0.00     0.060 A 
ATOM     33  C   UNL     1       2.284 -10.699  10.430  1.00  0.00     0.016 A 
ATOM     34  C   UNL     1       0.385  -9.190  10.433  1.00  0.00     0.016 A 
ATOM     35  C   UNL     1       2.053 -10.999  11.771  1.00  0.00     0.010 A 
ATOM     36  C   UNL     1       0.151  -9.495  11.780  1.00  0.00     0.010 A 
ATOM     37  C   UNL     1       0.964 -10.428  12.442  1.00  0.00    -0.014 A 
BRANCH  37  38
ATOM     38  C   UNL     1       0.609 -10.948  13.782  1.00  0.00     0.031 A 
ATOM     39  C   UNL     1      -0.325 -12.121  13.879  1.00  0.00     0.074 A 
ATOM     40  C   UNL     1       1.158 -10.431  14.894  1.00  0.00     0.049 A 
ATOM     41  N   UNL     1      -0.652 -12.835  14.925  1.00  0.00    -0.248 NA
ATOM     42  C   UNL     1      -0.972 -12.550  12.628  1.00  0.00     0.031 C 
ATOM     43  C   UNL     1       2.067  -9.288  14.941  1.00  0.00     0.029 A 
ATOM     44  N   UNL     1       1.034 -10.821  16.204  1.00  0.00    -0.354 N 
ATOM     45  C   UNL     1      -1.525 -13.807  14.457  1.00  0.00     0.074 A 
ATOM     46  C   UNL     1      -1.705 -13.574  13.040  1.00  0.00     0.031 C 
ATOM     47  C   UNL     1       2.420  -9.067  16.220  1.00  0.00     0.029 A 
ATOM     48  C   UNL     1       1.773 -10.061  17.075  1.00  0.00     0.049 A 
ATOM     49  H   UNL     1       0.469 -11.574  16.491  1.00  0.00     0.167 HD
ATOM     50  C   UNL     1      -2.112 -14.816  15.141  1.00  0.00     0.037 A 
ATOM     51  C   UNL     1       1.922 -10.169  18.408  1.00  0.00     0.037 A 
ATOM     52  C   UNL     1      -1.946 -15.056  16.547  1.00  0.00     0.049 A 
ATOM     53  C   UNL     1       1.256 -11.296  19.148  1.00  0.00     0.074 A 
ATOM     54  C   UNL     1      -2.481 -16.073  17.320  1.00  0.00     0.029 A 
ATOM     55  N   UNL     1      -1.191 -14.261  17.394  1.00  0.00    -0.354 N 
ATOM     56  N   UNL     1       0.494 -12.254  18.682  1.00  0.00    -0.248 NA
ATOM     57  C   UNL     1       1.486 -11.364  20.600  1.00  0.00     0.031 C 
ATOM     58  C   UNL     1      -2.064 -15.879  18.643  1.00  0.00     0.029 A 
ATOM     59  C   UNL     1      -1.258 -14.753  18.685  1.00  0.00     0.049 A 
ATOM     60  H   UNL     1      -0.683 -13.465  17.118  1.00  0.00     0.167 HD
ATOM     61  C   UNL     1       0.170 -13.048  19.774  1.00  0.00     0.074 A 
ATOM     62  C   UNL     1       0.822 -12.463  20.928  1.00  0.00     0.031 C 
ATOM     63  C   UNL     1      -0.598 -14.163  19.818  1.00  0.00     0.037 A 
BRANCH  50  64
ATOM     64  C   UNL     1      -2.994 -15.738  14.362  1.00  0.00     0.057 A 
ATOM     65  C   UNL     1      -2.457 -16.776  13.591  1.00  0.00     0.134 A 
ATOM     66  C   UNL     1      -4.385 -15.597  14.392  1.00  0.00     0.134 A 
ATOM     67  F   UNL     1      -1.128 -16.947  13.512  1.00  0.00    -0.206 F 
ATOM     68  C   UNL     1      -3.277 -17.640  12.866  1.00  0.00     0.040 A 
ATOM     69  C   UNL     1      -5.216 -16.461  13.679  1.00  0.00     0.040 A 
ATOM     70  F   UNL     1      -4.954 -14.616  15.108  1.00  0.00    -0.206 F 
ATOM     71  C   UNL     1      -4.662 -17.485  12.911  1.00  0.00     0.006 A 
ENDBRANCH  50  64
BRANCH  51  72
ATOM     72  C   UNL     1       2.762  -9.193  19.138  1.00  0.00     0.057 A 
ATOM     73  C   UNL     1       4.051  -9.524  19.568  1.00  0.00     0.134 A 
ATOM     74  C   UNL     1       2.280  -7.915  19.442  1.00  0.00     0.134 A 
ATOM     75  F   UNL     1       4.553 -10.742  19.321  1.00  0.00    -0.206 F 
ATOM     76  C   UNL     1       4.831  -8.619  20.288  1.00  0.00     0.040 A 
ATOM     77  C   UNL     1       3.054  -6.997  20.152  1.00  0.00     0.040 A 
ATOM     78  F   UNL     1       1.050  -7.547  19.057  1.00  0.00    -0.206 F 
ATOM     79  C   UNL     1       4.333  -7.350  20.581  1.00  0.00     0.006 A 
ENDBRANCH  51  72
BRANCH  63  80
ATOM     80  C   UNL     1      -0.762 -14.828  21.148  1.00  0.00     0.057 A 
ATOM     81  C   UNL     1      -1.672 -14.347  22.096  1.00  0.00     0.134 A 
ATOM     82  C   UNL     1      -0.035 -15.981  21.466  1.00  0.00     0.134 A 
ATOM     83  F   UNL     1      -2.388 -13.240  21.849  1.00  0.00    -0.206 F 
ATOM     84  C   UNL     1      -1.847 -14.987  23.323  1.00  0.00     0.040 A 
ATOM     85  C   UNL     1      -0.210 -16.636  22.686  1.00  0.00     0.040 A 
ATOM     86  F   UNL     1       0.850 -16.490  20.596  1.00  0.00    -0.206 F 
ATOM     87  C   UNL     1      -1.118 -16.137  23.619  1.00  0.00     0.006 A 
ENDBRANCH  63  80
ENDBRANCH  37  38
ENDBRANCH  30  32
ENDBRANCH  29  30
ENDBRANCH  28  29
ENDBRANCH  27  28
ENDBRANCH   1  27
TORSDOF 17
