REMARK SMILES COc1ccc(Cn2c(SCCC(=O)OCCOCCOC(=O)c3ccc(-c4c5nc(c(-c6c(F)cccc6F)c6ccc([nH]6)c(-c6c(F)cccc6F)c6nc(c(-c7c(F)cccc7F)c7ccc4[nH]7)C=C6)C=C5)cc3)nc3ccc(Cl)cc3c2=O)cc1
REMARK SMILES IDX 16 1 15 2 13 3 14 4 12 5 11 6 10 7 9 8 8 9 86 10 78 11 85 12
REMARK SMILES IDX 87 13 79 14 84 15 80 16 82 17 81 18 83 19 7 20 6 21 3 22
REMARK SMILES IDX 4 23 89 24 5 25 88 26 2 27 1 28 17 29 18 30 19 31 20 32
REMARK SMILES IDX 21 33 22 34 23 35 24 36 25 37 77 38 26 39 76 40 27 41 28 42
REMARK SMILES IDX 29 43 70 44 30 45 75 46 69 47 71 48 31 49 74 50 68 51 67 52
REMARK SMILES IDX 32 54 58 55 41 56 57 57 42 58 45 59 56 60 72 61 43 62 44 63
REMARK SMILES IDX 55 65 73 66 46 67 33 68 34 69 39 70 35 71 36 72 38 73 40 74
REMARK SMILES IDX 37 75 59 76 60 77 65 78 61 79 62 80 64 81 66 82 63 83 47 84
REMARK SMILES IDX 48 85 53 86 49 87 50 88 52 89 54 90 51 91
REMARK H PARENT 71 53 45 64
REMARK Flexibility Score: inf
ROOT
ATOM      1  C   UNL     1       3.164  -4.684   7.913  1.00  0.00     0.261 C 
ENDROOT
BRANCH   1   2
ATOM      2  O   UNL     1       3.829  -4.133   6.754  1.00  0.00    -0.463 OA
BRANCH   2   3
ATOM      3  C   UNL     1       4.429  -5.014   5.919  1.00  0.00     0.306 C 
ATOM      4  O   UNL     1       4.248  -6.226   5.945  1.00  0.00    -0.252 OA
BRANCH   3   5
ATOM      5  C   UNL     1       5.440  -4.397   4.971  1.00  0.00     0.134 C 
BRANCH   5   6
ATOM      6  C   UNL     1       5.531  -2.893   4.772  1.00  0.00     0.090 C 
BRANCH   6   7
ATOM      7  S   UNL     1       5.932  -1.996   6.242  1.00  0.00    -0.087 SA
BRANCH   7   8
ATOM      8  C   UNL     1       4.580  -1.104   6.901  1.00  0.00     0.171 A 
ATOM      9  N   UNL     1       3.454  -0.648   6.215  1.00  0.00    -0.283 N 
ATOM     10  C   UNL     1       2.772   0.453   6.751  1.00  0.00     0.262 A 
ATOM     11  N   UNL     1       4.892  -0.728   8.101  1.00  0.00    -0.224 NA
ATOM     12  C   UNL     1       3.359   1.118   7.916  1.00  0.00     0.067 A 
ATOM     13  O   UNL     1       1.673   0.866   6.392  1.00  0.00    -0.269 OA
ATOM     14  C   UNL     1       4.287   0.394   8.642  1.00  0.00     0.079 A 
ATOM     15  C   UNL     1       2.999   2.413   8.288  1.00  0.00     0.036 A 
ATOM     16  C   UNL     1       4.810   0.933   9.817  1.00  0.00     0.031 A 
ATOM     17  C   UNL     1       3.594   2.977   9.412  1.00  0.00     0.042 A 
ATOM     18  C   UNL     1       4.474   2.233  10.198  1.00  0.00     0.023 A 
ATOM     19  Cl  UNL     1       3.288   4.623   9.796  1.00  0.00    -0.084 Cl
BRANCH   9  20
ATOM     20  C   UNL     1       2.611  -1.522   5.389  1.00  0.00     0.163 C 
BRANCH  20  21
ATOM     21  C   UNL     1       2.025  -1.037   4.071  1.00  0.00    -0.028 A 
ATOM     22  C   UNL     1       0.801  -0.255   1.629  1.00  0.00     0.118 A 
ATOM     23  C   UNL     1       0.147  -0.063   2.841  1.00  0.00     0.047 A 
ATOM     24  C   UNL     1       2.042  -0.883   1.629  1.00  0.00     0.047 A 
ATOM     25  C   UNL     1       0.743  -0.463   4.040  1.00  0.00     0.009 A 
ATOM     26  C   UNL     1       2.651  -1.258   2.837  1.00  0.00     0.009 A 
BRANCH  22  27
ATOM     27  O   UNL     1       0.126   0.192   0.528  1.00  0.00    -0.497 OA
ATOM     28  C   UNL     1       0.859   0.244  -0.690  1.00  0.00     0.278 C 
ENDBRANCH  22  27
ENDBRANCH  20  21
ENDBRANCH   9  20
ENDBRANCH   7   8
ENDBRANCH   6   7
ENDBRANCH   5   6
ENDBRANCH   3   5
ENDBRANCH   2   3
ENDBRANCH   1   2
BRANCH   1  29
ATOM     29  C   UNL     1       1.682  -4.313   7.949  1.00  0.00     0.202 C 
BRANCH  29  30
ATOM     30  O   UNL     1       0.898  -5.114   7.062  1.00  0.00    -0.374 OA
BRANCH  30  31
ATOM     31  C   UNL     1       0.517  -4.486   5.838  1.00  0.00     0.202 C 
BRANCH  31  32
ATOM     32  C   UNL     1      -0.726  -3.594   5.976  1.00  0.00     0.261 C 
BRANCH  32  33
ATOM     33  O   UNL     1      -0.458  -2.482   6.852  1.00  0.00    -0.460 OA
BRANCH  33  34
ATOM     34  C   UNL     1      -1.401  -2.230   7.785  1.00  0.00     0.338 C 
ATOM     35  O   UNL     1      -2.513  -2.734   7.876  1.00  0.00    -0.246 OA
BRANCH  34  36
ATOM     36  C   UNL     1      -0.836  -1.340   8.813  1.00  0.00     0.060 A 
ATOM     37  C   UNL     1      -0.698  -1.838  10.111  1.00  0.00     0.016 A 
ATOM     38  C   UNL     1      -0.515  -0.012   8.532  1.00  0.00     0.016 A 
ATOM     39  C   UNL     1      -0.286  -0.990  11.143  1.00  0.00     0.010 A 
ATOM     40  C   UNL     1      -0.072   0.826   9.565  1.00  0.00     0.010 A 
ATOM     41  C   UNL     1       0.001   0.361  10.890  1.00  0.00    -0.014 A 
BRANCH  41  42
ATOM     42  C   UNL     1       0.223   1.297  12.033  1.00  0.00     0.031 A 
ATOM     43  C   UNL     1      -0.819   2.342  12.355  1.00  0.00     0.074 A 
ATOM     44  C   UNL     1       1.305   1.189  12.829  1.00  0.00     0.049 A 
ATOM     45  N   UNL     1      -0.871   3.183  13.361  1.00  0.00    -0.248 NA
ATOM     46  C   UNL     1      -1.949   2.462  11.421  1.00  0.00     0.031 C 
ATOM     47  C   UNL     1       2.402   0.239  12.649  1.00  0.00     0.029 A 
ATOM     48  N   UNL     1       1.651   1.884  13.965  1.00  0.00    -0.354 N 
ATOM     49  C   UNL     1      -2.035   3.921  13.178  1.00  0.00     0.074 A 
ATOM     50  C   UNL     1      -2.620   3.482  11.931  1.00  0.00     0.031 C 
ATOM     51  C   UNL     1       3.287   0.397  13.649  1.00  0.00     0.029 A 
ATOM     52  C   UNL     1       2.830   1.466  14.535  1.00  0.00     0.049 A 
ATOM     53  H   UNL     1       1.104   2.613  14.336  1.00  0.00     0.167 HD
ATOM     54  C   UNL     1      -2.599   4.850  13.988  1.00  0.00     0.037 A 
ATOM     55  C   UNL     1       3.465   1.885  15.649  1.00  0.00     0.037 A 
ATOM     56  C   UNL     1      -2.046   5.287  15.241  1.00  0.00     0.049 A 
ATOM     57  C   UNL     1       2.844   2.956  16.512  1.00  0.00     0.074 A 
ATOM     58  C   UNL     1      -2.573   6.190  16.148  1.00  0.00     0.029 A 
ATOM     59  N   UNL     1      -0.838   4.855  15.762  1.00  0.00    -0.354 N 
ATOM     60  N   UNL     1       1.700   3.579  16.367  1.00  0.00    -0.248 NA
ATOM     61  C   UNL     1       3.600   3.367  17.707  1.00  0.00     0.031 C 
ATOM     62  C   UNL     1      -1.662   6.339  17.198  1.00  0.00     0.029 A 
ATOM     63  C   UNL     1      -0.591   5.491  16.968  1.00  0.00     0.049 A 
ATOM     64  H   UNL     1      -0.243   4.195  15.339  1.00  0.00     0.167 HD
ATOM     65  C   UNL     1       1.582   4.422  17.468  1.00  0.00     0.074 A 
ATOM     66  C   UNL     1       2.765   4.225  18.276  1.00  0.00     0.031 C 
ATOM     67  C   UNL     1       0.579   5.279  17.780  1.00  0.00     0.037 A 
BRANCH  54  68
ATOM     68  C   UNL     1      -3.901   5.449  13.539  1.00  0.00     0.057 A 
ATOM     69  C   UNL     1      -5.088   4.702  13.528  1.00  0.00     0.134 A 
ATOM     70  C   UNL     1      -3.974   6.784  13.126  1.00  0.00     0.134 A 
ATOM     71  F   UNL     1      -5.083   3.413  13.902  1.00  0.00    -0.206 F 
ATOM     72  C   UNL     1      -6.292   5.252  13.087  1.00  0.00     0.040 A 
ATOM     73  C   UNL     1      -5.179   7.353  12.710  1.00  0.00     0.040 A 
ATOM     74  F   UNL     1      -2.878   7.558  13.122  1.00  0.00    -0.206 F 
ATOM     75  C   UNL     1      -6.340   6.583  12.680  1.00  0.00     0.006 A 
ENDBRANCH  54  68
BRANCH  55  76
ATOM     76  C   UNL     1       4.763   1.279  16.044  1.00  0.00     0.057 A 
ATOM     77  C   UNL     1       4.874   0.480  17.189  1.00  0.00     0.134 A 
ATOM     78  C   UNL     1       5.933   1.527  15.316  1.00  0.00     0.134 A 
ATOM     79  F   UNL     1       3.793   0.226  17.941  1.00  0.00    -0.206 F 
ATOM     80  C   UNL     1       6.104  -0.025  17.613  1.00  0.00     0.040 A 
ATOM     81  C   UNL     1       7.166   1.008  15.716  1.00  0.00     0.040 A 
ATOM     82  F   UNL     1       5.894   2.279  14.206  1.00  0.00    -0.206 F 
ATOM     83  C   UNL     1       7.255   0.238  16.874  1.00  0.00     0.006 A 
ENDBRANCH  55  76
BRANCH  67  84
ATOM     84  C   UNL     1       0.685   6.042  19.070  1.00  0.00     0.057 A 
ATOM     85  C   UNL     1       1.597   7.091  19.239  1.00  0.00     0.134 A 
ATOM     86  C   UNL     1      -0.177   5.758  20.137  1.00  0.00     0.134 A 
ATOM     87  F   UNL     1       2.459   7.407  18.261  1.00  0.00    -0.206 F 
ATOM     88  C   UNL     1       1.659   7.819  20.429  1.00  0.00     0.040 A 
ATOM     89  C   UNL     1      -0.142   6.496  21.322  1.00  0.00     0.040 A 
ATOM     90  F   UNL     1      -1.082   4.772  20.040  1.00  0.00    -0.206 F 
ATOM     91  C   UNL     1       0.782   7.528  21.472  1.00  0.00     0.006 A 
ENDBRANCH  67  84
ENDBRANCH  41  42
ENDBRANCH  34  36
ENDBRANCH  33  34
ENDBRANCH  32  33
ENDBRANCH  31  32
ENDBRANCH  30  31
ENDBRANCH  29  30
ENDBRANCH   1  29
TORSDOF 20
