REMARK SMILES O=C(Cc1ccc(=O)n(C(F)F)c1)OCCOCCOC(=O)c1ccc(-c2c3nc(c(-c4c(F)cccc4F)c4ccc([nH]4)c(-c4c(F)cccc4F)c4nc(c(-c5c(F)cccc5F)c5ccc2[nH]5)C=C4)C=C3)cc1
REMARK SMILES IDX 17 1 16 2 15 3 14 4 2 5 1 6 3 7 4 8 5 9 13 10 6 11 9 12 7 13
REMARK SMILES IDX 8 14 10 15 11 16 12 17 18 18 19 19 20 20 21 21 22 22 23 23
REMARK SMILES IDX 24 24 76 25 25 26 75 27 26 28 27 29 28 30 69 31 29 32 74 33
REMARK SMILES IDX 68 34 70 35 30 36 73 37 67 38 66 39 31 41 57 42 40 43 56 44
REMARK SMILES IDX 41 45 44 46 55 47 71 48 42 49 43 50 54 52 72 53 45 54 32 55
REMARK SMILES IDX 33 56 38 57 34 58 35 59 37 60 39 61 36 62 58 63 59 64 64 65
REMARK SMILES IDX 60 66 61 67 63 68 65 69 62 70 46 71 47 72 52 73 48 74 49 75
REMARK SMILES IDX 51 76 53 77 50 78
REMARK H PARENT 70 40 44 51
REMARK Flexibility Score: inf
ROOT
ATOM      1  O   UNL     1       4.142  -0.542   1.809  1.00  0.00    -0.374 OA
ENDROOT
BRANCH   1   2
ATOM      2  C   UNL     1       4.910   0.373   1.045  1.00  0.00     0.202 C 
BRANCH   2   3
ATOM      3  C   UNL     1       4.394   0.769  -0.338  1.00  0.00     0.261 C 
BRANCH   3   4
ATOM      4  O   UNL     1       2.973   0.892  -0.484  1.00  0.00    -0.463 OA
BRANCH   4   5
ATOM      5  C   UNL     1       2.173  -0.099  -0.957  1.00  0.00     0.310 C 
ATOM      6  O   UNL     1       1.041   0.164  -1.359  1.00  0.00    -0.252 OA
BRANCH   5   7
ATOM      7  C   UNL     1       2.674  -1.532  -0.911  1.00  0.00     0.159 C 
BRANCH   7   8
ATOM      8  C   UNL     1       3.524  -2.043  -2.043  1.00  0.00    -0.020 A 
ATOM      9  C   UNL     1       4.040  -1.172  -3.079  1.00  0.00     0.011 A 
ATOM     10  C   UNL     1       3.862  -3.344  -2.079  1.00  0.00     0.099 A 
ATOM     11  C   UNL     1       4.946  -1.612  -3.960  1.00  0.00     0.072 A 
ATOM     12  N   UNL     1       4.729  -3.846  -3.033  1.00  0.00    -0.258 N 
ATOM     13  C   UNL     1       5.356  -3.042  -3.969  1.00  0.00     0.254 A 
ATOM     14  O   UNL     1       6.183  -3.407  -4.797  1.00  0.00    -0.269 OA
BRANCH  12  15
ATOM     15  C   UNL     1       4.942  -5.266  -3.139  1.00  0.00     0.451 C 
ATOM     16  F   UNL     1       4.359  -5.740  -4.268  1.00  0.00    -0.185 F 
ATOM     17  F   UNL     1       6.257  -5.582  -3.181  1.00  0.00    -0.185 F 
ENDBRANCH  12  15
ENDBRANCH   7   8
ENDBRANCH   5   7
ENDBRANCH   4   5
ENDBRANCH   3   4
ENDBRANCH   2   3
ENDBRANCH   1   2
BRANCH   1  18
ATOM     18  C   UNL     1       2.931  -0.072   2.409  1.00  0.00     0.202 C 
BRANCH  18  19
ATOM     19  C   UNL     1       3.061   0.977   3.517  1.00  0.00     0.261 C 
BRANCH  19  20
ATOM     20  O   UNL     1       3.343   2.276   2.969  1.00  0.00    -0.460 OA
BRANCH  20  21
ATOM     21  C   UNL     1       4.549   2.806   3.283  1.00  0.00     0.338 C 
ATOM     22  O   UNL     1       5.410   2.323   4.000  1.00  0.00    -0.246 OA
BRANCH  21  23
ATOM     23  C   UNL     1       4.770   3.978   2.419  1.00  0.00     0.060 A 
ATOM     24  C   UNL     1       3.833   5.011   2.375  1.00  0.00     0.016 A 
ATOM     25  C   UNL     1       5.943   4.040   1.654  1.00  0.00     0.016 A 
ATOM     26  C   UNL     1       4.088   6.128   1.583  1.00  0.00     0.010 A 
ATOM     27  C   UNL     1       6.193   5.157   0.858  1.00  0.00     0.010 A 
ATOM     28  C   UNL     1       5.277   6.217   0.838  1.00  0.00    -0.014 A 
BRANCH  28  29
ATOM     29  C   UNL     1       5.621   7.486   0.158  1.00  0.00     0.031 A 
ATOM     30  C   UNL     1       5.487   7.639  -1.325  1.00  0.00     0.074 A 
ATOM     31  C   UNL     1       6.068   8.505   0.917  1.00  0.00     0.049 A 
ATOM     32  N   UNL     1       5.705   8.697  -2.063  1.00  0.00    -0.248 NA
ATOM     33  C   UNL     1       5.055   6.453  -2.079  1.00  0.00     0.031 C 
ATOM     34  C   UNL     1       6.256   8.450   2.369  1.00  0.00     0.029 A 
ATOM     35  N   UNL     1       6.440   9.779   0.580  1.00  0.00    -0.354 N 
ATOM     36  C   UNL     1       5.422   8.314  -3.367  1.00  0.00     0.074 A 
ATOM     37  C   UNL     1       5.056   6.913  -3.325  1.00  0.00     0.031 C 
ATOM     38  C   UNL     1       6.689   9.645   2.800  1.00  0.00     0.029 A 
ATOM     39  C   UNL     1       6.842  10.535   1.655  1.00  0.00     0.049 A 
ATOM     40  H   UNL     1       6.421  10.121  -0.343  1.00  0.00     0.167 HD
ATOM     41  C   UNL     1       5.455   9.072  -4.490  1.00  0.00     0.037 A 
ATOM     42  C   UNL     1       7.293  11.801   1.705  1.00  0.00     0.037 A 
ATOM     43  C   UNL     1       5.840  10.461  -4.519  1.00  0.00     0.049 A 
ATOM     44  C   UNL     1       7.379  12.592   0.429  1.00  0.00     0.074 A 
ATOM     45  C   UNL     1       5.877  11.323  -5.602  1.00  0.00     0.029 A 
ATOM     46  N   UNL     1       6.268  11.188  -3.417  1.00  0.00    -0.354 N 
ATOM     47  N   UNL     1       7.036  12.242  -0.787  1.00  0.00    -0.248 NA
ATOM     48  C   UNL     1       7.911  13.958   0.533  1.00  0.00     0.031 C 
ATOM     49  C   UNL     1       6.383  12.552  -5.168  1.00  0.00     0.029 A 
ATOM     50  C   UNL     1       6.600  12.477  -3.801  1.00  0.00     0.049 A 
ATOM     51  H   UNL     1       6.328  10.839  -2.499  1.00  0.00     0.167 HD
ATOM     52  C   UNL     1       7.269  13.356  -1.582  1.00  0.00     0.074 A 
ATOM     53  C   UNL     1       7.773  14.395  -0.709  1.00  0.00     0.031 C 
ATOM     54  C   UNL     1       7.080  13.507  -2.915  1.00  0.00     0.037 A 
BRANCH  41  55
ATOM     55  C   UNL     1       5.076   8.419  -5.787  1.00  0.00     0.057 A 
ATOM     56  C   UNL     1       6.033   8.203  -6.787  1.00  0.00     0.134 A 
ATOM     57  C   UNL     1       3.750   8.072  -6.078  1.00  0.00     0.134 A 
ATOM     58  F   UNL     1       7.320   8.522  -6.579  1.00  0.00    -0.206 F 
ATOM     59  C   UNL     1       5.685   7.673  -8.030  1.00  0.00     0.040 A 
ATOM     60  C   UNL     1       3.393   7.518  -7.309  1.00  0.00     0.040 A 
ATOM     61  F   UNL     1       2.785   8.248  -5.163  1.00  0.00    -0.206 F 
ATOM     62  C   UNL     1       4.362   7.325  -8.293  1.00  0.00     0.006 A 
ENDBRANCH  41  55
BRANCH  42  63
ATOM     63  C   UNL     1       7.705  12.407   2.997  1.00  0.00     0.057 A 
ATOM     64  C   UNL     1       8.840  11.959   3.683  1.00  0.00     0.134 A 
ATOM     65  C   UNL     1       7.007  13.490   3.545  1.00  0.00     0.134 A 
ATOM     66  F   UNL     1       9.546  10.918   3.218  1.00  0.00    -0.206 F 
ATOM     67  C   UNL     1       9.274  12.572   4.858  1.00  0.00     0.040 A 
ATOM     68  C   UNL     1       7.448  14.134   4.702  1.00  0.00     0.040 A 
ATOM     69  F   UNL     1       5.919  13.975   2.927  1.00  0.00    -0.206 F 
ATOM     70  C   UNL     1       8.586  13.675   5.362  1.00  0.00     0.006 A 
ENDBRANCH  42  63
BRANCH  54  71
ATOM     71  C   UNL     1       7.358  14.862  -3.498  1.00  0.00     0.057 A 
ATOM     72  C   UNL     1       6.304  15.663  -3.960  1.00  0.00     0.134 A 
ATOM     73  C   UNL     1       8.658  15.364  -3.633  1.00  0.00     0.134 A 
ATOM     74  F   UNL     1       5.035  15.239  -3.867  1.00  0.00    -0.206 F 
ATOM     75  C   UNL     1       6.535  16.910  -4.539  1.00  0.00     0.040 A 
ATOM     76  C   UNL     1       8.899  16.625  -4.183  1.00  0.00     0.040 A 
ATOM     77  F   UNL     1       9.710  14.656  -3.196  1.00  0.00    -0.206 F 
ATOM     78  C   UNL     1       7.835  17.398  -4.645  1.00  0.00     0.006 A 
ENDBRANCH  54  71
ENDBRANCH  28  29
ENDBRANCH  21  23
ENDBRANCH  20  21
ENDBRANCH  19  20
ENDBRANCH  18  19
ENDBRANCH   1  18
TORSDOF 16
