REMARK SMILES Cc1cccc(C(=O)OCCOCCOC(=O)c2ccc(-c3c4nc(c(-c5c(F)cccc5F)c5ccc([nH]5)c(-c5c(F)cccc5F)c5nc(c(-c6c(F)cccc6F)c6ccc3[nH]6)C=C5)C=C4)cc2)c1NC(=O)Cc1ccccc1
REMARK SMILES IDX 11 1 10 2 9 3 7 4 8 5 6 6 1 7 2 8 3 9 72 10 4 11 5 12 73 13
REMARK SMILES IDX 74 14 75 16 76 17 77 18 78 19 82 20 79 21 81 22 80 23 12 24
REMARK SMILES IDX 13 25 14 26 15 27 16 28 17 29 18 30 19 31 71 32 20 33 70 34
REMARK SMILES IDX 21 35 22 36 23 37 64 38 24 39 69 40 63 41 65 42 25 43 68 44
REMARK SMILES IDX 62 45 61 46 26 48 52 49 35 50 51 51 36 52 39 53 50 54 66 55
REMARK SMILES IDX 37 56 38 57 49 59 67 60 40 61 27 62 28 63 33 64 29 65 30 66
REMARK SMILES IDX 32 67 34 68 31 69 53 70 54 71 59 72 55 73 56 74 58 75 60 76
REMARK SMILES IDX 57 77 41 78 42 79 47 80 43 81 44 82 46 83 48 84 45 85
REMARK H PARENT 73 15 65 47 39 58
REMARK Flexibility Score: inf
ROOT
ATOM      1  C   UNL     1      -2.431   2.710  -1.330  1.00  0.00     0.202 C 
ENDROOT
BRANCH   1   2
ATOM      2  C   UNL     1      -2.388   3.011   0.155  1.00  0.00     0.261 C 
BRANCH   2   3
ATOM      3  O   UNL     1      -1.170   2.604   0.721  1.00  0.00    -0.460 OA
BRANCH   3   4
ATOM      4  C   UNL     1      -1.296   1.308   0.934  1.00  0.00     0.340 C 
ATOM      5  O   UNL     1      -2.123   0.758   1.683  1.00  0.00    -0.246 OA
BRANCH   4   6
ATOM      6  C   UNL     1      -0.510   0.634  -0.091  1.00  0.00     0.083 A 
ATOM      7  C   UNL     1       3.169  -0.006  -0.335  1.00  0.00     0.046 C 
ATOM      8  C   UNL     1       1.670  -0.068  -0.485  1.00  0.00    -0.027 A 
ATOM      9  C   UNL     1       1.179  -1.411  -0.586  1.00  0.00     0.005 A 
ATOM     10  C   UNL     1       0.799   1.052  -0.405  1.00  0.00     0.058 A 
ATOM     11  C   UNL     1      -0.170  -1.710  -0.583  1.00  0.00     0.001 A 
ATOM     12  C   UNL     1      -1.024  -0.675  -0.311  1.00  0.00     0.018 A 
BRANCH  10  13
ATOM     13  N   UNL     1       1.388   2.384  -0.493  1.00  0.00    -0.325 N 
ATOM     14  C   UNL     1       1.288   3.737  -0.767  1.00  0.00     0.228 C 
ATOM     15  H   UNL     1       2.326   2.257  -0.223  1.00  0.00     0.169 HD
ATOM     16  O   UNL     1       2.368   4.316  -0.527  1.00  0.00    -0.274 OA
BRANCH  14  17
ATOM     17  C   UNL     1       0.235   4.587  -1.514  1.00  0.00     0.135 C 
BRANCH  17  18
ATOM     18  C   UNL     1       0.047   6.104  -1.208  1.00  0.00    -0.039 A 
ATOM     19  C   UNL     1      -0.867   6.531  -0.242  1.00  0.00     0.004 A 
ATOM     20  C   UNL     1       0.609   7.145  -1.961  1.00  0.00     0.004 A 
ATOM     21  C   UNL     1      -1.139   7.874   0.069  1.00  0.00     0.000 A 
ATOM     22  C   UNL     1       0.272   8.507  -1.725  1.00  0.00     0.000 A 
ATOM     23  C   UNL     1      -0.594   8.875  -0.701  1.00  0.00     0.000 A 
ENDBRANCH  17  18
ENDBRANCH  14  17
ENDBRANCH  10  13
ENDBRANCH   4   6
ENDBRANCH   3   4
ENDBRANCH   2   3
ENDBRANCH   1   2
BRANCH   1  24
ATOM     24  O   UNL     1      -3.492   1.864  -1.716  1.00  0.00    -0.374 OA
BRANCH  24  25
ATOM     25  C   UNL     1      -3.483   1.644  -3.137  1.00  0.00     0.202 C 
BRANCH  25  26
ATOM     26  C   UNL     1      -3.342   2.925  -4.001  1.00  0.00     0.261 C 
BRANCH  26  27
ATOM     27  O   UNL     1      -4.430   3.819  -3.666  1.00  0.00    -0.460 OA
BRANCH  27  28
ATOM     28  C   UNL     1      -4.099   5.098  -3.338  1.00  0.00     0.338 C 
ATOM     29  O   UNL     1      -3.300   5.795  -3.947  1.00  0.00    -0.246 OA
BRANCH  28  30
ATOM     30  C   UNL     1      -4.594   5.412  -1.953  1.00  0.00     0.060 A 
ATOM     31  C   UNL     1      -4.187   6.585  -1.301  1.00  0.00     0.016 A 
ATOM     32  C   UNL     1      -5.157   4.397  -1.187  1.00  0.00     0.016 A 
ATOM     33  C   UNL     1      -4.113   6.635   0.108  1.00  0.00     0.010 A 
ATOM     34  C   UNL     1      -4.979   4.420   0.195  1.00  0.00     0.010 A 
ATOM     35  C   UNL     1      -4.316   5.483   0.850  1.00  0.00    -0.014 A 
BRANCH  35  36
ATOM     36  C   UNL     1      -3.943   5.267   2.284  1.00  0.00     0.031 A 
ATOM     37  C   UNL     1      -5.113   5.009   3.186  1.00  0.00     0.074 A 
ATOM     38  C   UNL     1      -2.745   4.774   2.752  1.00  0.00     0.049 A 
ATOM     39  N   UNL     1      -5.035   4.630   4.420  1.00  0.00    -0.248 NA
ATOM     40  C   UNL     1      -6.503   5.177   2.741  1.00  0.00     0.031 C 
ATOM     41  C   UNL     1      -2.695   3.518   3.527  1.00  0.00     0.029 A 
ATOM     42  N   UNL     1      -1.375   5.064   2.609  1.00  0.00    -0.354 N 
ATOM     43  C   UNL     1      -6.241   4.032   4.689  1.00  0.00     0.074 A 
ATOM     44  C   UNL     1      -7.167   4.610   3.752  1.00  0.00     0.031 C 
ATOM     45  C   UNL     1      -1.445   3.247   3.911  1.00  0.00     0.029 A 
ATOM     46  C   UNL     1      -0.603   4.357   3.549  1.00  0.00     0.049 A 
ATOM     47  H   UNL     1      -1.004   5.683   1.939  1.00  0.00     0.167 HD
ATOM     48  C   UNL     1      -6.289   2.937   5.495  1.00  0.00     0.037 A 
ATOM     49  C   UNL     1       0.477   4.794   4.257  1.00  0.00     0.037 A 
ATOM     50  C   UNL     1      -5.024   2.671   6.182  1.00  0.00     0.049 A 
ATOM     51  C   UNL     1       0.243   4.676   5.741  1.00  0.00     0.074 A 
ATOM     52  C   UNL     1      -4.148   1.601   6.199  1.00  0.00     0.029 A 
ATOM     53  N   UNL     1      -4.391   3.700   6.877  1.00  0.00    -0.354 N 
ATOM     54  N   UNL     1      -0.738   3.981   6.240  1.00  0.00    -0.248 NA
ATOM     55  C   UNL     1       0.955   5.422   6.779  1.00  0.00     0.031 C 
ATOM     56  C   UNL     1      -2.966   2.015   6.875  1.00  0.00     0.029 A 
ATOM     57  C   UNL     1      -3.130   3.324   7.302  1.00  0.00     0.049 A 
ATOM     58  H   UNL     1      -4.791   4.583   7.044  1.00  0.00     0.167 HD
ATOM     59  C   UNL     1      -1.028   4.457   7.484  1.00  0.00     0.074 A 
ATOM     60  C   UNL     1       0.147   5.228   7.838  1.00  0.00     0.031 C 
ATOM     61  C   UNL     1      -2.272   4.273   8.020  1.00  0.00     0.037 A 
BRANCH  48  62
ATOM     62  C   UNL     1      -7.460   1.984   5.542  1.00  0.00     0.057 A 
ATOM     63  C   UNL     1      -7.635   1.143   6.655  1.00  0.00     0.134 A 
ATOM     64  C   UNL     1      -8.400   1.790   4.507  1.00  0.00     0.134 A 
ATOM     65  F   UNL     1      -6.783   1.179   7.690  1.00  0.00    -0.206 F 
ATOM     66  C   UNL     1      -8.690   0.226   6.754  1.00  0.00     0.040 A 
ATOM     67  C   UNL     1      -9.496   0.925   4.622  1.00  0.00     0.040 A 
ATOM     68  F   UNL     1      -8.276   2.382   3.311  1.00  0.00    -0.206 F 
ATOM     69  C   UNL     1      -9.645   0.136   5.750  1.00  0.00     0.006 A 
ENDBRANCH  48  62
BRANCH  49  70
ATOM     70  C   UNL     1       1.363   5.766   3.590  1.00  0.00     0.057 A 
ATOM     71  C   UNL     1       2.484   5.274   2.905  1.00  0.00     0.134 A 
ATOM     72  C   UNL     1       0.923   7.051   3.268  1.00  0.00     0.134 A 
ATOM     73  F   UNL     1       2.999   4.075   3.218  1.00  0.00    -0.206 F 
ATOM     74  C   UNL     1       3.030   5.960   1.820  1.00  0.00     0.040 A 
ATOM     75  C   UNL     1       1.453   7.737   2.174  1.00  0.00     0.040 A 
ATOM     76  F   UNL     1      -0.113   7.597   3.920  1.00  0.00    -0.206 F 
ATOM     77  C   UNL     1       2.463   7.162   1.408  1.00  0.00     0.006 A 
ENDBRANCH  49  70
BRANCH  61  78
ATOM     78  C   UNL     1      -2.773   4.961   9.265  1.00  0.00     0.057 A 
ATOM     79  C   UNL     1      -2.311   6.199   9.738  1.00  0.00     0.134 A 
ATOM     80  C   UNL     1      -3.834   4.400  10.007  1.00  0.00     0.134 A 
ATOM     81  F   UNL     1      -1.431   6.936   9.047  1.00  0.00    -0.206 F 
ATOM     82  C   UNL     1      -2.771   6.768  10.933  1.00  0.00     0.040 A 
ATOM     83  C   UNL     1      -4.348   4.991  11.164  1.00  0.00     0.040 A 
ATOM     84  F   UNL     1      -4.427   3.256   9.633  1.00  0.00    -0.206 F 
ATOM     85  C   UNL     1      -3.791   6.161  11.653  1.00  0.00     0.006 A 
ENDBRANCH  61  78
ENDBRANCH  35  36
ENDBRANCH  28  30
ENDBRANCH  27  28
ENDBRANCH  26  27
ENDBRANCH  25  26
ENDBRANCH  24  25
ENDBRANCH   1  24
TORSDOF 17
