REMARK SMILES NC(=O)CC[C@H](C(=O)OCCOCCOC(=O)c1ccc(-c2c3nc(c(-c4c(F)cccc4F)c4ccc([nH]4)c(-c4c(F)cccc4F)c4nc(c(-c5c(F)cccc5F)c5ccc2[nH]5)C=C4)C=C3)cc1)N1C(=O)/C(=C/c2ccc(O)c(O)c2)SC1=S
REMARK SMILES IDX 11 1 10 2 9 3 7 4 8 5 6 6 5 7 4 8 2 9 1 10 3 13 72 14 73 15
REMARK SMILES IDX 86 16 74 17 75 18 85 19 87 20 76 21 77 22 78 23 84 24 79 25
REMARK SMILES IDX 82 26 80 27 83 28 81 30 12 32 13 33 14 34 15 35 16 36 17 37
REMARK SMILES IDX 18 38 19 39 71 40 20 41 70 42 21 43 22 44 23 45 64 46 24 47
REMARK SMILES IDX 69 48 63 49 65 50 25 51 68 52 62 53 61 54 26 56 52 57 35 58
REMARK SMILES IDX 51 59 36 60 39 61 50 62 66 63 37 64 38 65 49 67 67 68 40 69
REMARK SMILES IDX 27 70 28 71 33 72 29 73 30 74 32 75 34 76 31 77 53 78 54 79
REMARK SMILES IDX 59 80 55 81 56 82 58 83 60 84 57 85 41 86 42 87 47 88 43 89
REMARK SMILES IDX 44 90 46 91 48 92 45 93
REMARK H PARENT 1 11 1 12 83 29 81 31 65 55 39 66
REMARK Flexibility Score: inf
ROOT
ATOM      1  C   UNL     1      -0.528   3.840  -1.518  1.00  0.00     0.202 C 
ENDROOT
BRANCH   1   2
ATOM      2  C   UNL     1       0.446   4.571  -0.598  1.00  0.00     0.261 C 
BRANCH   2   3
ATOM      3  O   UNL     1       1.659   3.810  -0.484  1.00  0.00    -0.462 OA
BRANCH   3   4
ATOM      4  C   UNL     1       1.834   3.130   0.674  1.00  0.00     0.329 C 
ATOM      5  O   UNL     1       1.081   3.172   1.640  1.00  0.00    -0.250 OA
BRANCH   4   6
ATOM      6  C   UNL     1       3.148   2.340   0.686  1.00  0.00     0.202 C 
BRANCH   6   7
ATOM      7  C   UNL     1       3.848   1.906  -0.623  1.00  0.00     0.047 C 
BRANCH   7   8
ATOM      8  C   UNL     1       4.112   2.876  -1.769  1.00  0.00     0.102 C 
BRANCH   8   9
ATOM      9  C   UNL     1       5.193   3.882  -1.484  1.00  0.00     0.217 C 
ATOM     10  N   UNL     1       4.756   5.118  -1.138  1.00  0.00    -0.370 N 
ATOM     11  H   UNL     1       5.405   5.831  -0.936  1.00  0.00     0.159 HD
ATOM     12  H   UNL     1       3.791   5.303  -1.089  1.00  0.00     0.159 HD
ATOM     13  O   UNL     1       6.388   3.620  -1.544  1.00  0.00    -0.275 OA
ENDBRANCH   8   9
ENDBRANCH   7   8
ENDBRANCH   6   7
BRANCH   6  14
ATOM     14  N   UNL     1       4.019   2.868   1.746  1.00  0.00    -0.278 N 
ATOM     15  C   UNL     1       4.109   4.237   1.924  1.00  0.00     0.266 C 
ATOM     16  C   UNL     1       4.747   2.089   2.625  1.00  0.00     0.149 C 
ATOM     17  O   UNL     1       3.558   5.096   1.247  1.00  0.00    -0.268 OA
ATOM     18  C   UNL     1       4.950   4.553   3.097  1.00  0.00     0.081 C 
ATOM     19  S   UNL     1       5.618   3.120   3.754  1.00  0.00    -0.054 SA
ATOM     20  S   UNL     1       4.857   0.425   2.689  1.00  0.00    -0.052 S 
ATOM     21  C   UNL     1       5.079   5.817   3.516  1.00  0.00     0.029 C 
BRANCH  21  22
ATOM     22  C   UNL     1       5.937   6.275   4.606  1.00  0.00    -0.020 A 
ATOM     23  C   UNL     1       5.382   6.970   5.690  1.00  0.00     0.012 A 
ATOM     24  C   UNL     1       7.324   6.088   4.527  1.00  0.00     0.058 A 
ATOM     25  C   UNL     1       6.208   7.468   6.699  1.00  0.00     0.051 A 
ATOM     26  C   UNL     1       8.135   6.585   5.536  1.00  0.00     0.157 A 
ATOM     27  C   UNL     1       7.578   7.272   6.610  1.00  0.00     0.157 A 
BRANCH  26  28
ATOM     28  O   UNL     1       9.493   6.430   5.506  1.00  0.00    -0.504 OA
ATOM     29  H   UNL     1      10.019   6.775   6.200  1.00  0.00     0.293 HD
ENDBRANCH  26  28
BRANCH  27  30
ATOM     30  O   UNL     1       8.389   7.770   7.588  1.00  0.00    -0.504 OA
ATOM     31  H   UNL     1       8.019   8.234   8.313  1.00  0.00     0.293 HD
ENDBRANCH  27  30
ENDBRANCH  21  22
ENDBRANCH   6  14
ENDBRANCH   4   6
ENDBRANCH   3   4
ENDBRANCH   2   3
ENDBRANCH   1   2
BRANCH   1  32
ATOM     32  O   UNL     1      -1.097   2.656  -0.961  1.00  0.00    -0.374 OA
BRANCH  32  33
ATOM     33  C   UNL     1      -0.329   1.456  -1.044  1.00  0.00     0.202 C 
BRANCH  33  34
ATOM     34  C   UNL     1      -0.467   0.677  -2.353  1.00  0.00     0.261 C 
BRANCH  34  35
ATOM     35  O   UNL     1       0.218   1.351  -3.426  1.00  0.00    -0.460 OA
BRANCH  35  36
ATOM     36  C   UNL     1      -0.591   2.019  -4.279  1.00  0.00     0.338 C 
ATOM     37  O   UNL     1      -1.814   2.050  -4.265  1.00  0.00    -0.246 OA
BRANCH  36  38
ATOM     38  C   UNL     1       0.209   2.881  -5.167  1.00  0.00     0.060 A 
ATOM     39  C   UNL     1      -0.239   4.194  -5.368  1.00  0.00     0.016 A 
ATOM     40  C   UNL     1       1.323   2.397  -5.857  1.00  0.00     0.016 A 
ATOM     41  C   UNL     1       0.377   5.005  -6.317  1.00  0.00     0.010 A 
ATOM     42  C   UNL     1       1.936   3.209  -6.814  1.00  0.00     0.010 A 
ATOM     43  C   UNL     1       1.434   4.496  -7.081  1.00  0.00    -0.014 A 
BRANCH  43  44
ATOM     44  C   UNL     1       1.886   5.228  -8.287  1.00  0.00     0.031 A 
ATOM     45  C   UNL     1       1.361   4.792  -9.628  1.00  0.00     0.074 A 
ATOM     46  C   UNL     1       2.736   6.264  -8.192  1.00  0.00     0.049 A 
ATOM     47  N   UNL     1       1.682   5.214 -10.823  1.00  0.00    -0.248 NA
ATOM     48  C   UNL     1       0.337   3.732  -9.619  1.00  0.00     0.031 C 
ATOM     49  C   UNL     1       3.270   6.811  -6.947  1.00  0.00     0.029 A 
ATOM     50  N   UNL     1       3.311   7.032  -9.173  1.00  0.00    -0.354 N 
ATOM     51  C   UNL     1       0.921   4.457 -11.706  1.00  0.00     0.074 A 
ATOM     52  C   UNL     1       0.131   3.542 -10.914  1.00  0.00     0.031 C 
ATOM     53  C   UNL     1       4.111   7.819  -7.240  1.00  0.00     0.029 A 
ATOM     54  C   UNL     1       4.201   7.960  -8.692  1.00  0.00     0.049 A 
ATOM     55  H   UNL     1       3.104   6.928 -10.130  1.00  0.00     0.167 HD
ATOM     56  C   UNL     1       0.886   4.522 -13.057  1.00  0.00     0.037 A 
ATOM     57  C   UNL     1       5.017   8.802  -9.355  1.00  0.00     0.037 A 
ATOM     58  C   UNL     1       1.657   5.450 -13.840  1.00  0.00     0.049 A 
ATOM     59  C   UNL     1       5.008   8.805 -10.862  1.00  0.00     0.074 A 
ATOM     60  C   UNL     1       1.660   5.623 -15.213  1.00  0.00     0.029 A 
ATOM     61  N   UNL     1       2.563   6.359 -13.317  1.00  0.00    -0.354 N 
ATOM     62  N   UNL     1       4.266   8.107 -11.687  1.00  0.00    -0.248 NA
ATOM     63  C   UNL     1       5.955   9.711 -11.529  1.00  0.00     0.031 C 
ATOM     64  C   UNL     1       2.606   6.604 -15.525  1.00  0.00     0.029 A 
ATOM     65  C   UNL     1       3.154   7.075 -14.343  1.00  0.00     0.049 A 
ATOM     66  H   UNL     1       2.758   6.476 -12.359  1.00  0.00     0.167 HD
ATOM     67  C   UNL     1       4.628   8.516 -12.965  1.00  0.00     0.074 A 
ATOM     68  C   UNL     1       5.653   9.526 -12.807  1.00  0.00     0.031 C 
ATOM     69  C   UNL     1       4.153   8.097 -14.163  1.00  0.00     0.037 A 
BRANCH  56  70
ATOM     70  C   UNL     1       0.010   3.546 -13.782  1.00  0.00     0.057 A 
ATOM     71  C   UNL     1      -1.385   3.671 -13.801  1.00  0.00     0.134 A 
ATOM     72  C   UNL     1       0.577   2.499 -14.520  1.00  0.00     0.134 A 
ATOM     73  F   UNL     1      -1.990   4.643 -13.103  1.00  0.00    -0.206 F 
ATOM     74  C   UNL     1      -2.185   2.781 -14.521  1.00  0.00     0.040 A 
ATOM     75  C   UNL     1      -0.211   1.617 -15.261  1.00  0.00     0.040 A 
ATOM     76  F   UNL     1       1.907   2.326 -14.544  1.00  0.00    -0.206 F 
ATOM     77  C   UNL     1      -1.597   1.756 -15.261  1.00  0.00     0.006 A 
ENDBRANCH  56  70
BRANCH  57  78
ATOM     78  C   UNL     1       5.936   9.700  -8.610  1.00  0.00     0.057 A 
ATOM     79  C   UNL     1       5.764  11.089  -8.628  1.00  0.00     0.134 A 
ATOM     80  C   UNL     1       7.035   9.196  -7.904  1.00  0.00     0.134 A 
ATOM     81  F   UNL     1       4.744  11.633  -9.308  1.00  0.00    -0.206 F 
ATOM     82  C   UNL     1       6.663  11.946  -7.991  1.00  0.00     0.040 A 
ATOM     83  C   UNL     1       7.928  10.040  -7.240  1.00  0.00     0.040 A 
ATOM     84  F   UNL     1       7.257   7.875  -7.849  1.00  0.00    -0.206 F 
ATOM     85  C   UNL     1       7.748  11.420  -7.292  1.00  0.00     0.006 A 
ENDBRANCH  57  78
BRANCH  69  86
ATOM     86  C   UNL     1       4.689   8.765 -15.394  1.00  0.00     0.057 A 
ATOM     87  C   UNL     1       5.975   8.504 -15.879  1.00  0.00     0.134 A 
ATOM     88  C   UNL     1       3.880   9.637 -16.135  1.00  0.00     0.134 A 
ATOM     89  F   UNL     1       6.802   7.688 -15.209  1.00  0.00    -0.206 F 
ATOM     90  C   UNL     1       6.445   9.100 -17.051  1.00  0.00     0.040 A 
ATOM     91  C   UNL     1       4.329  10.218 -17.321  1.00  0.00     0.040 A 
ATOM     92  F   UNL     1       2.633   9.920 -15.729  1.00  0.00    -0.206 F 
ATOM     93  C   UNL     1       5.618   9.953 -17.780  1.00  0.00     0.006 A 
ENDBRANCH  69  86
ENDBRANCH  43  44
ENDBRANCH  36  38
ENDBRANCH  35  36
ENDBRANCH  34  35
ENDBRANCH  33  34
ENDBRANCH  32  33
ENDBRANCH   1  32
TORSDOF 21
