REMARK SMILES O=C(OCCOCCOC(=O)c1ccc(NC(=O)c2ccc([N+](=O)[O-])cc2Cl)cc1Cl)c1ccc(-c2c3nc(c(-c4c(F)cccc4F)c4ccc([nH]4)c(-c4c(F)cccc4F)c4nc(c(-c5c(F)cccc5F)c5ccc2[nH]5)C=C4)C=C3)cc1
REMARK SMILES IDX 7 1 6 2 5 3 4 4 3 5 2 6 1 7 32 8 33 9 85 10 34 11 84 12
REMARK SMILES IDX 35 13 36 14 37 15 78 16 38 17 83 18 77 19 79 20 39 21 82 22
REMARK SMILES IDX 76 23 75 24 40 26 66 27 49 28 65 29 50 30 53 31 64 32 80 33
REMARK SMILES IDX 51 34 52 35 63 37 81 38 54 39 41 40 42 41 47 42 43 43 44 44
REMARK SMILES IDX 46 45 48 46 45 47 67 48 68 49 73 50 69 51 70 52 72 53 74 54
REMARK SMILES IDX 71 55 55 56 56 57 61 58 57 59 58 60 60 61 62 62 59 63 8 64
REMARK SMILES IDX 9 65 10 66 11 67 12 68 13 69 30 70 14 71 29 72 31 73 15 74
REMARK SMILES IDX 16 75 17 76 18 78 19 79 20 80 27 81 21 82 26 83 28 84 22 85
REMARK SMILES IDX 23 86 24 87 25 88
REMARK H PARENT 79 25 53 36 16 77
REMARK Flexibility Score: inf
ROOT
ATOM      1  C   UNL     1       2.588  -0.565   2.012  1.00  0.00     0.202 C 
ENDROOT
BRANCH   1   2
ATOM      2  O   UNL     1       3.971  -0.267   1.765  1.00  0.00    -0.374 OA
BRANCH   2   3
ATOM      3  C   UNL     1       4.252   1.095   1.431  1.00  0.00     0.202 C 
BRANCH   3   4
ATOM      4  C   UNL     1       4.011   1.462  -0.039  1.00  0.00     0.261 C 
BRANCH   4   5
ATOM      5  O   UNL     1       2.647   1.203  -0.413  1.00  0.00    -0.460 OA
BRANCH   5   6
ATOM      6  C   UNL     1       2.163   0.225  -1.214  1.00  0.00     0.338 C 
ATOM      7  O   UNL     1       0.976   0.259  -1.531  1.00  0.00    -0.246 OA
BRANCH   6   8
ATOM      8  C   UNL     1       2.983  -0.924  -1.710  1.00  0.00     0.060 A 
ATOM      9  C   UNL     1       4.136  -1.406  -1.089  1.00  0.00     0.016 A 
ATOM     10  C   UNL     1       2.485  -1.640  -2.813  1.00  0.00     0.016 A 
ATOM     11  C   UNL     1       4.798  -2.532  -1.551  1.00  0.00     0.010 A 
ATOM     12  C   UNL     1       3.120  -2.803  -3.262  1.00  0.00     0.010 A 
ATOM     13  C   UNL     1       4.279  -3.250  -2.622  1.00  0.00    -0.014 A 
BRANCH  13  14
ATOM     14  C   UNL     1       5.005  -4.455  -3.050  1.00  0.00     0.031 A 
ATOM     15  C   UNL     1       5.870  -4.380  -4.264  1.00  0.00     0.074 A 
ATOM     16  C   UNL     1       4.967  -5.549  -2.266  1.00  0.00     0.049 A 
ATOM     17  N   UNL     1       6.567  -5.322  -4.837  1.00  0.00    -0.248 NA
ATOM     18  C   UNL     1       5.981  -3.062  -4.913  1.00  0.00     0.031 C 
ATOM     19  C   UNL     1       4.237  -5.652  -0.998  1.00  0.00     0.029 A 
ATOM     20  N   UNL     1       5.571  -6.769  -2.400  1.00  0.00    -0.354 N 
ATOM     21  C   UNL     1       7.176  -4.721  -5.929  1.00  0.00     0.074 A 
ATOM     22  C   UNL     1       6.778  -3.332  -5.937  1.00  0.00     0.031 C 
ATOM     23  C   UNL     1       4.444  -6.868  -0.469  1.00  0.00     0.029 A 
ATOM     24  C   UNL     1       5.258  -7.649  -1.391  1.00  0.00     0.049 A 
ATOM     25  H   UNL     1       6.171  -6.995  -3.147  1.00  0.00     0.167 HD
ATOM     26  C   UNL     1       7.985  -5.298  -6.846  1.00  0.00     0.037 A 
ATOM     27  C   UNL     1       5.562  -8.953  -1.265  1.00  0.00     0.037 A 
ATOM     28  C   UNL     1       8.362  -6.684  -6.803  1.00  0.00     0.049 A 
ATOM     29  C   UNL     1       6.382  -9.588  -2.356  1.00  0.00     0.074 A 
ATOM     30  C   UNL     1       9.147  -7.395  -7.690  1.00  0.00     0.029 A 
ATOM     31  N   UNL     1       7.970  -7.571  -5.808  1.00  0.00    -0.354 N 
ATOM     32  N   UNL     1       6.928  -9.028  -3.410  1.00  0.00    -0.248 NA
ATOM     33  C   UNL     1       6.609 -11.035  -2.258  1.00  0.00     0.031 C 
ATOM     34  C   UNL     1       9.187  -8.725  -7.259  1.00  0.00     0.029 A 
ATOM     35  C   UNL     1       8.468  -8.832  -6.077  1.00  0.00     0.049 A 
ATOM     36  H   UNL     1       7.419  -7.336  -5.027  1.00  0.00     0.167 HD
ATOM     37  C   UNL     1       7.568 -10.049  -4.096  1.00  0.00     0.074 A 
ATOM     38  C   UNL     1       7.370 -11.257  -3.320  1.00  0.00     0.031 C 
ATOM     39  C   UNL     1       8.248 -10.004  -5.269  1.00  0.00     0.037 A 
BRANCH  26  40
ATOM     40  C   UNL     1       8.437  -4.453  -7.997  1.00  0.00     0.057 A 
ATOM     41  C   UNL     1       9.419  -3.465  -7.861  1.00  0.00     0.134 A 
ATOM     42  C   UNL     1       7.877  -4.640  -9.267  1.00  0.00     0.134 A 
ATOM     43  F   UNL     1       9.974  -3.216  -6.665  1.00  0.00    -0.206 F 
ATOM     44  C   UNL     1       9.820  -2.683  -8.948  1.00  0.00     0.040 A 
ATOM     45  C   UNL     1       8.283  -3.880 -10.364  1.00  0.00     0.040 A 
ATOM     46  F   UNL     1       6.924  -5.565  -9.461  1.00  0.00    -0.206 F 
ATOM     47  C   UNL     1       9.255  -2.895 -10.205  1.00  0.00     0.006 A 
ENDBRANCH  26  40
BRANCH  27  48
ATOM     48  C   UNL     1       5.027  -9.757  -0.134  1.00  0.00     0.057 A 
ATOM     49  C   UNL     1       5.872 -10.374   0.796  1.00  0.00     0.134 A 
ATOM     50  C   UNL     1       3.649  -9.974   0.014  1.00  0.00     0.134 A 
ATOM     51  F   UNL     1       7.201 -10.227   0.701  1.00  0.00    -0.206 F 
ATOM     52  C   UNL     1       5.372 -11.196   1.809  1.00  0.00     0.040 A 
ATOM     53  C   UNL     1       3.134 -10.767   1.041  1.00  0.00     0.040 A 
ATOM     54  F   UNL     1       2.779  -9.416  -0.841  1.00  0.00    -0.206 F 
ATOM     55  C   UNL     1       3.998 -11.392   1.935  1.00  0.00     0.006 A 
ENDBRANCH  27  48
BRANCH  39  56
ATOM     56  C   UNL     1       8.829 -11.294  -5.759  1.00  0.00     0.057 A 
ATOM     57  C   UNL     1       8.022 -12.301  -6.302  1.00  0.00     0.134 A 
ATOM     58  C   UNL     1      10.212 -11.506  -5.736  1.00  0.00     0.134 A 
ATOM     59  F   UNL     1       6.688 -12.160  -6.336  1.00  0.00    -0.206 F 
ATOM     60  C   UNL     1       8.571 -13.486  -6.789  1.00  0.00     0.040 A 
ATOM     61  C   UNL     1      10.775 -12.674  -6.246  1.00  0.00     0.040 A 
ATOM     62  F   UNL     1      11.037 -10.573  -5.236  1.00  0.00    -0.206 F 
ATOM     63  C   UNL     1       9.953 -13.670  -6.771  1.00  0.00     0.006 A 
ENDBRANCH  39  56
ENDBRANCH  13  14
ENDBRANCH   6   8
ENDBRANCH   5   6
ENDBRANCH   4   5
ENDBRANCH   3   4
ENDBRANCH   2   3
ENDBRANCH   1   2
BRANCH   1  64
ATOM     64  C   UNL     1       2.473  -1.393   3.292  1.00  0.00     0.261 C 
BRANCH  64  65
ATOM     65  O   UNL     1       2.955  -0.578   4.366  1.00  0.00    -0.460 OA
BRANCH  65  66
ATOM     66  C   UNL     1       4.264  -0.751   4.684  1.00  0.00     0.339 C 
ATOM     67  O   UNL     1       4.967  -1.705   4.414  1.00  0.00    -0.246 OA
BRANCH  66  68
ATOM     68  C   UNL     1       4.795   0.538   5.171  1.00  0.00     0.078 A 
ATOM     69  C   UNL     1       6.023   0.941   4.626  1.00  0.00     0.019 A 
ATOM     70  C   UNL     1       4.143   1.375   6.074  1.00  0.00     0.057 A 
ATOM     71  C   UNL     1       6.577   2.183   4.953  1.00  0.00     0.027 A 
ATOM     72  C   UNL     1       4.699   2.623   6.387  1.00  0.00     0.047 A 
ATOM     73  Cl  UNL     1       2.680   0.941   6.886  1.00  0.00    -0.083 Cl
ATOM     74  C   UNL     1       5.907   3.050   5.815  1.00  0.00     0.043 A 
BRANCH  74  75
ATOM     75  N   UNL     1       6.369   4.322   6.200  1.00  0.00    -0.322 N 
ATOM     76  C   UNL     1       7.370   5.143   5.736  1.00  0.00     0.257 C 
ATOM     77  H   UNL     1       5.873   4.704   6.960  1.00  0.00     0.170 HD
ATOM     78  O   UNL     1       7.707   6.134   6.380  1.00  0.00    -0.269 OA
BRANCH  76  79
ATOM     79  C   UNL     1       8.059   4.888   4.464  1.00  0.00     0.059 A 
ATOM     80  C   UNL     1       9.430   4.594   4.525  1.00  0.00     0.022 A 
ATOM     81  C   UNL     1       7.400   4.951   3.228  1.00  0.00     0.060 A 
ATOM     82  C   UNL     1      10.127   4.278   3.357  1.00  0.00     0.086 A 
ATOM     83  C   UNL     1       8.094   4.633   2.058  1.00  0.00     0.107 A 
ATOM     84  Cl  UNL     1       5.740   5.401   3.080  1.00  0.00    -0.083 Cl
ATOM     85  C   UNL     1       9.448   4.278   2.131  1.00  0.00     0.270 A 
BRANCH  85  86
ATOM     86  N   UNL     1      10.154   3.874   0.910  1.00  0.00     0.062 N 
ATOM     87  O   UNL     1      11.386   3.769   0.966  1.00  0.00    -0.258 OA
ATOM     88  O   UNL     1       9.467   3.643  -0.094  1.00  0.00    -0.258 OA
ENDBRANCH  85  86
ENDBRANCH  76  79
ENDBRANCH  74  75
ENDBRANCH  66  68
ENDBRANCH  65  66
ENDBRANCH  64  65
ENDBRANCH   1  64
TORSDOF 17
