REMARK SMILES O=C(OCCOCCOC(=O)c1cn(Cc2ccc(N3CCCC3=O)cc2)c2cc(F)c(F)cc2c1=O)c1ccc(-c2c3nc(c(-c4c(F)cccc4F)c4ccc([nH]4)c(-c4c(F)cccc4F)c4nc(c(-c5c(F)cccc5F)c5ccc2[nH]5)C=C4)C=C3)cc1
REMARK SMILES IDX 7 1 6 2 5 3 4 4 3 5 2 6 1 7 38 8 39 9 91 10 40 11 90 12
REMARK SMILES IDX 41 13 42 14 43 15 84 16 44 17 89 18 83 19 85 20 45 21 88 22
REMARK SMILES IDX 82 23 81 24 46 26 72 27 55 28 71 29 56 30 59 31 70 32 86 33
REMARK SMILES IDX 57 34 58 35 69 37 87 38 60 39 47 40 48 41 53 42 49 43 50 44
REMARK SMILES IDX 52 45 54 46 51 47 73 48 74 49 79 50 75 51 76 52 78 53 80 54
REMARK SMILES IDX 77 55 61 56 62 57 67 58 63 59 64 60 66 61 68 62 65 63 8 64
REMARK SMILES IDX 9 65 10 66 11 67 12 68 13 69 36 70 14 71 35 72 37 73 28 74
REMARK SMILES IDX 34 75 29 76 32 77 30 78 33 79 31 80 15 81 16 82 17 83 27 84
REMARK SMILES IDX 18 85 26 86 19 87 20 88 21 89 24 90 22 91 23 92 25 93
REMARK H PARENT 85 25 59 36
REMARK Flexibility Score: inf
ROOT
ATOM      1  C   UNL     1       2.511  -1.491   1.442  1.00  0.00     0.202 C 
ENDROOT
BRANCH   1   2
ATOM      2  O   UNL     1       3.843  -1.158   1.048  1.00  0.00    -0.374 OA
BRANCH   2   3
ATOM      3  C   UNL     1       4.314   0.129   1.450  1.00  0.00     0.202 C 
BRANCH   3   4
ATOM      4  C   UNL     1       4.149   1.211   0.381  1.00  0.00     0.261 C 
BRANCH   4   5
ATOM      5  O   UNL     1       2.786   1.312  -0.052  1.00  0.00    -0.460 OA
BRANCH   5   6
ATOM      6  C   UNL     1       2.166   0.664  -1.064  1.00  0.00     0.338 C 
ATOM      7  O   UNL     1       0.974   0.914  -1.247  1.00  0.00    -0.246 OA
BRANCH   6   8
ATOM      8  C   UNL     1       2.797  -0.364  -1.962  1.00  0.00     0.060 A 
ATOM      9  C   UNL     1       2.018  -0.792  -3.056  1.00  0.00     0.016 A 
ATOM     10  C   UNL     1       4.029  -0.995  -1.772  1.00  0.00     0.016 A 
ATOM     11  C   UNL     1       2.436  -1.832  -3.892  1.00  0.00     0.010 A 
ATOM     12  C   UNL     1       4.448  -2.043  -2.583  1.00  0.00     0.010 A 
ATOM     13  C   UNL     1       3.652  -2.468  -3.642  1.00  0.00    -0.014 A 
BRANCH  13  14
ATOM     14  C   UNL     1       4.215  -3.482  -4.543  1.00  0.00     0.031 A 
ATOM     15  C   UNL     1       4.204  -4.929  -4.173  1.00  0.00     0.074 A 
ATOM     16  C   UNL     1       4.917  -3.023  -5.593  1.00  0.00     0.049 A 
ATOM     17  N   UNL     1       4.704  -5.947  -4.822  1.00  0.00    -0.248 NA
ATOM     18  C   UNL     1       3.576  -5.278  -2.889  1.00  0.00     0.031 C 
ATOM     19  C   UNL     1       5.088  -1.605  -5.925  1.00  0.00     0.029 A 
ATOM     20  N   UNL     1       5.666  -3.682  -6.524  1.00  0.00    -0.354 N 
ATOM     21  C   UNL     1       4.434  -7.062  -4.041  1.00  0.00     0.074 A 
ATOM     22  C   UNL     1       3.778  -6.588  -2.840  1.00  0.00     0.031 C 
ATOM     23  C   UNL     1       5.924  -1.500  -6.967  1.00  0.00     0.029 A 
ATOM     24  C   UNL     1       6.339  -2.838  -7.369  1.00  0.00     0.049 A 
ATOM     25  H   UNL     1       5.718  -4.664  -6.583  1.00  0.00     0.167 HD
ATOM     26  C   UNL     1       4.703  -8.361  -4.321  1.00  0.00     0.037 A 
ATOM     27  C   UNL     1       7.204  -3.121  -8.356  1.00  0.00     0.037 A 
ATOM     28  C   UNL     1       5.415  -8.778  -5.504  1.00  0.00     0.049 A 
ATOM     29  C   UNL     1       7.481  -4.560  -8.661  1.00  0.00     0.074 A 
ATOM     30  C   UNL     1       5.660 -10.058  -5.968  1.00  0.00     0.029 A 
ATOM     31  N   UNL     1       6.035  -7.906  -6.393  1.00  0.00    -0.354 N 
ATOM     32  N   UNL     1       7.060  -5.630  -8.028  1.00  0.00    -0.248 NA
ATOM     33  C   UNL     1       8.324  -4.835  -9.827  1.00  0.00     0.031 C 
ATOM     34  C   UNL     1       6.479  -9.960  -7.101  1.00  0.00     0.029 A 
ATOM     35  C   UNL     1       6.703  -8.619  -7.375  1.00  0.00     0.049 A 
ATOM     36  H   UNL     1       6.004  -6.924  -6.333  1.00  0.00     0.167 HD
ATOM     37  C   UNL     1       7.587  -6.711  -8.716  1.00  0.00     0.074 A 
ATOM     38  C   UNL     1       8.329  -6.162  -9.837  1.00  0.00     0.031 C 
ATOM     39  C   UNL     1       7.471  -8.036  -8.449  1.00  0.00     0.037 A 
BRANCH  26  40
ATOM     40  C   UNL     1       4.232  -9.397  -3.337  1.00  0.00     0.057 A 
ATOM     41  C   UNL     1       5.143 -10.187  -2.624  1.00  0.00     0.134 A 
ATOM     42  C   UNL     1       2.868  -9.627  -3.102  1.00  0.00     0.134 A 
ATOM     43  F   UNL     1       6.464 -10.037  -2.803  1.00  0.00    -0.206 F 
ATOM     44  C   UNL     1       4.717 -11.152  -1.706  1.00  0.00     0.040 A 
ATOM     45  C   UNL     1       2.430 -10.569  -2.167  1.00  0.00     0.040 A 
ATOM     46  F   UNL     1       1.936  -8.910  -3.748  1.00  0.00    -0.206 F 
ATOM     47  C   UNL     1       3.357 -11.337  -1.467  1.00  0.00     0.006 A 
ENDBRANCH  26  40
BRANCH  27  48
ATOM     48  C   UNL     1       7.798  -2.009  -9.133  1.00  0.00     0.057 A 
ATOM     49  C   UNL     1       8.760  -1.159  -8.572  1.00  0.00     0.134 A 
ATOM     50  C   UNL     1       7.342  -1.711 -10.420  1.00  0.00     0.134 A 
ATOM     51  F   UNL     1       9.217  -1.378  -7.330  1.00  0.00    -0.206 F 
ATOM     52  C   UNL     1       9.236  -0.042  -9.260  1.00  0.00     0.040 A 
ATOM     53  C   UNL     1       7.824  -0.609 -11.127  1.00  0.00     0.040 A 
ATOM     54  F   UNL     1       6.420  -2.489 -11.005  1.00  0.00    -0.206 F 
ATOM     55  C   UNL     1       8.767   0.235 -10.543  1.00  0.00     0.006 A 
ENDBRANCH  27  48
BRANCH  39  56
ATOM     56  C   UNL     1       8.202  -8.961  -9.376  1.00  0.00     0.057 A 
ATOM     57  C   UNL     1       7.508  -9.757 -10.293  1.00  0.00     0.134 A 
ATOM     58  C   UNL     1       9.600  -9.059  -9.355  1.00  0.00     0.134 A 
ATOM     59  F   UNL     1       6.169  -9.712 -10.360  1.00  0.00    -0.206 F 
ATOM     60  C   UNL     1       8.179 -10.620 -11.160  1.00  0.00     0.040 A 
ATOM     61  C   UNL     1      10.284  -9.896 -10.236  1.00  0.00     0.040 A 
ATOM     62  F   UNL     1      10.322  -8.306  -8.511  1.00  0.00    -0.206 F 
ATOM     63  C   UNL     1       9.572 -10.684 -11.139  1.00  0.00     0.006 A 
ENDBRANCH  39  56
ENDBRANCH  13  14
ENDBRANCH   6   8
ENDBRANCH   5   6
ENDBRANCH   4   5
ENDBRANCH   3   4
ENDBRANCH   2   3
ENDBRANCH   1   2
BRANCH   1  64
ATOM     64  C   UNL     1       2.550  -2.658   2.430  1.00  0.00     0.261 C 
BRANCH  64  65
ATOM     65  O   UNL     1       3.171  -2.200   3.640  1.00  0.00    -0.459 OA
BRANCH  65  66
ATOM     66  C   UNL     1       4.526  -2.344   3.693  1.00  0.00     0.343 C 
ATOM     67  O   UNL     1       5.195  -3.107   3.019  1.00  0.00    -0.246 OA
BRANCH  66  68
ATOM     68  C   UNL     1       5.059  -1.324   4.617  1.00  0.00     0.124 A 
ATOM     69  C   UNL     1       4.395  -1.028   5.742  1.00  0.00     0.106 A 
ATOM     70  C   UNL     1       6.297  -0.566   4.342  1.00  0.00     0.204 A 
ATOM     71  N   UNL     1       4.741  -0.067   6.682  1.00  0.00    -0.342 N 
ATOM     72  C   UNL     1       6.664   0.516   5.288  1.00  0.00     0.050 A 
ATOM     73  O   UNL     1       6.983  -0.747   3.342  1.00  0.00    -0.288 OA
ATOM     74  C   UNL     1       5.851   0.769   6.417  1.00  0.00     0.055 A 
ATOM     75  C   UNL     1       7.824   1.265   5.028  1.00  0.00     0.056 A 
ATOM     76  C   UNL     1       6.208   1.859   7.225  1.00  0.00     0.069 A 
ATOM     77  C   UNL     1       8.185   2.278   5.899  1.00  0.00     0.159 A 
ATOM     78  C   UNL     1       7.378   2.579   6.984  1.00  0.00     0.160 A 
ATOM     79  F   UNL     1       9.313   2.967   5.683  1.00  0.00    -0.204 F 
ATOM     80  F   UNL     1       7.723   3.559   7.830  1.00  0.00    -0.204 F 
BRANCH  71  81
ATOM     81  C   UNL     1       4.196  -0.160   8.057  1.00  0.00     0.157 C 
BRANCH  81  82
ATOM     82  C   UNL     1       5.077  -1.064   8.897  1.00  0.00    -0.028 A 
ATOM     83  C   UNL     1       6.209  -0.553   9.538  1.00  0.00     0.008 A 
ATOM     84  C   UNL     1       4.848  -2.443   8.958  1.00  0.00     0.008 A 
ATOM     85  C   UNL     1       7.112  -1.397  10.184  1.00  0.00     0.027 A 
ATOM     86  C   UNL     1       5.760  -3.289   9.606  1.00  0.00     0.027 A 
ATOM     87  C   UNL     1       6.910  -2.779  10.218  1.00  0.00     0.044 A 
BRANCH  87  88
ATOM     88  N   UNL     1       7.857  -3.619  10.850  1.00  0.00    -0.312 N 
ATOM     89  C   UNL     1       8.696  -3.169  11.935  1.00  0.00     0.126 C 
ATOM     90  C   UNL     1       8.037  -4.986  10.605  1.00  0.00     0.227 C 
ATOM     91  C   UNL     1       9.783  -4.215  12.029  1.00  0.00     0.032 C 
ATOM     92  C   UNL     1       9.107  -5.485  11.547  1.00  0.00     0.102 C 
ATOM     93  O   UNL     1       7.462  -5.705   9.801  1.00  0.00    -0.275 OA
ENDBRANCH  87  88
ENDBRANCH  81  82
ENDBRANCH  71  81
ENDBRANCH  66  68
ENDBRANCH  65  66
ENDBRANCH  64  65
ENDBRANCH   1  64
TORSDOF 17
