REMARK SMILES O=C(CC[NH+]1CCN(C(=O)c2n[nH]c3ccccc23)CC1)OCCOCCOC(=O)c1ccc(-c2c3nc(c(-c4c(F)cccc4F)c4ccc([nH]4)c(-c4c(F)cccc4F)c4nc(c(-c5c(F)cccc5F)c5ccc2[nH]5)C=C4)C=C3)cc1
REMARK SMILES IDX 24 1 23 2 22 3 2 4 1 5 3 6 4 7 5 8 6 9 21 10 7 12 20 13 8 14
REMARK SMILES IDX 9 15 10 16 11 17 12 18 19 19 13 20 14 21 18 22 15 24 17 25
REMARK SMILES IDX 16 26 25 27 26 28 27 29 28 30 29 31 30 32 31 33 32 34 84 35
REMARK SMILES IDX 33 36 83 37 34 38 35 39 36 40 77 41 37 42 82 43 76 44 78 45
REMARK SMILES IDX 38 46 81 47 75 48 74 49 39 51 65 52 48 53 64 54 49 55 52 56
REMARK SMILES IDX 63 57 79 58 50 59 51 60 62 62 80 63 53 64 40 65 41 66 46 67
REMARK SMILES IDX 42 68 43 69 45 70 47 71 44 72 66 73 67 74 72 75 68 76 69 77
REMARK SMILES IDX 71 78 73 79 70 80 54 81 55 82 60 83 56 84 57 85 59 86 61 87
REMARK SMILES IDX 58 88
REMARK H PARENT 5 11 13 23 78 50 52 61
REMARK Flexibility Score: inf
ROOT
ATOM      1  C   UNL     1       5.951   0.634  -1.733  1.00  0.00     0.202 C 
ENDROOT
BRANCH   1   2
ATOM      2  C   UNL     1       5.777   0.496   0.029  1.00  0.00     0.261 C 
BRANCH   2   3
ATOM      3  O   UNL     1       4.162  -0.140   0.928  1.00  0.00    -0.463 OA
BRANCH   3   4
ATOM      4  C   UNL     1       2.865  -0.106   1.556  1.00  0.00     0.311 C 
ATOM      5  O   UNL     1       2.216  -1.140   1.708  1.00  0.00    -0.252 OA
BRANCH   4   6
ATOM      6  C   UNL     1       2.256   1.240   1.924  1.00  0.00     0.184 C 
BRANCH   6   7
ATOM      7  C   UNL     1       3.338   2.245   2.143  1.00  0.00     0.274 C 
BRANCH   7   8
ATOM      8  N   UNL     1       4.474   1.814   1.351  1.00  0.00    -0.332 N 
ATOM      9  C   UNL     1       5.307   0.495   2.374  1.00  0.00     0.284 C 
ATOM     10  C   UNL     1       3.809   1.232  -0.324  1.00  0.00     0.284 C 
ATOM     11  H   UNL     1       5.164   2.534   1.141  1.00  0.00     0.348 HD
ATOM     12  C   UNL     1       5.434  -1.345   1.840  1.00  0.00     0.181 C 
ATOM     13  C   UNL     1       4.051  -0.703  -0.846  1.00  0.00     0.181 C 
ATOM     14  N   UNL     1       5.257  -1.693   0.120  1.00  0.00    -0.326 N 
ATOM     15  C   UNL     1       6.394  -2.437  -0.392  1.00  0.00     0.275 C 
ATOM     16  O   UNL     1       7.164  -2.962   0.419  1.00  0.00    -0.267 OA
BRANCH  15  17
ATOM     17  C   UNL     1       6.785  -2.474  -1.837  1.00  0.00     0.157 A 
ATOM     18  N   UNL     1       6.029  -3.001  -2.812  1.00  0.00    -0.169 NA
ATOM     19  C   UNL     1       7.997  -1.942  -2.420  1.00  0.00     0.033 A 
ATOM     20  N   UNL     1       6.750  -2.903  -3.931  1.00  0.00    -0.277 N 
ATOM     21  C   UNL     1       7.896  -2.183  -3.788  1.00  0.00     0.066 A 
ATOM     22  C   UNL     1       9.089  -1.178  -1.962  1.00  0.00     0.013 A 
ATOM     23  H   UNL     1       6.478  -3.315  -4.783  1.00  0.00     0.190 HD
ATOM     24  C   UNL     1       8.813  -1.721  -4.736  1.00  0.00     0.028 A 
ATOM     25  C   UNL     1       9.990  -0.651  -2.900  1.00  0.00     0.001 A 
ATOM     26  C   UNL     1       9.853  -0.920  -4.263  1.00  0.00     0.002 A 
ENDBRANCH  15  17
ENDBRANCH   7   8
ENDBRANCH   6   7
ENDBRANCH   4   6
ENDBRANCH   3   4
ENDBRANCH   2   3
ENDBRANCH   1   2
BRANCH   1  27
ATOM     27  O   UNL     1       5.027   1.035  -2.796  1.00  0.00    -0.374 OA
BRANCH  27  28
ATOM     28  C   UNL     1       3.757   0.500  -3.287  1.00  0.00     0.202 C 
BRANCH  28  29
ATOM     29  C   UNL     1       3.421  -0.953  -3.916  1.00  0.00     0.261 C 
BRANCH  29  30
ATOM     30  O   UNL     1       3.328  -2.133  -3.034  1.00  0.00    -0.460 OA
BRANCH  30  31
ATOM     31  C   UNL     1       2.987  -3.349  -3.579  1.00  0.00     0.338 C 
ATOM     32  O   UNL     1       2.538  -3.473  -4.721  1.00  0.00    -0.246 OA
BRANCH  31  33
ATOM     33  C   UNL     1       3.363  -4.571  -2.746  1.00  0.00     0.060 A 
ATOM     34  C   UNL     1       4.075  -4.442  -1.565  1.00  0.00     0.016 A 
ATOM     35  C   UNL     1       3.231  -5.878  -3.243  1.00  0.00     0.016 A 
ATOM     36  C   UNL     1       4.928  -5.469  -1.117  1.00  0.00     0.010 A 
ATOM     37  C   UNL     1       3.942  -6.967  -2.663  1.00  0.00     0.010 A 
ATOM     38  C   UNL     1       4.891  -6.760  -1.646  1.00  0.00    -0.014 A 
BRANCH  38  39
ATOM     39  C   UNL     1       5.862  -7.827  -1.185  1.00  0.00     0.031 A 
ATOM     40  C   UNL     1       6.681  -8.614  -2.195  1.00  0.00     0.074 A 
ATOM     41  C   UNL     1       6.126  -8.052   0.125  1.00  0.00     0.049 A 
ATOM     42  N   UNL     1       7.340  -9.740  -2.054  1.00  0.00    -0.248 NA
ATOM     43  C   UNL     1       6.794  -8.034  -3.542  1.00  0.00     0.031 C 
ATOM     44  C   UNL     1       5.603  -7.271   1.248  1.00  0.00     0.029 A 
ATOM     45  N   UNL     1       6.919  -8.999   0.744  1.00  0.00    -0.354 N 
ATOM     46  C   UNL     1       7.885 -10.034  -3.303  1.00  0.00     0.074 A 
ATOM     47  C   UNL     1       7.511  -8.948  -4.184  1.00  0.00     0.031 C 
ATOM     48  C   UNL     1       6.120  -7.728   2.396  1.00  0.00     0.029 A 
ATOM     49  C   UNL     1       6.870  -8.942   2.121  1.00  0.00     0.049 A 
ATOM     50  H   UNL     1       7.466  -9.651   0.250  1.00  0.00     0.167 HD
ATOM     51  C   UNL     1       8.606 -11.122  -3.681  1.00  0.00     0.037 A 
ATOM     52  C   UNL     1       7.284  -9.811   3.067  1.00  0.00     0.037 A 
ATOM     53  C   UNL     1       9.003 -12.174  -2.775  1.00  0.00     0.049 A 
ATOM     54  C   UNL     1       7.927 -11.096   2.624  1.00  0.00     0.074 A 
ATOM     55  C   UNL     1       9.634 -13.376  -3.052  1.00  0.00     0.029 A 
ATOM     56  N   UNL     1       8.819 -12.133  -1.400  1.00  0.00    -0.354 N 
ATOM     57  N   UNL     1       8.262 -11.477   1.415  1.00  0.00    -0.248 NA
ATOM     58  C   UNL     1       8.211 -12.090   3.668  1.00  0.00     0.031 C 
ATOM     59  C   UNL     1       9.777 -14.084  -1.852  1.00  0.00     0.029 A 
ATOM     60  C   UNL     1       9.296 -13.296  -0.819  1.00  0.00     0.049 A 
ATOM     61  H   UNL     1       8.409 -11.384  -0.908  1.00  0.00     0.167 HD
ATOM     62  C   UNL     1       8.805 -12.746   1.552  1.00  0.00     0.074 A 
ATOM     63  C   UNL     1       8.781 -13.060   2.966  1.00  0.00     0.031 C 
ATOM     64  C   UNL     1       9.269 -13.585   0.593  1.00  0.00     0.037 A 
BRANCH  51  65
ATOM     65  C   UNL     1       8.914 -11.291  -5.147  1.00  0.00     0.057 A 
ATOM     66  C   UNL     1       9.870 -10.523  -5.824  1.00  0.00     0.134 A 
ATOM     67  C   UNL     1       8.236 -12.267  -5.894  1.00  0.00     0.134 A 
ATOM     68  F   UNL     1      10.554  -9.566  -5.181  1.00  0.00    -0.206 F 
ATOM     69  C   UNL     1      10.116 -10.698  -7.191  1.00  0.00     0.040 A 
ATOM     70  C   UNL     1       8.490 -12.468  -7.253  1.00  0.00     0.040 A 
ATOM     71  F   UNL     1       7.315 -13.051  -5.312  1.00  0.00    -0.206 F 
ATOM     72  C   UNL     1       9.427 -11.675  -7.909  1.00  0.00     0.006 A 
ENDBRANCH  51  65
BRANCH  52  73
ATOM     73  C   UNL     1       6.970  -9.572   4.510  1.00  0.00     0.057 A 
ATOM     74  C   UNL     1       7.973  -9.461   5.480  1.00  0.00     0.134 A 
ATOM     75  C   UNL     1       5.643  -9.488   4.962  1.00  0.00     0.134 A 
ATOM     76  F   UNL     1       9.264  -9.572   5.133  1.00  0.00    -0.206 F 
ATOM     77  C   UNL     1       7.672  -9.285   6.835  1.00  0.00     0.040 A 
ATOM     78  C   UNL     1       5.328  -9.268   6.304  1.00  0.00     0.040 A 
ATOM     79  F   UNL     1       4.622  -9.605   4.099  1.00  0.00    -0.206 F 
ATOM     80  C   UNL     1       6.346  -9.177   7.248  1.00  0.00     0.006 A 
ENDBRANCH  52  73
BRANCH  64  81
ATOM     81  C   UNL     1       9.828 -14.897   1.056  1.00  0.00     0.057 A 
ATOM     82  C   UNL     1       9.008 -15.920   1.548  1.00  0.00     0.134 A 
ATOM     83  C   UNL     1      11.205 -15.142   0.997  1.00  0.00     0.134 A 
ATOM     84  F   UNL     1       7.681 -15.742   1.647  1.00  0.00    -0.206 F 
ATOM     85  C   UNL     1       9.541 -17.130   1.994  1.00  0.00     0.040 A 
ATOM     86  C   UNL     1      11.747 -16.359   1.411  1.00  0.00     0.040 A 
ATOM     87  F   UNL     1      12.045 -14.206   0.530  1.00  0.00    -0.206 F 
ATOM     88  C   UNL     1      10.915 -17.354   1.920  1.00  0.00     0.006 A 
ENDBRANCH  64  81
ENDBRANCH  38  39
ENDBRANCH  31  33
ENDBRANCH  30  31
ENDBRANCH  29  30
ENDBRANCH  28  29
ENDBRANCH  27  28
ENDBRANCH   1  27
TORSDOF 17
