REMARK SMILES CC(C)C[C@H](NC(=O)CNC(=O)[C@@H]([NH3+])C(C)C)C(=O)OCCOCCOC(=O)c1ccc(-c2c3nc(c(-c4c(F)cccc4F)c4ccc([nH]4)c(-c4c(F)cccc4F)c4nc(c(-c5c(F)cccc5F)c5ccc2[nH]5)C=C4)C=C3)cc1
REMARK SMILES IDX 21 1 20 2 18 3 19 4 5 5 4 6 2 7 1 8 3 9 6 10 7 11 8 13 9 14
REMARK SMILES IDX 10 15 11 16 12 18 13 19 14 20 15 24 16 25 17 26 22 27 23 28
REMARK SMILES IDX 24 29 25 30 26 31 27 32 28 33 29 34 30 35 82 36 31 37 81 38
REMARK SMILES IDX 32 39 33 40 34 41 75 42 35 43 80 44 74 45 76 46 36 47 79 48
REMARK SMILES IDX 73 49 72 50 37 52 63 53 46 54 62 55 47 56 50 57 61 58 77 59
REMARK SMILES IDX 48 60 49 61 60 63 78 64 51 65 38 66 39 67 44 68 40 69 41 70
REMARK SMILES IDX 43 71 45 72 42 73 64 74 65 75 70 76 66 77 67 78 69 79 71 80
REMARK SMILES IDX 68 81 52 82 53 83 58 84 54 85 55 86 57 87 59 88 56 89
REMARK H PARENT 6 12 10 17 14 21 14 22 14 23 76 51 50 62
REMARK Flexibility Score: inf
ROOT
ATOM      1  C   UNL     1      -5.369   1.194   1.630  1.00  0.00     0.261 C 
ENDROOT
BRANCH   1   2
ATOM      2  O   UNL     1      -3.963   1.466   1.573  1.00  0.00    -0.462 OA
BRANCH   2   3
ATOM      3  C   UNL     1      -3.208   0.434   2.048  1.00  0.00     0.328 C 
ATOM      4  O   UNL     1      -3.665  -0.643   2.416  1.00  0.00    -0.250 OA
BRANCH   3   5
ATOM      5  C   UNL     1      -1.726   0.795   2.200  1.00  0.00     0.192 C 
BRANCH   5   6
ATOM      6  C   UNL     1      -1.445   1.316   3.616  1.00  0.00     0.040 C 
BRANCH   6   7
ATOM      7  C   UNL     1      -2.015   0.477   4.784  1.00  0.00    -0.015 C 
ATOM      8  C   UNL     1      -1.686  -1.017   4.745  1.00  0.00     0.007 C 
ATOM      9  C   UNL     1      -1.517   1.050   6.112  1.00  0.00     0.007 C 
ENDBRANCH   6   7
ENDBRANCH   5   6
BRANCH   5  10
ATOM     10  N   UNL     1      -1.244   1.740   1.189  1.00  0.00    -0.341 N 
ATOM     11  C   UNL     1      -0.135   1.647   0.391  1.00  0.00     0.240 C 
ATOM     12  H   UNL     1      -1.789   2.551   1.067  1.00  0.00     0.164 HD
ATOM     13  O   UNL     1      -0.059   2.426  -0.565  1.00  0.00    -0.273 OA
BRANCH  11  14
ATOM     14  C   UNL     1       0.911   0.522   0.565  1.00  0.00     0.216 C 
BRANCH  14  15
ATOM     15  N   UNL     1       1.302   0.294   1.946  1.00  0.00    -0.342 N 
ATOM     16  C   UNL     1       1.273  -0.815   2.730  1.00  0.00     0.278 C 
ATOM     17  H   UNL     1       1.655   1.094   2.398  1.00  0.00     0.164 HD
ATOM     18  O   UNL     1       1.593  -0.648   3.914  1.00  0.00    -0.268 OA
BRANCH  16  19
ATOM     19  C   UNL     1       0.941  -2.240   2.212  1.00  0.00     0.273 C 
BRANCH  19  20
ATOM     20  N   UNL     1      -0.229  -2.252   1.306  1.00  0.00    -0.347 N 
ATOM     21  H   UNL     1      -0.021  -1.700   0.474  1.00  0.00     0.345 HD
ATOM     22  H   UNL     1      -1.036  -1.853   1.786  1.00  0.00     0.345 HD
ATOM     23  H   UNL     1      -0.437  -3.213   1.032  1.00  0.00     0.345 HD
ENDBRANCH  19  20
BRANCH  19  24
ATOM     24  C   UNL     1       2.195  -2.911   1.606  1.00  0.00     0.051 C 
ATOM     25  C   UNL     1       3.312  -3.013   2.657  1.00  0.00     0.014 C 
ATOM     26  C   UNL     1       1.898  -4.325   1.087  1.00  0.00     0.014 C 
ENDBRANCH  19  24
ENDBRANCH  16  19
ENDBRANCH  14  15
ENDBRANCH  11  14
ENDBRANCH   5  10
ENDBRANCH   3   5
ENDBRANCH   2   3
ENDBRANCH   1   2
BRANCH   1  27
ATOM     27  C   UNL     1      -5.979   0.647   0.334  1.00  0.00     0.202 C 
BRANCH  27  28
ATOM     28  O   UNL     1      -5.287  -0.377  -0.365  1.00  0.00    -0.374 OA
BRANCH  28  29
ATOM     29  C   UNL     1      -4.080  -0.053  -1.056  1.00  0.00     0.202 C 
BRANCH  29  30
ATOM     30  C   UNL     1      -4.123   1.041  -2.129  1.00  0.00     0.261 C 
BRANCH  30  31
ATOM     31  O   UNL     1      -4.396   2.343  -1.577  1.00  0.00    -0.460 OA
BRANCH  31  32
ATOM     32  C   UNL     1      -5.468   2.970  -2.112  1.00  0.00     0.338 C 
ATOM     33  O   UNL     1      -6.190   2.569  -3.021  1.00  0.00    -0.246 OA
BRANCH  32  34
ATOM     34  C   UNL     1      -5.806   4.165  -1.329  1.00  0.00     0.060 A 
ATOM     35  C   UNL     1      -7.060   4.206  -0.705  1.00  0.00     0.016 A 
ATOM     36  C   UNL     1      -4.964   5.278  -1.313  1.00  0.00     0.016 A 
ATOM     37  C   UNL     1      -7.497   5.380  -0.099  1.00  0.00     0.010 A 
ATOM     38  C   UNL     1      -5.411   6.461  -0.716  1.00  0.00     0.010 A 
ATOM     39  C   UNL     1      -6.692   6.527  -0.139  1.00  0.00    -0.014 A 
BRANCH  39  40
ATOM     40  C   UNL     1      -7.260   7.823   0.301  1.00  0.00     0.031 A 
ATOM     41  C   UNL     1      -7.815   8.768  -0.729  1.00  0.00     0.074 A 
ATOM     42  C   UNL     1      -7.324   8.130   1.608  1.00  0.00     0.049 A 
ATOM     43  N   UNL     1      -8.356   9.947  -0.565  1.00  0.00    -0.248 NA
ATOM     44  C   UNL     1      -7.756   8.321  -2.131  1.00  0.00     0.031 C 
ATOM     45  C   UNL     1      -6.855   7.278   2.700  1.00  0.00     0.029 A 
ATOM     46  N   UNL     1      -7.811   9.248   2.236  1.00  0.00    -0.354 N 
ATOM     47  C   UNL     1      -8.704  10.383  -1.838  1.00  0.00     0.074 A 
ATOM     48  C   UNL     1      -8.286   9.356  -2.767  1.00  0.00     0.031 C 
ATOM     49  C   UNL     1      -7.070   7.910   3.866  1.00  0.00     0.029 A 
ATOM     50  C   UNL     1      -7.666   9.217   3.601  1.00  0.00     0.049 A 
ATOM     51  H   UNL     1      -8.226  10.000   1.754  1.00  0.00     0.167 HD
ATOM     52  C   UNL     1      -9.326  11.531  -2.198  1.00  0.00     0.037 A 
ATOM     53  C   UNL     1      -7.964  10.149   4.526  1.00  0.00     0.037 A 
ATOM     54  C   UNL     1      -9.738  12.554  -1.273  1.00  0.00     0.049 A 
ATOM     55  C   UNL     1      -8.589  11.447   4.091  1.00  0.00     0.074 A 
ATOM     56  C   UNL     1     -10.383  13.750  -1.540  1.00  0.00     0.029 A 
ATOM     57  N   UNL     1      -9.541  12.504   0.098  1.00  0.00    -0.354 N 
ATOM     58  N   UNL     1      -8.934  11.839   2.888  1.00  0.00    -0.248 NA
ATOM     59  C   UNL     1      -8.871  12.432   5.146  1.00  0.00     0.031 C 
ATOM     60  C   UNL     1     -10.538  14.442  -0.334  1.00  0.00     0.029 A 
ATOM     61  C   UNL     1     -10.031  13.657   0.689  1.00  0.00     0.049 A 
ATOM     62  H   UNL     1      -9.115  11.759   0.580  1.00  0.00     0.167 HD
ATOM     63  C   UNL     1      -9.494  13.101   3.044  1.00  0.00     0.074 A 
ATOM     64  C   UNL     1      -9.459  13.402   4.460  1.00  0.00     0.031 C 
ATOM     65  C   UNL     1      -9.991  13.938   2.100  1.00  0.00     0.037 A 
BRANCH  52  66
ATOM     66  C   UNL     1      -9.584  11.751  -3.659  1.00  0.00     0.057 A 
ATOM     67  C   UNL     1     -10.581  11.047  -4.345  1.00  0.00     0.134 A 
ATOM     68  C   UNL     1      -8.857  12.709  -4.377  1.00  0.00     0.134 A 
ATOM     69  F   UNL     1     -11.303  10.106  -3.718  1.00  0.00    -0.206 F 
ATOM     70  C   UNL     1     -10.837  11.278  -5.698  1.00  0.00     0.040 A 
ATOM     71  C   UNL     1      -9.119  12.965  -5.724  1.00  0.00     0.040 A 
ATOM     72  F   UNL     1      -7.890  13.420  -3.777  1.00  0.00    -0.206 F 
ATOM     73  C   UNL     1     -10.110  12.245  -6.389  1.00  0.00     0.006 A 
ENDBRANCH  52  66
BRANCH  53  74
ATOM     74  C   UNL     1      -7.661   9.902   5.958  1.00  0.00     0.057 A 
ATOM     75  C   UNL     1      -8.682   9.732   6.899  1.00  0.00     0.134 A 
ATOM     76  C   UNL     1      -6.341   9.866   6.424  1.00  0.00     0.134 A 
ATOM     77  F   UNL     1      -9.966   9.781   6.517  1.00  0.00    -0.206 F 
ATOM     78  C   UNL     1      -8.403   9.556   8.256  1.00  0.00     0.040 A 
ATOM     79  C   UNL     1      -6.047   9.666   7.773  1.00  0.00     0.040 A 
ATOM     80  F   UNL     1      -5.317  10.021   5.572  1.00  0.00    -0.206 F 
ATOM     81  C   UNL     1      -7.081   9.519   8.695  1.00  0.00     0.006 A 
ENDBRANCH  53  74
BRANCH  65  82
ATOM     82  C   UNL     1     -10.563  15.241   2.575  1.00  0.00     0.057 A 
ATOM     83  C   UNL     1      -9.746  16.282   3.033  1.00  0.00     0.134 A 
ATOM     84  C   UNL     1     -11.945  15.466   2.548  1.00  0.00     0.134 A 
ATOM     85  F   UNL     1      -8.415  16.125   3.096  1.00  0.00    -0.206 F 
ATOM     86  C   UNL     1     -10.286  17.492   3.473  1.00  0.00     0.040 A 
ATOM     87  C   UNL     1     -12.495  16.681   2.960  1.00  0.00     0.040 A 
ATOM     88  F   UNL     1     -12.783  14.514   2.111  1.00  0.00    -0.206 F 
ATOM     89  C   UNL     1     -11.664  17.695   3.432  1.00  0.00     0.006 A 
ENDBRANCH  65  82
ENDBRANCH  39  40
ENDBRANCH  32  34
ENDBRANCH  31  32
ENDBRANCH  30  31
ENDBRANCH  29  30
ENDBRANCH  28  29
ENDBRANCH  27  28
ENDBRANCH   1  27
TORSDOF 22
