REMARK SMILES O=C(CNc1nc(-c2ccccc2)c(-c2ccccc2)s1)OCCOCCOC(=O)c1ccc(-c2c3nc(c(-c4c(F)cccc4F)c4ccc([nH]4)c(-c4c(F)cccc4F)c4nc(c(-c5c(F)cccc5F)c5ccc2[nH]5)C=C4)C=C3)cc1
REMARK SMILES IDX 24 1 23 2 22 3 2 4 1 5 3 6 4 7 5 9 6 10 21 11 7 12 14 13
REMARK SMILES IDX 8 14 9 15 13 16 10 17 12 18 11 19 15 20 16 21 20 22 17 23
REMARK SMILES IDX 19 24 18 25 25 26 26 27 27 28 28 29 29 30 30 31 31 32 32 33
REMARK SMILES IDX 84 34 33 35 83 36 34 37 35 38 36 39 77 40 37 41 82 42 76 43
REMARK SMILES IDX 78 44 38 45 81 46 75 47 74 48 39 50 65 51 48 52 64 53 49 54
REMARK SMILES IDX 52 55 63 56 79 57 50 58 51 59 62 61 80 62 53 63 40 64 41 65
REMARK SMILES IDX 46 66 42 67 43 68 45 69 47 70 44 71 66 72 67 73 72 74 68 75
REMARK SMILES IDX 69 76 71 77 73 78 70 79 54 80 55 81 60 82 56 83 57 84 59 85
REMARK SMILES IDX 61 86 58 87
REMARK H PARENT 4 8 78 49 52 60
REMARK Flexibility Score: inf
ROOT
ATOM      1  C   UNL     1       4.537   0.610   0.743  1.00  0.00     0.202 C 
ENDROOT
BRANCH   1   2
ATOM      2  C   UNL     1       4.027   0.879  -0.670  1.00  0.00     0.261 C 
BRANCH   2   3
ATOM      3  O   UNL     1       2.646   0.575  -0.893  1.00  0.00    -0.462 OA
BRANCH   3   4
ATOM      4  C   UNL     1       2.143  -0.658  -1.139  1.00  0.00     0.325 C 
ATOM      5  O   UNL     1       0.924  -0.775  -1.281  1.00  0.00    -0.250 OA
BRANCH   4   6
ATOM      6  C   UNL     1       3.052  -1.888  -1.194  1.00  0.00     0.238 C 
BRANCH   6   7
ATOM      7  N   UNL     1       4.146  -1.764  -2.141  1.00  0.00    -0.351 N 
ATOM      8  H   UNL     1       3.948  -1.550  -3.081  1.00  0.00     0.163 HD
BRANCH   7   9
ATOM      9  C   UNL     1       5.429  -1.937  -1.760  1.00  0.00     0.184 A 
ATOM     10  N   UNL     1       5.849  -2.551  -0.679  1.00  0.00    -0.220 NA
ATOM     11  S   UNL     1       6.667  -1.217  -2.717  1.00  0.00    -0.096 S 
ATOM     12  C   UNL     1       7.227  -2.413  -0.553  1.00  0.00     0.091 A 
ATOM     13  C   UNL     1       7.831  -1.650  -1.541  1.00  0.00     0.064 A 
BRANCH  12  14
ATOM     14  C   UNL     1       7.996  -3.138   0.453  1.00  0.00     0.002 A 
ATOM     15  C   UNL     1       8.957  -2.497   1.250  1.00  0.00     0.010 A 
ATOM     16  C   UNL     1       7.892  -4.534   0.503  1.00  0.00     0.010 A 
ATOM     17  C   UNL     1       9.853  -3.247   2.016  1.00  0.00     0.001 A 
ATOM     18  C   UNL     1       8.789  -5.282   1.270  1.00  0.00     0.001 A 
ATOM     19  C   UNL     1       9.781  -4.639   2.010  1.00  0.00     0.000 A 
ENDBRANCH  12  14
BRANCH  13  20
ATOM     20  C   UNL     1       9.227  -1.302  -1.773  1.00  0.00    -0.006 A 
ATOM     21  C   UNL     1       9.674   0.017  -1.612  1.00  0.00     0.009 A 
ATOM     22  C   UNL     1      10.138  -2.298  -2.143  1.00  0.00     0.009 A 
ATOM     23  C   UNL     1      11.015   0.334  -1.836  1.00  0.00     0.001 A 
ATOM     24  C   UNL     1      11.475  -1.979  -2.368  1.00  0.00     0.001 A 
ATOM     25  C   UNL     1      11.912  -0.663  -2.220  1.00  0.00     0.000 A 
ENDBRANCH  13  20
ENDBRANCH   7   9
ENDBRANCH   6   7
ENDBRANCH   4   6
ENDBRANCH   3   4
ENDBRANCH   2   3
ENDBRANCH   1   2
BRANCH   1  26
ATOM     26  O   UNL     1       4.018  -0.526   1.419  1.00  0.00    -0.374 OA
BRANCH  26  27
ATOM     27  C   UNL     1       2.762  -0.350   2.082  1.00  0.00     0.202 C 
BRANCH  27  28
ATOM     28  C   UNL     1       2.838   0.270   3.482  1.00  0.00     0.261 C 
BRANCH  28  29
ATOM     29  O   UNL     1       3.244   1.647   3.425  1.00  0.00    -0.460 OA
BRANCH  29  30
ATOM     30  C   UNL     1       4.541   1.879   3.738  1.00  0.00     0.338 C 
ATOM     31  O   UNL     1       5.358   1.082   4.171  1.00  0.00    -0.246 OA
BRANCH  30  32
ATOM     32  C   UNL     1       4.909   3.229   3.269  1.00  0.00     0.060 A 
ATOM     33  C   UNL     1       6.103   3.367   2.545  1.00  0.00     0.016 A 
ATOM     34  C   UNL     1       4.104   4.339   3.533  1.00  0.00     0.016 A 
ATOM     35  C   UNL     1       6.526   4.628   2.134  1.00  0.00     0.010 A 
ATOM     36  C   UNL     1       4.533   5.603   3.126  1.00  0.00     0.010 A 
ATOM     37  C   UNL     1       5.764   5.755   2.463  1.00  0.00    -0.014 A 
BRANCH  37  38
ATOM     38  C   UNL     1       6.335   7.108   2.282  1.00  0.00     0.031 A 
ATOM     39  C   UNL     1       6.894   7.814   3.486  1.00  0.00     0.074 A 
ATOM     40  C   UNL     1       6.359   7.692   1.073  1.00  0.00     0.049 A 
ATOM     41  N   UNL     1       7.376   9.024   3.592  1.00  0.00    -0.248 NA
ATOM     42  C   UNL     1       6.903   7.049   4.745  1.00  0.00     0.031 C 
ATOM     43  C   UNL     1       5.878   7.088  -0.168  1.00  0.00     0.029 A 
ATOM     44  N   UNL     1       6.798   8.936   0.697  1.00  0.00    -0.354 N 
ATOM     45  C   UNL     1       7.731   9.171   4.927  1.00  0.00     0.074 A 
ATOM     46  C   UNL     1       7.378   7.941   5.600  1.00  0.00     0.031 C 
ATOM     47  C   UNL     1       6.035   7.971  -1.170  1.00  0.00     0.029 A 
ATOM     48  C   UNL     1       6.592   9.210  -0.633  1.00  0.00     0.049 A 
ATOM     49  H   UNL     1       7.220   9.571   1.319  1.00  0.00     0.167 HD
ATOM     50  C   UNL     1       8.308  10.235   5.534  1.00  0.00     0.037 A 
ATOM     51  C   UNL     1       6.805  10.346  -1.325  1.00  0.00     0.037 A 
ATOM     52  C   UNL     1       8.653  11.455   4.854  1.00  0.00     0.049 A 
ATOM     53  C   UNL     1       7.380  11.542  -0.612  1.00  0.00     0.074 A 
ATOM     54  C   UNL     1       9.261  12.586   5.367  1.00  0.00     0.029 A 
ATOM     55  N   UNL     1       8.409  11.705   3.511  1.00  0.00    -0.354 N 
ATOM     56  N   UNL     1       7.742  11.664   0.643  1.00  0.00    -0.248 NA
ATOM     57  C   UNL     1       7.580  12.757  -1.414  1.00  0.00     0.031 C 
ATOM     58  C   UNL     1       9.331  13.543   4.350  1.00  0.00     0.029 A 
ATOM     59  C   UNL     1       8.826  12.985   3.185  1.00  0.00     0.049 A 
ATOM     60  H   UNL     1       7.999  11.068   2.883  1.00  0.00     0.167 HD
ATOM     61  C   UNL     1       8.239  12.955   0.774  1.00  0.00     0.074 A 
ATOM     62  C   UNL     1       8.146  13.571  -0.534  1.00  0.00     0.031 C 
ATOM     63  C   UNL     1       8.730  13.577   1.875  1.00  0.00     0.037 A 
BRANCH  50  64
ATOM     64  C   UNL     1       8.572  10.134   7.008  1.00  0.00     0.057 A 
ATOM     65  C   UNL     1       9.549   9.277   7.533  1.00  0.00     0.134 A 
ATOM     66  C   UNL     1       7.853  10.923   7.916  1.00  0.00     0.134 A 
ATOM     67  F   UNL     1      10.263   8.481   6.722  1.00  0.00    -0.206 F 
ATOM     68  C   UNL     1       9.784   9.191   8.907  1.00  0.00     0.040 A 
ATOM     69  C   UNL     1       8.100  10.867   9.288  1.00  0.00     0.040 A 
ATOM     70  F   UNL     1       6.904  11.766   7.482  1.00  0.00    -0.206 F 
ATOM     71  C   UNL     1       9.063   9.994   9.788  1.00  0.00     0.006 A 
ENDBRANCH  50  64
BRANCH  51  72
ATOM     72  C   UNL     1       6.462  10.414  -2.769  1.00  0.00     0.057 A 
ATOM     73  C   UNL     1       7.456  10.543  -3.746  1.00  0.00     0.134 A 
ATOM     74  C   UNL     1       5.132  10.372  -3.206  1.00  0.00     0.134 A 
ATOM     75  F   UNL     1       8.747  10.611  -3.390  1.00  0.00    -0.206 F 
ATOM     76  C   UNL     1       7.140  10.649  -5.102  1.00  0.00     0.040 A 
ATOM     77  C   UNL     1       4.803  10.447  -4.561  1.00  0.00     0.040 A 
ATOM     78  F   UNL     1       4.131  10.246  -2.322  1.00  0.00    -0.206 F 
ATOM     79  C   UNL     1       5.810  10.595  -5.512  1.00  0.00     0.006 A 
ENDBRANCH  51  72
BRANCH  63  80
ATOM     80  C   UNL     1       9.243  14.979   1.704  1.00  0.00     0.057 A 
ATOM     81  C   UNL     1       8.385  16.062   1.473  1.00  0.00     0.134 A 
ATOM     82  C   UNL     1      10.613  15.253   1.813  1.00  0.00     0.134 A 
ATOM     83  F   UNL     1       7.063  15.867   1.346  1.00  0.00    -0.206 F 
ATOM     84  C   UNL     1       8.873  17.361   1.329  1.00  0.00     0.040 A 
ATOM     85  C   UNL     1      11.110  16.552   1.704  1.00  0.00     0.040 A 
ATOM     86  F   UNL     1      11.489  14.264   2.046  1.00  0.00    -0.206 F 
ATOM     87  C   UNL     1      10.239  17.610   1.454  1.00  0.00     0.006 A 
ENDBRANCH  63  80
ENDBRANCH  37  38
ENDBRANCH  30  32
ENDBRANCH  29  30
ENDBRANCH  28  29
ENDBRANCH  27  28
ENDBRANCH  26  27
ENDBRANCH   1  26
TORSDOF 18
