REMARK SMILES O=C(C[C@H]1C(=O)NCC[N@@H+]1Cc1cccc(C2CC2)c1)OCCOCCOC(=O)c1ccc(-c2c3nc(c(-c4c(F)cccc4F)c4ccc([nH]4)c(-c4c(F)cccc4F)c4nc(c(-c5c(F)cccc5F)c5ccc2[nH]5)C=C4)C=C3)cc1
REMARK SMILES IDX 23 1 22 2 21 3 2 4 1 5 3 6 4 7 5 8 10 9 6 10 7 11 9 12 8 14
REMARK SMILES IDX 11 16 12 17 13 18 20 19 14 20 16 21 15 22 17 23 18 24 19 25
REMARK SMILES IDX 24 26 25 27 26 28 27 29 28 30 29 31 30 32 31 33 83 34 32 35
REMARK SMILES IDX 82 36 33 37 34 38 35 39 76 40 36 41 81 42 75 43 77 44 37 45
REMARK SMILES IDX 80 46 74 47 73 48 38 50 64 51 47 52 63 53 48 54 51 55 62 56
REMARK SMILES IDX 78 57 49 58 50 59 61 61 79 62 52 63 39 64 40 65 45 66 41 67
REMARK SMILES IDX 42 68 44 69 46 70 43 71 65 72 66 73 71 74 67 75 68 76 70 77
REMARK SMILES IDX 72 78 69 79 53 80 54 81 59 82 55 83 56 84 58 85 60 86 57 87
REMARK H PARENT 10 13 7 15 77 49 51 60
REMARK Flexibility Score: inf
ROOT
ATOM      1  C   UNL     1       7.215   3.085   0.783  1.00  0.00     0.202 C 
ENDROOT
BRANCH   1   2
ATOM      2  C   UNL     1       6.170   2.078   1.196  1.00  0.00     0.261 C 
BRANCH   2   3
ATOM      3  O   UNL     1       6.352   0.755   0.704  1.00  0.00    -0.463 OA
BRANCH   3   4
ATOM      4  C   UNL     1       5.319   0.167   0.029  1.00  0.00     0.312 C 
ATOM      5  O   UNL     1       5.142  -1.044   0.115  1.00  0.00    -0.252 OA
BRANCH   4   6
ATOM      6  C   UNL     1       4.545   1.019  -0.974  1.00  0.00     0.198 C 
BRANCH   6   7
ATOM      7  C   UNL     1       3.155   1.587  -0.576  1.00  0.00     0.285 C 
ATOM      8  C   UNL     1       2.921   1.631   0.944  1.00  0.00     0.279 C 
ATOM      9  N   UNL     1       2.899   2.914  -1.234  1.00  0.00    -0.319 N 
ATOM     10  O   UNL     1       2.577   0.643   1.590  1.00  0.00    -0.268 OA
ATOM     11  N   UNL     1       3.193   2.804   1.596  1.00  0.00    -0.345 N 
ATOM     12  C   UNL     1       3.670   3.992  -0.598  1.00  0.00     0.284 C 
ATOM     13  H   UNL     1       3.251   2.796  -2.184  1.00  0.00     0.349 HD
ATOM     14  C   UNL     1       3.616   4.030   0.944  1.00  0.00     0.177 C 
ATOM     15  H   UNL     1       3.096   2.817   2.575  1.00  0.00     0.163 HD
BRANCH   9  16
ATOM     16  C   UNL     1       1.476   3.266  -1.467  1.00  0.00     0.299 C 
BRANCH  16  17
ATOM     17  C   UNL     1       0.636   3.593  -0.244  1.00  0.00     0.006 A 
ATOM     18  C   UNL     1      -0.112   2.582   0.363  1.00  0.00     0.009 A 
ATOM     19  C   UNL     1       0.737   4.849   0.399  1.00  0.00     0.013 A 
ATOM     20  C   UNL     1      -0.636   2.778   1.634  1.00  0.00     0.001 A 
ATOM     21  C   UNL     1       0.372   5.015   1.750  1.00  0.00    -0.044 A 
ATOM     22  C   UNL     1      -0.360   3.960   2.326  1.00  0.00     0.004 A 
BRANCH  21  23
ATOM     23  C   UNL     1       0.891   6.129   2.662  1.00  0.00     0.019 C 
ATOM     24  C   UNL     1       2.179   6.883   2.372  1.00  0.00     0.009 C 
ATOM     25  C   UNL     1       0.862   7.592   2.325  1.00  0.00     0.009 C 
ENDBRANCH  21  23
ENDBRANCH  16  17
ENDBRANCH   9  16
ENDBRANCH   6   7
ENDBRANCH   4   6
ENDBRANCH   3   4
ENDBRANCH   2   3
ENDBRANCH   1   2
BRANCH   1  26
ATOM     26  O   UNL     1       7.316   3.187  -0.638  1.00  0.00    -0.374 OA
BRANCH  26  27
ATOM     27  C   UNL     1       8.410   2.432  -1.158  1.00  0.00     0.202 C 
BRANCH  27  28
ATOM     28  C   UNL     1       9.756   3.174  -1.082  1.00  0.00     0.261 C 
BRANCH  28  29
ATOM     29  O   UNL     1       9.894   3.955   0.120  1.00  0.00    -0.460 OA
BRANCH  29  30
ATOM     30  C   UNL     1       9.388   5.217   0.029  1.00  0.00     0.338 C 
ATOM     31  O   UNL     1       9.047   5.790  -0.984  1.00  0.00    -0.246 OA
BRANCH  30  32
ATOM     32  C   UNL     1       9.139   5.769   1.389  1.00  0.00     0.060 A 
ATOM     33  C   UNL     1       8.060   6.652   1.542  1.00  0.00     0.016 A 
ATOM     34  C   UNL     1       9.931   5.443   2.495  1.00  0.00     0.016 A 
ATOM     35  C   UNL     1       7.822   7.274   2.769  1.00  0.00     0.010 A 
ATOM     36  C   UNL     1       9.693   6.067   3.727  1.00  0.00     0.010 A 
ATOM     37  C   UNL     1       8.673   7.029   3.854  1.00  0.00    -0.014 A 
BRANCH  37  38
ATOM     38  C   UNL     1       8.647   7.951   5.020  1.00  0.00     0.031 A 
ATOM     39  C   UNL     1       9.681   9.048   5.080  1.00  0.00     0.074 A 
ATOM     40  C   UNL     1       7.702   7.869   5.974  1.00  0.00     0.049 A 
ATOM     41  N   UNL     1       9.861   9.978   5.984  1.00  0.00    -0.248 NA
ATOM     42  C   UNL     1      10.644   9.099   3.967  1.00  0.00     0.031 C 
ATOM     43  C   UNL     1       6.630   6.878   6.024  1.00  0.00     0.029 A 
ATOM     44  N   UNL     1       7.500   8.640   7.093  1.00  0.00    -0.354 N 
ATOM     45  C   UNL     1      10.948  10.725   5.544  1.00  0.00     0.074 A 
ATOM     46  C   UNL     1      11.421  10.109   4.324  1.00  0.00     0.031 C 
ATOM     47  C   UNL     1       5.888   7.094   7.125  1.00  0.00     0.029 A 
ATOM     48  C   UNL     1       6.445   8.224   7.868  1.00  0.00     0.049 A 
ATOM     49  H   UNL     1       8.059   9.419   7.318  1.00  0.00     0.167 HD
ATOM     50  C   UNL     1      11.494  11.836   6.091  1.00  0.00     0.037 A 
ATOM     51  C   UNL     1       5.994   8.692   9.050  1.00  0.00     0.037 A 
ATOM     52  C   UNL     1      11.037  12.447   7.311  1.00  0.00     0.049 A 
ATOM     53  C   UNL     1       6.662   9.890   9.677  1.00  0.00     0.074 A 
ATOM     54  C   UNL     1      11.529  13.570   7.951  1.00  0.00     0.029 A 
ATOM     55  N   UNL     1       9.981  11.980   8.078  1.00  0.00    -0.354 N 
ATOM     56  N   UNL     1       7.674  10.601   9.239  1.00  0.00    -0.248 NA
ATOM     57  C   UNL     1       6.114  10.359  10.959  1.00  0.00     0.031 C 
ATOM     58  C   UNL     1      10.801  13.755   9.131  1.00  0.00     0.029 A 
ATOM     59  C   UNL     1       9.817  12.783   9.194  1.00  0.00     0.049 A 
ATOM     60  H   UNL     1       9.429  11.194   7.861  1.00  0.00     0.167 HD
ATOM     61  C   UNL     1       7.865  11.613  10.175  1.00  0.00     0.074 A 
ATOM     62  C   UNL     1       6.847  11.438  11.190  1.00  0.00     0.031 C 
ATOM     63  C   UNL     1       8.798  12.597  10.196  1.00  0.00     0.037 A 
BRANCH  50  64
ATOM     64  C   UNL     1      12.660  12.456   5.373  1.00  0.00     0.057 A 
ATOM     65  C   UNL     1      12.505  13.111   4.144  1.00  0.00     0.134 A 
ATOM     66  C   UNL     1      13.945  12.418   5.927  1.00  0.00     0.134 A 
ATOM     67  F   UNL     1      11.304  13.167   3.549  1.00  0.00    -0.206 F 
ATOM     68  C   UNL     1      13.591  13.686   3.481  1.00  0.00     0.040 A 
ATOM     69  C   UNL     1      15.033  13.015   5.288  1.00  0.00     0.040 A 
ATOM     70  F   UNL     1      14.164  11.808   7.101  1.00  0.00    -0.206 F 
ATOM     71  C   UNL     1      14.859  13.646   4.058  1.00  0.00     0.006 A 
ENDBRANCH  50  64
BRANCH  51  72
ATOM     72  C   UNL     1       4.858   8.021   9.738  1.00  0.00     0.057 A 
ATOM     73  C   UNL     1       3.626   8.663   9.916  1.00  0.00     0.134 A 
ATOM     74  C   UNL     1       4.996   6.736  10.277  1.00  0.00     0.134 A 
ATOM     75  F   UNL     1       3.438   9.905   9.447  1.00  0.00    -0.206 F 
ATOM     76  C   UNL     1       2.584   8.063  10.627  1.00  0.00     0.040 A 
ATOM     77  C   UNL     1       3.952   6.112  10.963  1.00  0.00     0.040 A 
ATOM     78  F   UNL     1       6.150   6.066  10.143  1.00  0.00    -0.206 F 
ATOM     79  C   UNL     1       2.745   6.782  11.149  1.00  0.00     0.006 A 
ENDBRANCH  51  72
BRANCH  63  80
ATOM     80  C   UNL     1       8.736  13.581  11.332  1.00  0.00     0.057 A 
ATOM     81  C   UNL     1       9.051  13.218  12.649  1.00  0.00     0.134 A 
ATOM     82  C   UNL     1       8.370  14.914  11.102  1.00  0.00     0.134 A 
ATOM     83  F   UNL     1       9.401  11.957  12.941  1.00  0.00    -0.206 F 
ATOM     84  C   UNL     1       8.964  14.134  13.699  1.00  0.00     0.040 A 
ATOM     85  C   UNL     1       8.312  15.847  12.139  1.00  0.00     0.040 A 
ATOM     86  F   UNL     1       8.070  15.335   9.864  1.00  0.00    -0.206 F 
ATOM     87  C   UNL     1       8.598  15.454  13.444  1.00  0.00     0.006 A 
ENDBRANCH  63  80
ENDBRANCH  37  38
ENDBRANCH  30  32
ENDBRANCH  29  30
ENDBRANCH  28  29
ENDBRANCH  27  28
ENDBRANCH  26  27
ENDBRANCH   1  26
TORSDOF 18
