REMARK SMILES CCOc1ccc(N)c(SCc2ccccc2C(=O)OCCOCCOC(=O)c2ccc(-c3c4nc(c(-c5c(F)cccc5F)c5ccc([nH]5)c(-c5c(F)cccc5F)c5nc(c(-c6c(F)cccc6F)c6ccc3[nH]6)C=C5)C=C4)cc2)c1
REMARK SMILES IDX 21 1 20 2 18 3 19 4 17 5 12 6 13 7 14 8 16 9 15 10 11 11
REMARK SMILES IDX 10 12 9 13 4 14 5 15 83 16 6 17 7 18 3 19 2 20 1 21 8 22
REMARK SMILES IDX 22 25 23 26 24 27 25 28 26 29 27 30 28 31 29 32 30 33 82 34
REMARK SMILES IDX 31 35 81 36 32 37 33 38 34 39 75 40 35 41 80 42 74 43 76 44
REMARK SMILES IDX 36 45 79 46 73 47 72 48 37 50 63 51 46 52 62 53 47 54 50 55
REMARK SMILES IDX 61 56 77 57 48 58 49 59 60 61 78 62 51 63 38 64 39 65 44 66
REMARK SMILES IDX 40 67 41 68 43 69 45 70 42 71 64 72 65 73 70 74 66 75 67 76
REMARK SMILES IDX 69 77 71 78 68 79 52 80 53 81 58 82 54 83 55 84 57 85 59 86
REMARK SMILES IDX 56 87
REMARK H PARENT 8 23 8 24 76 49 50 60
REMARK Flexibility Score: inf
ROOT
ATOM      1  C   UNL     1       8.186   8.487  -3.398  1.00  0.00     0.261 C 
ENDROOT
BRANCH   1   2
ATOM      2  O   UNL     1       8.053   7.108  -3.008  1.00  0.00    -0.460 OA
BRANCH   2   3
ATOM      3  C   UNL     1       8.905   6.712  -2.040  1.00  0.00     0.338 C 
ATOM      4  O   UNL     1       9.871   7.351  -1.645  1.00  0.00    -0.246 OA
BRANCH   3   5
ATOM      5  C   UNL     1       8.486   5.445  -1.370  1.00  0.00     0.064 A 
ATOM      6  C   UNL     1       7.837   4.335  -1.950  1.00  0.00    -0.023 A 
ATOM      7  C   UNL     1       7.810   3.149  -1.185  1.00  0.00     0.005 A 
ATOM      8  C   UNL     1       8.261   3.086   0.132  1.00  0.00     0.000 A 
ATOM      9  C   UNL     1       8.890   5.384  -0.016  1.00  0.00     0.016 A 
ATOM     10  C   UNL     1       8.761   4.222   0.736  1.00  0.00     0.001 A 
BRANCH   6  11
ATOM     11  C   UNL     1       7.213   4.276  -3.327  1.00  0.00     0.111 C 
BRANCH  11  12
ATOM     12  S   UNL     1       5.366   4.420  -3.375  1.00  0.00    -0.119 SA
BRANCH  12  13
ATOM     13  C   UNL     1       4.639   2.891  -2.731  1.00  0.00     0.034 A 
ATOM     14  C   UNL     1       2.656   1.914  -1.641  1.00  0.00     0.120 A 
ATOM     15  C   UNL     1       3.305   0.693  -1.555  1.00  0.00     0.048 A 
ATOM     16  C   UNL     1       3.334   3.011  -2.195  1.00  0.00     0.063 A 
ATOM     17  C   UNL     1       4.573   0.545  -2.114  1.00  0.00     0.030 A 
ATOM     18  C   UNL     1       5.192   1.599  -2.805  1.00  0.00     0.045 A 
BRANCH  14  19
ATOM     19  O   UNL     1       1.313   2.045  -1.415  1.00  0.00    -0.494 OA
BRANCH  19  20
ATOM     20  C   UNL     1       0.815   1.711  -0.116  1.00  0.00     0.226 C 
ATOM     21  C   UNL     1       0.606   0.223   0.130  1.00  0.00     0.049 C 
ENDBRANCH  19  20
ENDBRANCH  14  19
BRANCH  18  22
ATOM     22  N   UNL     1       6.336   1.296  -3.544  1.00  0.00    -0.398 N 
ATOM     23  H   UNL     1       6.680   0.374  -3.562  1.00  0.00     0.156 HD
ATOM     24  H   UNL     1       6.799   2.004  -4.047  1.00  0.00     0.156 HD
ENDBRANCH  18  22
ENDBRANCH  12  13
ENDBRANCH  11  12
ENDBRANCH   6  11
ENDBRANCH   3   5
ENDBRANCH   2   3
ENDBRANCH   1   2
BRANCH   1  25
ATOM     25  C   UNL     1       6.928   9.255  -2.997  1.00  0.00     0.202 C 
BRANCH  25  26
ATOM     26  O   UNL     1       6.698   9.357  -1.590  1.00  0.00    -0.374 OA
BRANCH  26  27
ATOM     27  C   UNL     1       6.069   8.237  -0.960  1.00  0.00     0.202 C 
BRANCH  27  28
ATOM     28  C   UNL     1       4.542   8.184  -1.066  1.00  0.00     0.261 C 
BRANCH  28  29
ATOM     29  O   UNL     1       4.116   7.898  -2.410  1.00  0.00    -0.460 OA
BRANCH  29  30
ATOM     30  C   UNL     1       3.635   8.955  -3.098  1.00  0.00     0.338 C 
ATOM     31  O   UNL     1       3.431  10.086  -2.671  1.00  0.00    -0.246 OA
BRANCH  30  32
ATOM     32  C   UNL     1       3.554   8.627  -4.533  1.00  0.00     0.060 A 
ATOM     33  C   UNL     1       4.088   9.555  -5.439  1.00  0.00     0.016 A 
ATOM     34  C   UNL     1       2.928   7.468  -4.995  1.00  0.00     0.016 A 
ATOM     35  C   UNL     1       3.942   9.359  -6.809  1.00  0.00     0.010 A 
ATOM     36  C   UNL     1       2.773   7.276  -6.372  1.00  0.00     0.010 A 
ATOM     37  C   UNL     1       3.244   8.241  -7.282  1.00  0.00    -0.014 A 
BRANCH  37  38
ATOM     38  C   UNL     1       2.872   8.167  -8.716  1.00  0.00     0.031 A 
ATOM     39  C   UNL     1       1.475   8.545  -9.125  1.00  0.00     0.074 A 
ATOM     40  C   UNL     1       3.773   7.806  -9.646  1.00  0.00     0.049 A 
ATOM     41  N   UNL     1       0.924   8.532 -10.312  1.00  0.00    -0.248 NA
ATOM     42  C   UNL     1       0.578   9.000  -8.050  1.00  0.00     0.031 C 
ATOM     43  C   UNL     1       5.168   7.460  -9.381  1.00  0.00     0.029 A 
ATOM     44  N   UNL     1       3.642   7.669 -11.005  1.00  0.00    -0.354 N 
ATOM     45  C   UNL     1      -0.382   8.967 -10.126  1.00  0.00     0.074 A 
ATOM     46  C   UNL     1      -0.552   9.207  -8.709  1.00  0.00     0.031 C 
ATOM     47  C   UNL     1       5.764   7.140 -10.543  1.00  0.00     0.029 A 
ATOM     48  C   UNL     1       4.785   7.228 -11.625  1.00  0.00     0.049 A 
ATOM     49  H   UNL     1       2.808   7.868 -11.489  1.00  0.00     0.167 HD
ATOM     50  C   UNL     1      -1.350   9.160 -11.053  1.00  0.00     0.037 A 
ATOM     51  C   UNL     1       5.007   6.912 -12.915  1.00  0.00     0.037 A 
ATOM     52  C   UNL     1      -1.180   8.922 -12.463  1.00  0.00     0.049 A 
ATOM     53  C   UNL     1       3.892   7.061 -13.916  1.00  0.00     0.074 A 
ATOM     54  C   UNL     1      -2.095   9.105 -13.485  1.00  0.00     0.029 A 
ATOM     55  N   UNL     1      -0.019   8.440 -13.047  1.00  0.00    -0.354 N 
ATOM     56  N   UNL     1       2.668   7.497 -13.736  1.00  0.00    -0.248 NA
ATOM     57  C   UNL     1       4.190   6.675 -15.303  1.00  0.00     0.031 C 
ATOM     58  C   UNL     1      -1.505   8.684 -14.680  1.00  0.00     0.029 A 
ATOM     59  C   UNL     1      -0.203   8.293 -14.412  1.00  0.00     0.049 A 
ATOM     60  H   UNL     1       0.813   8.233 -12.563  1.00  0.00     0.167 HD
ATOM     61  C   UNL     1       2.063   7.467 -14.986  1.00  0.00     0.074 A 
ATOM     62  C   UNL     1       3.057   6.981 -15.920  1.00  0.00     0.031 C 
ATOM     63  C   UNL     1       0.798   7.814 -15.331  1.00  0.00     0.037 A 
BRANCH  50  64
ATOM     64  C   UNL     1      -2.690   9.630 -10.566  1.00  0.00     0.057 A 
ATOM     65  C   UNL     1      -2.893  10.932 -10.092  1.00  0.00     0.134 A 
ATOM     66  C   UNL     1      -3.800   8.775 -10.601  1.00  0.00     0.134 A 
ATOM     67  F   UNL     1      -1.869  11.796 -10.019  1.00  0.00    -0.206 F 
ATOM     68  C   UNL     1      -4.145  11.360  -9.647  1.00  0.00     0.040 A 
ATOM     69  C   UNL     1      -5.062   9.200 -10.185  1.00  0.00     0.040 A 
ATOM     70  F   UNL     1      -3.677   7.516 -11.049  1.00  0.00    -0.206 F 
ATOM     71  C   UNL     1      -5.236  10.494  -9.700  1.00  0.00     0.006 A 
ENDBRANCH  50  64
BRANCH  51  72
ATOM     72  C   UNL     1       6.338   6.409 -13.339  1.00  0.00     0.057 A 
ATOM     73  C   UNL     1       7.171   7.168 -14.168  1.00  0.00     0.134 A 
ATOM     74  C   UNL     1       6.799   5.147 -12.943  1.00  0.00     0.134 A 
ATOM     75  F   UNL     1       6.775   8.374 -14.601  1.00  0.00    -0.206 F 
ATOM     76  C   UNL     1       8.407   6.685 -14.603  1.00  0.00     0.040 A 
ATOM     77  C   UNL     1       8.043   4.662 -13.349  1.00  0.00     0.040 A 
ATOM     78  F   UNL     1       6.049   4.370 -12.148  1.00  0.00    -0.206 F 
ATOM     79  C   UNL     1       8.848   5.430 -14.189  1.00  0.00     0.006 A 
ENDBRANCH  51  72
BRANCH  63  80
ATOM     80  C   UNL     1       0.427   7.720 -16.784  1.00  0.00     0.057 A 
ATOM     81  C   UNL     1       0.243   6.488 -17.424  1.00  0.00     0.134 A 
ATOM     82  C   UNL     1       0.210   8.880 -17.539  1.00  0.00     0.134 A 
ATOM     83  F   UNL     1       0.446   5.340 -16.761  1.00  0.00    -0.206 F 
ATOM     84  C   UNL     1      -0.122   6.413 -18.770  1.00  0.00     0.040 A 
ATOM     85  C   UNL     1      -0.182   8.818 -18.877  1.00  0.00     0.040 A 
ATOM     86  F   UNL     1       0.360  10.092 -16.985  1.00  0.00    -0.206 F 
ATOM     87  C   UNL     1      -0.343   7.581 -19.498  1.00  0.00     0.006 A 
ENDBRANCH  63  80
ENDBRANCH  37  38
ENDBRANCH  30  32
ENDBRANCH  29  30
ENDBRANCH  28  29
ENDBRANCH  27  28
ENDBRANCH  26  27
ENDBRANCH  25  26
ENDBRANCH   1  25
TORSDOF 20
