REMARK SMILES O=C(CCCc1nc(-c2ccc(Cl)c(Cl)c2)c(-c2ccccc2)o1)OCCOCCOC(=O)c1ccc(-c2c3nc(c(-c4c(F)cccc4F)c4ccc([nH]4)c(-c4c(F)cccc4F)c4nc(c(-c5c(F)cccc5F)c5ccc2[nH]5)C=C4)C=C3)cc1
REMARK SMILES IDX 27 1 26 2 25 3 2 4 1 5 3 6 4 7 5 8 6 9 7 10 24 11 8 12 17 13
REMARK SMILES IDX 9 14 10 15 16 16 11 17 14 18 12 19 15 20 13 21 18 22 19 23
REMARK SMILES IDX 23 24 20 25 22 26 21 27 28 28 29 29 30 30 31 31 32 32 33 33
REMARK SMILES IDX 34 34 35 35 87 36 36 37 86 38 37 39 38 40 39 41 80 42 40 43
REMARK SMILES IDX 85 44 79 45 81 46 41 47 84 48 78 49 77 50 42 52 68 53 51 54
REMARK SMILES IDX 67 55 52 56 55 57 66 58 82 59 53 60 54 61 65 63 83 64 56 65
REMARK SMILES IDX 43 66 44 67 49 68 45 69 46 70 48 71 50 72 47 73 69 74 70 75
REMARK SMILES IDX 75 76 71 77 72 78 74 79 76 80 73 81 57 82 58 83 63 84 59 85
REMARK SMILES IDX 60 86 62 87 64 88 61 89
REMARK H PARENT 81 51 55 62
REMARK Flexibility Score: inf
ROOT
ATOM      1  C   UNL     1       3.289  -1.350  -0.766  1.00  0.00     0.202 C 
ENDROOT
BRANCH   1   2
ATOM      2  C   UNL     1       3.833  -1.434   0.656  1.00  0.00     0.261 C 
BRANCH   2   3
ATOM      3  O   UNL     1       3.189  -0.641   1.664  1.00  0.00    -0.463 OA
BRANCH   3   4
ATOM      4  C   UNL     1       2.644   0.537   1.299  1.00  0.00     0.305 C 
ATOM      5  O   UNL     1       1.429   0.663   1.179  1.00  0.00    -0.252 OA
BRANCH   4   6
ATOM      6  C   UNL     1       3.612   1.685   1.089  1.00  0.00     0.123 C 
BRANCH   6   7
ATOM      7  C   UNL     1       4.792   1.826   2.047  1.00  0.00     0.021 C 
BRANCH   7   8
ATOM      8  C   UNL     1       6.002   0.903   1.882  1.00  0.00     0.098 C 
BRANCH   8   9
ATOM      9  C   UNL     1       6.615   0.778   0.523  1.00  0.00     0.195 A 
ATOM     10  N   UNL     1       7.176  -0.301  -0.003  1.00  0.00    -0.213 NA
ATOM     11  O   UNL     1       6.713   1.905  -0.256  1.00  0.00    -0.440 OA
ATOM     12  C   UNL     1       7.671   0.137  -1.205  1.00  0.00     0.117 A 
ATOM     13  C   UNL     1       7.375   1.471  -1.377  1.00  0.00     0.162 A 
BRANCH  12  14
ATOM     14  C   UNL     1       8.438  -0.663  -2.138  1.00  0.00     0.006 A 
ATOM     15  C   UNL     1       7.826  -1.170  -3.286  1.00  0.00     0.012 A 
ATOM     16  C   UNL     1       9.804  -0.886  -1.948  1.00  0.00     0.032 A 
ATOM     17  C   UNL     1       8.532  -1.957  -4.197  1.00  0.00     0.023 A 
ATOM     18  C   UNL     1      10.533  -1.633  -2.886  1.00  0.00     0.060 A 
ATOM     19  C   UNL     1       9.891  -2.190  -4.000  1.00  0.00     0.059 A 
ATOM     20  Cl  UNL     1      12.233  -1.806  -2.629  1.00  0.00    -0.083 Cl
ATOM     21  Cl  UNL     1      10.714  -3.156  -5.171  1.00  0.00    -0.083 Cl
ENDBRANCH  12  14
BRANCH  13  22
ATOM     22  C   UNL     1       7.688   2.429  -2.415  1.00  0.00     0.020 A 
ATOM     23  C   UNL     1       8.613   3.448  -2.168  1.00  0.00     0.012 A 
ATOM     24  C   UNL     1       7.204   2.241  -3.717  1.00  0.00     0.012 A 
ATOM     25  C   UNL     1       9.075   4.245  -3.217  1.00  0.00     0.001 A 
ATOM     26  C   UNL     1       7.668   3.036  -4.765  1.00  0.00     0.001 A 
ATOM     27  C   UNL     1       8.610   4.032  -4.515  1.00  0.00     0.000 A 
ENDBRANCH  13  22
ENDBRANCH   8   9
ENDBRANCH   7   8
ENDBRANCH   6   7
ENDBRANCH   4   6
ENDBRANCH   3   4
ENDBRANCH   2   3
ENDBRANCH   1   2
BRANCH   1  28
ATOM     28  O   UNL     1       3.337  -0.041  -1.329  1.00  0.00    -0.374 OA
BRANCH  28  29
ATOM     29  C   UNL     1       2.222   0.234  -2.189  1.00  0.00     0.202 C 
BRANCH  29  30
ATOM     30  C   UNL     1       2.389  -0.326  -3.606  1.00  0.00     0.261 C 
BRANCH  30  31
ATOM     31  O   UNL     1       2.716  -1.729  -3.576  1.00  0.00    -0.460 OA
BRANCH  31  32
ATOM     32  C   UNL     1       3.949  -2.032  -4.035  1.00  0.00     0.338 C 
ATOM     33  O   UNL     1       4.728  -1.289  -4.625  1.00  0.00    -0.246 OA
BRANCH  32  34
ATOM     34  C   UNL     1       4.346  -3.376  -3.584  1.00  0.00     0.060 A 
ATOM     35  C   UNL     1       5.455  -3.485  -2.734  1.00  0.00     0.016 A 
ATOM     36  C   UNL     1       3.703  -4.519  -4.048  1.00  0.00     0.016 A 
ATOM     37  C   UNL     1       5.992  -4.724  -2.418  1.00  0.00     0.010 A 
ATOM     38  C   UNL     1       4.226  -5.771  -3.711  1.00  0.00     0.010 A 
ATOM     39  C   UNL     1       5.398  -5.876  -2.934  1.00  0.00    -0.014 A 
BRANCH  39  40
ATOM     40  C   UNL     1       6.093  -7.175  -2.802  1.00  0.00     0.031 A 
ATOM     41  C   UNL     1       6.744  -7.760  -4.021  1.00  0.00     0.074 A 
ATOM     42  C   UNL     1       6.183  -7.799  -1.616  1.00  0.00     0.049 A 
ATOM     43  N   UNL     1       7.227  -8.959  -4.210  1.00  0.00    -0.248 NA
ATOM     44  C   UNL     1       6.861  -6.870  -5.189  1.00  0.00     0.031 C 
ATOM     45  C   UNL     1       5.694  -7.276  -0.341  1.00  0.00     0.029 A 
ATOM     46  N   UNL     1       6.714  -9.023  -1.297  1.00  0.00    -0.354 N 
ATOM     47  C   UNL     1       7.661  -8.982  -5.530  1.00  0.00     0.074 A 
ATOM     48  C   UNL     1       7.385  -7.680  -6.095  1.00  0.00     0.031 C 
ATOM     49  C   UNL     1       5.934  -8.181   0.623  1.00  0.00     0.029 A 
ATOM     50  C   UNL     1       6.530  -9.370   0.019  1.00  0.00     0.049 A 
ATOM     51  H   UNL     1       7.181  -9.596  -1.947  1.00  0.00     0.167 HD
ATOM     52  C   UNL     1       8.232 -10.006  -6.206  1.00  0.00     0.037 A 
ATOM     53  C   UNL     1       6.769 -10.536   0.648  1.00  0.00     0.037 A 
ATOM     54  C   UNL     1       8.533 -11.283  -5.617  1.00  0.00     0.049 A 
ATOM     55  C   UNL     1       7.332 -11.687  -0.141  1.00  0.00     0.074 A 
ATOM     56  C   UNL     1       9.101 -12.396  -6.210  1.00  0.00     0.029 A 
ATOM     57  N   UNL     1       8.301 -11.609  -4.289  1.00  0.00    -0.354 N 
ATOM     58  N   UNL     1       7.673 -11.734  -1.407  1.00  0.00    -0.248 NA
ATOM     59  C   UNL     1       7.528 -12.952   0.581  1.00  0.00     0.031 C 
ATOM     60  C   UNL     1       9.178 -13.409  -5.249  1.00  0.00     0.029 A 
ATOM     61  C   UNL     1       8.701 -12.912  -4.046  1.00  0.00     0.049 A 
ATOM     62  H   UNL     1       7.910 -11.004  -3.618  1.00  0.00     0.167 HD
ATOM     63  C   UNL     1       8.147 -13.021  -1.627  1.00  0.00     0.074 A 
ATOM     64  C   UNL     1       8.058 -13.720  -0.361  1.00  0.00     0.031 C 
ATOM     65  C   UNL     1       8.614 -13.577  -2.772  1.00  0.00     0.037 A 
BRANCH  52  66
ATOM     66  C   UNL     1       8.517  -9.798  -7.663  1.00  0.00     0.057 A 
ATOM     67  C   UNL     1       9.557  -8.975  -8.111  1.00  0.00     0.134 A 
ATOM     68  C   UNL     1       7.741 -10.447  -8.632  1.00  0.00     0.134 A 
ATOM     69  F   UNL     1      10.322  -8.308  -7.235  1.00  0.00    -0.206 F 
ATOM     70  C   UNL     1       9.802  -8.788  -9.473  1.00  0.00     0.040 A 
ATOM     71  C   UNL     1       7.992 -10.288  -9.996  1.00  0.00     0.040 A 
ATOM     72  F   UNL     1       6.727 -11.247  -8.270  1.00  0.00    -0.206 F 
ATOM     73  C   UNL     1       9.023  -9.452 -10.420  1.00  0.00     0.006 A 
ENDBRANCH  52  66
BRANCH  53  74
ATOM     74  C   UNL     1       6.426 -10.691   2.084  1.00  0.00     0.057 A 
ATOM     75  C   UNL     1       7.421 -10.847   3.055  1.00  0.00     0.134 A 
ATOM     76  C   UNL     1       5.094 -10.702   2.518  1.00  0.00     0.134 A 
ATOM     77  F   UNL     1       8.714 -10.870   2.700  1.00  0.00    -0.206 F 
ATOM     78  C   UNL     1       7.104 -11.021   4.404  1.00  0.00     0.040 A 
ATOM     79  C   UNL     1       4.764 -10.849   3.865  1.00  0.00     0.040 A 
ATOM     80  F   UNL     1       4.093 -10.559   1.636  1.00  0.00    -0.206 F 
ATOM     81  C   UNL     1       5.771 -11.015   4.813  1.00  0.00     0.006 A 
ENDBRANCH  53  74
BRANCH  65  82
ATOM     82  C   UNL     1       9.105 -14.992  -2.694  1.00  0.00     0.057 A 
ATOM     83  C   UNL     1       8.225 -16.076  -2.593  1.00  0.00     0.134 A 
ATOM     84  C   UNL     1      10.476 -15.271  -2.768  1.00  0.00     0.134 A 
ATOM     85  F   UNL     1       6.902 -15.872  -2.506  1.00  0.00    -0.206 F 
ATOM     86  C   UNL     1       8.693 -17.390  -2.548  1.00  0.00     0.040 A 
ATOM     87  C   UNL     1      10.954 -16.581  -2.748  1.00  0.00     0.040 A 
ATOM     88  F   UNL     1      11.369 -14.276  -2.875  1.00  0.00    -0.206 F 
ATOM     89  C   UNL     1      10.061 -17.645  -2.633  1.00  0.00     0.006 A 
ENDBRANCH  65  82
ENDBRANCH  39  40
ENDBRANCH  32  34
ENDBRANCH  31  32
ENDBRANCH  30  31
ENDBRANCH  29  30
ENDBRANCH  28  29
ENDBRANCH   1  28
TORSDOF 19
