REMARK SMILES O=C(OCCOCCOC(=O)c1ccc(-c2c3nc(c(-c4c(F)cccc4F)c4ccc([nH]4)c(-c4c(F)cccc4F)c4nc(c(-c5c(F)cccc5F)c5ccc2[nH]5)C=C4)C=C3)cc1)C1=C[C@H]2C=C[C@@H]1[C@@H]1C=C[C@H]21
REMARK SMILES IDX 7 1 6 2 5 3 4 4 3 5 2 6 1 7 66 8 67 9 71 10 68 11 70 12
REMARK SMILES IDX 72 13 69 14 75 15 73 16 74 17 8 18 9 19 10 20 11 21 12 22
REMARK SMILES IDX 13 23 65 24 14 25 64 26 15 27 16 28 17 29 58 30 18 31 63 32
REMARK SMILES IDX 57 33 59 34 19 35 62 36 56 37 55 38 20 40 46 41 29 42 45 43
REMARK SMILES IDX 30 44 33 45 44 46 60 47 31 48 32 49 43 51 61 52 34 53 21 54
REMARK SMILES IDX 22 55 27 56 23 57 24 58 26 59 28 60 25 61 47 62 48 63 53 64
REMARK SMILES IDX 49 65 50 66 52 67 54 68 51 69 35 70 36 71 41 72 37 73 38 74
REMARK SMILES IDX 40 75 42 76 39 77
REMARK H PARENT 59 39 33 50
REMARK Flexibility Score: inf
ROOT
ATOM      1  C   UNL     1       2.669  -0.125  -2.235  1.00  0.00     0.202 C 
ENDROOT
BRANCH   1   2
ATOM      2  O   UNL     1       3.934   0.243  -1.681  1.00  0.00    -0.374 OA
BRANCH   2   3
ATOM      3  C   UNL     1       4.481  -0.672  -0.731  1.00  0.00     0.202 C 
BRANCH   3   4
ATOM      4  C   UNL     1       4.371  -0.165   0.709  1.00  0.00     0.261 C 
BRANCH   4   5
ATOM      5  O   UNL     1       3.011  -0.237   1.185  1.00  0.00    -0.460 OA
BRANCH   5   6
ATOM      6  C   UNL     1       2.223   0.833   1.429  1.00  0.00     0.334 C 
ATOM      7  O   UNL     1       1.110   0.709   1.929  1.00  0.00    -0.247 OA
BRANCH   6   8
ATOM      8  C   UNL     1       2.658   2.147   0.953  1.00  0.00     0.041 C 
ATOM      9  C   UNL     1       3.329   3.108   1.632  1.00  0.00    -0.007 C 
ATOM     10  C   UNL     1       2.121   2.601  -0.391  1.00  0.00     0.056 C 
ATOM     11  C   UNL     1       3.493   4.427   0.837  1.00  0.00     0.042 C 
ATOM     12  C   UNL     1       3.319   3.143  -1.186  1.00  0.00    -0.022 C 
ATOM     13  C   UNL     1       1.180   3.777  -0.002  1.00  0.00     0.031 C 
ATOM     14  C   UNL     1       4.058   4.059  -0.528  1.00  0.00    -0.022 C 
ATOM     15  C   UNL     1       2.032   4.949   0.587  1.00  0.00     0.030 C 
ATOM     16  C   UNL     1       0.737   4.748  -1.071  1.00  0.00    -0.026 C 
ATOM     17  C   UNL     1       1.644   5.682  -0.713  1.00  0.00    -0.026 C 
ENDBRANCH   6   8
ENDBRANCH   5   6
ENDBRANCH   4   5
ENDBRANCH   3   4
ENDBRANCH   2   3
ENDBRANCH   1   2
BRANCH   1  18
ATOM     18  C   UNL     1       2.765  -0.798  -3.598  1.00  0.00     0.261 C 
BRANCH  18  19
ATOM     19  O   UNL     1       3.288  -2.112  -3.454  1.00  0.00    -0.460 OA
BRANCH  19  20
ATOM     20  C   UNL     1       4.632  -2.198  -3.575  1.00  0.00     0.338 C 
ATOM     21  O   UNL     1       5.414  -1.340  -3.932  1.00  0.00    -0.246 OA
BRANCH  20  22
ATOM     22  C   UNL     1       5.028  -3.497  -3.013  1.00  0.00     0.060 A 
ATOM     23  C   UNL     1       6.220  -3.559  -2.285  1.00  0.00     0.016 A 
ATOM     24  C   UNL     1       4.223  -4.628  -3.187  1.00  0.00     0.016 A 
ATOM     25  C   UNL     1       6.641  -4.776  -1.768  1.00  0.00     0.010 A 
ATOM     26  C   UNL     1       4.638  -5.842  -2.660  1.00  0.00     0.010 A 
ATOM     27  C   UNL     1       5.868  -5.923  -1.990  1.00  0.00    -0.014 A 
BRANCH  27  28
ATOM     28  C   UNL     1       6.418  -7.250  -1.672  1.00  0.00     0.031 A 
ATOM     29  C   UNL     1       6.952  -8.083  -2.799  1.00  0.00     0.074 A 
ATOM     30  C   UNL     1       6.417  -7.691  -0.405  1.00  0.00     0.049 A 
ATOM     31  N   UNL     1       7.417  -9.303  -2.778  1.00  0.00    -0.248 NA
ATOM     32  C   UNL     1       6.950  -7.460  -4.134  1.00  0.00     0.031 C 
ATOM     33  C   UNL     1       5.926  -6.942   0.751  1.00  0.00     0.029 A 
ATOM     34  N   UNL     1       6.832  -8.886   0.115  1.00  0.00    -0.354 N 
ATOM     35  C   UNL     1       7.752  -9.596  -4.093  1.00  0.00     0.074 A 
ATOM     36  C   UNL     1       7.400  -8.445  -4.894  1.00  0.00     0.031 C 
ATOM     37  C   UNL     1       6.061  -7.702   1.851  1.00  0.00     0.029 A 
ATOM     38  C   UNL     1       6.614  -8.998   1.465  1.00  0.00     0.049 A 
ATOM     39  H   UNL     1       7.246  -9.597  -0.426  1.00  0.00     0.167 HD
ATOM     40  C   UNL     1       8.317 -10.723  -4.581  1.00  0.00     0.037 A 
ATOM     41  C   UNL     1       6.821 -10.045   2.284  1.00  0.00     0.037 A 
ATOM     42  C   UNL     1       8.658 -11.856  -3.764  1.00  0.00     0.049 A 
ATOM     43  C   UNL     1       7.401 -11.308   1.705  1.00  0.00     0.074 A 
ATOM     44  C   UNL     1       9.257 -13.044  -4.141  1.00  0.00     0.029 A 
ATOM     45  N   UNL     1       8.419 -11.940  -2.399  1.00  0.00    -0.354 N 
ATOM     46  N   UNL     1       7.755 -11.567   0.468  1.00  0.00    -0.248 NA
ATOM     47  C   UNL     1       7.616 -12.422   2.637  1.00  0.00     0.031 C 
ATOM     48  C   UNL     1       9.332 -13.867  -3.013  1.00  0.00     0.029 A 
ATOM     49  C   UNL     1       8.836 -13.170  -1.922  1.00  0.00     0.049 A 
ATOM     50  H   UNL     1       8.013 -11.230  -1.851  1.00  0.00     0.167 HD
ATOM     51  C   UNL     1       8.262 -12.860   0.478  1.00  0.00     0.074 A 
ATOM     52  C   UNL     1       8.183 -13.324   1.849  1.00  0.00     0.031 C 
ATOM     53  C   UNL     1       8.749 -13.600  -0.548  1.00  0.00     0.037 A 
BRANCH  40  54
ATOM     54  C   UNL     1       8.578 -10.787  -6.057  1.00  0.00     0.057 A 
ATOM     55  C   UNL     1       9.563 -10.003  -6.672  1.00  0.00     0.134 A 
ATOM     56  C   UNL     1       7.850 -11.663  -6.872  1.00  0.00     0.134 A 
ATOM     57  F   UNL     1      10.283  -9.128  -5.954  1.00  0.00    -0.206 F 
ATOM     58  C   UNL     1       9.800 -10.072  -8.047  1.00  0.00     0.040 A 
ATOM     59  C   UNL     1       8.097 -11.762  -8.242  1.00  0.00     0.040 A 
ATOM     60  F   UNL     1       6.890 -12.441  -6.350  1.00  0.00    -0.206 F 
ATOM     61  C   UNL     1       9.070 -10.960  -8.834  1.00  0.00     0.006 A 
ENDBRANCH  40  54
BRANCH  41  62
ATOM     62  C   UNL     1       6.478  -9.945   3.724  1.00  0.00     0.057 A 
ATOM     63  C   UNL     1       7.473  -9.952   4.707  1.00  0.00     0.134 A 
ATOM     64  C   UNL     1       5.148  -9.850   4.153  1.00  0.00     0.134 A 
ATOM     65  F   UNL     1       8.764 -10.056   4.360  1.00  0.00    -0.206 F 
ATOM     66  C   UNL     1       7.159  -9.892   6.066  1.00  0.00     0.040 A 
ATOM     67  C   UNL     1       4.821  -9.762   5.507  1.00  0.00     0.040 A 
ATOM     68  F   UNL     1       4.147  -9.830   3.260  1.00  0.00    -0.206 F 
ATOM     69  C   UNL     1       5.828  -9.792   6.468  1.00  0.00     0.006 A 
ENDBRANCH  41  62
BRANCH  53  70
ATOM     70  C   UNL     1       9.270 -14.967  -0.216  1.00  0.00     0.057 A 
ATOM     71  C   UNL     1       8.416 -16.020   0.137  1.00  0.00     0.134 A 
ATOM     72  C   UNL     1      10.642 -15.241  -0.287  1.00  0.00     0.134 A 
ATOM     73  F   UNL     1       7.093 -15.820   0.233  1.00  0.00    -0.206 F 
ATOM     74  C   UNL     1       8.912 -17.290   0.436  1.00  0.00     0.040 A 
ATOM     75  C   UNL     1      11.146 -16.514  -0.021  1.00  0.00     0.040 A 
ATOM     76  F   UNL     1      11.512 -14.280  -0.631  1.00  0.00    -0.206 F 
ATOM     77  C   UNL     1      10.281 -17.541   0.350  1.00  0.00     0.006 A 
ENDBRANCH  53  70
ENDBRANCH  27  28
ENDBRANCH  20  22
ENDBRANCH  19  20
ENDBRANCH  18  19
ENDBRANCH   1  18
TORSDOF 14
