REMARK SMILES O=C(OCCOCCOC(=O)c1cc2c(c(S(=O)(=O)Nc3cc(C(F)(F)F)ccc3-n3cccn3)c1)CCC2)c1ccc(-c2c3nc(c(-c4c(F)cccc4F)c4ccc([nH]4)c(-c4c(F)cccc4F)c4nc(c(-c5c(F)cccc5F)c5ccc2[nH]5)C=C4)C=C3)cc1
REMARK SMILES IDX 7 1 6 2 5 3 4 4 3 5 2 6 1 7 40 8 41 9 93 10 42 11 92 12
REMARK SMILES IDX 43 13 44 14 45 15 86 16 46 17 91 18 85 19 87 20 47 21 90 22
REMARK SMILES IDX 84 23 83 24 48 26 74 27 57 28 73 29 58 30 61 31 72 32 88 33
REMARK SMILES IDX 59 34 60 35 71 37 89 38 62 39 49 40 50 41 55 42 51 43 52 44
REMARK SMILES IDX 54 45 56 46 53 47 75 48 76 49 81 50 77 51 78 52 80 53 82 54
REMARK SMILES IDX 79 55 63 56 64 57 69 58 65 59 66 60 68 61 70 62 67 63 8 64
REMARK SMILES IDX 9 65 10 66 11 67 12 68 13 69 36 70 14 71 16 72 15 73 39 74
REMARK SMILES IDX 37 75 38 76 17 77 18 78 19 79 20 80 21 82 22 83 30 84 23 85
REMARK SMILES IDX 29 86 28 87 31 88 32 89 35 90 33 91 34 92 24 93 25 94 26 95
REMARK SMILES IDX 27 96
REMARK H PARENT 87 25 61 36 20 81
REMARK Flexibility Score: inf
ROOT
ATOM      1  C   UNL     1       3.095  -1.462  -1.431  1.00  0.00     0.202 C 
ENDROOT
BRANCH   1   2
ATOM      2  O   UNL     1       4.196  -0.583  -1.153  1.00  0.00    -0.374 OA
BRANCH   2   3
ATOM      3  C   UNL     1       4.726  -0.649   0.166  1.00  0.00     0.202 C 
BRANCH   3   4
ATOM      4  C   UNL     1       4.475   0.554   1.069  1.00  0.00     0.261 C 
BRANCH   4   5
ATOM      5  O   UNL     1       3.092   0.731   1.441  1.00  0.00    -0.460 OA
BRANCH   5   6
ATOM      6  C   UNL     1       2.070   0.795   0.556  1.00  0.00     0.338 C 
ATOM      7  O   UNL     1       1.069   0.095   0.688  1.00  0.00    -0.246 OA
BRANCH   6   8
ATOM      8  C   UNL     1       2.032   1.969  -0.348  1.00  0.00     0.060 A 
ATOM      9  C   UNL     1       3.158   2.669  -0.770  1.00  0.00     0.016 A 
ATOM     10  C   UNL     1       0.755   2.450  -0.687  1.00  0.00     0.016 A 
ATOM     11  C   UNL     1       3.021   3.944  -1.273  1.00  0.00     0.010 A 
ATOM     12  C   UNL     1       0.609   3.702  -1.261  1.00  0.00     0.010 A 
ATOM     13  C   UNL     1       1.744   4.476  -1.463  1.00  0.00    -0.014 A 
BRANCH  13  14
ATOM     14  C   UNL     1       1.677   5.815  -2.016  1.00  0.00     0.031 A 
ATOM     15  C   UNL     1       2.333   5.928  -3.343  1.00  0.00     0.074 A 
ATOM     16  C   UNL     1       1.067   6.847  -1.406  1.00  0.00     0.049 A 
ATOM     17  N   UNL     1       3.430   6.547  -3.623  1.00  0.00    -0.248 NA
ATOM     18  C   UNL     1       1.808   5.103  -4.441  1.00  0.00     0.031 C 
ATOM     19  C   UNL     1       0.187   6.828  -0.238  1.00  0.00     0.029 A 
ATOM     20  N   UNL     1       1.059   8.157  -1.774  1.00  0.00    -0.354 N 
ATOM     21  C   UNL     1       3.633   6.359  -4.985  1.00  0.00     0.074 A 
ATOM     22  C   UNL     1       2.707   5.337  -5.398  1.00  0.00     0.031 C 
ATOM     23  C   UNL     1      -0.449   8.019  -0.141  1.00  0.00     0.029 A 
ATOM     24  C   UNL     1       0.086   8.923  -1.147  1.00  0.00     0.049 A 
ATOM     25  H   UNL     1       1.690   8.530  -2.430  1.00  0.00     0.167 HD
ATOM     26  C   UNL     1       4.382   7.237  -5.705  1.00  0.00     0.037 A 
ATOM     27  C   UNL     1      -0.280  10.185  -1.486  1.00  0.00     0.037 A 
ATOM     28  C   UNL     1       5.237   8.017  -4.846  1.00  0.00     0.049 A 
ATOM     29  C   UNL     1       0.827  10.774  -2.283  1.00  0.00     0.074 A 
ATOM     30  C   UNL     1       6.254   7.721  -3.959  1.00  0.00     0.029 A 
ATOM     31  N   UNL     1       4.843   9.298  -4.549  1.00  0.00    -0.354 N 
ATOM     32  N   UNL     1       1.986  11.099  -1.784  1.00  0.00    -0.248 NA
ATOM     33  C   UNL     1       0.803  10.575  -3.725  1.00  0.00     0.031 C 
ATOM     34  C   UNL     1       6.080   8.637  -2.880  1.00  0.00     0.029 A 
ATOM     35  C   UNL     1       5.017   9.481  -3.203  1.00  0.00     0.049 A 
ATOM     36  H   UNL     1       4.498   9.964  -5.187  1.00  0.00     0.167 HD
ATOM     37  C   UNL     1       2.904  10.704  -2.745  1.00  0.00     0.074 A 
ATOM     38  C   UNL     1       2.115  10.472  -3.954  1.00  0.00     0.031 C 
ATOM     39  C   UNL     1       4.167  10.323  -2.396  1.00  0.00     0.037 A 
BRANCH  26  40
ATOM     40  C   UNL     1       4.035   7.675  -7.106  1.00  0.00     0.057 A 
ATOM     41  C   UNL     1       4.917   8.532  -7.789  1.00  0.00     0.134 A 
ATOM     42  C   UNL     1       2.751   7.559  -7.676  1.00  0.00     0.134 A 
ATOM     43  F   UNL     1       6.166   8.735  -7.343  1.00  0.00    -0.206 F 
ATOM     44  C   UNL     1       4.518   9.287  -8.899  1.00  0.00     0.040 A 
ATOM     45  C   UNL     1       2.360   8.270  -8.812  1.00  0.00     0.040 A 
ATOM     46  F   UNL     1       1.773   6.840  -7.114  1.00  0.00    -0.206 F 
ATOM     47  C   UNL     1       3.232   9.166  -9.406  1.00  0.00     0.006 A 
ENDBRANCH  26  40
BRANCH  27  48
ATOM     48  C   UNL     1      -1.624  10.805  -1.444  1.00  0.00     0.057 A 
ATOM     49  C   UNL     1      -1.786  12.192  -1.581  1.00  0.00     0.134 A 
ATOM     50  C   UNL     1      -2.793  10.034  -1.564  1.00  0.00     0.134 A 
ATOM     51  F   UNL     1      -0.726  13.011  -1.522  1.00  0.00    -0.206 F 
ATOM     52  C   UNL     1      -3.032  12.774  -1.854  1.00  0.00     0.040 A 
ATOM     53  C   UNL     1      -4.043  10.603  -1.830  1.00  0.00     0.040 A 
ATOM     54  F   UNL     1      -2.748   8.695  -1.522  1.00  0.00    -0.206 F 
ATOM     55  C   UNL     1      -4.163  11.977  -1.993  1.00  0.00     0.006 A 
ENDBRANCH  27  48
BRANCH  39  56
ATOM     56  C   UNL     1       4.624  10.601  -0.990  1.00  0.00     0.057 A 
ATOM     57  C   UNL     1       4.029  10.059   0.160  1.00  0.00     0.134 A 
ATOM     58  C   UNL     1       5.801  11.335  -0.807  1.00  0.00     0.134 A 
ATOM     59  F   UNL     1       2.959   9.258   0.078  1.00  0.00    -0.206 F 
ATOM     60  C   UNL     1       4.558  10.281   1.435  1.00  0.00     0.040 A 
ATOM     61  C   UNL     1       6.359  11.533   0.457  1.00  0.00     0.040 A 
ATOM     62  F   UNL     1       6.457  11.837  -1.866  1.00  0.00    -0.206 F 
ATOM     63  C   UNL     1       5.731  11.015   1.586  1.00  0.00     0.006 A 
ENDBRANCH  39  56
ENDBRANCH  13  14
ENDBRANCH   6   8
ENDBRANCH   5   6
ENDBRANCH   4   5
ENDBRANCH   3   4
ENDBRANCH   2   3
ENDBRANCH   1   2
BRANCH   1  64
ATOM     64  C   UNL     1       3.335  -2.982  -1.417  1.00  0.00     0.261 C 
BRANCH  64  65
ATOM     65  O   UNL     1       3.536  -3.502  -0.088  1.00  0.00    -0.460 OA
BRANCH  65  66
ATOM     66  C   UNL     1       4.823  -3.761   0.282  1.00  0.00     0.338 C 
ATOM     67  O   UNL     1       5.815  -3.671  -0.395  1.00  0.00    -0.246 OA
BRANCH  66  68
ATOM     68  C   UNL     1       4.833  -3.967   1.754  1.00  0.00     0.061 A 
ATOM     69  C   UNL     1       3.948  -4.881   2.313  1.00  0.00     0.019 A 
ATOM     70  C   UNL     1       5.715  -3.211   2.568  1.00  0.00     0.038 A 
ATOM     71  C   UNL     1       3.953  -5.009   3.685  1.00  0.00    -0.043 A 
ATOM     72  C   UNL     1       5.688  -3.324   3.977  1.00  0.00     0.092 A 
ATOM     73  C   UNL     1       4.756  -4.198   4.521  1.00  0.00    -0.024 A 
ATOM     74  C   UNL     1       3.142  -5.985   4.486  1.00  0.00     0.036 C 
ATOM     75  C   UNL     1       4.350  -4.477   5.933  1.00  0.00     0.037 C 
ATOM     76  C   UNL     1       3.925  -5.943   5.797  1.00  0.00     0.010 C 
BRANCH  72  77
ATOM     77  S   UNL     1       6.665  -2.186   4.947  1.00  0.00     0.262 S 
ATOM     78  O   UNL     1       7.422  -1.376   4.010  1.00  0.00    -0.201 OA
ATOM     79  O   UNL     1       5.762  -1.535   5.873  1.00  0.00    -0.201 OA
BRANCH  77  80
ATOM     80  N   UNL     1       7.861  -2.928   5.924  1.00  0.00    -0.277 N 
ATOM     81  H   UNL     1       8.690  -2.432   6.113  1.00  0.00     0.180 HD
BRANCH  80  82
ATOM     82  C   UNL     1       7.706  -4.244   6.479  1.00  0.00     0.075 A 
ATOM     83  C   UNL     1       7.260  -4.367   7.808  1.00  0.00     0.042 A 
ATOM     84  C   UNL     1       7.872  -5.400   5.705  1.00  0.00     0.089 A 
ATOM     85  C   UNL     1       6.884  -5.622   8.333  1.00  0.00     0.058 A 
ATOM     86  C   UNL     1       7.527  -6.655   6.229  1.00  0.00     0.031 A 
ATOM     87  C   UNL     1       7.040  -6.764   7.535  1.00  0.00     0.015 A 
BRANCH  84  88
ATOM     88  N   UNL     1       8.342  -5.328   4.373  1.00  0.00    -0.239 N 
ATOM     89  C   UNL     1       9.259  -4.447   3.848  1.00  0.00     0.115 A 
ATOM     90  N   UNL     1       7.792  -6.106   3.408  1.00  0.00    -0.177 NA
ATOM     91  C   UNL     1       9.154  -4.531   2.482  1.00  0.00     0.042 A 
ATOM     92  C   UNL     1       8.207  -5.545   2.268  1.00  0.00     0.135 A 
ENDBRANCH  84  88
BRANCH  85  93
ATOM     93  C   UNL     1       6.231  -5.714   9.695  1.00  0.00     0.416 C 
ATOM     94  F   UNL     1       7.107  -5.517  10.715  1.00  0.00    -0.166 F 
ATOM     95  F   UNL     1       5.248  -4.785   9.855  1.00  0.00    -0.166 F 
ATOM     96  F   UNL     1       5.638  -6.918   9.930  1.00  0.00    -0.166 F 
ENDBRANCH  85  93
ENDBRANCH  80  82
ENDBRANCH  77  80
ENDBRANCH  72  77
ENDBRANCH  66  68
ENDBRANCH  65  66
ENDBRANCH  64  65
ENDBRANCH   1  64
TORSDOF 19
