REMARK SMILES CC(=O)O[C@@H]1CC[C@]23C(=O)O[C@]4(CC[C@]2(O)C1)[C@H]3CC[C@]1(C)[C@H](C(=O)OCCOCCOC(=O)c2ccc(-c3c5nc(c(-c6c(F)cccc6F)c6ccc([nH]6)c(-c6c(F)cccc6F)c6nc(c(-c7c(F)cccc7F)c7ccc3[nH]7)C=C6)C=C5)cc2)CC[C@@H]14
REMARK SMILES IDX 29 1 28 2 27 3 26 4 24 5 25 6 23 7 5 8 6 9 17 10 7 11 15 12
REMARK SMILES IDX 8 13 14 14 9 15 18 16 13 17 10 18 11 19 12 20 19 21 91 22
REMARK SMILES IDX 20 23 21 24 90 25 22 26 89 27 4 28 2 29 1 30 3 31 16 32
REMARK SMILES IDX 30 34 31 35 32 36 33 37 34 38 35 39 36 40 88 41 37 42 87 43
REMARK SMILES IDX 38 44 39 45 40 46 81 47 41 48 86 49 80 50 82 51 42 52 85 53
REMARK SMILES IDX 79 54 78 55 43 57 69 58 52 59 68 60 53 61 56 62 67 63 83 64
REMARK SMILES IDX 54 65 55 66 66 68 84 69 57 70 44 71 45 72 50 73 46 74 47 75
REMARK SMILES IDX 49 76 51 77 48 78 70 79 71 80 76 81 72 82 73 83 75 84 77 85
REMARK SMILES IDX 74 86 58 87 59 88 64 89 60 90 61 91 63 92 65 93 62 94
REMARK H PARENT 16 33 82 56 56 67
REMARK Flexibility Score: inf
ROOT
ATOM      1  O   UNL     1      -9.497  -5.395  -4.458  1.00  0.00    -0.374 OA
ENDROOT
BRANCH   1   2
ATOM      2  C   UNL     1      -8.936  -4.914  -5.677  1.00  0.00     0.202 C 
BRANCH   2   3
ATOM      3  C   UNL     1      -8.021  -3.688  -5.608  1.00  0.00     0.261 C 
BRANCH   3   4
ATOM      4  O   UNL     1      -6.968  -3.854  -4.646  1.00  0.00    -0.463 OA
BRANCH   4   5
ATOM      5  C   UNL     1      -6.974  -2.960  -3.630  1.00  0.00     0.309 C 
ATOM      6  O   UNL     1      -7.764  -2.022  -3.543  1.00  0.00    -0.252 OA
BRANCH   5   7
ATOM      7  C   UNL     1      -6.009  -3.288  -2.496  1.00  0.00     0.105 C 
ATOM      8  C   UNL     1       1.328  -0.305  -3.471  1.00  0.00     0.179 C 
ATOM      9  C   UNL     1      -0.003   0.180  -3.972  1.00  0.00     0.047 C 
ATOM     10  C   UNL     1       1.512  -1.752  -3.916  1.00  0.00     0.081 C 
ATOM     11  C   UNL     1      -1.106  -0.820  -3.717  1.00  0.00     0.026 C 
ATOM     12  C   UNL     1       0.358  -2.744  -3.586  1.00  0.00     0.085 C 
ATOM     13  C   UNL     1      -0.976  -2.489  -4.321  1.00  0.00     0.103 C 
ATOM     14  C   UNL     1       0.184  -2.961  -2.050  1.00  0.00     0.041 C 
ATOM     15  C   UNL     1      -2.411  -2.240  -4.582  1.00  0.00     0.316 C 
ATOM     16  C   UNL     1      -1.777  -3.918  -3.551  1.00  0.00     0.054 C 
ATOM     17  C   UNL     1      -1.274  -2.837  -1.484  1.00  0.00     0.052 C 
ATOM     18  O   UNL     1      -2.924  -2.027  -5.667  1.00  0.00    -0.251 OA
ATOM     19  O   UNL     1      -3.026  -2.163  -3.356  1.00  0.00    -0.458 OA
ATOM     20  C   UNL     1      -2.446  -3.148  -2.479  1.00  0.00     0.120 C 
ATOM     21  C   UNL     1      -2.779  -4.872  -4.267  1.00  0.00     0.009 C 
ATOM     22  C   UNL     1      -3.666  -3.623  -1.711  1.00  0.00     0.040 C 
ATOM     23  C   UNL     1      -4.291  -4.605  -4.046  1.00  0.00     0.008 C 
ATOM     24  C   UNL     1      -4.774  -4.273  -2.598  1.00  0.00    -0.013 C 
ATOM     25  C   UNL     1      -4.344  -2.393  -1.044  1.00  0.00     0.009 C 
ATOM     26  C   UNL     1      -5.152  -5.583  -1.865  1.00  0.00     0.013 C 
ATOM     27  C   UNL     1      -5.438  -1.962  -2.000  1.00  0.00     0.016 C 
BRANCH   8  28
ATOM     28  O   UNL     1       1.683  -0.148  -2.067  1.00  0.00    -0.462 OA
BRANCH  28  29
ATOM     29  C   UNL     1       0.894   0.324  -1.070  1.00  0.00     0.302 C 
ATOM     30  C   UNL     1       1.684   0.486   0.198  1.00  0.00     0.139 C 
ATOM     31  O   UNL     1      -0.300   0.572  -1.132  1.00  0.00    -0.253 OA
ENDBRANCH  28  29
ENDBRANCH   8  28
BRANCH  12  32
ATOM     32  O   UNL     1       0.858  -3.986  -4.161  1.00  0.00    -0.389 OA
ATOM     33  H   UNL     1       0.211  -4.694  -4.015  1.00  0.00     0.211 HD
ENDBRANCH  12  32
ENDBRANCH   5   7
ENDBRANCH   4   5
ENDBRANCH   3   4
ENDBRANCH   2   3
ENDBRANCH   1   2
BRANCH   1  34
ATOM     34  C   UNL     1      -8.624  -6.005  -3.508  1.00  0.00     0.202 C 
BRANCH  34  35
ATOM     35  C   UNL     1      -7.975  -7.342  -3.891  1.00  0.00     0.261 C 
BRANCH  35  36
ATOM     36  O   UNL     1      -7.085  -7.233  -5.016  1.00  0.00    -0.460 OA
BRANCH  36  37
ATOM     37  C   UNL     1      -7.443  -7.989  -6.081  1.00  0.00     0.338 C 
ATOM     38  O   UNL     1      -8.363  -8.791  -6.145  1.00  0.00    -0.246 OA
BRANCH  37  39
ATOM     39  C   UNL     1      -6.673  -7.605  -7.276  1.00  0.00     0.060 A 
ATOM     40  C   UNL     1      -7.401  -7.207  -8.405  1.00  0.00     0.016 A 
ATOM     41  C   UNL     1      -5.287  -7.753  -7.336  1.00  0.00     0.016 A 
ATOM     42  C   UNL     1      -6.751  -7.016  -9.620  1.00  0.00     0.010 A 
ATOM     43  C   UNL     1      -4.636  -7.571  -8.562  1.00  0.00     0.010 A 
ATOM     44  C   UNL     1      -5.373  -7.245  -9.715  1.00  0.00    -0.014 A 
BRANCH  44  45
ATOM     45  C   UNL     1      -4.747  -7.301 -11.057  1.00  0.00     0.031 A 
ATOM     46  C   UNL     1      -4.534  -8.641 -11.706  1.00  0.00     0.074 A 
ATOM     47  C   UNL     1      -4.433  -6.171 -11.713  1.00  0.00     0.049 A 
ATOM     48  N   UNL     1      -4.014  -8.926 -12.872  1.00  0.00    -0.248 NA
ATOM     49  C   UNL     1      -4.967  -9.819 -10.936  1.00  0.00     0.031 C 
ATOM     50  C   UNL     1      -4.639  -4.816 -11.204  1.00  0.00     0.029 A 
ATOM     51  N   UNL     1      -3.877  -5.987 -12.953  1.00  0.00    -0.354 N 
ATOM     52  C   UNL     1      -4.055 -10.311 -12.976  1.00  0.00     0.074 A 
ATOM     53  C   UNL     1      -4.623 -10.813 -11.743  1.00  0.00     0.031 C 
ATOM     54  C   UNL     1      -4.216  -3.936 -12.128  1.00  0.00     0.029 A 
ATOM     55  C   UNL     1      -3.684  -4.667 -13.277  1.00  0.00     0.049 A 
ATOM     56  H   UNL     1      -3.640  -6.730 -13.554  1.00  0.00     0.167 HD
ATOM     57  C   UNL     1      -3.665 -11.093 -14.010  1.00  0.00     0.037 A 
ATOM     58  C   UNL     1      -3.127  -4.116 -14.372  1.00  0.00     0.037 A 
ATOM     59  C   UNL     1      -3.104 -10.590 -15.236  1.00  0.00     0.049 A 
ATOM     60  C   UNL     1      -2.633  -5.011 -15.476  1.00  0.00     0.074 A 
ATOM     61  C   UNL     1      -2.685 -11.299 -16.348  1.00  0.00     0.029 A 
ATOM     62  N   UNL     1      -2.879  -9.248 -15.507  1.00  0.00    -0.354 N 
ATOM     63  N   UNL     1      -2.688  -6.318 -15.570  1.00  0.00    -0.248 NA
ATOM     64  C   UNL     1      -1.999  -4.353 -16.628  1.00  0.00     0.031 C 
ATOM     65  C   UNL     1      -2.165 -10.389 -17.275  1.00  0.00     0.029 A 
ATOM     66  C   UNL     1      -2.306  -9.110 -16.759  1.00  0.00     0.049 A 
ATOM     67  H   UNL     1      -3.095  -8.505 -14.899  1.00  0.00     0.167 HD
ATOM     68  C   UNL     1      -2.124  -6.636 -16.799  1.00  0.00     0.074 A 
ATOM     69  C   UNL     1      -1.742  -5.385 -17.420  1.00  0.00     0.031 C 
ATOM     70  C   UNL     1      -1.940  -7.855 -17.364  1.00  0.00     0.037 A 
BRANCH  57  71
ATOM     71  C   UNL     1      -3.813 -12.577 -13.851  1.00  0.00     0.057 A 
ATOM     72  C   UNL     1      -5.065 -13.204 -13.891  1.00  0.00     0.134 A 
ATOM     73  C   UNL     1      -2.686 -13.394 -13.694  1.00  0.00     0.134 A 
ATOM     74  F   UNL     1      -6.185 -12.478 -14.025  1.00  0.00    -0.206 F 
ATOM     75  C   UNL     1      -5.192 -14.589 -13.762  1.00  0.00     0.040 A 
ATOM     76  C   UNL     1      -2.799 -14.781 -13.587  1.00  0.00     0.040 A 
ATOM     77  F   UNL     1      -1.457 -12.858 -13.650  1.00  0.00    -0.206 F 
ATOM     78  C   UNL     1      -4.055 -15.382 -13.617  1.00  0.00     0.006 A 
ENDBRANCH  57  71
BRANCH  58  79
ATOM     79  C   UNL     1      -3.003  -2.641 -14.480  1.00  0.00     0.057 A 
ATOM     80  C   UNL     1      -3.761  -1.916 -15.407  1.00  0.00     0.134 A 
ATOM     81  C   UNL     1      -2.114  -1.923 -13.671  1.00  0.00     0.134 A 
ATOM     82  F   UNL     1      -4.611  -2.550 -16.227  1.00  0.00    -0.206 F 
ATOM     83  C   UNL     1      -3.630  -0.532 -15.535  1.00  0.00     0.040 A 
ATOM     84  C   UNL     1      -1.991  -0.536 -13.771  1.00  0.00     0.040 A 
ATOM     85  F   UNL     1      -1.356  -2.560 -12.766  1.00  0.00    -0.206 F 
ATOM     86  C   UNL     1      -2.746   0.162 -14.711  1.00  0.00     0.006 A 
ENDBRANCH  58  79
BRANCH  70  87
ATOM     87  C   UNL     1      -1.332  -7.892 -18.735  1.00  0.00     0.057 A 
ATOM     88  C   UNL     1       0.027  -7.631 -18.948  1.00  0.00     0.134 A 
ATOM     89  C   UNL     1      -2.108  -8.239 -19.849  1.00  0.00     0.134 A 
ATOM     90  F   UNL     1       0.822  -7.283 -17.925  1.00  0.00    -0.206 F 
ATOM     91  C   UNL     1       0.589  -7.694 -20.225  1.00  0.00     0.040 A 
ATOM     92  C   UNL     1      -1.552  -8.330 -21.125  1.00  0.00     0.040 A 
ATOM     93  F   UNL     1      -3.414  -8.511 -19.711  1.00  0.00    -0.206 F 
ATOM     94  C   UNL     1      -0.201  -8.051 -21.317  1.00  0.00     0.006 A 
ENDBRANCH  70  87
ENDBRANCH  44  45
ENDBRANCH  37  39
ENDBRANCH  36  37
ENDBRANCH  35  36
ENDBRANCH  34  35
ENDBRANCH   1  34
TORSDOF 17
