REMARK SMILES CCOc1ccc(C(=O)NC(=S)Nc2cccc(C(=O)OCCOCCOC(=O)c3ccc(-c4c5nc(c(-c6c(F)cccc6F)c6ccc([nH]6)c(-c6c(F)cccc6F)c6nc(c(-c7c(F)cccc7F)c7ccc4[nH]7)C=C6)C=C5)cc3)c2C)cc1Br
REMARK SMILES IDX 22 1 21 2 19 3 20 4 18 5 14 6 15 7 84 8 16 9 85 10 17 11
REMARK SMILES IDX 13 12 11 14 12 15 10 16 8 17 9 18 7 20 4 21 5 22 87 23 6 24
REMARK SMILES IDX 86 25 88 26 3 27 2 28 1 29 23 30 24 31 25 32 26 33 27 34
REMARK SMILES IDX 28 35 29 36 30 37 31 38 83 39 32 40 82 41 33 42 34 43 35 44
REMARK SMILES IDX 76 45 36 46 81 47 75 48 77 49 37 50 80 51 74 52 73 53 38 55
REMARK SMILES IDX 64 56 47 57 63 58 48 59 51 60 62 61 78 62 49 63 50 64 61 66
REMARK SMILES IDX 79 67 52 68 39 69 40 70 45 71 41 72 42 73 44 74 46 75 43 76
REMARK SMILES IDX 65 77 66 78 71 79 67 80 68 81 70 82 72 83 69 84 53 85 54 86
REMARK SMILES IDX 59 87 55 88 56 89 58 90 60 91 57 92
REMARK H PARENT 13 13 10 19 77 54 51 65
REMARK Flexibility Score: inf
ROOT
ATOM      1  C   UNL     1       0.481  -1.722   2.303  1.00  0.00     0.261 C 
ENDROOT
BRANCH   1   2
ATOM      2  O   UNL     1       1.515  -0.815   2.699  1.00  0.00    -0.460 OA
BRANCH   2   3
ATOM      3  C   UNL     1       2.832  -1.005   2.390  1.00  0.00     0.338 C 
ATOM      4  O   UNL     1       3.300  -2.031   1.925  1.00  0.00    -0.246 OA
BRANCH   3   5
ATOM      5  C   UNL     1       3.685   0.360   2.434  1.00  0.00     0.065 A 
ATOM      6  C   UNL     1       5.499   1.883   0.410  1.00  0.00     0.044 A 
ATOM      7  C   UNL     1       5.886   3.138   1.623  1.00  0.00     0.026 A 
ATOM      8  C   UNL     1       4.312   0.560   0.727  1.00  0.00    -0.013 A 
ATOM      9  C   UNL     1       5.264   3.153   3.263  1.00  0.00     0.003 A 
ATOM     10  C   UNL     1       4.152  -0.527  -0.299  1.00  0.00     0.047 C 
ATOM     11  C   UNL     1       4.194   1.800   3.759  1.00  0.00     0.016 A 
BRANCH   6  12
ATOM     12  N   UNL     1       6.809   1.274   0.042  1.00  0.00    -0.332 N 
ATOM     13  H   UNL     1       6.934   1.087  -0.916  1.00  0.00     0.169 HD
BRANCH  12  14
ATOM     14  C   UNL     1       7.901   0.926   0.877  1.00  0.00     0.177 C 
ATOM     15  S   UNL     1       9.434   1.124   0.224  1.00  0.00    -0.040 S 
BRANCH  14  16
ATOM     16  N   UNL     1       7.817   0.314   2.235  1.00  0.00    -0.299 N 
ATOM     17  C   UNL     1       7.025  -0.224   3.486  1.00  0.00     0.257 C 
ATOM     18  O   UNL     1       7.636  -0.823   4.364  1.00  0.00    -0.269 OA
ATOM     19  H   UNL     1       8.760   0.168   2.480  1.00  0.00     0.172 HD
BRANCH  17  20
ATOM     20  C   UNL     1       5.546   0.107   3.653  1.00  0.00     0.041 A 
ATOM     21  C   UNL     1       2.249   1.812   2.991  1.00  0.00     0.133 A 
ATOM     22  C   UNL     1       2.510   0.619   4.331  1.00  0.00     0.048 A 
ATOM     23  C   UNL     1       3.677   2.229   1.979  1.00  0.00     0.060 A 
ATOM     24  C   UNL     1       4.116  -0.204   4.620  1.00  0.00     0.018 A 
ATOM     25  C   UNL     1       5.351   1.239   2.430  1.00  0.00     0.033 A 
ATOM     26  Br  UNL     1       3.278   4.012   1.073  1.00  0.00    -0.047 Br
BRANCH  21  27
ATOM     27  O   UNL     1       1.018   2.158   2.482  1.00  0.00    -0.493 OA
BRANCH  27  28
ATOM     28  C   UNL     1       0.742   1.533   1.203  1.00  0.00     0.226 C 
ATOM     29  C   UNL     1       1.068   2.143  -0.147  1.00  0.00     0.049 C 
ENDBRANCH  27  28
ENDBRANCH  21  27
ENDBRANCH  17  20
ENDBRANCH  14  16
ENDBRANCH  12  14
ENDBRANCH   6  12
ENDBRANCH   3   5
ENDBRANCH   2   3
ENDBRANCH   1   2
BRANCH   1  30
ATOM     30  C   UNL     1      -0.744  -1.056   1.736  1.00  0.00     0.202 C 
BRANCH  30  31
ATOM     31  O   UNL     1      -0.638  -1.124   0.330  1.00  0.00    -0.374 OA
BRANCH  31  32
ATOM     32  C   UNL     1      -1.683  -0.560  -0.449  1.00  0.00     0.202 C 
BRANCH  32  33
ATOM     33  C   UNL     1      -3.073  -0.384   0.190  1.00  0.00     0.261 C 
BRANCH  33  34
ATOM     34  O   UNL     1      -3.768  -1.652   0.196  1.00  0.00    -0.460 OA
BRANCH  34  35
ATOM     35  C   UNL     1      -4.012  -2.211   1.414  1.00  0.00     0.338 C 
ATOM     36  O   UNL     1      -4.534  -1.642   2.358  1.00  0.00    -0.246 OA
BRANCH  35  37
ATOM     37  C   UNL     1      -3.218  -3.478   1.540  1.00  0.00     0.060 A 
ATOM     38  C   UNL     1      -3.041  -4.054   2.809  1.00  0.00     0.016 A 
ATOM     39  C   UNL     1      -2.296  -3.749   0.538  1.00  0.00     0.016 A 
ATOM     40  C   UNL     1      -1.835  -4.708   3.129  1.00  0.00     0.010 A 
ATOM     41  C   UNL     1      -1.054  -4.219   0.919  1.00  0.00     0.010 A 
ATOM     42  C   UNL     1      -0.785  -4.683   2.220  1.00  0.00    -0.014 A 
BRANCH  42  43
ATOM     43  C   UNL     1       0.625  -5.049   2.497  1.00  0.00     0.031 A 
ATOM     44  C   UNL     1       1.249  -6.039   1.577  1.00  0.00     0.074 A 
ATOM     45  C   UNL     1       1.429  -4.410   3.398  1.00  0.00     0.049 A 
ATOM     46  N   UNL     1       2.367  -6.622   1.815  1.00  0.00    -0.248 NA
ATOM     47  C   UNL     1       0.657  -6.502   0.325  1.00  0.00     0.031 C 
ATOM     48  C   UNL     1       2.894  -4.440   3.501  1.00  0.00     0.029 A 
ATOM     49  N   UNL     1       1.100  -3.547   4.458  1.00  0.00    -0.354 N 
ATOM     50  C   UNL     1       2.787  -7.263   0.675  1.00  0.00     0.074 A 
ATOM     51  C   UNL     1       1.639  -7.243  -0.186  1.00  0.00     0.031 C 
ATOM     52  C   UNL     1       3.280  -3.936   4.689  1.00  0.00     0.029 A 
ATOM     53  C   UNL     1       2.079  -3.673   5.455  1.00  0.00     0.049 A 
ATOM     54  H   UNL     1       0.315  -2.954   4.494  1.00  0.00     0.167 HD
ATOM     55  C   UNL     1       4.095  -7.641   0.602  1.00  0.00     0.037 A 
ATOM     56  C   UNL     1       1.695  -4.126   6.676  1.00  0.00     0.037 A 
ATOM     57  C   UNL     1       4.756  -7.416   1.912  1.00  0.00     0.049 A 
ATOM     58  C   UNL     1       2.239  -5.522   6.829  1.00  0.00     0.074 A 
ATOM     59  C   UNL     1       5.701  -6.528   2.401  1.00  0.00     0.029 A 
ATOM     60  N   UNL     1       4.182  -7.986   3.050  1.00  0.00    -0.354 N 
ATOM     61  N   UNL     1       2.999  -6.075   5.922  1.00  0.00    -0.248 NA
ATOM     62  C   UNL     1       1.986  -6.421   7.942  1.00  0.00     0.031 C 
ATOM     63  C   UNL     1       5.658  -6.567   3.838  1.00  0.00     0.029 A 
ATOM     64  C   UNL     1       4.714  -7.502   4.233  1.00  0.00     0.049 A 
ATOM     65  H   UNL     1       3.469  -8.665   3.014  1.00  0.00     0.167 HD
ATOM     66  C   UNL     1       3.367  -7.324   6.276  1.00  0.00     0.074 A 
ATOM     67  C   UNL     1       2.651  -7.522   7.535  1.00  0.00     0.031 C 
ATOM     68  C   UNL     1       4.231  -8.059   5.506  1.00  0.00     0.037 A 
BRANCH  55  69
ATOM     69  C   UNL     1       4.817  -8.075  -0.672  1.00  0.00     0.057 A 
ATOM     70  C   UNL     1       6.210  -8.287  -0.659  1.00  0.00     0.134 A 
ATOM     71  C   UNL     1       4.247  -8.259  -1.954  1.00  0.00     0.134 A 
ATOM     72  F   UNL     1       6.922  -8.184   0.470  1.00  0.00    -0.206 F 
ATOM     73  C   UNL     1       6.956  -8.614  -1.808  1.00  0.00     0.040 A 
ATOM     74  C   UNL     1       4.977  -8.590  -3.106  1.00  0.00     0.040 A 
ATOM     75  F   UNL     1       2.945  -8.139  -2.201  1.00  0.00    -0.206 F 
ATOM     76  C   UNL     1       6.343  -8.762  -3.041  1.00  0.00     0.006 A 
ENDBRANCH  55  69
BRANCH  56  77
ATOM     77  C   UNL     1       0.362  -3.521   7.032  1.00  0.00     0.057 A 
ATOM     78  C   UNL     1       0.327  -2.105   7.135  1.00  0.00     0.134 A 
ATOM     79  C   UNL     1      -0.846  -4.137   6.692  1.00  0.00     0.134 A 
ATOM     80  F   UNL     1       1.443  -1.429   7.458  1.00  0.00    -0.206 F 
ATOM     81  C   UNL     1      -0.776  -1.346   6.719  1.00  0.00     0.040 A 
ATOM     82  C   UNL     1      -1.969  -3.380   6.306  1.00  0.00     0.040 A 
ATOM     83  F   UNL     1      -0.913  -5.469   6.553  1.00  0.00    -0.206 F 
ATOM     84  C   UNL     1      -1.915  -1.988   6.252  1.00  0.00     0.006 A 
ENDBRANCH  56  77
BRANCH  68  85
ATOM     85  C   UNL     1       4.641  -9.446   5.901  1.00  0.00     0.057 A 
ATOM     86  C   UNL     1       4.794  -9.839   7.234  1.00  0.00     0.134 A 
ATOM     87  C   UNL     1       4.911 -10.444   4.945  1.00  0.00     0.134 A 
ATOM     88  F   UNL     1       4.811  -8.940   8.229  1.00  0.00    -0.206 F 
ATOM     89  C   UNL     1       4.958 -11.176   7.597  1.00  0.00     0.040 A 
ATOM     90  C   UNL     1       5.136 -11.773   5.292  1.00  0.00     0.040 A 
ATOM     91  F   UNL     1       4.958 -10.198   3.630  1.00  0.00    -0.206 F 
ATOM     92  C   UNL     1       5.100 -12.153   6.621  1.00  0.00     0.006 A 
ENDBRANCH  68  85
ENDBRANCH  42  43
ENDBRANCH  35  37
ENDBRANCH  34  35
ENDBRANCH  33  34
ENDBRANCH  32  33
ENDBRANCH  31  32
ENDBRANCH  30  31
ENDBRANCH   1  30
TORSDOF 20
