REMARK SMILES CCc1cccc(NC(=O)N2CCO[C@@H](CC(=O)OCCOCCOC(=O)c3ccc(-c4c5nc(c(-c6c(F)cccc6F)c6ccc([nH]6)c(-c6c(F)cccc6F)c6nc(c(-c7c(F)cccc7F)c7ccc4[nH]7)C=C6)C=C5)cc3)C2)c1
REMARK SMILES IDX 21 1 20 2 19 3 17 4 18 5 16 6 15 7 11 8 12 9 82 10 13 11
REMARK SMILES IDX 14 12 9 13 8 14 10 16 7 17 3 18 4 19 83 20 5 21 6 22 2 23
REMARK SMILES IDX 1 24 22 25 23 26 24 27 25 28 26 29 27 30 28 31 29 32 81 33
REMARK SMILES IDX 30 34 80 35 31 36 32 37 33 38 74 39 34 40 79 41 73 42 75 43
REMARK SMILES IDX 35 44 78 45 72 46 71 47 36 49 62 50 45 51 61 52 46 53 49 54
REMARK SMILES IDX 60 55 76 56 47 57 48 58 59 60 77 61 50 62 37 63 38 64 43 65
REMARK SMILES IDX 39 66 40 67 42 68 44 69 41 70 63 71 64 72 69 73 65 74 66 75
REMARK SMILES IDX 68 76 70 77 67 78 51 79 52 80 57 81 53 82 54 83 56 84 58 85
REMARK SMILES IDX 55 86
REMARK H PARENT 8 15 75 48 49 59
REMARK Flexibility Score: inf
ROOT
ATOM      1  C   UNL     1      -0.353   9.911   5.766  1.00  0.00     0.202 C 
ENDROOT
BRANCH   1   2
ATOM      2  C   UNL     1       0.732  10.889   5.314  1.00  0.00     0.261 C 
BRANCH   2   3
ATOM      3  O   UNL     1       1.625  10.296   4.352  1.00  0.00    -0.463 OA
BRANCH   3   4
ATOM      4  C   UNL     1       2.853   9.959   4.820  1.00  0.00     0.308 C 
ATOM      5  O   UNL     1       3.236  10.128   5.970  1.00  0.00    -0.252 OA
BRANCH   4   6
ATOM      6  C   UNL     1       3.745   9.424   3.734  1.00  0.00     0.156 C 
BRANCH   6   7
ATOM      7  C   UNL     1       3.274   8.221   2.920  1.00  0.00     0.149 C 
ATOM      8  N   UNL     1       1.785   7.225   1.241  1.00  0.00    -0.320 N 
ATOM      9  C   UNL     1       2.931   6.846   0.415  1.00  0.00     0.150 C 
ATOM     10  C   UNL     1       2.016   8.430   2.049  1.00  0.00     0.154 C 
ATOM     11  C   UNL     1       4.200   6.739   1.261  1.00  0.00     0.182 C 
ATOM     12  O   UNL     1       4.406   7.909   2.061  1.00  0.00    -0.374 OA
BRANCH   8  13
ATOM     13  C   UNL     1       0.515   6.888   0.863  1.00  0.00     0.322 C 
ATOM     14  N   UNL     1       0.168   5.572   0.729  1.00  0.00    -0.308 N 
ATOM     15  H   UNL     1      -0.666   5.430   0.225  1.00  0.00     0.171 HD
ATOM     16  O   UNL     1      -0.332   7.750   0.631  1.00  0.00    -0.248 OA
BRANCH  14  17
ATOM     17  C   UNL     1       0.774   4.377   1.172  1.00  0.00     0.043 A 
ATOM     18  C   UNL     1       0.850   1.936   1.099  1.00  0.00    -0.046 A 
ATOM     19  C   UNL     1       2.051   1.961   1.817  1.00  0.00     0.004 A 
ATOM     20  C   UNL     1       0.236   3.153   0.748  1.00  0.00     0.029 A 
ATOM     21  C   UNL     1       2.545   3.163   2.304  1.00  0.00     0.002 A 
ATOM     22  C   UNL     1       1.863   4.349   2.037  1.00  0.00     0.026 A 
BRANCH  18  23
ATOM     23  C   UNL     1       0.220   0.606   0.770  1.00  0.00     0.032 C 
ATOM     24  C   UNL     1       0.878  -0.109  -0.397  1.00  0.00     0.009 C 
ENDBRANCH  18  23
ENDBRANCH  14  17
ENDBRANCH   8  13
ENDBRANCH   6   7
ENDBRANCH   4   6
ENDBRANCH   3   4
ENDBRANCH   2   3
ENDBRANCH   1   2
BRANCH   1  25
ATOM     25  O   UNL     1       0.085   8.801   6.545  1.00  0.00    -0.374 OA
BRANCH  25  26
ATOM     26  C   UNL     1       0.597   7.673   5.836  1.00  0.00     0.202 C 
BRANCH  26  27
ATOM     27  C   UNL     1      -0.441   6.742   5.195  1.00  0.00     0.261 C 
BRANCH  27  28
ATOM     28  O   UNL     1      -1.141   7.377   4.110  1.00  0.00    -0.460 OA
BRANCH  28  29
ATOM     29  C   UNL     1      -2.438   7.687   4.352  1.00  0.00     0.338 C 
ATOM     30  O   UNL     1      -3.089   7.422   5.354  1.00  0.00    -0.246 OA
BRANCH  29  31
ATOM     31  C   UNL     1      -2.938   8.586   3.296  1.00  0.00     0.060 A 
ATOM     32  C   UNL     1      -3.437   9.841   3.666  1.00  0.00     0.016 A 
ATOM     33  C   UNL     1      -2.939   8.198   1.959  1.00  0.00     0.016 A 
ATOM     34  C   UNL     1      -3.944  10.708   2.695  1.00  0.00     0.010 A 
ATOM     35  C   UNL     1      -3.428   9.073   0.985  1.00  0.00     0.010 A 
ATOM     36  C   UNL     1      -3.958  10.323   1.347  1.00  0.00    -0.014 A 
BRANCH  36  37
ATOM     37  C   UNL     1      -4.622  11.169   0.323  1.00  0.00     0.031 A 
ATOM     38  C   UNL     1      -5.944  10.729  -0.243  1.00  0.00     0.074 A 
ATOM     39  C   UNL     1      -4.053  12.310  -0.108  1.00  0.00     0.049 A 
ATOM     40  N   UNL     1      -6.658  11.264  -1.201  1.00  0.00    -0.248 NA
ATOM     41  C   UNL     1      -6.538   9.518   0.345  1.00  0.00     0.031 C 
ATOM     42  C   UNL     1      -2.787  12.858   0.374  1.00  0.00     0.029 A 
ATOM     43  N   UNL     1      -4.465  13.205  -1.065  1.00  0.00    -0.354 N 
ATOM     44  C   UNL     1      -7.774  10.449  -1.339  1.00  0.00     0.074 A 
ATOM     45  C   UNL     1      -7.628   9.366  -0.391  1.00  0.00     0.031 C 
ATOM     46  C   UNL     1      -2.521  13.994  -0.294  1.00  0.00     0.029 A 
ATOM     47  C   UNL     1      -3.575  14.229  -1.280  1.00  0.00     0.049 A 
ATOM     48  H   UNL     1      -5.318  13.122  -1.550  1.00  0.00     0.167 HD
ATOM     49  C   UNL     1      -8.832  10.596  -2.172  1.00  0.00     0.037 A 
ATOM     50  C   UNL     1      -3.591  15.223  -2.190  1.00  0.00     0.037 A 
ATOM     51  C   UNL     1      -8.980  11.678  -3.109  1.00  0.00     0.049 A 
ATOM     52  C   UNL     1      -4.739  15.320  -3.162  1.00  0.00     0.074 A 
ATOM     53  C   UNL     1     -10.035  11.935  -3.968  1.00  0.00     0.029 A 
ATOM     54  N   UNL     1      -8.041  12.675  -3.319  1.00  0.00    -0.354 N 
ATOM     55  N   UNL     1      -5.810  14.569  -3.256  1.00  0.00    -0.248 NA
ATOM     56  C   UNL     1      -4.676  16.399  -4.160  1.00  0.00     0.031 C 
ATOM     57  C   UNL     1      -9.708  13.054  -4.739  1.00  0.00     0.029 A 
ATOM     58  C   UNL     1      -8.474  13.528  -4.321  1.00  0.00     0.049 A 
ATOM     59  H   UNL     1      -7.192  12.765  -2.829  1.00  0.00     0.167 HD
ATOM     60  C   UNL     1      -6.555  15.095  -4.304  1.00  0.00     0.074 A 
ATOM     61  C   UNL     1      -5.824  16.241  -4.804  1.00  0.00     0.031 C 
ATOM     62  C   UNL     1      -7.738  14.667  -4.809  1.00  0.00     0.037 A 
BRANCH  49  63
ATOM     63  C   UNL     1      -9.905   9.547  -2.123  1.00  0.00     0.057 A 
ATOM     64  C   UNL     1     -10.776   9.427  -1.033  1.00  0.00     0.134 A 
ATOM     65  C   UNL     1     -10.094   8.670  -3.199  1.00  0.00     0.134 A 
ATOM     66  F   UNL     1     -10.643  10.228   0.035  1.00  0.00    -0.206 F 
ATOM     67  C   UNL     1     -11.780   8.458  -1.004  1.00  0.00     0.040 A 
ATOM     68  C   UNL     1     -11.112   7.716  -3.194  1.00  0.00     0.040 A 
ATOM     69  F   UNL     1      -9.299   8.734  -4.278  1.00  0.00    -0.206 F 
ATOM     70  C   UNL     1     -11.955   7.603  -2.091  1.00  0.00     0.006 A 
ENDBRANCH  49  63
BRANCH  50  71
ATOM     71  C   UNL     1      -2.473  16.200  -2.248  1.00  0.00     0.057 A 
ATOM     72  C   UNL     1      -2.666  17.545  -1.910  1.00  0.00     0.134 A 
ATOM     73  C   UNL     1      -1.191  15.820  -2.665  1.00  0.00     0.134 A 
ATOM     74  F   UNL     1      -3.877  17.977  -1.529  1.00  0.00    -0.206 F 
ATOM     75  C   UNL     1      -1.632  18.478  -2.000  1.00  0.00     0.040 A 
ATOM     76  C   UNL     1      -0.141  16.736  -2.732  1.00  0.00     0.040 A 
ATOM     77  F   UNL     1      -0.940  14.547  -3.006  1.00  0.00    -0.206 F 
ATOM     78  C   UNL     1      -0.362  18.072  -2.406  1.00  0.00     0.006 A 
ENDBRANCH  50  71
BRANCH  62  79
ATOM     79  C   UNL     1      -8.332  15.447  -5.946  1.00  0.00     0.057 A 
ATOM     80  C   UNL     1      -7.795  15.392  -7.239  1.00  0.00     0.134 A 
ATOM     81  C   UNL     1      -9.492  16.212  -5.761  1.00  0.00     0.134 A 
ATOM     82  F   UNL     1      -6.679  14.688  -7.482  1.00  0.00    -0.206 F 
ATOM     83  C   UNL     1      -8.382  16.081  -8.302  1.00  0.00     0.040 A 
ATOM     84  C   UNL     1     -10.103  16.882  -6.821  1.00  0.00     0.040 A 
ATOM     85  F   UNL     1     -10.064  16.299  -4.550  1.00  0.00    -0.206 F 
ATOM     86  C   UNL     1      -9.545  16.820  -8.096  1.00  0.00     0.006 A 
ENDBRANCH  62  79
ENDBRANCH  36  37
ENDBRANCH  29  31
ENDBRANCH  28  29
ENDBRANCH  27  28
ENDBRANCH  26  27
ENDBRANCH  25  26
ENDBRANCH   1  25
TORSDOF 18
