REMARK SMILES O=C(OCCOCCOC(=O)c1ccccc1/C=N\NC(=S)NCc1ccccc1)c1ccc(-c2c3nc(c(-c4c(F)cccc4F)c4ccc([nH]4)c(-c4c(F)cccc4F)c4nc(c(-c5c(F)cccc5F)c5ccc2[nH]5)C=C4)C=C3)cc1
REMARK SMILES IDX 8 1 7 2 6 3 5 4 4 5 3 6 2 7 1 8 31 9 32 10 84 11 33 12 83 13
REMARK SMILES IDX 34 14 35 15 36 16 77 17 37 18 82 19 76 20 78 21 38 22 81 23
REMARK SMILES IDX 75 24 74 25 39 27 65 28 48 29 64 30 49 31 52 32 63 33 79 34
REMARK SMILES IDX 50 35 51 36 62 38 80 39 53 40 40 41 41 42 46 43 42 44 43 45
REMARK SMILES IDX 45 46 47 47 44 48 66 49 67 50 72 51 68 52 69 53 71 54 73 55
REMARK SMILES IDX 70 56 54 57 55 58 60 59 56 60 57 61 59 62 61 63 58 64 9 65
REMARK SMILES IDX 10 66 11 67 12 68 13 69 17 70 14 71 16 72 15 73 18 74 19 75
REMARK SMILES IDX 20 76 21 78 22 79 23 80 24 82 25 83 26 84 30 85 27 86 29 87
REMARK SMILES IDX 28 88
REMARK H PARENT 78 26 52 37 20 77 23 81
REMARK Flexibility Score: inf
ROOT
ATOM      1  C   UNL     1       2.756  -2.700   2.483  1.00  0.00     0.261 C 
ENDROOT
BRANCH   1   2
ATOM      2  C   UNL     1       2.921  -1.360   1.745  1.00  0.00     0.202 C 
BRANCH   2   3
ATOM      3  O   UNL     1       4.311  -1.094   1.513  1.00  0.00    -0.374 OA
BRANCH   3   4
ATOM      4  C   UNL     1       4.698   0.268   1.297  1.00  0.00     0.202 C 
BRANCH   4   5
ATOM      5  C   UNL     1       4.236   1.040   0.056  1.00  0.00     0.261 C 
BRANCH   5   6
ATOM      6  O   UNL     1       2.807   0.972  -0.102  1.00  0.00    -0.460 OA
BRANCH   6   7
ATOM      7  C   UNL     1       2.154   0.386  -1.136  1.00  0.00     0.338 C 
ATOM      8  O   UNL     1       0.965   0.615  -1.328  1.00  0.00    -0.246 OA
BRANCH   7   9
ATOM      9  C   UNL     1       2.860  -0.580  -2.019  1.00  0.00     0.060 A 
ATOM     10  C   UNL     1       3.921  -1.360  -1.563  1.00  0.00     0.016 A 
ATOM     11  C   UNL     1       2.401  -0.777  -3.324  1.00  0.00     0.016 A 
ATOM     12  C   UNL     1       4.602  -2.223  -2.379  1.00  0.00     0.010 A 
ATOM     13  C   UNL     1       3.018  -1.730  -4.139  1.00  0.00     0.010 A 
ATOM     14  C   UNL     1       4.118  -2.450  -3.655  1.00  0.00    -0.014 A 
BRANCH  14  15
ATOM     15  C   UNL     1       4.827  -3.470  -4.425  1.00  0.00     0.031 A 
ATOM     16  C   UNL     1       5.743  -3.028  -5.509  1.00  0.00     0.074 A 
ATOM     17  C   UNL     1       4.747  -4.746  -4.003  1.00  0.00     0.049 A 
ATOM     18  N   UNL     1       6.404  -3.753  -6.365  1.00  0.00    -0.248 NA
ATOM     19  C   UNL     1       5.961  -1.576  -5.643  1.00  0.00     0.031 C 
ATOM     20  C   UNL     1       3.990  -5.202  -2.828  1.00  0.00     0.029 A 
ATOM     21  N   UNL     1       5.330  -5.884  -4.479  1.00  0.00    -0.354 N 
ATOM     22  C   UNL     1       7.068  -2.848  -7.177  1.00  0.00     0.074 A 
ATOM     23  C   UNL     1       6.764  -1.521  -6.695  1.00  0.00     0.031 C 
ATOM     24  C   UNL     1       4.167  -6.522  -2.673  1.00  0.00     0.029 A 
ATOM     25  C   UNL     1       4.957  -7.014  -3.791  1.00  0.00     0.049 A 
ATOM     26  H   UNL     1       5.956  -5.895  -5.239  1.00  0.00     0.167 HD
ATOM     27  C   UNL     1       7.835  -3.132  -8.251  1.00  0.00     0.037 A 
ATOM     28  C   UNL     1       5.172  -8.306  -4.093  1.00  0.00     0.037 A 
ATOM     29  C   UNL     1       8.110  -4.478  -8.671  1.00  0.00     0.049 A 
ATOM     30  C   UNL     1       5.943  -8.587  -5.351  1.00  0.00     0.074 A 
ATOM     31  C   UNL     1       8.839  -4.915  -9.758  1.00  0.00     0.029 A 
ATOM     32  N   UNL     1       7.652  -5.610  -8.005  1.00  0.00    -0.354 N 
ATOM     33  N   UNL     1       6.521  -7.737  -6.169  1.00  0.00    -0.248 NA
ATOM     34  C   UNL     1       6.064  -9.991  -5.753  1.00  0.00     0.031 C 
ATOM     35  C   UNL     1       8.777  -6.312  -9.780  1.00  0.00     0.029 A 
ATOM     36  C   UNL     1       8.050  -6.747  -8.680  1.00  0.00     0.049 A 
ATOM     37  H   UNL     1       7.123  -5.602  -7.175  1.00  0.00     0.167 HD
ATOM     38  C   UNL     1       7.071  -8.499  -7.185  1.00  0.00     0.074 A 
ATOM     39  C   UNL     1       6.787  -9.885  -6.859  1.00  0.00     0.031 C 
ATOM     40  C   UNL     1       7.736  -8.102  -8.298  1.00  0.00     0.037 A 
BRANCH  27  41
ATOM     41  C   UNL     1       8.318  -1.982  -9.076  1.00  0.00     0.057 A 
ATOM     42  C   UNL     1       9.351  -1.134  -8.661  1.00  0.00     0.134 A 
ATOM     43  C   UNL     1       7.719  -1.714 -10.314  1.00  0.00     0.134 A 
ATOM     44  F   UNL     1       9.942  -1.314  -7.470  1.00  0.00    -0.206 F 
ATOM     45  C   UNL     1       9.766  -0.054  -9.445  1.00  0.00     0.040 A 
ATOM     46  C   UNL     1       8.136  -0.650 -11.115  1.00  0.00     0.040 A 
ATOM     47  F   UNL     1       6.711  -2.478 -10.761  1.00  0.00    -0.206 F 
ATOM     48  C   UNL     1       9.162   0.185 -10.679  1.00  0.00     0.006 A 
ENDBRANCH  27  41
BRANCH  28  49
ATOM     49  C   UNL     1       4.557  -9.389  -3.283  1.00  0.00     0.057 A 
ATOM     50  C   UNL     1       5.335 -10.337  -2.611  1.00  0.00     0.134 A 
ATOM     51  C   UNL     1       3.163  -9.521  -3.183  1.00  0.00     0.134 A 
ATOM     52  F   UNL     1       6.673 -10.281  -2.678  1.00  0.00    -0.206 F 
ATOM     53  C   UNL     1       4.754 -11.386  -1.892  1.00  0.00     0.040 A 
ATOM     54  C   UNL     1       2.569 -10.543  -2.441  1.00  0.00     0.040 A 
ATOM     55  F   UNL     1       2.352  -8.649  -3.800  1.00  0.00    -0.206 F 
ATOM     56  C   UNL     1       3.367 -11.488  -1.802  1.00  0.00     0.006 A 
ENDBRANCH  28  49
BRANCH  40  57
ATOM     57  C   UNL     1       8.195  -9.186  -9.219  1.00  0.00     0.057 A 
ATOM     58  C   UNL     1       7.299  -9.856 -10.059  1.00  0.00     0.134 A 
ATOM     59  C   UNL     1       9.553  -9.512  -9.310  1.00  0.00     0.134 A 
ATOM     60  F   UNL     1       5.984  -9.594  -9.999  1.00  0.00    -0.206 F 
ATOM     61  C   UNL     1       7.739 -10.826 -10.956  1.00  0.00     0.040 A 
ATOM     62  C   UNL     1      10.008 -10.460 -10.223  1.00  0.00     0.040 A 
ATOM     63  F   UNL     1      10.456  -8.895  -8.534  1.00  0.00    -0.206 F 
ATOM     64  C   UNL     1       9.099 -11.122 -11.047  1.00  0.00     0.006 A 
ENDBRANCH  40  57
ENDBRANCH  14  15
ENDBRANCH   7   9
ENDBRANCH   6   7
ENDBRANCH   5   6
ENDBRANCH   4   5
ENDBRANCH   3   4
ENDBRANCH   2   3
ENDBRANCH   1   2
BRANCH   1  65
ATOM     65  O   UNL     1       3.057  -2.489   3.873  1.00  0.00    -0.460 OA
BRANCH  65  66
ATOM     66  C   UNL     1       4.364  -2.594   4.208  1.00  0.00     0.338 C 
ATOM     67  O   UNL     1       5.214  -3.294   3.693  1.00  0.00    -0.246 OA
BRANCH  66  68
ATOM     68  C   UNL     1       4.650  -1.425   5.052  1.00  0.00     0.068 A 
ATOM     69  C   UNL     1       6.294  -0.691   4.945  1.00  0.00     0.016 A 
ATOM     70  C   UNL     1       3.281  -0.471   5.784  1.00  0.00     0.009 A 
ATOM     71  C   UNL     1       6.601   0.981   5.596  1.00  0.00     0.001 A 
ATOM     72  C   UNL     1       3.591   1.171   6.507  1.00  0.00     0.010 A 
ATOM     73  C   UNL     1       5.263   1.878   6.418  1.00  0.00     0.001 A 
BRANCH  70  74
ATOM     74  C   UNL     1       2.252  -1.238   6.418  1.00  0.00     0.142 C 
ATOM     75  N   UNL     1       2.436  -1.596   7.638  1.00  0.00    -0.181 NA
BRANCH  75  76
ATOM     76  N   UNL     1       3.640  -1.295   8.219  1.00  0.00    -0.254 N 
ATOM     77  H   UNL     1       3.656  -1.491   9.184  1.00  0.00     0.193 HD
BRANCH  76  78
ATOM     78  C   UNL     1       4.814  -0.790   7.770  1.00  0.00     0.187 C 
ATOM     79  S   UNL     1       6.120  -0.956   8.835  1.00  0.00    -0.039 S 
BRANCH  78  80
ATOM     80  N   UNL     1       5.108  -0.143   6.558  1.00  0.00    -0.357 N 
ATOM     81  H   UNL     1       6.085  -0.032   6.608  1.00  0.00     0.163 HD
BRANCH  80  82
ATOM     82  C   UNL     1       4.653   0.712   4.723  1.00  0.00     0.151 C 
BRANCH  82  83
ATOM     83  C   UNL     1       3.945   2.164   4.203  1.00  0.00    -0.029 A 
ATOM     84  C   UNL     1       4.768   3.263   3.870  1.00  0.00     0.005 A 
ATOM     85  C   UNL     1       2.640   2.119   3.656  1.00  0.00     0.005 A 
ATOM     86  C   UNL     1       4.303   4.275   3.027  1.00  0.00     0.000 A 
ATOM     87  C   UNL     1       2.203   3.114   2.775  1.00  0.00     0.000 A 
ATOM     88  C   UNL     1       3.033   4.187   2.460  1.00  0.00     0.000 A 
ENDBRANCH  82  83
ENDBRANCH  80  82
ENDBRANCH  78  80
ENDBRANCH  76  78
ENDBRANCH  75  76
ENDBRANCH  70  74
ENDBRANCH  66  68
ENDBRANCH  65  66
ENDBRANCH   1  65
TORSDOF 20
