REMARK SMILES Cc1cccc(-c2ncc(C[NH+]3CCC4(CC3)NC(=O)C[C@H]4C(=O)OCCOCCOC(=O)c3ccc(-c4c5nc(c(-c6c(F)cccc6F)c6ccc([nH]6)c(-c6c(F)cccc6F)c6nc(c(-c7c(F)cccc7F)c7ccc4[nH]7)C=C6)C=C5)cc3)cn2)c1
REMARK SMILES IDX 27 1 26 2 25 3 23 4 24 5 22 6 12 7 13 8 17 9 14 11 16 12
REMARK SMILES IDX 15 13 18 14 19 15 21 17 20 18 11 19 10 20 7 21 8 22 89 23
REMARK SMILES IDX 9 24 88 25 6 26 1 27 2 28 3 29 90 30 4 31 5 32 28 33 29 34
REMARK SMILES IDX 30 35 31 36 32 37 33 38 34 39 35 40 87 41 36 42 86 43 37 44
REMARK SMILES IDX 38 45 39 46 80 47 40 48 85 49 79 50 81 51 41 52 84 53 78 54
REMARK SMILES IDX 77 55 42 57 68 58 51 59 67 60 52 61 55 62 66 63 82 64 53 65
REMARK SMILES IDX 54 66 65 68 83 69 56 70 43 71 44 72 49 73 45 74 46 75 48 76
REMARK SMILES IDX 50 77 47 78 69 79 70 80 75 81 71 82 72 83 74 84 76 85 73 86
REMARK SMILES IDX 57 87 58 88 63 89 59 90 60 91 62 92 64 93 61 94
REMARK H PARENT 12 10 18 16 81 56 55 67
REMARK Flexibility Score: inf
ROOT
ATOM      1  C   UNL     1      -2.054   5.735  -3.165  1.00  0.00     0.202 C 
ENDROOT
BRANCH   1   2
ATOM      2  C   UNL     1      -0.591   5.378  -3.114  1.00  0.00     0.261 C 
BRANCH   2   3
ATOM      3  O   UNL     1       0.172   5.563  -1.893  1.00  0.00    -0.463 OA
BRANCH   3   4
ATOM      4  C   UNL     1       0.448   6.802  -1.398  1.00  0.00     0.311 C 
ATOM      5  O   UNL     1       0.485   7.831  -2.055  1.00  0.00    -0.252 OA
BRANCH   4   6
ATOM      6  C   UNL     1       0.651   6.760   0.128  1.00  0.00     0.134 C 
ATOM      7  N   UNL     1      -3.244   6.699   1.273  1.00  0.00    -0.331 N 
ATOM      8  C   UNL     1      -2.245   7.011   2.302  1.00  0.00     0.264 C 
ATOM      9  C   UNL     1      -2.594   6.581  -0.014  1.00  0.00     0.264 C 
ATOM     10  H   UNL     1      -3.858   7.512   1.322  1.00  0.00     0.348 HD
ATOM     11  C   UNL     1      -0.871   6.277   2.268  1.00  0.00     0.091 C 
ATOM     12  C   UNL     1      -1.564   5.474   0.079  1.00  0.00     0.091 C 
ATOM     13  C   UNL     1      -0.341   5.836   0.874  1.00  0.00     0.064 C 
ATOM     14  N   UNL     1       0.446   4.628   1.060  1.00  0.00    -0.349 N 
ATOM     15  C   UNL     1       1.782   4.752   0.770  1.00  0.00     0.221 C 
ATOM     16  H   UNL     1       0.049   3.782   1.371  1.00  0.00     0.164 HD
ATOM     17  C   UNL     1       2.045   6.201   0.457  1.00  0.00     0.117 C 
ATOM     18  O   UNL     1       2.589   3.858   0.827  1.00  0.00    -0.275 OA
BRANCH   7  19
ATOM     19  C   UNL     1      -4.311   5.683   1.505  1.00  0.00     0.302 C 
BRANCH  19  20
ATOM     20  C   UNL     1      -3.983   4.223   1.252  1.00  0.00     0.043 A 
ATOM     21  C   UNL     1      -2.604   1.944   0.618  1.00  0.00     0.159 A 
ATOM     22  N   UNL     1      -2.588   2.366   1.900  1.00  0.00    -0.236 NA
ATOM     23  N   UNL     1      -3.351   2.507  -0.355  1.00  0.00    -0.236 NA
ATOM     24  C   UNL     1      -3.304   3.476   2.193  1.00  0.00     0.124 A 
ATOM     25  C   UNL     1      -4.037   3.629  -0.009  1.00  0.00     0.124 A 
BRANCH  21  26
ATOM     26  C   UNL     1      -1.706   0.826   0.282  1.00  0.00     0.019 A 
ATOM     27  C   UNL     1       2.055   0.013   0.131  1.00  0.00     0.044 C 
ATOM     28  C   UNL     1       0.558  -0.137   0.086  1.00  0.00    -0.050 A 
ATOM     29  C   UNL     1      -0.002  -1.404  -0.084  1.00  0.00     0.003 A 
ATOM     30  C   UNL     1      -0.299   0.967   0.258  1.00  0.00     0.015 A 
ATOM     31  C   UNL     1      -1.387  -1.560  -0.109  1.00  0.00     0.001 A 
ATOM     32  C   UNL     1      -2.229  -0.456   0.065  1.00  0.00     0.012 A 
ENDBRANCH  21  26
ENDBRANCH  19  20
ENDBRANCH   7  19
ENDBRANCH   4   6
ENDBRANCH   3   4
ENDBRANCH   2   3
ENDBRANCH   1   2
BRANCH   1  33
ATOM     33  O   UNL     1      -2.148   7.145  -3.111  1.00  0.00    -0.374 OA
BRANCH  33  34
ATOM     34  C   UNL     1      -3.426   7.745  -3.256  1.00  0.00     0.202 C 
BRANCH  34  35
ATOM     35  C   UNL     1      -4.471   7.001  -4.108  1.00  0.00     0.261 C 
BRANCH  35  36
ATOM     36  O   UNL     1      -4.208   7.189  -5.517  1.00  0.00    -0.460 OA
BRANCH  36  37
ATOM     37  C   UNL     1      -3.645   6.143  -6.183  1.00  0.00     0.338 C 
ATOM     38  O   UNL     1      -4.083   5.005  -6.208  1.00  0.00    -0.246 OA
BRANCH  37  39
ATOM     39  C   UNL     1      -2.250   6.507  -6.579  1.00  0.00     0.060 A 
ATOM     40  C   UNL     1      -1.356   5.511  -7.014  1.00  0.00     0.016 A 
ATOM     41  C   UNL     1      -1.756   7.715  -6.102  1.00  0.00     0.016 A 
ATOM     42  C   UNL     1       0.023   5.660  -6.794  1.00  0.00     0.010 A 
ATOM     43  C   UNL     1      -0.441   7.762  -5.711  1.00  0.00     0.010 A 
ATOM     44  C   UNL     1       0.467   6.742  -6.045  1.00  0.00    -0.014 A 
BRANCH  44  45
ATOM     45  C   UNL     1       1.812   6.948  -5.490  1.00  0.00     0.031 A 
ATOM     46  C   UNL     1       2.492   8.195  -5.901  1.00  0.00     0.074 A 
ATOM     47  C   UNL     1       2.326   6.213  -4.465  1.00  0.00     0.049 A 
ATOM     48  N   UNL     1       3.712   8.455  -5.611  1.00  0.00    -0.248 NA
ATOM     49  C   UNL     1       1.882   9.248  -6.715  1.00  0.00     0.031 C 
ATOM     50  C   UNL     1       3.404   6.554  -3.530  1.00  0.00     0.029 A 
ATOM     51  N   UNL     1       1.982   4.923  -4.037  1.00  0.00    -0.354 N 
ATOM     52  C   UNL     1       3.934   9.783  -5.861  1.00  0.00     0.074 A 
ATOM     53  C   UNL     1       2.825  10.191  -6.678  1.00  0.00     0.031 C 
ATOM     54  C   UNL     1       3.834   5.434  -2.918  1.00  0.00     0.029 A 
ATOM     55  C   UNL     1       3.137   4.314  -3.525  1.00  0.00     0.049 A 
ATOM     56  H   UNL     1       1.087   4.516  -4.088  1.00  0.00     0.167 HD
ATOM     57  C   UNL     1       4.986  10.366  -5.223  1.00  0.00     0.037 A 
ATOM     58  C   UNL     1       3.627   3.218  -4.159  1.00  0.00     0.037 A 
ATOM     59  C   UNL     1       5.844   9.325  -4.606  1.00  0.00     0.049 A 
ATOM     60  C   UNL     1       4.928   3.592  -4.819  1.00  0.00     0.074 A 
ATOM     61  C   UNL     1       6.180   8.926  -3.323  1.00  0.00     0.029 A 
ATOM     62  N   UNL     1       6.261   8.274  -5.420  1.00  0.00    -0.354 N 
ATOM     63  N   UNL     1       5.471   4.773  -4.685  1.00  0.00    -0.248 NA
ATOM     64  C   UNL     1       5.708   2.736  -5.700  1.00  0.00     0.031 C 
ATOM     65  C   UNL     1       6.764   7.610  -3.399  1.00  0.00     0.029 A 
ATOM     66  C   UNL     1       6.824   7.222  -4.728  1.00  0.00     0.049 A 
ATOM     67  H   UNL     1       6.162   8.282  -6.399  1.00  0.00     0.167 HD
ATOM     68  C   UNL     1       6.581   4.893  -5.448  1.00  0.00     0.074 A 
ATOM     69  C   UNL     1       6.684   3.582  -6.085  1.00  0.00     0.031 C 
ATOM     70  C   UNL     1       7.295   6.061  -5.498  1.00  0.00     0.037 A 
BRANCH  57  71
ATOM     71  C   UNL     1       5.181  11.865  -5.064  1.00  0.00     0.057 A 
ATOM     72  C   UNL     1       6.285  12.357  -4.345  1.00  0.00     0.134 A 
ATOM     73  C   UNL     1       4.310  12.882  -5.520  1.00  0.00     0.134 A 
ATOM     74  F   UNL     1       7.199  11.532  -3.816  1.00  0.00    -0.206 F 
ATOM     75  C   UNL     1       6.505  13.726  -4.111  1.00  0.00     0.040 A 
ATOM     76  C   UNL     1       4.538  14.253  -5.327  1.00  0.00     0.040 A 
ATOM     77  F   UNL     1       3.157  12.633  -6.142  1.00  0.00    -0.206 F 
ATOM     78  C   UNL     1       5.637  14.683  -4.612  1.00  0.00     0.006 A 
ENDBRANCH  57  71
BRANCH  58  79
ATOM     79  C   UNL     1       2.494   2.349  -4.635  1.00  0.00     0.057 A 
ATOM     80  C   UNL     1       1.666   1.778  -3.637  1.00  0.00     0.134 A 
ATOM     81  C   UNL     1       1.911   2.498  -5.898  1.00  0.00     0.134 A 
ATOM     82  F   UNL     1       2.141   1.620  -2.393  1.00  0.00    -0.206 F 
ATOM     83  C   UNL     1       0.303   1.518  -3.838  1.00  0.00     0.040 A 
ATOM     84  C   UNL     1       0.545   2.228  -6.114  1.00  0.00     0.040 A 
ATOM     85  F   UNL     1       2.602   3.055  -6.903  1.00  0.00    -0.206 F 
ATOM     86  C   UNL     1      -0.273   1.787  -5.073  1.00  0.00     0.006 A 
ENDBRANCH  58  79
BRANCH  70  87
ATOM     87  C   UNL     1       8.491   6.201  -6.393  1.00  0.00     0.057 A 
ATOM     88  C   UNL     1       9.425   5.172  -6.557  1.00  0.00     0.134 A 
ATOM     89  C   UNL     1       8.768   7.387  -7.103  1.00  0.00     0.134 A 
ATOM     90  F   UNL     1       9.369   4.058  -5.812  1.00  0.00    -0.206 F 
ATOM     91  C   UNL     1      10.463   5.254  -7.488  1.00  0.00     0.040 A 
ATOM     92  C   UNL     1       9.838   7.506  -7.984  1.00  0.00     0.040 A 
ATOM     93  F   UNL     1       8.006   8.483  -7.008  1.00  0.00    -0.206 F 
ATOM     94  C   UNL     1      10.665   6.421  -8.215  1.00  0.00     0.006 A 
ENDBRANCH  70  87
ENDBRANCH  44  45
ENDBRANCH  37  39
ENDBRANCH  36  37
ENDBRANCH  35  36
ENDBRANCH  34  35
ENDBRANCH  33  34
ENDBRANCH   1  33
TORSDOF 17
