REMARK SMILES NS(=O)(=O)c1ccc(-n2nc(C(=O)OCCOCCOC(=O)c3ccc(-c4c5nc(c(-c6c(F)cccc6F)c6ccc([nH]6)c(-c6c(F)cccc6F)c6nc(c(-c7c(F)cccc7F)c7ccc4[nH]7)C=C6)C=C5)cc3)c(Cl)c2-c2ccc(Cl)cc2)cc1
REMARK SMILES IDX 16 1 15 2 14 3 12 4 13 5 11 6 9 7 10 8 79 9 77 10 78 11 8 12
REMARK SMILES IDX 5 13 6 14 88 15 7 16 87 17 2 18 3 19 4 20 1 21 80 24 81 25
REMARK SMILES IDX 86 26 82 27 85 28 83 29 84 30 17 31 18 32 19 33 20 34 21 35
REMARK SMILES IDX 22 36 23 37 24 38 76 39 25 40 75 41 26 42 27 43 28 44 69 45
REMARK SMILES IDX 29 46 74 47 68 48 70 49 30 50 73 51 67 52 66 53 31 55 57 56
REMARK SMILES IDX 40 57 56 58 41 59 44 60 55 61 71 62 42 63 43 64 54 66 72 67
REMARK SMILES IDX 45 68 32 69 33 70 38 71 34 72 35 73 37 74 39 75 36 76 58 77
REMARK SMILES IDX 59 78 64 79 60 80 61 81 63 82 65 83 62 84 46 85 47 86 52 87
REMARK SMILES IDX 48 88 49 89 51 90 53 91 50 92
REMARK H PARENT 1 22 1 23 70 54 44 65
REMARK Flexibility Score: inf
ROOT
ATOM      1  C   UNL     1       1.825 -12.180  -5.659  1.00  0.00     0.202 C 
ENDROOT
BRANCH   1   2
ATOM      2  C   UNL     1       2.409 -10.920  -6.294  1.00  0.00     0.261 C 
BRANCH   2   3
ATOM      3  O   UNL     1       2.795  -9.961  -5.298  1.00  0.00    -0.458 OA
BRANCH   3   4
ATOM      4  C   UNL     1       2.056  -8.814  -5.220  1.00  0.00     0.360 C 
ATOM      5  O   UNL     1       1.108  -8.557  -5.953  1.00  0.00    -0.244 OA
BRANCH   4   6
ATOM      6  C   UNL     1       2.496  -7.942  -4.123  1.00  0.00     0.190 A 
ATOM      7  N   UNL     1       2.447  -6.317  -2.724  1.00  0.00    -0.231 N 
ATOM      8  N   UNL     1       1.648  -7.118  -3.470  1.00  0.00    -0.159 NA
ATOM      9  C   UNL     1       3.778  -6.709  -2.775  1.00  0.00     0.094 A 
ATOM     10  C   UNL     1       3.801  -7.819  -3.598  1.00  0.00     0.102 A 
ATOM     11  Cl  UNL     1       5.163  -8.776  -3.970  1.00  0.00    -0.079 Cl
BRANCH   7  12
ATOM     12  C   UNL     1       1.902  -5.205  -2.032  1.00  0.00     0.065 A 
ATOM     13  C   UNL     1       1.038  -3.087  -0.443  1.00  0.00     0.082 A 
ATOM     14  C   UNL     1       0.357  -4.312  -0.399  1.00  0.00     0.024 A 
ATOM     15  C   UNL     1       2.102  -2.896  -1.327  1.00  0.00     0.024 A 
ATOM     16  C   UNL     1       0.774  -5.371  -1.216  1.00  0.00     0.030 A 
ATOM     17  C   UNL     1       2.541  -3.961  -2.113  1.00  0.00     0.030 A 
BRANCH  13  18
ATOM     18  S   UNL     1       0.556  -1.800   0.673  1.00  0.00     0.238 S 
ATOM     19  O   UNL     1       1.277  -1.999   1.915  1.00  0.00    -0.207 OA
ATOM     20  O   UNL     1      -0.871  -1.641   0.613  1.00  0.00    -0.207 OA
BRANCH  18  21
ATOM     21  N   UNL     1       1.195  -0.396   0.002  1.00  0.00    -0.225 NA
ATOM     22  H   UNL     1       0.959   0.402   0.592  1.00  0.00     0.137 HD
ATOM     23  H   UNL     1       0.805  -0.256  -0.930  1.00  0.00     0.137 HD
ENDBRANCH  18  21
ENDBRANCH  13  18
ENDBRANCH   7  12
BRANCH   9  24
ATOM     24  C   UNL     1       4.902  -6.086  -2.080  1.00  0.00     0.002 A 
ATOM     25  C   UNL     1       6.011  -5.677  -2.835  1.00  0.00     0.012 A 
ATOM     26  C   UNL     1       4.931  -5.949  -0.687  1.00  0.00     0.012 A 
ATOM     27  C   UNL     1       7.149  -5.172  -2.210  1.00  0.00     0.021 A 
ATOM     28  C   UNL     1       6.069  -5.430  -0.061  1.00  0.00     0.021 A 
ATOM     29  C   UNL     1       7.176  -5.057  -0.824  1.00  0.00     0.041 A 
ATOM     30  Cl  UNL     1       8.592  -4.466  -0.050  1.00  0.00    -0.084 Cl
ENDBRANCH   9  24
ENDBRANCH   4   6
ENDBRANCH   3   4
ENDBRANCH   2   3
ENDBRANCH   1   2
BRANCH   1  31
ATOM     31  O   UNL     1       0.535 -12.066  -5.060  1.00  0.00    -0.374 OA
BRANCH  31  32
ATOM     32  C   UNL     1       0.375 -11.303  -3.870  1.00  0.00     0.202 C 
BRANCH  32  33
ATOM     33  C   UNL     1       0.919 -11.880  -2.574  1.00  0.00     0.261 C 
BRANCH  33  34
ATOM     34  O   UNL     1       2.298 -12.204  -2.650  1.00  0.00    -0.460 OA
BRANCH  34  35
ATOM     35  C   UNL     1       2.530 -13.526  -2.832  1.00  0.00     0.338 C 
ATOM     36  O   UNL     1       1.766 -14.354  -3.297  1.00  0.00    -0.246 OA
BRANCH  35  37
ATOM     37  C   UNL     1       3.782 -13.869  -2.153  1.00  0.00     0.060 A 
ATOM     38  C   UNL     1       4.086 -15.229  -2.070  1.00  0.00     0.016 A 
ATOM     39  C   UNL     1       4.420 -12.911  -1.351  1.00  0.00     0.016 A 
ATOM     40  C   UNL     1       4.868 -15.656  -1.023  1.00  0.00     0.010 A 
ATOM     41  C   UNL     1       5.175 -13.341  -0.290  1.00  0.00     0.010 A 
ATOM     42  C   UNL     1       5.322 -14.711  -0.096  1.00  0.00    -0.014 A 
BRANCH  42  43
ATOM     43  C   UNL     1       6.118 -15.178   1.015  1.00  0.00     0.031 A 
ATOM     44  C   UNL     1       7.481 -15.540   0.573  1.00  0.00     0.074 A 
ATOM     45  C   UNL     1       5.670 -15.162   2.285  1.00  0.00     0.049 A 
ATOM     46  N   UNL     1       7.976 -16.726   0.461  1.00  0.00    -0.248 NA
ATOM     47  C   UNL     1       8.304 -14.486  -0.048  1.00  0.00     0.031 C 
ATOM     48  C   UNL     1       4.432 -14.562   2.791  1.00  0.00     0.029 A 
ATOM     49  N   UNL     1       6.283 -15.603   3.418  1.00  0.00    -0.354 N 
ATOM     50  C   UNL     1       9.273 -16.533  -0.006  1.00  0.00     0.074 A 
ATOM     51  C   UNL     1       9.321 -15.199  -0.531  1.00  0.00     0.031 C 
ATOM     52  C   UNL     1       4.494 -14.479   4.141  1.00  0.00     0.029 A 
ATOM     53  C   UNL     1       5.706 -15.136   4.596  1.00  0.00     0.049 A 
ATOM     54  H   UNL     1       7.066 -16.200   3.406  1.00  0.00     0.167 HD
ATOM     55  C   UNL     1      10.272 -17.355   0.410  1.00  0.00     0.037 A 
ATOM     56  C   UNL     1       6.238 -15.243   5.840  1.00  0.00     0.037 A 
ATOM     57  C   UNL     1       9.721 -18.568   0.965  1.00  0.00     0.049 A 
ATOM     58  C   UNL     1       7.255 -16.319   5.790  1.00  0.00     0.074 A 
ATOM     59  C   UNL     1       9.017 -19.651   0.485  1.00  0.00     0.029 A 
ATOM     60  N   UNL     1       9.536 -18.536   2.323  1.00  0.00    -0.354 N 
ATOM     61  N   UNL     1       6.965 -17.578   5.623  1.00  0.00    -0.248 NA
ATOM     62  C   UNL     1       8.639 -15.958   5.514  1.00  0.00     0.031 C 
ATOM     63  C   UNL     1       8.183 -20.076   1.562  1.00  0.00     0.029 A 
ATOM     64  C   UNL     1       8.447 -19.281   2.678  1.00  0.00     0.049 A 
ATOM     65  H   UNL     1      10.109 -18.044   2.955  1.00  0.00     0.167 HD
ATOM     66  C   UNL     1       7.976 -18.065   4.811  1.00  0.00     0.074 A 
ATOM     67  C   UNL     1       9.047 -17.077   4.910  1.00  0.00     0.031 C 
ATOM     68  C   UNL     1       7.716 -19.055   3.907  1.00  0.00     0.037 A 
BRANCH  55  69
ATOM     69  C   UNL     1      11.651 -16.861   0.810  1.00  0.00     0.057 A 
ATOM     70  C   UNL     1      12.603 -17.809   1.229  1.00  0.00     0.134 A 
ATOM     71  C   UNL     1      11.984 -15.521   1.107  1.00  0.00     0.134 A 
ATOM     72  F   UNL     1      12.408 -19.120   1.019  1.00  0.00    -0.206 F 
ATOM     73  C   UNL     1      13.746 -17.458   1.960  1.00  0.00     0.040 A 
ATOM     74  C   UNL     1      13.146 -15.157   1.793  1.00  0.00     0.040 A 
ATOM     75  F   UNL     1      11.175 -14.490   0.847  1.00  0.00    -0.206 F 
ATOM     76  C   UNL     1      14.015 -16.128   2.253  1.00  0.00     0.006 A 
ENDBRANCH  55  69
BRANCH  56  77
ATOM     77  C   UNL     1       6.150 -14.304   6.982  1.00  0.00     0.057 A 
ATOM     78  C   UNL     1       6.478 -14.704   8.286  1.00  0.00     0.134 A 
ATOM     79  C   UNL     1       6.024 -12.919   6.777  1.00  0.00     0.134 A 
ATOM     80  F   UNL     1       6.666 -16.001   8.573  1.00  0.00    -0.206 F 
ATOM     81  C   UNL     1       6.691 -13.781   9.320  1.00  0.00     0.040 A 
ATOM     82  C   UNL     1       6.231 -11.987   7.800  1.00  0.00     0.040 A 
ATOM     83  F   UNL     1       5.790 -12.421   5.554  1.00  0.00    -0.206 F 
ATOM     84  C   UNL     1       6.580 -12.416   9.075  1.00  0.00     0.006 A 
ENDBRANCH  56  77
BRANCH  68  85
ATOM     85  C   UNL     1       6.466 -19.864   4.115  1.00  0.00     0.057 A 
ATOM     86  C   UNL     1       5.161 -19.363   4.010  1.00  0.00     0.134 A 
ATOM     87  C   UNL     1       6.604 -21.240   4.325  1.00  0.00     0.134 A 
ATOM     88  F   UNL     1       4.931 -18.074   3.728  1.00  0.00    -0.206 F 
ATOM     89  C   UNL     1       4.043 -20.194   4.146  1.00  0.00     0.040 A 
ATOM     90  C   UNL     1       5.498 -22.085   4.425  1.00  0.00     0.040 A 
ATOM     91  F   UNL     1       7.825 -21.795   4.390  1.00  0.00    -0.206 F 
ATOM     92  C   UNL     1       4.212 -21.561   4.347  1.00  0.00     0.006 A 
ENDBRANCH  68  85
ENDBRANCH  42  43
ENDBRANCH  35  37
ENDBRANCH  34  35
ENDBRANCH  33  34
ENDBRANCH  32  33
ENDBRANCH  31  32
ENDBRANCH   1  31
TORSDOF 18
