REMARK SMILES C[C@]12C[C@@H](O)[C@H]3[C@@H](CCC4=CC(=O)C=C[C@]43C)[C@H]1CC[C@]2(O)C(=O)COC(=O)CCC(=O)OCCOCCOC(=O)c1ccc(-c2c3nc(c(-c4c(F)cccc4F)c4ccc([nH]4)c(-c4c(F)cccc4F)c4nc(c(-c5c(F)cccc5F)c5ccc2[nH]5)C=C4)C=C3)cc1
REMARK SMILES IDX 34 1 33 2 31 3 32 4 30 5 29 6 27 7 28 8 26 9 25 10 23 11
REMARK SMILES IDX 24 12 21 13 17 14 16 15 15 16 10 17 6 18 14 19 11 20 9 21
REMARK SMILES IDX 7 22 4 23 12 24 8 25 18 26 3 27 13 28 2 29 19 30 1 31 20 32
REMARK SMILES IDX 5 33 22 35 35 37 36 38 37 39 38 40 39 41 40 42 41 43 42 44
REMARK SMILES IDX 43 45 95 46 44 47 94 48 45 49 46 50 47 51 88 52 48 53 93 54
REMARK SMILES IDX 87 55 89 56 49 57 92 58 86 59 85 60 50 62 76 63 59 64 75 65
REMARK SMILES IDX 60 66 63 67 74 68 90 69 61 70 62 71 73 73 91 74 64 75 51 76
REMARK SMILES IDX 52 77 57 78 53 79 54 80 56 81 58 82 55 83 77 84 78 85 83 86
REMARK SMILES IDX 79 87 80 88 82 89 84 90 81 91 65 92 66 93 71 94 67 95 68 96
REMARK SMILES IDX 70 97 72 98 69 99
REMARK H PARENT 5 34 22 36 89 61 63 72
REMARK Flexibility Score: inf
ROOT
ATOM      1  C   UNL     1       5.161  -4.086   4.020  1.00  0.00     0.261 C 
ENDROOT
BRANCH   1   2
ATOM      2  O   UNL     1       5.850  -4.177   2.758  1.00  0.00    -0.463 OA
BRANCH   2   3
ATOM      3  C   UNL     1       6.093  -2.998   2.128  1.00  0.00     0.306 C 
ATOM      4  O   UNL     1       5.716  -1.907   2.540  1.00  0.00    -0.252 OA
BRANCH   3   5
ATOM      5  C   UNL     1       6.896  -3.132   0.847  1.00  0.00     0.134 C 
BRANCH   5   6
ATOM      6  C   UNL     1       7.603  -4.452   0.581  1.00  0.00     0.134 C 
BRANCH   6   7
ATOM      7  C   UNL     1       6.790  -5.501  -0.147  1.00  0.00     0.306 C 
ATOM      8  O   UNL     1       7.131  -6.010  -1.206  1.00  0.00    -0.252 OA
BRANCH   7   9
ATOM      9  O   UNL     1       5.735  -5.906   0.598  1.00  0.00    -0.458 OA
BRANCH   9  10
ATOM     10  C   UNL     1       5.155  -7.157   0.255  1.00  0.00     0.311 C 
BRANCH  10  11
ATOM     11  C   UNL     1       3.845  -7.235  -0.534  1.00  0.00     0.202 C 
ATOM     12  O   UNL     1       3.408  -8.343  -0.858  1.00  0.00    -0.293 OA
BRANCH  11  13
ATOM     13  C   UNL     1       3.135  -5.956  -0.989  1.00  0.00     0.132 C 
ATOM     14  C   UNL     1       0.787   0.228  -0.289  1.00  0.00     0.021 C 
ATOM     15  C   UNL     1       0.626  -0.869   0.814  1.00  0.00     0.013 C 
ATOM     16  C   UNL     1       1.303  -0.284   2.060  1.00  0.00    -0.012 C 
ATOM     17  C   UNL     1      -0.880  -0.987   1.123  1.00  0.00    -0.056 C 
ATOM     18  C   UNL     1       1.284  -2.188   0.215  1.00  0.00     0.035 C 
ATOM     19  C   UNL     1       0.700   0.627   2.842  1.00  0.00     0.048 C 
ATOM     20  C   UNL     1      -1.501  -0.042   1.862  1.00  0.00     0.052 C 
ATOM     21  C   UNL     1      -1.675  -2.219   0.787  1.00  0.00     0.032 C 
ATOM     22  C   UNL     1       0.488  -3.481   0.481  1.00  0.00    -0.000 C 
ATOM     23  C   UNL     1       2.766  -2.384   0.581  1.00  0.00     0.119 C 
ATOM     24  C   UNL     1      -0.708   0.991   2.570  1.00  0.00     0.178 C 
ATOM     25  C   UNL     1      -0.949  -3.292  -0.006  1.00  0.00     0.009 C 
ATOM     26  C   UNL     1       1.112  -4.764  -0.135  1.00  0.00     0.002 C 
ATOM     27  C   UNL     1       3.351  -3.592  -0.119  1.00  0.00     0.042 C 
ATOM     28  O   UNL     1      -1.211   2.022   2.992  1.00  0.00    -0.290 OA
ATOM     29  C   UNL     1       2.639  -4.934   0.117  1.00  0.00     0.009 C 
ATOM     30  C   UNL     1       0.984  -5.003  -1.635  1.00  0.00     0.008 C 
ATOM     31  C   UNL     1       2.768  -5.404   1.578  1.00  0.00     0.015 C 
ATOM     32  C   UNL     1       1.867  -6.239  -1.826  1.00  0.00     0.044 C 
BRANCH  23  33
ATOM     33  O   UNL     1       3.544  -1.258   0.175  1.00  0.00    -0.393 OA
ATOM     34  H   UNL     1       3.498  -1.164  -0.789  1.00  0.00     0.210 HD
ENDBRANCH  23  33
BRANCH  13  35
ATOM     35  O   UNL     1       4.080  -5.351  -1.892  1.00  0.00    -0.381 OA
ATOM     36  H   UNL     1       3.713  -4.522  -2.237  1.00  0.00     0.212 HD
ENDBRANCH  13  35
ENDBRANCH  11  13
ENDBRANCH  10  11
ENDBRANCH   9  10
ENDBRANCH   7   9
ENDBRANCH   6   7
ENDBRANCH   5   6
ENDBRANCH   3   5
ENDBRANCH   2   3
ENDBRANCH   1   2
BRANCH   1  37
ATOM     37  C   UNL     1       5.941  -4.739   5.163  1.00  0.00     0.202 C 
BRANCH  37  38
ATOM     38  O   UNL     1       7.217  -4.183   5.454  1.00  0.00    -0.374 OA
BRANCH  38  39
ATOM     39  C   UNL     1       8.266  -4.389   4.511  1.00  0.00     0.202 C 
BRANCH  39  40
ATOM     40  C   UNL     1       8.773  -5.827   4.341  1.00  0.00     0.261 C 
BRANCH  40  41
ATOM     41  O   UNL     1       7.833  -6.706   3.684  1.00  0.00    -0.460 OA
BRANCH  41  42
ATOM     42  C   UNL     1       7.406  -7.748   4.434  1.00  0.00     0.338 C 
ATOM     43  O   UNL     1       7.685  -7.979   5.610  1.00  0.00    -0.246 OA
BRANCH  42  44
ATOM     44  C   UNL     1       6.439  -8.580   3.703  1.00  0.00     0.060 A 
ATOM     45  C   UNL     1       5.153  -8.742   4.236  1.00  0.00     0.016 A 
ATOM     46  C   UNL     1       6.845  -9.334   2.600  1.00  0.00     0.016 A 
ATOM     47  C   UNL     1       4.284  -9.697   3.698  1.00  0.00     0.010 A 
ATOM     48  C   UNL     1       5.972 -10.287   2.062  1.00  0.00     0.010 A 
ATOM     49  C   UNL     1       4.702 -10.505   2.632  1.00  0.00    -0.014 A 
BRANCH  49  50
ATOM     50  C   UNL     1       3.906 -11.692   2.214  1.00  0.00     0.031 A 
ATOM     51  C   UNL     1       4.383 -13.062   2.617  1.00  0.00     0.074 A 
ATOM     52  C   UNL     1       2.788 -11.575   1.474  1.00  0.00     0.049 A 
ATOM     53  N   UNL     1       3.951 -14.238   2.241  1.00  0.00    -0.248 NA
ATOM     54  C   UNL     1       5.495 -13.108   3.579  1.00  0.00     0.031 C 
ATOM     55  C   UNL     1       2.170 -10.317   1.074  1.00  0.00     0.029 A 
ATOM     56  N   UNL     1       1.996 -12.537   0.894  1.00  0.00    -0.354 N 
ATOM     57  C   UNL     1       4.742 -15.162   2.911  1.00  0.00     0.074 A 
ATOM     58  C   UNL     1       5.701 -14.412   3.693  1.00  0.00     0.031 C 
ATOM     59  C   UNL     1       1.134 -10.576   0.257  1.00  0.00     0.029 A 
ATOM     60  C   UNL     1       1.025 -12.020   0.069  1.00  0.00     0.049 A 
ATOM     61  H   UNL     1       2.113 -13.501   1.053  1.00  0.00     0.167 HD
ATOM     62  C   UNL     1       4.667 -16.514   2.890  1.00  0.00     0.037 A 
ATOM     63  C   UNL     1       0.170 -12.638  -0.769  1.00  0.00     0.037 A 
ATOM     64  C   UNL     1       3.712 -17.264   2.119  1.00  0.00     0.049 A 
ATOM     65  C   UNL     1       0.173 -14.141  -0.859  1.00  0.00     0.074 A 
ATOM     66  C   UNL     1       3.558 -18.637   2.038  1.00  0.00     0.029 A 
ATOM     67  N   UNL     1       2.749 -16.704   1.294  1.00  0.00    -0.354 N 
ATOM     68  N   UNL     1       0.918 -15.006  -0.216  1.00  0.00    -0.248 NA
ATOM     69  C   UNL     1      -0.793 -14.755  -1.784  1.00  0.00     0.031 C 
ATOM     70  C   UNL     1       2.528 -18.909   1.132  1.00  0.00     0.029 A 
ATOM     71  C   UNL     1       2.008 -17.704   0.689  1.00  0.00     0.049 A 
ATOM     72  H   UNL     1       2.612 -15.738   1.159  1.00  0.00     0.167 HD
ATOM     73  C   UNL     1       0.478 -16.262  -0.618  1.00  0.00     0.074 A 
ATOM     74  C   UNL     1      -0.594 -16.047  -1.566  1.00  0.00     0.031 C 
ATOM     75  C   UNL     1       0.919 -17.482  -0.227  1.00  0.00     0.037 A 
BRANCH  62  76
ATOM     76  C   UNL     1       5.661 -17.273   3.718  1.00  0.00     0.057 A 
ATOM     77  C   UNL     1       5.578 -17.313   5.116  1.00  0.00     0.134 A 
ATOM     78  C   UNL     1       6.689 -18.003   3.109  1.00  0.00     0.134 A 
ATOM     79  F   UNL     1       4.624 -16.623   5.761  1.00  0.00    -0.206 F 
ATOM     80  C   UNL     1       6.494 -18.037   5.880  1.00  0.00     0.040 A 
ATOM     81  C   UNL     1       7.596 -18.751   3.861  1.00  0.00     0.040 A 
ATOM     82  F   UNL     1       6.821 -18.010   1.774  1.00  0.00    -0.206 F 
ATOM     83  C   UNL     1       7.503 -18.765   5.251  1.00  0.00     0.006 A 
ENDBRANCH  62  76
BRANCH  63  84
ATOM     84  C   UNL     1      -0.767 -11.843  -1.605  1.00  0.00     0.057 A 
ATOM     85  C   UNL     1      -2.145 -11.860  -1.361  1.00  0.00     0.134 A 
ATOM     86  C   UNL     1      -0.314 -11.087  -2.693  1.00  0.00     0.134 A 
ATOM     87  F   UNL     1      -2.642 -12.587  -0.349  1.00  0.00    -0.206 F 
ATOM     88  C   UNL     1      -3.042 -11.173  -2.180  1.00  0.00     0.040 A 
ATOM     89  C   UNL     1      -1.198 -10.374  -3.506  1.00  0.00     0.040 A 
ATOM     90  F   UNL     1       0.993 -11.035  -2.986  1.00  0.00    -0.206 F 
ATOM     91  C   UNL     1      -2.568 -10.424  -3.256  1.00  0.00     0.006 A 
ENDBRANCH  63  84
BRANCH  75  92
ATOM     92  C   UNL     1       0.198 -18.686  -0.757  1.00  0.00     0.057 A 
ATOM     93  C   UNL     1       0.347 -19.123  -2.078  1.00  0.00     0.134 A 
ATOM     94  C   UNL     1      -0.613 -19.453   0.091  1.00  0.00     0.134 A 
ATOM     95  F   UNL     1       1.099 -18.427  -2.944  1.00  0.00    -0.206 F 
ATOM     96  C   UNL     1      -0.295 -20.273  -2.541  1.00  0.00     0.040 A 
ATOM     97  C   UNL     1      -1.240 -20.617  -0.353  1.00  0.00     0.040 A 
ATOM     98  F   UNL     1      -0.791 -19.093   1.371  1.00  0.00    -0.206 F 
ATOM     99  C   UNL     1      -1.084 -21.029  -1.675  1.00  0.00     0.006 A 
ENDBRANCH  75  92
ENDBRANCH  49  50
ENDBRANCH  42  44
ENDBRANCH  41  42
ENDBRANCH  40  41
ENDBRANCH  39  40
ENDBRANCH  38  39
ENDBRANCH  37  38
ENDBRANCH   1  37
TORSDOF 22
