REMARK SMILES C#Cc1cccc(NS(=O)(=O)c2cc(C)c(C(=O)OCCOCCOC(=O)c3ccc(-c4c5nc(c(-c6c(F)cccc6F)c6ccc([nH]6)c(-c6c(F)cccc6F)c6nc(c(-c7c(F)cccc7F)c7ccc4[nH]7)C=C6)C=C5)cc3)s2)c1
REMARK SMILES IDX 21 1 20 2 19 3 17 4 18 5 16 6 12 7 13 8 82 9 14 10 15 11
REMARK SMILES IDX 9 12 10 13 11 14 8 15 7 17 3 18 4 19 83 20 5 21 6 22 2 23
REMARK SMILES IDX 1 24 22 25 23 26 24 27 25 28 26 29 27 30 28 31 29 32 81 33
REMARK SMILES IDX 30 34 80 35 31 36 32 37 33 38 74 39 34 40 79 41 73 42 75 43
REMARK SMILES IDX 35 44 78 45 72 46 71 47 36 49 62 50 45 51 61 52 46 53 49 54
REMARK SMILES IDX 60 55 76 56 47 57 48 58 59 60 77 61 50 62 37 63 38 64 43 65
REMARK SMILES IDX 39 66 40 67 42 68 44 69 41 70 63 71 64 72 69 73 65 74 66 75
REMARK SMILES IDX 68 76 70 77 67 78 51 79 52 80 57 81 53 82 54 83 56 84 58 85
REMARK SMILES IDX 55 86
REMARK H PARENT 8 16 75 48 49 59
REMARK Flexibility Score: inf
ROOT
ATOM      1  C   UNL     1       8.482   4.582   1.018  1.00  0.00     0.202 C 
ENDROOT
BRANCH   1   2
ATOM      2  C   UNL     1       8.129   4.356  -0.454  1.00  0.00     0.261 C 
BRANCH   2   3
ATOM      3  O   UNL     1       7.004   3.479  -0.592  1.00  0.00    -0.459 OA
BRANCH   3   4
ATOM      4  C   UNL     1       7.283   2.173  -0.864  1.00  0.00     0.348 C 
ATOM      5  O   UNL     1       8.408   1.748  -1.092  1.00  0.00    -0.245 OA
BRANCH   4   6
ATOM      6  C   UNL     1       6.066   1.376  -0.783  1.00  0.00     0.116 A 
ATOM      7  C   UNL     1       4.549  -0.587  -0.595  1.00  0.00     0.141 A 
ATOM      8  C   UNL     1       3.921   0.566  -1.016  1.00  0.00     0.038 A 
ATOM      9  S   UNL     1       6.243  -0.335  -0.596  1.00  0.00    -0.115 S 
ATOM     10  C   UNL     1       4.720   1.722  -0.723  1.00  0.00    -0.024 A 
ATOM     11  C   UNL     1       4.090   3.049  -0.441  1.00  0.00     0.046 C 
BRANCH   7  12
ATOM     12  S   UNL     1       3.986  -2.195  -0.069  1.00  0.00     0.271 S 
ATOM     13  O   UNL     1       4.627  -2.411   1.212  1.00  0.00    -0.200 OA
ATOM     14  O   UNL     1       4.241  -3.065  -1.198  1.00  0.00    -0.200 OA
BRANCH  12  15
ATOM     15  N   UNL     1       2.321  -2.300   0.203  1.00  0.00    -0.279 N 
ATOM     16  H   UNL     1       1.925  -3.200   0.246  1.00  0.00     0.180 HD
BRANCH  15  17
ATOM     17  C   UNL     1       1.444  -1.190   0.376  1.00  0.00     0.050 A 
ATOM     18  C   UNL     1      -0.749  -0.228  -0.008  1.00  0.00     0.026 A 
ATOM     19  C   UNL     1      -0.275   1.016   0.405  1.00  0.00     0.017 A 
ATOM     20  C   UNL     1       0.117  -1.326  -0.053  1.00  0.00     0.044 A 
ATOM     21  C   UNL     1       0.999   1.116   0.951  1.00  0.00     0.003 A 
ATOM     22  C   UNL     1       1.821  -0.012   1.019  1.00  0.00     0.027 A 
BRANCH  18  23
ATOM     23  C   UNL     1      -2.148  -0.358  -0.281  1.00  0.00    -0.070 C 
ATOM     24  C   UNL     1      -3.343  -0.386  -0.364  1.00  0.00     0.010 C 
ENDBRANCH  18  23
ENDBRANCH  15  17
ENDBRANCH  12  15
ENDBRANCH   7  12
ENDBRANCH   4   6
ENDBRANCH   3   4
ENDBRANCH   2   3
ENDBRANCH   1   2
BRANCH   1  25
ATOM     25  O   UNL     1       8.950   3.453   1.748  1.00  0.00    -0.374 OA
BRANCH  25  26
ATOM     26  C   UNL     1       7.974   2.561   2.287  1.00  0.00     0.202 C 
BRANCH  26  27
ATOM     27  C   UNL     1       7.283   2.980   3.590  1.00  0.00     0.261 C 
BRANCH  27  28
ATOM     28  O   UNL     1       6.482   4.164   3.433  1.00  0.00    -0.460 OA
BRANCH  28  29
ATOM     29  C   UNL     1       7.065   5.296   3.895  1.00  0.00     0.338 C 
ATOM     30  O   UNL     1       8.142   5.402   4.455  1.00  0.00    -0.246 OA
BRANCH  29  31
ATOM     31  C   UNL     1       6.280   6.467   3.468  1.00  0.00     0.060 A 
ATOM     32  C   UNL     1       6.951   7.484   2.776  1.00  0.00     0.016 A 
ATOM     33  C   UNL     1       4.934   6.606   3.810  1.00  0.00     0.016 A 
ATOM     34  C   UNL     1       6.291   8.671   2.473  1.00  0.00     0.010 A 
ATOM     35  C   UNL     1       4.274   7.799   3.504  1.00  0.00     0.010 A 
ATOM     36  C   UNL     1       4.960   8.852   2.870  1.00  0.00    -0.014 A 
BRANCH  36  37
ATOM     37  C   UNL     1       4.320  10.182   2.730  1.00  0.00     0.031 A 
ATOM     38  C   UNL     1       4.098  11.026   3.955  1.00  0.00     0.074 A 
ATOM     39  C   UNL     1       3.948  10.637   1.521  1.00  0.00     0.049 A 
ATOM     40  N   UNL     1       3.502  12.185   4.068  1.00  0.00    -0.248 NA
ATOM     41  C   UNL     1       4.609  10.485   5.224  1.00  0.00     0.031 C 
ATOM     42  C   UNL     1       4.141   9.928   0.258  1.00  0.00     0.029 A 
ATOM     43  N   UNL     1       3.319  11.802   1.163  1.00  0.00    -0.354 N 
ATOM     44  C   UNL     1       3.554  12.507   5.419  1.00  0.00     0.074 A 
ATOM     45  C   UNL     1       4.203  11.402   6.090  1.00  0.00     0.031 C 
ATOM     46  C   UNL     1       3.634  10.671  -0.740  1.00  0.00     0.029 A 
ATOM     47  C   UNL     1       3.042  11.884  -0.179  1.00  0.00     0.049 A 
ATOM     48  H   UNL     1       3.088  12.511   1.806  1.00  0.00     0.167 HD
ATOM     49  C   UNL     1       3.109  13.625   6.041  1.00  0.00     0.037 A 
ATOM     50  C   UNL     1       2.362  12.818  -0.873  1.00  0.00     0.037 A 
ATOM     51  C   UNL     1       2.458  14.719   5.365  1.00  0.00     0.049 A 
ATOM     52  C   UNL     1       1.806  14.015  -0.149  1.00  0.00     0.074 A 
ATOM     53  C   UNL     1       1.991  15.907   5.900  1.00  0.00     0.029 A 
ATOM     54  N   UNL     1       2.167  14.752   4.009  1.00  0.00    -0.354 N 
ATOM     55  N   UNL     1       1.884  14.324   1.123  1.00  0.00    -0.248 NA
ATOM     56  C   UNL     1       1.069  14.995  -0.960  1.00  0.00     0.031 C 
ATOM     57  C   UNL     1       1.352  16.623   4.884  1.00  0.00     0.029 A 
ATOM     58  C   UNL     1       1.493  15.922   3.697  1.00  0.00     0.049 A 
ATOM     59  H   UNL     1       2.404  14.047   3.363  1.00  0.00     0.167 HD
ATOM     60  C   UNL     1       1.241  15.549   1.259  1.00  0.00     0.074 A 
ATOM     61  C   UNL     1       0.788  15.930  -0.063  1.00  0.00     0.031 C 
ATOM     62  C   UNL     1       1.048  16.294   2.376  1.00  0.00     0.037 A 
BRANCH  49  63
ATOM     63  C   UNL     1       3.276  13.704   7.533  1.00  0.00     0.057 A 
ATOM     64  C   UNL     1       4.535  13.807   8.140  1.00  0.00     0.134 A 
ATOM     65  C   UNL     1       2.156  13.698   8.376  1.00  0.00     0.134 A 
ATOM     66  F   UNL     1       5.652  13.810   7.396  1.00  0.00    -0.206 F 
ATOM     67  C   UNL     1       4.676  13.864   9.529  1.00  0.00     0.040 A 
ATOM     68  C   UNL     1       2.282  13.791   9.763  1.00  0.00     0.040 A 
ATOM     69  F   UNL     1       0.919  13.611   7.865  1.00  0.00    -0.206 F 
ATOM     70  C   UNL     1       3.546  13.863  10.344  1.00  0.00     0.006 A 
ENDBRANCH  49  63
BRANCH  50  71
ATOM     71  C   UNL     1       2.161  12.651  -2.335  1.00  0.00     0.057 A 
ATOM     72  C   UNL     1       2.766  13.515  -3.254  1.00  0.00     0.134 A 
ATOM     73  C   UNL     1       1.355  11.627  -2.849  1.00  0.00     0.134 A 
ATOM     74  F   UNL     1       3.534  14.528  -2.825  1.00  0.00    -0.206 F 
ATOM     75  C   UNL     1       2.562  13.381  -4.629  1.00  0.00     0.040 A 
ATOM     76  C   UNL     1       1.168  11.461  -4.221  1.00  0.00     0.040 A 
ATOM     77  F   UNL     1       0.751  10.760  -2.022  1.00  0.00    -0.206 F 
ATOM     78  C   UNL     1       1.766  12.346  -5.115  1.00  0.00     0.006 A 
ENDBRANCH  50  71
BRANCH  62  79
ATOM     79  C   UNL     1       0.360  17.622   2.216  1.00  0.00     0.057 A 
ATOM     80  C   UNL     1      -0.998  17.727   1.887  1.00  0.00     0.134 A 
ATOM     81  C   UNL     1       1.062  18.815   2.436  1.00  0.00     0.134 A 
ATOM     82  F   UNL     1      -1.729  16.626   1.653  1.00  0.00    -0.206 F 
ATOM     83  C   UNL     1      -1.624  18.968   1.753  1.00  0.00     0.040 A 
ATOM     84  C   UNL     1       0.439  20.060   2.340  1.00  0.00     0.040 A 
ATOM     85  F   UNL     1       2.362  18.791   2.765  1.00  0.00    -0.206 F 
ATOM     86  C   UNL     1      -0.906  20.140   1.988  1.00  0.00     0.006 A 
ENDBRANCH  62  79
ENDBRANCH  36  37
ENDBRANCH  29  31
ENDBRANCH  28  29
ENDBRANCH  27  28
ENDBRANCH  26  27
ENDBRANCH  25  26
ENDBRANCH   1  25
TORSDOF 18
