REMARK SMILES Cc1ccc(Cl)c(Nc2ccccc2C(=O)NCC(=O)OCCOCCOC(=O)c2ccc(-c3c4nc(c(-c5c(F)cccc5F)c5ccc([nH]5)c(-c5c(F)cccc5F)c5nc(c(-c6c(F)cccc6F)c6ccc3[nH]6)C=C5)C=C4)cc2)c1Cl
REMARK SMILES IDX 23 1 22 2 21 3 19 4 20 5 18 6 17 7 15 8 16 9 14 11 9 12
REMARK SMILES IDX 10 13 11 14 13 15 12 16 8 17 7 19 1 20 2 21 3 22 84 23 4 24
REMARK SMILES IDX 85 25 5 26 6 27 24 28 25 29 26 30 27 31 28 32 29 33 30 34
REMARK SMILES IDX 31 35 83 36 32 37 82 38 33 39 34 40 35 41 76 42 36 43 81 44
REMARK SMILES IDX 75 45 77 46 37 47 80 48 74 49 73 50 38 52 64 53 47 54 63 55
REMARK SMILES IDX 48 56 51 57 62 58 78 59 49 60 50 61 61 63 79 64 52 65 39 66
REMARK SMILES IDX 40 67 45 68 41 69 42 70 44 71 46 72 43 73 65 74 66 75 71 76
REMARK SMILES IDX 67 77 68 78 70 79 72 80 69 81 53 82 54 83 59 84 55 85 56 86
REMARK SMILES IDX 58 87 60 88 57 89
REMARK H PARENT 17 10 8 18 77 51 51 62
REMARK Flexibility Score: inf
ROOT
ATOM      1  C   UNL     1      -4.980  -1.205   3.219  1.00  0.00     0.202 C 
ENDROOT
BRANCH   1   2
ATOM      2  C   UNL     1      -4.269  -2.254   2.349  1.00  0.00     0.261 C 
BRANCH   2   3
ATOM      3  O   UNL     1      -2.848  -2.175   2.530  1.00  0.00    -0.462 OA
BRANCH   3   4
ATOM      4  C   UNL     1      -2.100  -2.117   1.394  1.00  0.00     0.325 C 
ATOM      5  O   UNL     1      -2.476  -2.458   0.281  1.00  0.00    -0.250 OA
BRANCH   4   6
ATOM      6  C   UNL     1      -0.789  -1.410   1.691  1.00  0.00     0.239 C 
BRANCH   6   7
ATOM      7  N   UNL     1       0.305  -2.139   2.269  1.00  0.00    -0.341 N 
ATOM      8  C   UNL     1       1.506  -2.314   1.627  1.00  0.00     0.253 C 
ATOM      9  O   UNL     1       2.528  -1.942   2.203  1.00  0.00    -0.269 OA
ATOM     10  H   UNL     1       0.188  -2.531   3.165  1.00  0.00     0.164 HD
BRANCH   8  11
ATOM     11  C   UNL     1       1.591  -3.256   0.481  1.00  0.00     0.063 A 
ATOM     12  C   UNL     1       1.004  -3.160  -0.795  1.00  0.00     0.051 A 
ATOM     13  C   UNL     1       1.137  -4.285  -1.646  1.00  0.00     0.027 A 
ATOM     14  C   UNL     1       1.863  -5.423  -1.284  1.00  0.00     0.002 A 
ATOM     15  C   UNL     1       2.345  -4.404   0.824  1.00  0.00     0.016 A 
ATOM     16  C   UNL     1       2.489  -5.474  -0.051  1.00  0.00     0.001 A 
BRANCH  12  17
ATOM     17  N   UNL     1       0.374  -2.051  -1.399  1.00  0.00    -0.352 N 
ATOM     18  H   UNL     1      -0.351  -2.325  -2.006  1.00  0.00     0.167 HD
BRANCH  17  19
ATOM     19  C   UNL     1       0.521  -0.642  -1.352  1.00  0.00     0.077 A 
ATOM     20  C   UNL     1       2.786   2.133   0.037  1.00  0.00     0.046 C 
ATOM     21  C   UNL     1       1.604   1.411  -0.552  1.00  0.00    -0.030 A 
ATOM     22  C   UNL     1       0.412   2.123  -0.753  1.00  0.00     0.006 A 
ATOM     23  C   UNL     1       1.666   0.041  -0.895  1.00  0.00     0.069 A 
ATOM     24  C   UNL     1      -0.684   1.503  -1.339  1.00  0.00     0.023 A 
ATOM     25  Cl  UNL     1       3.216  -0.745  -0.880  1.00  0.00    -0.082 Cl
ATOM     26  C   UNL     1      -0.622   0.145  -1.648  1.00  0.00     0.066 A 
ATOM     27  Cl  UNL     1      -2.023  -0.566  -2.382  1.00  0.00    -0.082 Cl
ENDBRANCH  17  19
ENDBRANCH  12  17
ENDBRANCH   8  11
ENDBRANCH   6   7
ENDBRANCH   4   6
ENDBRANCH   3   4
ENDBRANCH   2   3
ENDBRANCH   1   2
BRANCH   1  28
ATOM     28  O   UNL     1      -4.764   0.171   2.905  1.00  0.00    -0.374 OA
BRANCH  28  29
ATOM     29  C   UNL     1      -3.440   0.692   2.989  1.00  0.00     0.202 C 
BRANCH  29  30
ATOM     30  C   UNL     1      -2.713   0.622   4.348  1.00  0.00     0.261 C 
BRANCH  30  31
ATOM     31  O   UNL     1      -2.493  -0.727   4.808  1.00  0.00    -0.460 OA
BRANCH  31  32
ATOM     32  C   UNL     1      -2.927  -0.985   6.063  1.00  0.00     0.338 C 
ATOM     33  O   UNL     1      -3.365  -0.179   6.875  1.00  0.00    -0.246 OA
BRANCH  32  34
ATOM     34  C   UNL     1      -2.990  -2.437   6.305  1.00  0.00     0.060 A 
ATOM     35  C   UNL     1      -4.258  -3.024   6.394  1.00  0.00     0.016 A 
ATOM     36  C   UNL     1      -1.844  -3.179   6.600  1.00  0.00     0.016 A 
ATOM     37  C   UNL     1      -4.390  -4.346   6.810  1.00  0.00     0.010 A 
ATOM     38  C   UNL     1      -1.980  -4.504   7.038  1.00  0.00     0.010 A 
ATOM     39  C   UNL     1      -3.256  -5.079   7.181  1.00  0.00    -0.014 A 
BRANCH  39  40
ATOM     40  C   UNL     1      -3.455  -6.370   7.882  1.00  0.00     0.031 A 
ATOM     41  C   UNL     1      -3.469  -6.389   9.387  1.00  0.00     0.074 A 
ATOM     42  C   UNL     1      -3.717  -7.494   7.193  1.00  0.00     0.049 A 
ATOM     43  N   UNL     1      -3.709  -7.383  10.204  1.00  0.00    -0.248 NA
ATOM     44  C   UNL     1      -3.182  -5.113  10.059  1.00  0.00     0.031 C 
ATOM     45  C   UNL     1      -3.770  -7.597   5.737  1.00  0.00     0.029 A 
ATOM     46  N   UNL     1      -3.998  -8.762   7.634  1.00  0.00    -0.354 N 
ATOM     47  C   UNL     1      -3.614  -6.851  11.483  1.00  0.00     0.074 A 
ATOM     48  C   UNL     1      -3.256  -5.457  11.335  1.00  0.00     0.031 C 
ATOM     49  C   UNL     1      -4.063  -8.865   5.402  1.00  0.00     0.029 A 
ATOM     50  C   UNL     1      -4.203  -9.663   6.619  1.00  0.00     0.049 A 
ATOM     51  H   UNL     1      -4.049  -9.003   8.587  1.00  0.00     0.167 HD
ATOM     52  C   UNL     1      -3.819  -7.463  12.675  1.00  0.00     0.037 A 
ATOM     53  C   UNL     1      -4.467 -10.982   6.668  1.00  0.00     0.037 A 
ATOM     54  C   UNL     1      -4.156  -8.854  12.825  1.00  0.00     0.049 A 
ATOM     55  C   UNL     1      -4.632 -11.657   8.003  1.00  0.00     0.074 A 
ATOM     56  C   UNL     1      -4.375  -9.571  13.989  1.00  0.00     0.029 A 
ATOM     57  N   UNL     1      -4.315  -9.745  11.773  1.00  0.00    -0.354 N 
ATOM     58  N   UNL     1      -4.560 -11.140   9.206  1.00  0.00    -0.248 NA
ATOM     59  C   UNL     1      -4.928 -13.096   7.986  1.00  0.00     0.031 C 
ATOM     60  C   UNL     1      -4.626 -10.904  13.643  1.00  0.00     0.029 A 
ATOM     61  C   UNL     1      -4.610 -11.008  12.261  1.00  0.00     0.049 A 
ATOM     62  H   UNL     1      -4.230  -9.513  10.820  1.00  0.00     0.167 HD
ATOM     63  C   UNL     1      -4.818 -12.183  10.087  1.00  0.00     0.074 A 
ATOM     64  C   UNL     1      -5.069 -13.358   9.278  1.00  0.00     0.031 C 
ATOM     65  C   UNL     1      -4.847 -12.170  11.443  1.00  0.00     0.037 A 
BRANCH  52  66
ATOM     66  C   UNL     1      -3.653  -6.625  13.908  1.00  0.00     0.057 A 
ATOM     67  C   UNL     1      -4.586  -5.640  14.262  1.00  0.00     0.134 A 
ATOM     68  C   UNL     1      -2.548  -6.800  14.750  1.00  0.00     0.134 A 
ATOM     69  F   UNL     1      -5.658  -5.409  13.489  1.00  0.00    -0.206 F 
ATOM     70  C   UNL     1      -4.409  -4.840  15.393  1.00  0.00     0.040 A 
ATOM     71  C   UNL     1      -2.374  -6.024  15.896  1.00  0.00     0.040 A 
ATOM     72  F   UNL     1      -1.620  -7.727  14.470  1.00  0.00    -0.206 F 
ATOM     73  C   UNL     1      -3.302  -5.034  16.216  1.00  0.00     0.006 A 
ENDBRANCH  52  66
BRANCH  53  74
ATOM     74  C   UNL     1      -4.589 -11.755   5.407  1.00  0.00     0.057 A 
ATOM     75  C   UNL     1      -5.823 -12.248   4.969  1.00  0.00     0.134 A 
ATOM     76  C   UNL     1      -3.468 -12.018   4.611  1.00  0.00     0.134 A 
ATOM     77  F   UNL     1      -6.928 -12.048   5.701  1.00  0.00    -0.206 F 
ATOM     78  C   UNL     1      -5.936 -12.984   3.788  1.00  0.00     0.040 A 
ATOM     79  C   UNL     1      -3.570 -12.733   3.417  1.00  0.00     0.040 A 
ATOM     80  F   UNL     1      -2.257 -11.571   4.978  1.00  0.00    -0.206 F 
ATOM     81  C   UNL     1      -4.808 -13.223   3.006  1.00  0.00     0.006 A 
ENDBRANCH  53  74
BRANCH  65  82
ATOM     82  C   UNL     1      -5.179 -13.462  12.131  1.00  0.00     0.057 A 
ATOM     83  C   UNL     1      -4.273 -14.530  12.175  1.00  0.00     0.134 A 
ATOM     84  C   UNL     1      -6.412 -13.634  12.772  1.00  0.00     0.134 A 
ATOM     85  F   UNL     1      -3.079 -14.434  11.570  1.00  0.00    -0.206 F 
ATOM     86  C   UNL     1      -4.594 -15.733  12.806  1.00  0.00     0.040 A 
ATOM     87  C   UNL     1      -6.735 -14.823  13.428  1.00  0.00     0.040 A 
ATOM     88  F   UNL     1      -7.322 -12.648  12.776  1.00  0.00    -0.206 F 
ATOM     89  C   UNL     1      -5.827 -15.880  13.439  1.00  0.00     0.006 A 
ENDBRANCH  65  82
ENDBRANCH  39  40
ENDBRANCH  32  34
ENDBRANCH  31  32
ENDBRANCH  30  31
ENDBRANCH  29  30
ENDBRANCH  28  29
ENDBRANCH   1  28
TORSDOF 18
