REMARK SMILES COc1ccc2c(c1)c(CC(=O)OCCOCCOC(=O)c1ccc(-c3c4nc(c(-c5c(F)cccc5F)c5ccc([nH]5)c(-c5c(F)cccc5F)c5nc(c(-c6c(F)cccc6F)c6ccc3[nH]6)C=C5)C=C4)cc1)c(C)n2Cc1ccc(Br)cc1
REMARK SMILES IDX 15 1 14 2 13 3 11 4 12 5 10 6 9 7 3 8 4 9 8 10 5 11 7 12
REMARK SMILES IDX 6 13 78 14 76 15 77 16 2 17 1 18 79 19 80 20 81 21 86 22
REMARK SMILES IDX 82 23 85 24 83 25 84 26 16 27 17 28 18 29 19 30 20 31 21 32
REMARK SMILES IDX 22 33 23 34 75 35 24 36 74 37 25 38 26 39 27 40 68 41 28 42
REMARK SMILES IDX 73 43 67 44 69 45 29 46 72 47 66 48 65 49 30 51 56 52 39 53
REMARK SMILES IDX 55 54 40 55 43 56 54 57 70 58 41 59 42 60 53 62 71 63 44 64
REMARK SMILES IDX 31 65 32 66 37 67 33 68 34 69 36 70 38 71 35 72 57 73 58 74
REMARK SMILES IDX 63 75 59 76 60 77 62 78 64 79 61 80 45 81 46 82 51 83 47 84
REMARK SMILES IDX 48 85 50 86 52 87 49 88
REMARK H PARENT 69 50 43 61
REMARK Flexibility Score: inf
ROOT
ATOM      1  C   UNL     1      -2.254   1.825   5.763  1.00  0.00     0.202 C 
ENDROOT
BRANCH   1   2
ATOM      2  C   UNL     1      -2.475   0.660   6.743  1.00  0.00     0.261 C 
BRANCH   2   3
ATOM      3  O   UNL     1      -1.862  -0.574   6.333  1.00  0.00    -0.463 OA
BRANCH   3   4
ATOM      4  C   UNL     1      -2.737  -1.552   5.980  1.00  0.00     0.310 C 
ATOM      5  O   UNL     1      -3.957  -1.458   6.110  1.00  0.00    -0.252 OA
BRANCH   4   6
ATOM      6  C   UNL     1      -2.130  -2.791   5.355  1.00  0.00     0.160 C 
BRANCH   6   7
ATOM      7  C   UNL     1      -0.634  -2.899   5.244  1.00  0.00    -0.008 A 
ATOM      8  C   UNL     1       0.860  -1.594   1.966  1.00  0.00     0.119 A 
ATOM      9  C   UNL     1       2.189  -1.758   2.333  1.00  0.00     0.048 A 
ATOM     10  C   UNL     1      -0.143  -2.015   2.845  1.00  0.00     0.057 A 
ATOM     11  C   UNL     1       2.535  -2.337   3.572  1.00  0.00     0.031 A 
ATOM     12  C   UNL     1       0.168  -2.518   4.127  1.00  0.00     0.007 A 
ATOM     13  C   UNL     1       1.509  -2.721   4.463  1.00  0.00     0.049 A 
ATOM     14  N   UNL     1       1.524  -3.349   5.710  1.00  0.00    -0.340 N 
ATOM     15  C   UNL     1       0.210  -3.600   6.093  1.00  0.00     0.020 A 
ATOM     16  C   UNL     1      -0.214  -4.515   7.189  1.00  0.00     0.065 C 
BRANCH   8  17
ATOM     17  O   UNL     1       0.368  -0.948   0.868  1.00  0.00    -0.497 OA
ATOM     18  C   UNL     1       1.258  -0.458  -0.122  1.00  0.00     0.278 C 
ENDBRANCH   8  17
BRANCH  14  19
ATOM     19  C   UNL     1       2.734  -3.908   6.340  1.00  0.00     0.157 C 
BRANCH  19  20
ATOM     20  C   UNL     1       3.172  -3.255   7.641  1.00  0.00    -0.028 A 
ATOM     21  C   UNL     1       2.407  -3.341   8.814  1.00  0.00     0.007 A 
ATOM     22  C   UNL     1       4.427  -2.631   7.741  1.00  0.00     0.007 A 
ATOM     23  C   UNL     1       2.828  -2.778  10.021  1.00  0.00     0.016 A 
ATOM     24  C   UNL     1       4.869  -2.085   8.956  1.00  0.00     0.016 A 
ATOM     25  C   UNL     1       4.059  -2.146  10.086  1.00  0.00     0.017 A 
ATOM     26  Br  UNL     1       4.631  -1.391  11.720  1.00  0.00    -0.051 Br
ENDBRANCH  19  20
ENDBRANCH  14  19
ENDBRANCH   6   7
ENDBRANCH   4   6
ENDBRANCH   3   4
ENDBRANCH   2   3
ENDBRANCH   1   2
BRANCH   1  27
ATOM     27  O   UNL     1      -2.396   1.627   4.368  1.00  0.00    -0.374 OA
BRANCH  27  28
ATOM     28  C   UNL     1      -1.413   0.813   3.740  1.00  0.00     0.202 C 
BRANCH  28  29
ATOM     29  C   UNL     1       0.059   1.265   3.766  1.00  0.00     0.261 C 
BRANCH  29  30
ATOM     30  O   UNL     1       0.584   1.410   5.084  1.00  0.00    -0.460 OA
BRANCH  30  31
ATOM     31  C   UNL     1       1.452   2.452   5.231  1.00  0.00     0.338 C 
ATOM     32  O   UNL     1       2.106   3.012   4.386  1.00  0.00    -0.246 OA
BRANCH  31  33
ATOM     33  C   UNL     1       1.048   3.028   6.526  1.00  0.00     0.060 A 
ATOM     34  C   UNL     1       0.978   2.210   7.658  1.00  0.00     0.016 A 
ATOM     35  C   UNL     1       0.330   4.229   6.429  1.00  0.00     0.016 A 
ATOM     36  C   UNL     1       0.076   2.541   8.657  1.00  0.00     0.010 A 
ATOM     37  C   UNL     1      -0.607   4.525   7.405  1.00  0.00     0.010 A 
ATOM     38  C   UNL     1      -0.764   3.654   8.490  1.00  0.00    -0.014 A 
BRANCH  38  39
ATOM     39  C   UNL     1      -1.608   4.062   9.611  1.00  0.00     0.031 A 
ATOM     40  C   UNL     1      -0.775   4.663  10.688  1.00  0.00     0.074 A 
ATOM     41  C   UNL     1      -2.957   4.087   9.613  1.00  0.00     0.049 A 
ATOM     42  N   UNL     1      -0.577   4.219  11.885  1.00  0.00    -0.248 NA
ATOM     43  C   UNL     1       0.127   5.766  10.301  1.00  0.00     0.031 C 
ATOM     44  C   UNL     1      -3.877   3.762   8.530  1.00  0.00     0.029 A 
ATOM     45  N   UNL     1      -3.807   4.534  10.584  1.00  0.00    -0.354 N 
ATOM     46  C   UNL     1       0.308   5.128  12.462  1.00  0.00     0.074 A 
ATOM     47  C   UNL     1       0.892   5.869  11.384  1.00  0.00     0.031 C 
ATOM     48  C   UNL     1      -5.109   4.246   8.796  1.00  0.00     0.029 A 
ATOM     49  C   UNL     1      -5.099   4.812  10.126  1.00  0.00     0.049 A 
ATOM     50  H   UNL     1      -3.535   4.651  11.523  1.00  0.00     0.167 HD
ATOM     51  C   UNL     1       0.234   5.434  13.785  1.00  0.00     0.037 A 
ATOM     52  C   UNL     1      -6.043   5.537  10.780  1.00  0.00     0.037 A 
ATOM     53  C   UNL     1      -0.434   4.385  14.517  1.00  0.00     0.049 A 
ATOM     54  C   UNL     1      -5.637   5.590  12.208  1.00  0.00     0.074 A 
ATOM     55  C   UNL     1      -0.222   3.029  14.682  1.00  0.00     0.029 A 
ATOM     56  N   UNL     1      -1.732   4.603  14.913  1.00  0.00    -0.354 N 
ATOM     57  N   UNL     1      -5.649   4.550  12.995  1.00  0.00    -0.248 NA
ATOM     58  C   UNL     1      -4.730   6.663  12.593  1.00  0.00     0.031 C 
ATOM     59  C   UNL     1      -1.524   2.447  14.674  1.00  0.00     0.029 A 
ATOM     60  C   UNL     1      -2.451   3.484  14.585  1.00  0.00     0.049 A 
ATOM     61  H   UNL     1      -2.079   5.413  15.352  1.00  0.00     0.167 HD
ATOM     62  C   UNL     1      -4.462   4.639  13.709  1.00  0.00     0.074 A 
ATOM     63  C   UNL     1      -3.956   5.986  13.447  1.00  0.00     0.031 C 
ATOM     64  C   UNL     1      -3.841   3.527  14.201  1.00  0.00     0.037 A 
BRANCH  51  65
ATOM     65  C   UNL     1       0.337   6.855  14.306  1.00  0.00     0.057 A 
ATOM     66  C   UNL     1       0.206   8.026  13.524  1.00  0.00     0.134 A 
ATOM     67  C   UNL     1       0.243   7.063  15.692  1.00  0.00     0.134 A 
ATOM     68  F   UNL     1       0.249   8.032  12.189  1.00  0.00    -0.206 F 
ATOM     69  C   UNL     1      -0.077   9.280  14.070  1.00  0.00     0.040 A 
ATOM     70  C   UNL     1      -0.087   8.306  16.245  1.00  0.00     0.040 A 
ATOM     71  F   UNL     1       0.372   6.041  16.552  1.00  0.00    -0.206 F 
ATOM     72  C   UNL     1      -0.269   9.416  15.431  1.00  0.00     0.006 A 
ENDBRANCH  51  65
BRANCH  52  73
ATOM     73  C   UNL     1      -7.058   6.457  10.207  1.00  0.00     0.057 A 
ATOM     74  C   UNL     1      -6.849   7.115   8.981  1.00  0.00     0.134 A 
ATOM     75  C   UNL     1      -8.139   6.921  10.971  1.00  0.00     0.134 A 
ATOM     76  F   UNL     1      -5.799   6.816   8.204  1.00  0.00    -0.206 F 
ATOM     77  C   UNL     1      -7.657   8.171   8.544  1.00  0.00     0.040 A 
ATOM     78  C   UNL     1      -8.952   7.984  10.549  1.00  0.00     0.040 A 
ATOM     79  F   UNL     1      -8.396   6.394  12.177  1.00  0.00    -0.206 F 
ATOM     80  C   UNL     1      -8.706   8.619   9.335  1.00  0.00     0.006 A 
ENDBRANCH  52  73
BRANCH  64  81
ATOM     81  C   UNL     1      -4.570   2.216  14.135  1.00  0.00     0.057 A 
ATOM     82  C   UNL     1      -4.751   1.493  15.318  1.00  0.00     0.134 A 
ATOM     83  C   UNL     1      -4.952   1.585  12.940  1.00  0.00     0.134 A 
ATOM     84  F   UNL     1      -4.354   2.008  16.492  1.00  0.00    -0.206 F 
ATOM     85  C   UNL     1      -5.296   0.208  15.322  1.00  0.00     0.040 A 
ATOM     86  C   UNL     1      -5.531   0.311  12.933  1.00  0.00     0.040 A 
ATOM     87  F   UNL     1      -4.719   2.155  11.751  1.00  0.00    -0.206 F 
ATOM     88  C   UNL     1      -5.699  -0.383  14.127  1.00  0.00     0.006 A 
ENDBRANCH  64  81
ENDBRANCH  38  39
ENDBRANCH  31  33
ENDBRANCH  30  31
ENDBRANCH  29  30
ENDBRANCH  28  29
ENDBRANCH  27  28
ENDBRANCH   1  27
TORSDOF 18
