REMARK SMILES CC(C)[C@H](CO)Nc1ccc(C(=O)OCCOCCOC(=O)c2ccc(-c3c4nc(c(-c5c(F)cccc5F)c5ccc([nH]5)c(-c5c(F)cccc5F)c5nc(c(-c6c(F)cccc6F)c6ccc3[nH]6)C=C5)C=C4)cc2)cc1
REMARK SMILES IDX 16 1 15 2 14 3 12 4 13 5 11 6 8 7 9 8 78 9 10 10 77 11 7 12
REMARK SMILES IDX 4 14 2 15 1 16 3 17 5 18 6 19 17 21 18 22 19 23 20 24 21 25
REMARK SMILES IDX 22 26 23 27 24 28 76 29 25 30 75 31 26 32 27 33 28 34 69 35
REMARK SMILES IDX 29 36 74 37 68 38 70 39 30 40 73 41 67 42 66 43 31 45 57 46
REMARK SMILES IDX 40 47 56 48 41 49 44 50 55 51 71 52 42 53 43 54 54 56 72 57
REMARK SMILES IDX 45 58 32 59 33 60 38 61 34 62 35 63 37 64 39 65 36 66 58 67
REMARK SMILES IDX 59 68 64 69 60 70 61 71 63 72 65 73 62 74 46 75 47 76 52 77
REMARK SMILES IDX 48 78 49 79 51 80 53 81 50 82
REMARK H PARENT 7 13 6 20 70 44 44 55
REMARK Flexibility Score: inf
ROOT
ATOM      1  C   UNL     1      -7.249  -6.404   4.117  1.00  0.00     0.202 C 
ENDROOT
BRANCH   1   2
ATOM      2  C   UNL     1      -6.134  -5.680   4.877  1.00  0.00     0.261 C 
BRANCH   2   3
ATOM      3  O   UNL     1      -5.360  -4.851   3.993  1.00  0.00    -0.460 OA
BRANCH   3   4
ATOM      4  C   UNL     1      -4.094  -5.279   3.772  1.00  0.00     0.338 C 
ATOM      5  O   UNL     1      -3.519  -6.191   4.348  1.00  0.00    -0.246 OA
BRANCH   4   6
ATOM      6  C   UNL     1      -3.506  -4.575   2.610  1.00  0.00     0.060 A 
ATOM      7  C   UNL     1      -2.223  -3.318   0.438  1.00  0.00     0.034 A 
ATOM      8  C   UNL     1      -1.964  -4.657   0.744  1.00  0.00     0.026 A 
ATOM      9  C   UNL     1      -3.175  -2.636   1.207  1.00  0.00     0.026 A 
ATOM     10  C   UNL     1      -2.588  -5.280   1.826  1.00  0.00     0.018 A 
ATOM     11  C   UNL     1      -3.827  -3.257   2.280  1.00  0.00     0.018 A 
BRANCH   7  12
ATOM     12  N   UNL     1      -1.469  -2.699  -0.544  1.00  0.00    -0.380 N 
ATOM     13  H   UNL     1      -1.282  -3.183  -1.381  1.00  0.00     0.160 HD
BRANCH  12  14
ATOM     14  C   UNL     1      -0.940  -1.339  -0.374  1.00  0.00     0.107 C 
BRANCH  14  15
ATOM     15  C   UNL     1      -1.460  -0.361  -1.467  1.00  0.00     0.007 C 
ATOM     16  C   UNL     1      -2.384  -0.988  -2.515  1.00  0.00     0.009 C 
ATOM     17  C   UNL     1      -2.175   0.825  -0.807  1.00  0.00     0.009 C 
ENDBRANCH  14  15
BRANCH  14  18
ATOM     18  C   UNL     1       0.609  -1.400  -0.351  1.00  0.00     0.181 C 
BRANCH  18  19
ATOM     19  O   UNL     1       1.171  -1.694  -1.629  1.00  0.00    -0.394 OA
ATOM     20  H   UNL     1       0.866  -2.567  -1.923  1.00  0.00     0.210 HD
ENDBRANCH  18  19
ENDBRANCH  14  18
ENDBRANCH  12  14
ENDBRANCH   7  12
ENDBRANCH   4   6
ENDBRANCH   3   4
ENDBRANCH   2   3
ENDBRANCH   1   2
BRANCH   1  21
ATOM     21  O   UNL     1      -6.820  -7.344   3.132  1.00  0.00    -0.374 OA
BRANCH  21  22
ATOM     22  C   UNL     1      -6.474  -6.818   1.849  1.00  0.00     0.202 C 
BRANCH  22  23
ATOM     23  C   UNL     1      -7.649  -6.535   0.907  1.00  0.00     0.261 C 
BRANCH  23  24
ATOM     24  O   UNL     1      -8.467  -5.453   1.389  1.00  0.00    -0.460 OA
BRANCH  24  25
ATOM     25  C   UNL     1      -9.700  -5.815   1.811  1.00  0.00     0.338 C 
ATOM     26  O   UNL     1     -10.219  -6.920   1.728  1.00  0.00    -0.246 OA
BRANCH  25  27
ATOM     27  C   UNL     1     -10.317  -4.713   2.573  1.00  0.00     0.060 A 
ATOM     28  C   UNL     1     -10.824  -5.016   3.843  1.00  0.00     0.016 A 
ATOM     29  C   UNL     1     -10.456  -3.429   2.042  1.00  0.00     0.016 A 
ATOM     30  C   UNL     1     -11.514  -4.047   4.567  1.00  0.00     0.010 A 
ATOM     31  C   UNL     1     -11.156  -2.458   2.769  1.00  0.00     0.010 A 
ATOM     32  C   UNL     1     -11.715  -2.772   4.021  1.00  0.00    -0.014 A 
BRANCH  32  33
ATOM     33  C   UNL     1     -12.611  -1.818   4.718  1.00  0.00     0.031 A 
ATOM     34  C   UNL     1     -14.033  -1.666   4.255  1.00  0.00     0.074 A 
ATOM     35  C   UNL     1     -12.173  -1.127   5.786  1.00  0.00     0.049 A 
ATOM     36  N   UNL     1     -14.986  -0.907   4.735  1.00  0.00    -0.248 NA
ATOM     37  C   UNL     1     -14.437  -2.478   3.095  1.00  0.00     0.031 C 
ATOM     38  C   UNL     1     -10.825  -1.205   6.347  1.00  0.00     0.029 A 
ATOM     39  N   UNL     1     -12.822  -0.222   6.588  1.00  0.00    -0.354 N 
ATOM     40  C   UNL     1     -16.099  -1.150   3.941  1.00  0.00     0.074 A 
ATOM     41  C   UNL     1     -15.696  -2.100   2.926  1.00  0.00     0.031 C 
ATOM     42  C   UNL     1     -10.745  -0.377   7.403  1.00  0.00     0.029 A 
ATOM     43  C   UNL     1     -12.027   0.304   7.577  1.00  0.00     0.049 A 
ATOM     44  H   UNL     1     -13.766   0.026   6.467  1.00  0.00     0.167 HD
ATOM     45  C   UNL     1     -17.347  -0.636   4.053  1.00  0.00     0.037 A 
ATOM     46  C   UNL     1     -12.301   1.238   8.508  1.00  0.00     0.037 A 
ATOM     47  C   UNL     1     -17.751   0.308   5.062  1.00  0.00     0.049 A 
ATOM     48  C   UNL     1     -13.681   1.835   8.576  1.00  0.00     0.074 A 
ATOM     49  C   UNL     1     -19.001   0.864   5.273  1.00  0.00     0.029 A 
ATOM     50  N   UNL     1     -16.909   0.843   6.025  1.00  0.00    -0.354 N 
ATOM     51  N   UNL     1     -14.735   1.569   7.843  1.00  0.00    -0.248 NA
ATOM     52  C   UNL     1     -13.909   2.858   9.607  1.00  0.00     0.031 C 
ATOM     53  C   UNL     1     -18.905   1.770   6.335  1.00  0.00     0.029 A 
ATOM     54  C   UNL     1     -17.606   1.742   6.816  1.00  0.00     0.049 A 
ATOM     55  H   UNL     1     -15.957   0.616   6.131  1.00  0.00     0.167 HD
ATOM     56  C   UNL     1     -15.755   2.373   8.337  1.00  0.00     0.074 A 
ATOM     57  C   UNL     1     -15.198   3.122   9.444  1.00  0.00     0.031 C 
ATOM     58  C   UNL     1     -17.038   2.484   7.912  1.00  0.00     0.037 A 
BRANCH  45  59
ATOM     59  C   UNL     1     -18.368  -1.073   3.044  1.00  0.00     0.057 A 
ATOM     60  C   UNL     1     -18.930  -2.356   3.069  1.00  0.00     0.134 A 
ATOM     61  C   UNL     1     -18.825  -0.186   2.061  1.00  0.00     0.134 A 
ATOM     62  F   UNL     1     -18.526  -3.257   3.977  1.00  0.00    -0.206 F 
ATOM     63  C   UNL     1     -19.897  -2.747   2.141  1.00  0.00     0.040 A 
ATOM     64  C   UNL     1     -19.808  -0.557   1.143  1.00  0.00     0.040 A 
ATOM     65  F   UNL     1     -18.331   1.059   1.985  1.00  0.00    -0.206 F 
ATOM     66  C   UNL     1     -20.344  -1.843   1.178  1.00  0.00     0.006 A 
ENDBRANCH  45  59
BRANCH  46  67
ATOM     67  C   UNL     1     -11.243   1.679   9.451  1.00  0.00     0.057 A 
ATOM     68  C   UNL     1     -11.308   1.370  10.814  1.00  0.00     0.134 A 
ATOM     69  C   UNL     1     -10.155   2.446   9.014  1.00  0.00     0.134 A 
ATOM     70  F   UNL     1     -12.338   0.660  11.296  1.00  0.00    -0.206 F 
ATOM     71  C   UNL     1     -10.341   1.823  11.713  1.00  0.00     0.040 A 
ATOM     72  C   UNL     1      -9.168   2.884   9.897  1.00  0.00     0.040 A 
ATOM     73  F   UNL     1     -10.036   2.776   7.719  1.00  0.00    -0.206 F 
ATOM     74  C   UNL     1      -9.264   2.579  11.253  1.00  0.00     0.006 A 
ENDBRANCH  46  67
BRANCH  58  75
ATOM     75  C   UNL     1     -17.928   3.432   8.661  1.00  0.00     0.057 A 
ATOM     76  C   UNL     1     -17.786   4.821   8.550  1.00  0.00     0.134 A 
ATOM     77  C   UNL     1     -18.952   2.950   9.486  1.00  0.00     0.134 A 
ATOM     78  F   UNL     1     -16.816   5.347   7.786  1.00  0.00    -0.206 F 
ATOM     79  C   UNL     1     -18.613   5.697   9.255  1.00  0.00     0.040 A 
ATOM     80  C   UNL     1     -19.802   3.817  10.176  1.00  0.00     0.040 A 
ATOM     81  F   UNL     1     -19.149   1.631   9.630  1.00  0.00    -0.206 F 
ATOM     82  C   UNL     1     -19.628   5.195  10.067  1.00  0.00     0.006 A 
ENDBRANCH  58  75
ENDBRANCH  32  33
ENDBRANCH  25  27
ENDBRANCH  24  25
ENDBRANCH  23  24
ENDBRANCH  22  23
ENDBRANCH  21  22
ENDBRANCH   1  21
TORSDOF 19
