REMARK SMILES C[C@@H](c1ccccn1)S(=O)(=O)N1CC[NH2+]C[C@@H]1C(=O)OCCOCCOC(=O)c1ccc(-c2c3nc(c(-c4c(F)cccc4F)c4ccc([nH]4)c(-c4c(F)cccc4F)c4nc(c(-c5c(F)cccc5F)c5ccc2[nH]5)C=C4)C=C3)cc1
REMARK SMILES IDX 22 1 21 2 20 3 18 4 19 5 17 6 12 7 13 8 14 9 16 10 15 11
REMARK SMILES IDX 9 14 10 15 11 16 2 17 1 18 3 19 4 20 8 21 5 22 7 23 6 24
REMARK SMILES IDX 23 25 24 26 25 27 26 28 27 29 28 30 29 31 30 32 82 33 31 34
REMARK SMILES IDX 81 35 32 36 33 37 34 38 75 39 35 40 80 41 74 42 76 43 36 44
REMARK SMILES IDX 79 45 73 46 72 47 37 49 63 50 46 51 62 52 47 53 50 54 61 55
REMARK SMILES IDX 77 56 48 57 49 58 60 60 78 61 51 62 38 63 39 64 44 65 40 66
REMARK SMILES IDX 41 67 43 68 45 69 42 70 64 71 65 72 70 73 66 74 67 75 69 76
REMARK SMILES IDX 71 77 68 78 52 79 53 80 58 81 54 82 55 83 57 84 59 85 56 86
REMARK H PARENT 15 12 15 13 76 48 50 59
REMARK Flexibility Score: inf
ROOT
ATOM      1  C   UNL     1      -5.930   2.860   2.472  1.00  0.00     0.202 C 
ENDROOT
BRANCH   1   2
ATOM      2  C   UNL     1      -5.903   2.093   1.137  1.00  0.00     0.261 C 
BRANCH   2   3
ATOM      3  O   UNL     1      -4.753   1.232   0.932  1.00  0.00    -0.462 OA
BRANCH   3   4
ATOM      4  C   UNL     1      -3.882   1.670  -0.024  1.00  0.00     0.330 C 
ATOM      5  O   UNL     1      -4.020   2.752  -0.592  1.00  0.00    -0.250 OA
BRANCH   4   6
ATOM      6  C   UNL     1      -2.725   0.707  -0.336  1.00  0.00     0.237 C 
ATOM      7  N   UNL     1      -1.687   0.439   0.712  1.00  0.00    -0.176 NA
ATOM      8  C   UNL     1      -0.973   1.623   1.185  1.00  0.00     0.164 C 
ATOM      9  C   UNL     1      -0.431   2.480   0.021  1.00  0.00     0.277 C 
ATOM     10  C   UNL     1      -1.932   1.318  -1.523  1.00  0.00     0.293 C 
ATOM     11  N   UNL     1      -1.275   2.607  -1.176  1.00  0.00    -0.343 N 
ATOM     12  H   UNL     1      -0.695   2.904  -1.960  1.00  0.00     0.346 HD
ATOM     13  H   UNL     1      -2.004   3.293  -0.981  1.00  0.00     0.346 HD
BRANCH   7  14
ATOM     14  S   UNL     1      -1.254  -1.131   1.079  1.00  0.00     0.223 S 
ATOM     15  O   UNL     1      -1.718  -1.926  -0.046  1.00  0.00    -0.211 OA
ATOM     16  O   UNL     1      -1.809  -1.381   2.393  1.00  0.00    -0.211 OA
BRANCH  14  17
ATOM     17  C   UNL     1       0.572  -1.321   1.102  1.00  0.00     0.170 C 
ATOM     18  C   UNL     1       1.312  -0.606  -0.018  1.00  0.00     0.033 C 
BRANCH  17  19
ATOM     19  C   UNL     1       1.118  -1.137   2.502  1.00  0.00     0.060 A 
ATOM     20  C   UNL     1       1.665   0.058   2.977  1.00  0.00     0.025 A 
ATOM     21  N   UNL     1       1.115  -2.248   3.282  1.00  0.00    -0.260 NA
ATOM     22  C   UNL     1       2.096   0.147   4.300  1.00  0.00     0.004 A 
ATOM     23  C   UNL     1       1.562  -2.146   4.555  1.00  0.00     0.111 A 
ATOM     24  C   UNL     1       2.037  -0.975   5.111  1.00  0.00     0.020 A 
ENDBRANCH  17  19
ENDBRANCH  14  17
ENDBRANCH   7  14
ENDBRANCH   4   6
ENDBRANCH   3   4
ENDBRANCH   2   3
ENDBRANCH   1   2
BRANCH   1  25
ATOM     25  O   UNL     1      -4.897   3.802   2.762  1.00  0.00    -0.374 OA
BRANCH  25  26
ATOM     26  C   UNL     1      -3.603   3.260   2.975  1.00  0.00     0.202 C 
BRANCH  26  27
ATOM     27  C   UNL     1      -3.261   2.654   4.341  1.00  0.00     0.261 C 
BRANCH  27  28
ATOM     28  O   UNL     1      -4.242   1.717   4.787  1.00  0.00    -0.460 OA
BRANCH  28  29
ATOM     29  C   UNL     1      -5.103   2.221   5.698  1.00  0.00     0.338 C 
ATOM     30  O   UNL     1      -5.050   3.312   6.252  1.00  0.00    -0.246 OA
BRANCH  29  31
ATOM     31  C   UNL     1      -6.269   1.334   5.797  1.00  0.00     0.060 A 
ATOM     32  C   UNL     1      -7.528   1.913   5.598  1.00  0.00     0.016 A 
ATOM     33  C   UNL     1      -6.138  -0.024   6.092  1.00  0.00     0.016 A 
ATOM     34  C   UNL     1      -8.673   1.143   5.745  1.00  0.00     0.010 A 
ATOM     35  C   UNL     1      -7.290  -0.795   6.253  1.00  0.00     0.010 A 
ATOM     36  C   UNL     1      -8.558  -0.203   6.115  1.00  0.00    -0.014 A 
BRANCH  36  37
ATOM     37  C   UNL     1      -9.776  -0.943   6.505  1.00  0.00     0.031 A 
ATOM     38  C   UNL     1     -10.090  -1.093   7.965  1.00  0.00     0.074 A 
ATOM     39  C   UNL     1     -10.605  -1.428   5.566  1.00  0.00     0.049 A 
ATOM     40  N   UNL     1     -11.092  -1.706   8.540  1.00  0.00    -0.248 NA
ATOM     41  C   UNL     1      -9.147  -0.465   8.906  1.00  0.00     0.031 C 
ATOM     42  C   UNL     1     -10.408  -1.303   4.123  1.00  0.00     0.029 A 
ATOM     43  N   UNL     1     -11.776  -2.127   5.690  1.00  0.00    -0.354 N 
ATOM     44  C   UNL     1     -10.899  -1.540   9.905  1.00  0.00     0.074 A 
ATOM     45  C   UNL     1      -9.667  -0.802  10.076  1.00  0.00     0.031 C 
ATOM     46  C   UNL     1     -11.422  -1.918   3.492  1.00  0.00     0.029 A 
ATOM     47  C   UNL     1     -12.316  -2.505   4.487  1.00  0.00     0.049 A 
ATOM     48  H   UNL     1     -12.190  -2.338   6.558  1.00  0.00     0.167 HD
ATOM     49  C   UNL     1     -11.689  -1.957  10.922  1.00  0.00     0.037 A 
ATOM     50  C   UNL     1     -13.398  -3.263   4.226  1.00  0.00     0.037 A 
ATOM     51  C   UNL     1     -12.906  -2.702  10.736  1.00  0.00     0.049 A 
ATOM     52  C   UNL     1     -14.216  -3.784   5.376  1.00  0.00     0.074 A 
ATOM     53  C   UNL     1     -13.789  -3.167  11.694  1.00  0.00     0.029 A 
ATOM     54  N   UNL     1     -13.405  -3.100   9.504  1.00  0.00    -0.354 N 
ATOM     55  N   UNL     1     -14.046  -3.600   6.664  1.00  0.00    -0.248 NA
ATOM     56  C   UNL     1     -15.379  -4.616   5.038  1.00  0.00     0.031 C 
ATOM     57  C   UNL     1     -14.792  -3.894  11.044  1.00  0.00     0.029 A 
ATOM     58  C   UNL     1     -14.567  -3.833   9.678  1.00  0.00     0.049 A 
ATOM     59  H   UNL     1     -12.993  -2.892   8.634  1.00  0.00     0.167 HD
ATOM     60  C   UNL     1     -15.088  -4.274   7.288  1.00  0.00     0.074 A 
ATOM     61  C   UNL     1     -15.897  -4.853   6.235  1.00  0.00     0.031 C 
ATOM     62  C   UNL     1     -15.353  -4.404   8.612  1.00  0.00     0.037 A 
BRANCH  49  63
ATOM     63  C   UNL     1     -11.239  -1.641  12.319  1.00  0.00     0.057 A 
ATOM     64  C   UNL     1     -11.245  -0.334  12.824  1.00  0.00     0.134 A 
ATOM     65  C   UNL     1     -10.808  -2.661  13.178  1.00  0.00     0.134 A 
ATOM     66  F   UNL     1     -11.631   0.692  12.050  1.00  0.00    -0.206 F 
ATOM     67  C   UNL     1     -10.813  -0.049  14.121  1.00  0.00     0.040 A 
ATOM     68  C   UNL     1     -10.401  -2.392  14.486  1.00  0.00     0.040 A 
ATOM     69  F   UNL     1     -10.778  -3.936  12.761  1.00  0.00    -0.206 F 
ATOM     70  C   UNL     1     -10.395  -1.081  14.958  1.00  0.00     0.006 A 
ENDBRANCH  49  63
BRANCH  50  71
ATOM     71  C   UNL     1     -13.752  -3.589   2.821  1.00  0.00     0.057 A 
ATOM     72  C   UNL     1     -14.909  -3.079   2.223  1.00  0.00     0.134 A 
ATOM     73  C   UNL     1     -12.938  -4.423   2.043  1.00  0.00     0.134 A 
ATOM     74  F   UNL     1     -15.739  -2.291   2.922  1.00  0.00    -0.206 F 
ATOM     75  C   UNL     1     -15.253  -3.397   0.908  1.00  0.00     0.040 A 
ATOM     76  C   UNL     1     -13.256  -4.727   0.718  1.00  0.00     0.040 A 
ATOM     77  F   UNL     1     -11.813  -4.942   2.555  1.00  0.00    -0.206 F 
ATOM     78  C   UNL     1     -14.421  -4.218   0.149  1.00  0.00     0.006 A 
ENDBRANCH  50  71
BRANCH  62  79
ATOM     79  C   UNL     1     -16.578  -5.184   8.991  1.00  0.00     0.057 A 
ATOM     80  C   UNL     1     -16.643  -6.575   8.846  1.00  0.00     0.134 A 
ATOM     81  C   UNL     1     -17.691  -4.539   9.546  1.00  0.00     0.134 A 
ATOM     82  F   UNL     1     -15.616  -7.252   8.309  1.00  0.00    -0.206 F 
ATOM     83  C   UNL     1     -17.781  -7.294   9.215  1.00  0.00     0.040 A 
ATOM     84  C   UNL     1     -18.822  -5.250   9.947  1.00  0.00     0.040 A 
ATOM     85  F   UNL     1     -17.691  -3.209   9.723  1.00  0.00    -0.206 F 
ATOM     86  C   UNL     1     -18.872  -6.632   9.775  1.00  0.00     0.006 A 
ENDBRANCH  62  79
ENDBRANCH  36  37
ENDBRANCH  29  31
ENDBRANCH  28  29
ENDBRANCH  27  28
ENDBRANCH  26  27
ENDBRANCH  25  26
ENDBRANCH   1  25
TORSDOF 17
