REMARK SMILES O=C(CN(C(=O)[C@H]1CC[C@H]2CCCC[C@H]2[NH2+]1)C1CC1)OCCOCCOC(=O)c1ccc(-c2c3nc(c(-c4c(F)cccc4F)c4ccc([nH]4)c(-c4c(F)cccc4F)c4nc(c(-c5c(F)cccc5F)c5ccc2[nH]5)C=C4)C=C3)cc1
REMARK SMILES IDX 22 1 21 2 20 3 2 4 1 5 3 6 4 7 5 8 6 9 7 10 8 11 16 12 9 13
REMARK SMILES IDX 15 14 10 17 14 18 11 19 13 20 12 21 17 22 18 23 19 24 23 25
REMARK SMILES IDX 24 26 25 27 26 28 27 29 28 30 29 31 30 32 82 33 31 34 81 35
REMARK SMILES IDX 32 36 33 37 34 38 75 39 35 40 80 41 74 42 76 43 36 44 79 45
REMARK SMILES IDX 73 46 72 47 37 49 63 50 46 51 62 52 47 53 50 54 61 55 77 56
REMARK SMILES IDX 48 57 49 58 60 60 78 61 51 62 38 63 39 64 44 65 40 66 41 67
REMARK SMILES IDX 43 68 45 69 42 70 64 71 65 72 70 73 66 74 67 75 69 76 71 77
REMARK SMILES IDX 68 78 52 79 53 80 58 81 54 82 55 83 57 84 59 85 56 86
REMARK H PARENT 16 15 16 16 76 48 50 59
REMARK Flexibility Score: inf
ROOT
ATOM      1  C   UNL     1       4.215   1.100   1.219  1.00  0.00     0.202 C 
ENDROOT
BRANCH   1   2
ATOM      2  C   UNL     1       5.649   1.083   1.726  1.00  0.00     0.261 C 
BRANCH   2   3
ATOM      3  O   UNL     1       6.353   2.285   1.381  1.00  0.00    -0.462 OA
BRANCH   3   4
ATOM      4  C   UNL     1       6.652   2.555   0.088  1.00  0.00     0.325 C 
ATOM      5  O   UNL     1       6.514   3.701  -0.340  1.00  0.00    -0.250 OA
BRANCH   4   6
ATOM      6  C   UNL     1       7.081   1.415  -0.845  1.00  0.00     0.242 C 
BRANCH   6   7
ATOM      7  N   UNL     1       7.909   0.336  -0.270  1.00  0.00    -0.323 N 
BRANCH   7   8
ATOM      8  C   UNL     1       7.618  -1.030  -0.346  1.00  0.00     0.281 C 
ATOM      9  O   UNL     1       8.328  -1.875   0.217  1.00  0.00    -0.268 OA
BRANCH   8  10
ATOM     10  C   UNL     1       6.345  -1.553  -1.101  1.00  0.00     0.273 C 
ATOM     11  C   UNL     1       6.787  -2.718  -2.014  1.00  0.00     0.076 C 
ATOM     12  N   UNL     1       5.358  -1.991  -0.076  1.00  0.00    -0.333 N 
ATOM     13  C   UNL     1       5.623  -3.553  -2.542  1.00  0.00     0.016 C 
ATOM     14  C   UNL     1       4.218  -2.711  -0.683  1.00  0.00     0.186 C 
ATOM     15  H   UNL     1       5.006  -1.170   0.415  1.00  0.00     0.347 HD
ATOM     16  H   UNL     1       5.830  -2.629   0.565  1.00  0.00     0.347 HD
ATOM     17  C   UNL     1       4.666  -3.971  -1.424  1.00  0.00     0.048 C 
ATOM     18  C   UNL     1       3.184  -3.163   0.345  1.00  0.00     0.065 C 
ATOM     19  C   UNL     1       5.264  -5.026  -0.465  1.00  0.00     0.010 C 
ATOM     20  C   UNL     1       3.791  -4.028   1.438  1.00  0.00     0.006 C 
ATOM     21  C   UNL     1       4.505  -5.246   0.856  1.00  0.00     0.001 C 
ENDBRANCH   8  10
ENDBRANCH   7   8
BRANCH   7  22
ATOM     22  C   UNL     1       9.150   0.836   0.322  1.00  0.00     0.086 C 
ATOM     23  C   UNL     1       9.211   1.103   1.809  1.00  0.00     0.027 C 
ATOM     24  C   UNL     1      10.141   0.110   1.188  1.00  0.00     0.027 C 
ENDBRANCH   7  22
ENDBRANCH   6   7
ENDBRANCH   4   6
ENDBRANCH   3   4
ENDBRANCH   2   3
ENDBRANCH   1   2
BRANCH   1  25
ATOM     25  O   UNL     1       4.132   1.264  -0.198  1.00  0.00    -0.374 OA
BRANCH  25  26
ATOM     26  C   UNL     1       3.444   2.451  -0.611  1.00  0.00     0.202 C 
BRANCH  26  27
ATOM     27  C   UNL     1       1.924   2.281  -0.681  1.00  0.00     0.261 C 
BRANCH  27  28
ATOM     28  O   UNL     1       1.383   1.980   0.618  1.00  0.00    -0.460 OA
BRANCH  28  29
ATOM     29  C   UNL     1       1.125   0.670   0.822  1.00  0.00     0.338 C 
ATOM     30  O   UNL     1       1.157  -0.229  -0.011  1.00  0.00    -0.246 OA
BRANCH  29  31
ATOM     31  C   UNL     1       0.933   0.402   2.258  1.00  0.00     0.060 A 
ATOM     32  C   UNL     1       1.565  -0.727   2.785  1.00  0.00     0.016 A 
ATOM     33  C   UNL     1       0.075   1.153   3.057  1.00  0.00     0.016 A 
ATOM     34  C   UNL     1       1.239  -1.215   4.033  1.00  0.00     0.010 A 
ATOM     35  C   UNL     1      -0.233   0.688   4.340  1.00  0.00     0.010 A 
ATOM     36  C   UNL     1       0.289  -0.540   4.793  1.00  0.00    -0.014 A 
BRANCH  36  37
ATOM     37  C   UNL     1      -0.324  -1.270   5.922  1.00  0.00     0.031 A 
ATOM     38  C   UNL     1      -1.720  -1.798   5.744  1.00  0.00     0.074 A 
ATOM     39  C   UNL     1       0.396  -1.575   7.015  1.00  0.00     0.049 A 
ATOM     40  N   UNL     1      -2.502  -2.390   6.607  1.00  0.00    -0.248 NA
ATOM     41  C   UNL     1      -2.319  -1.633   4.407  1.00  0.00     0.031 C 
ATOM     42  C   UNL     1       1.800  -1.224   7.231  1.00  0.00     0.029 A 
ATOM     43  N   UNL     1       0.045  -2.271   8.140  1.00  0.00    -0.354 N 
ATOM     44  C   UNL     1      -3.697  -2.614   5.935  1.00  0.00     0.074 A 
ATOM     45  C   UNL     1      -3.545  -2.091   4.597  1.00  0.00     0.031 C 
ATOM     46  C   UNL     1       2.195  -1.719   8.416  1.00  0.00     0.029 A 
ATOM     47  C   UNL     1       1.057  -2.365   9.062  1.00  0.00     0.049 A 
ATOM     48  H   UNL     1      -0.847  -2.667   8.275  1.00  0.00     0.167 HD
ATOM     49  C   UNL     1      -4.822  -3.206   6.399  1.00  0.00     0.037 A 
ATOM     50  C   UNL     1       1.046  -2.888  10.302  1.00  0.00     0.037 A 
ATOM     51  C   UNL     1      -4.934  -3.771   7.716  1.00  0.00     0.049 A 
ATOM     52  C   UNL     1      -0.230  -3.498  10.814  1.00  0.00     0.074 A 
ATOM     53  C   UNL     1      -6.024  -4.384   8.305  1.00  0.00     0.029 A 
ATOM     54  N   UNL     1      -3.901  -3.807   8.642  1.00  0.00    -0.354 N 
ATOM     55  N   UNL     1      -1.383  -3.638  10.204  1.00  0.00    -0.248 NA
ATOM     56  C   UNL     1      -0.208  -4.015  12.188  1.00  0.00     0.031 C 
ATOM     57  C   UNL     1      -5.660  -4.761   9.602  1.00  0.00     0.029 A 
ATOM     58  C   UNL     1      -4.329  -4.425   9.803  1.00  0.00     0.049 A 
ATOM     59  H   UNL     1      -2.997  -3.446   8.494  1.00  0.00     0.167 HD
ATOM     60  C   UNL     1      -2.215  -4.286  11.107  1.00  0.00     0.074 A 
ATOM     61  C   UNL     1      -1.428  -4.520  12.302  1.00  0.00     0.031 C 
ATOM     62  C   UNL     1      -3.512  -4.656  10.967  1.00  0.00     0.037 A 
BRANCH  49  63
ATOM     63  C   UNL     1      -6.018  -3.217   5.495  1.00  0.00     0.057 A 
ATOM     64  C   UNL     1      -6.092  -4.028   4.355  1.00  0.00     0.134 A 
ATOM     65  C   UNL     1      -7.113  -2.387   5.768  1.00  0.00     0.134 A 
ATOM     66  F   UNL     1      -5.067  -4.825   4.019  1.00  0.00    -0.206 F 
ATOM     67  C   UNL     1      -7.201  -3.993   3.506  1.00  0.00     0.040 A 
ATOM     68  C   UNL     1      -8.238  -2.364   4.943  1.00  0.00     0.040 A 
ATOM     69  F   UNL     1      -7.105  -1.581   6.841  1.00  0.00    -0.206 F 
ATOM     70  C   UNL     1      -8.281  -3.163   3.803  1.00  0.00     0.006 A 
ENDBRANCH  49  63
BRANCH  50  71
ATOM     71  C   UNL     1       2.266  -2.833  11.145  1.00  0.00     0.057 A 
ATOM     72  C   UNL     1       2.961  -3.996  11.495  1.00  0.00     0.134 A 
ATOM     73  C   UNL     1       2.761  -1.617  11.632  1.00  0.00     0.134 A 
ATOM     74  F   UNL     1       2.526  -5.194  11.077  1.00  0.00    -0.206 F 
ATOM     75  C   UNL     1       4.095  -3.954  12.309  1.00  0.00     0.040 A 
ATOM     76  C   UNL     1       3.908  -1.556  12.424  1.00  0.00     0.040 A 
ATOM     77  F   UNL     1       2.142  -0.465  11.331  1.00  0.00    -0.206 F 
ATOM     78  C   UNL     1       4.574  -2.729  12.771  1.00  0.00     0.006 A 
ENDBRANCH  50  71
BRANCH  62  79
ATOM     79  C   UNL     1      -4.132  -5.398  12.112  1.00  0.00     0.057 A 
ATOM     80  C   UNL     1      -4.478  -4.760  13.309  1.00  0.00     0.134 A 
ATOM     81  C   UNL     1      -4.410  -6.766  12.000  1.00  0.00     0.134 A 
ATOM     82  F   UNL     1      -4.226  -3.453  13.480  1.00  0.00    -0.206 F 
ATOM     83  C   UNL     1      -5.051  -5.464  14.368  1.00  0.00     0.040 A 
ATOM     84  C   UNL     1      -5.008  -7.475  13.041  1.00  0.00     0.040 A 
ATOM     85  F   UNL     1      -4.113  -7.432  10.874  1.00  0.00    -0.206 F 
ATOM     86  C   UNL     1      -5.322  -6.825  14.233  1.00  0.00     0.006 A 
ENDBRANCH  62  79
ENDBRANCH  36  37
ENDBRANCH  29  31
ENDBRANCH  28  29
ENDBRANCH  27  28
ENDBRANCH  26  27
ENDBRANCH  25  26
ENDBRANCH   1  25
TORSDOF 18
