REMARK SMILES Cc1nsc(NC(=O)[C@H]2Cc3[nH]cnc3C[NH2+]2)c1C(=O)OCCOCCOC(=O)c1ccc(-c2c3nc(c(-c4c(F)cccc4F)c4ccc([nH]4)c(-c4c(F)cccc4F)c4nc(c(-c5c(F)cccc5F)c5ccc2[nH]5)C=C4)C=C3)cc1
REMARK SMILES IDX 24 1 23 2 22 3 21 4 19 5 20 6 18 7 1 8 2 9 3 10 4 11 5 12
REMARK SMILES IDX 6 13 7 14 8 16 9 17 10 18 17 19 11 20 16 21 12 24 15 25
REMARK SMILES IDX 13 26 14 28 25 29 26 30 27 31 28 32 29 33 30 34 31 35 83 36
REMARK SMILES IDX 32 37 82 38 33 39 34 40 35 41 76 42 36 43 81 44 75 45 77 46
REMARK SMILES IDX 37 47 80 48 74 49 73 50 38 52 64 53 47 54 63 55 48 56 51 57
REMARK SMILES IDX 62 58 78 59 49 60 50 61 61 63 79 64 52 65 39 66 40 67 45 68
REMARK SMILES IDX 41 69 42 70 44 71 46 72 43 73 65 74 66 75 71 76 67 77 68 78
REMARK SMILES IDX 70 79 72 80 69 81 53 82 54 83 59 84 55 85 56 86 58 87 60 88
REMARK SMILES IDX 57 89
REMARK H PARENT 6 15 17 22 17 23 12 27 77 51 51 62
REMARK Flexibility Score: inf
ROOT
ATOM      1  O   UNL     1       1.888   4.979  -2.305  1.00  0.00    -0.374 OA
ENDROOT
BRANCH   1   2
ATOM      2  C   UNL     1       2.535   3.849  -2.893  1.00  0.00     0.202 C 
BRANCH   2   3
ATOM      3  C   UNL     1       3.391   2.965  -1.978  1.00  0.00     0.261 C 
BRANCH   3   4
ATOM      4  O   UNL     1       2.562   2.082  -1.200  1.00  0.00    -0.460 OA
BRANCH   4   5
ATOM      5  C   UNL     1       2.487   2.343   0.130  1.00  0.00     0.343 C 
ATOM      6  O   UNL     1       3.241   3.096   0.744  1.00  0.00    -0.246 OA
BRANCH   5   7
ATOM      7  C   UNL     1       1.232   1.873   0.679  1.00  0.00     0.117 A 
ATOM      8  C   UNL     1       1.114  -0.530  -0.309  1.00  0.00     0.069 C 
ATOM      9  C   UNL     1       0.535   0.653   0.386  1.00  0.00     0.068 A 
ATOM     10  N   UNL     1      -0.738   0.603   0.794  1.00  0.00    -0.195 NA
ATOM     11  S   UNL     1      -1.114   2.056   1.513  1.00  0.00    -0.017 S 
ATOM     12  C   UNL     1       0.497   2.606   1.593  1.00  0.00     0.131 A 
BRANCH  12  13
ATOM     13  N   UNL     1       0.874   3.757   2.233  1.00  0.00    -0.310 N 
ATOM     14  C   UNL     1       0.577   4.260   3.457  1.00  0.00     0.283 C 
ATOM     15  H   UNL     1       1.475   4.329   1.703  1.00  0.00     0.171 HD
ATOM     16  O   UNL     1       1.056   5.385   3.670  1.00  0.00    -0.268 OA
BRANCH  14  17
ATOM     17  C   UNL     1      -0.300   3.572   4.521  1.00  0.00     0.279 C 
ATOM     18  C   UNL     1      -0.336   2.021   4.691  1.00  0.00     0.131 C 
ATOM     19  N   UNL     1       0.029   4.154   5.883  1.00  0.00    -0.331 N 
ATOM     20  C   UNL     1      -1.590   1.840   5.473  1.00  0.00     0.050 A 
ATOM     21  C   UNL     1      -0.851   3.690   6.998  1.00  0.00     0.320 C 
ATOM     22  H   UNL     1      -0.049   5.169   5.820  1.00  0.00     0.347 HD
ATOM     23  H   UNL     1       0.970   3.833   6.110  1.00  0.00     0.347 HD
ATOM     24  N   UNL     1      -2.796   1.358   5.053  1.00  0.00    -0.348 N 
ATOM     25  C   UNL     1      -1.865   2.697   6.518  1.00  0.00     0.116 A 
ATOM     26  C   UNL     1      -3.748   2.032   5.778  1.00  0.00     0.197 A 
ATOM     27  H   UNL     1      -2.952   0.667   4.368  1.00  0.00     0.167 HD
ATOM     28  N   UNL     1      -3.216   2.794   6.710  1.00  0.00    -0.236 NA
ENDBRANCH  14  17
ENDBRANCH  12  13
ENDBRANCH   5   7
ENDBRANCH   4   5
ENDBRANCH   3   4
ENDBRANCH   2   3
ENDBRANCH   1   2
BRANCH   1  29
ATOM     29  C   UNL     1       0.779   4.799  -1.434  1.00  0.00     0.202 C 
BRANCH  29  30
ATOM     30  C   UNL     1      -0.557   4.385  -2.035  1.00  0.00     0.261 C 
BRANCH  30  31
ATOM     31  O   UNL     1      -0.475   3.133  -2.697  1.00  0.00    -0.460 OA
BRANCH  31  32
ATOM     32  C   UNL     1      -0.390   3.238  -4.042  1.00  0.00     0.338 C 
ATOM     33  O   UNL     1      -0.136   4.236  -4.694  1.00  0.00    -0.246 OA
BRANCH  32  34
ATOM     34  C   UNL     1      -0.783   1.960  -4.636  1.00  0.00     0.060 A 
ATOM     35  C   UNL     1      -0.725   1.876  -6.029  1.00  0.00     0.016 A 
ATOM     36  C   UNL     1      -1.464   1.014  -3.855  1.00  0.00     0.016 A 
ATOM     37  C   UNL     1      -1.553   0.978  -6.658  1.00  0.00     0.010 A 
ATOM     38  C   UNL     1      -2.290   0.120  -4.484  1.00  0.00     0.010 A 
ATOM     39  C   UNL     1      -2.399   0.190  -5.870  1.00  0.00    -0.014 A 
BRANCH  39  40
ATOM     40  C   UNL     1      -3.378  -0.639  -6.531  1.00  0.00     0.031 A 
ATOM     41  C   UNL     1      -2.755  -1.799  -7.197  1.00  0.00     0.074 A 
ATOM     42  C   UNL     1      -4.698  -0.395  -6.428  1.00  0.00     0.049 A 
ATOM     43  N   UNL     1      -2.605  -1.987  -8.464  1.00  0.00    -0.248 NA
ATOM     44  C   UNL     1      -2.014  -2.753  -6.353  1.00  0.00     0.031 C 
ATOM     45  C   UNL     1      -5.374   0.601  -5.589  1.00  0.00     0.029 A 
ATOM     46  N   UNL     1      -5.734  -1.057  -7.008  1.00  0.00    -0.354 N 
ATOM     47  C   UNL     1      -1.965  -3.215  -8.574  1.00  0.00     0.074 A 
ATOM     48  C   UNL     1      -1.428  -3.517  -7.275  1.00  0.00     0.031 C 
ATOM     49  C   UNL     1      -6.699   0.329  -5.546  1.00  0.00     0.029 A 
ATOM     50  C   UNL     1      -6.979  -0.761  -6.461  1.00  0.00     0.049 A 
ATOM     51  H   UNL     1      -5.614  -1.691  -7.752  1.00  0.00     0.167 HD
ATOM     52  C   UNL     1      -2.223  -4.029  -9.631  1.00  0.00     0.037 A 
ATOM     53  C   UNL     1      -8.137  -1.420  -6.719  1.00  0.00     0.037 A 
ATOM     54  C   UNL     1      -2.842  -3.298 -10.708  1.00  0.00     0.049 A 
ATOM     55  C   UNL     1      -7.953  -2.127  -8.008  1.00  0.00     0.074 A 
ATOM     56  C   UNL     1      -2.463  -2.289 -11.567  1.00  0.00     0.029 A 
ATOM     57  N   UNL     1      -4.212  -3.345 -10.737  1.00  0.00    -0.354 N 
ATOM     58  N   UNL     1      -7.806  -1.511  -9.149  1.00  0.00    -0.248 NA
ATOM     59  C   UNL     1      -7.477  -3.501  -7.978  1.00  0.00     0.031 C 
ATOM     60  C   UNL     1      -3.647  -1.526 -11.803  1.00  0.00     0.029 A 
ATOM     61  C   UNL     1      -4.706  -2.129 -11.122  1.00  0.00     0.049 A 
ATOM     62  H   UNL     1      -4.757  -4.134 -10.515  1.00  0.00     0.167 HD
ATOM     63  C   UNL     1      -6.848  -2.249  -9.830  1.00  0.00     0.074 A 
ATOM     64  C   UNL     1      -6.779  -3.522  -9.118  1.00  0.00     0.031 C 
ATOM     65  C   UNL     1      -6.005  -1.637 -10.715  1.00  0.00     0.037 A 
BRANCH  52  66
ATOM     66  C   UNL     1      -2.381  -5.526  -9.495  1.00  0.00     0.057 A 
ATOM     67  C   UNL     1      -2.515  -6.301 -10.659  1.00  0.00     0.134 A 
ATOM     68  C   UNL     1      -2.720  -6.188  -8.293  1.00  0.00     0.134 A 
ATOM     69  F   UNL     1      -2.249  -5.777 -11.865  1.00  0.00    -0.206 F 
ATOM     70  C   UNL     1      -3.013  -7.609 -10.634  1.00  0.00     0.040 A 
ATOM     71  C   UNL     1      -3.165  -7.510  -8.253  1.00  0.00     0.040 A 
ATOM     72  F   UNL     1      -2.745  -5.570  -7.107  1.00  0.00    -0.206 F 
ATOM     73  C   UNL     1      -3.344  -8.216  -9.429  1.00  0.00     0.006 A 
ENDBRANCH  52  66
BRANCH  53  74
ATOM     74  C   UNL     1      -9.221  -1.758  -5.768  1.00  0.00     0.057 A 
ATOM     75  C   UNL     1     -10.498  -2.136  -6.207  1.00  0.00     0.134 A 
ATOM     76  C   UNL     1      -8.945  -1.982  -4.407  1.00  0.00     0.134 A 
ATOM     77  F   UNL     1     -10.836  -2.016  -7.498  1.00  0.00    -0.206 F 
ATOM     78  C   UNL     1     -11.443  -2.710  -5.343  1.00  0.00     0.040 A 
ATOM     79  C   UNL     1      -9.879  -2.551  -3.535  1.00  0.00     0.040 A 
ATOM     80  F   UNL     1      -7.727  -1.741  -3.901  1.00  0.00    -0.206 F 
ATOM     81  C   UNL     1     -11.132  -2.926  -4.003  1.00  0.00     0.006 A 
ENDBRANCH  53  74
BRANCH  65  82
ATOM     82  C   UNL     1      -6.365  -0.240 -11.149  1.00  0.00     0.057 A 
ATOM     83  C   UNL     1      -6.313   0.886 -10.313  1.00  0.00     0.134 A 
ATOM     84  C   UNL     1      -6.651  -0.012 -12.498  1.00  0.00     0.134 A 
ATOM     85  F   UNL     1      -5.963   0.776  -9.026  1.00  0.00    -0.206 F 
ATOM     86  C   UNL     1      -6.570   2.175 -10.793  1.00  0.00     0.040 A 
ATOM     87  C   UNL     1      -6.878   1.273 -12.997  1.00  0.00     0.040 A 
ATOM     88  F   UNL     1      -6.666  -1.035 -13.367  1.00  0.00    -0.206 F 
ATOM     89  C   UNL     1      -6.847   2.372 -12.142  1.00  0.00     0.006 A 
ENDBRANCH  65  82
ENDBRANCH  39  40
ENDBRANCH  32  34
ENDBRANCH  31  32
ENDBRANCH  30  31
ENDBRANCH  29  30
ENDBRANCH   1  29
TORSDOF 16
