REMARK SMILES Cc1ccccc1NC(=S)NN1C(=O)CS[C@H]1c1ccccc1C(=O)OCCOCCOC(=O)c1ccc(-c2c3nc(c(-c4c(F)cccc4F)c4ccc([nH]4)c(-c4c(F)cccc4F)c4nc(c(-c5c(F)cccc5F)c5ccc2[nH]5)C=C4)C=C3)cc1
REMARK SMILES IDX 27 1 26 2 24 3 25 4 23 5 18 6 19 7 20 8 22 9 21 10 17 11
REMARK SMILES IDX 12 12 13 13 14 14 15 15 16 16 11 17 9 19 10 20 8 21 7 23
REMARK SMILES IDX 1 24 2 25 3 26 4 27 6 28 5 29 28 30 29 31 30 32 31 33 32 34
REMARK SMILES IDX 33 35 34 36 35 37 36 38 88 39 37 40 87 41 38 42 39 43 40 44
REMARK SMILES IDX 81 45 41 46 86 47 80 48 82 49 42 50 85 51 79 52 78 53 43 55
REMARK SMILES IDX 69 56 52 57 68 58 53 59 56 60 67 61 83 62 54 63 55 64 66 66
REMARK SMILES IDX 84 67 57 68 44 69 45 70 50 71 46 72 47 73 49 74 51 75 48 76
REMARK SMILES IDX 70 77 71 78 76 79 72 80 73 81 75 82 77 83 74 84 58 85 59 86
REMARK SMILES IDX 64 87 60 88 61 89 63 90 65 91 62 92
REMARK H PARENT 11 18 8 22 82 54 56 65
REMARK Flexibility Score: inf
ROOT
ATOM      1  C   UNL     1      -1.938   1.685  -0.760  1.00  0.00     0.261 C 
ENDROOT
BRANCH   1   2
ATOM      2  O   UNL     1      -2.327   2.703   0.666  1.00  0.00    -0.460 OA
BRANCH   2   3
ATOM      3  C   UNL     1      -3.074   3.842   1.195  1.00  0.00     0.338 C 
ATOM      4  O   UNL     1      -2.763   4.300   2.298  1.00  0.00    -0.246 OA
BRANCH   3   5
ATOM      5  C   UNL     1      -4.225   4.771   0.614  1.00  0.00     0.066 A 
ATOM      6  C   UNL     1      -5.300   4.349  -0.190  1.00  0.00     0.001 A 
ATOM      7  C   UNL     1      -6.540   5.003  -0.158  1.00  0.00     0.008 A 
ATOM      8  C   UNL     1      -6.563   6.338   0.182  1.00  0.00     0.000 A 
ATOM      9  C   UNL     1      -4.246   6.154   0.890  1.00  0.00     0.016 A 
ATOM     10  C   UNL     1      -5.377   6.943   0.587  1.00  0.00     0.001 A 
BRANCH   6  11
ATOM     11  C   UNL     1      -4.907   3.739  -1.525  1.00  0.00     0.197 C 
ATOM     12  N   UNL     1      -3.738   2.995  -1.248  1.00  0.00    -0.236 N 
ATOM     13  C   UNL     1      -4.350   1.844  -0.463  1.00  0.00     0.252 C 
ATOM     14  O   UNL     1      -4.241   1.430   0.681  1.00  0.00    -0.272 OA
ATOM     15  C   UNL     1      -5.227   1.135  -1.445  1.00  0.00     0.174 C 
ATOM     16  S   UNL     1      -6.104   2.514  -2.191  1.00  0.00    -0.120 SA
BRANCH  12  17
ATOM     17  N   UNL     1      -2.244   3.974  -1.144  1.00  0.00    -0.270 N 
ATOM     18  H   UNL     1      -2.428   4.883  -1.474  1.00  0.00     0.191 HD
BRANCH  17  19
ATOM     19  C   UNL     1      -0.783   3.882  -0.720  1.00  0.00     0.189 C 
ATOM     20  S   UNL     1      -0.467   5.462  -0.144  1.00  0.00    -0.039 S 
BRANCH  19  21
ATOM     21  N   UNL     1       0.313   2.743  -0.711  1.00  0.00    -0.331 N 
ATOM     22  H   UNL     1       1.033   3.096  -0.139  1.00  0.00     0.169 HD
BRANCH  21  23
ATOM     23  C   UNL     1       0.869   1.196  -1.202  1.00  0.00     0.043 A 
ATOM     24  C   UNL     1       3.186   0.605   0.168  1.00  0.00     0.046 C 
ATOM     25  C   UNL     1       2.011   0.388  -0.760  1.00  0.00    -0.028 A 
ATOM     26  C   UNL     1       2.190  -1.021  -1.194  1.00  0.00     0.005 A 
ATOM     27  C   UNL     1       1.361  -1.704  -2.041  1.00  0.00     0.000 A 
ATOM     28  C   UNL     1       0.154   0.367  -2.096  1.00  0.00     0.026 A 
ATOM     29  C   UNL     1       0.346  -0.970  -2.538  1.00  0.00     0.002 A 
ENDBRANCH  21  23
ENDBRANCH  19  21
ENDBRANCH  17  19
ENDBRANCH  12  17
ENDBRANCH   6  11
ENDBRANCH   3   5
ENDBRANCH   2   3
ENDBRANCH   1   2
BRANCH   1  30
ATOM     30  C   UNL     1      -1.842   2.289  -2.577  1.00  0.00     0.202 C 
BRANCH  30  31
ATOM     31  O   UNL     1      -0.658   3.004  -3.088  1.00  0.00    -0.374 OA
BRANCH  31  32
ATOM     32  C   UNL     1      -0.830   4.315  -3.683  1.00  0.00     0.202 C 
BRANCH  32  33
ATOM     33  C   UNL     1       0.252   4.551  -4.747  1.00  0.00     0.261 C 
BRANCH  33  34
ATOM     34  O   UNL     1       1.484   4.929  -4.090  1.00  0.00    -0.460 OA
BRANCH  34  35
ATOM     35  C   UNL     1       2.282   3.909  -3.647  1.00  0.00     0.338 C 
ATOM     36  O   UNL     1       2.376   2.820  -4.140  1.00  0.00    -0.246 OA
BRANCH  35  37
ATOM     37  C   UNL     1       2.856   4.305  -2.305  1.00  0.00     0.060 A 
ATOM     38  C   UNL     1       3.506   3.360  -1.517  1.00  0.00     0.016 A 
ATOM     39  C   UNL     1       2.557   5.514  -1.699  1.00  0.00     0.016 A 
ATOM     40  C   UNL     1       3.528   3.495  -0.102  1.00  0.00     0.010 A 
ATOM     41  C   UNL     1       2.558   5.598  -0.293  1.00  0.00     0.010 A 
ATOM     42  C   UNL     1       2.797   4.473   0.515  1.00  0.00    -0.014 A 
BRANCH  42  43
ATOM     43  C   UNL     1       2.193   4.348   1.895  1.00  0.00     0.031 A 
ATOM     44  C   UNL     1       2.634   5.390   2.893  1.00  0.00     0.074 A 
ATOM     45  C   UNL     1       1.140   3.570   2.362  1.00  0.00     0.049 A 
ATOM     46  N   UNL     1       2.277   5.446   4.140  1.00  0.00    -0.248 NA
ATOM     47  C   UNL     1       3.584   6.450   2.556  1.00  0.00     0.031 C 
ATOM     48  C   UNL     1       0.161   4.230   3.235  1.00  0.00     0.029 A 
ATOM     49  N   UNL     1       0.485   2.303   2.141  1.00  0.00    -0.354 N 
ATOM     50  C   UNL     1       2.475   6.746   4.531  1.00  0.00     0.074 A 
ATOM     51  C   UNL     1       3.502   7.222   3.643  1.00  0.00     0.031 C 
ATOM     52  C   UNL     1      -0.741   3.373   3.682  1.00  0.00     0.029 A 
ATOM     53  C   UNL     1      -0.450   2.051   3.213  1.00  0.00     0.049 A 
ATOM     54  H   UNL     1       0.650   1.703   1.378  1.00  0.00     0.167 HD
ATOM     55  C   UNL     1       1.606   7.343   5.399  1.00  0.00     0.037 A 
ATOM     56  C   UNL     1      -1.038   0.966   3.824  1.00  0.00     0.037 A 
ATOM     57  C   UNL     1       0.639   6.408   6.000  1.00  0.00     0.049 A 
ATOM     58  C   UNL     1      -1.147   1.130   5.319  1.00  0.00     0.074 A 
ATOM     59  C   UNL     1      -0.746   6.357   6.022  1.00  0.00     0.029 A 
ATOM     60  N   UNL     1       1.072   5.220   6.597  1.00  0.00    -0.354 N 
ATOM     61  N   UNL     1      -1.028   2.288   5.887  1.00  0.00    -0.248 NA
ATOM     62  C   UNL     1      -1.171   0.057   6.314  1.00  0.00     0.031 C 
ATOM     63  C   UNL     1      -1.134   5.151   6.658  1.00  0.00     0.029 A 
ATOM     64  C   UNL     1       0.004   4.453   7.034  1.00  0.00     0.049 A 
ATOM     65  H   UNL     1       2.017   4.961   6.694  1.00  0.00     0.167 HD
ATOM     66  C   UNL     1      -0.518   2.121   7.128  1.00  0.00     0.074 A 
ATOM     67  C   UNL     1      -0.778   0.725   7.417  1.00  0.00     0.031 C 
ATOM     68  C   UNL     1       0.187   3.147   7.686  1.00  0.00     0.037 A 
BRANCH  55  69
ATOM     69  C   UNL     1       1.498   8.852   5.611  1.00  0.00     0.057 A 
ATOM     70  C   UNL     1       0.717   9.367   6.668  1.00  0.00     0.134 A 
ATOM     71  C   UNL     1       2.066   9.851   4.791  1.00  0.00     0.134 A 
ATOM     72  F   UNL     1       0.072   8.562   7.523  1.00  0.00    -0.206 F 
ATOM     73  C   UNL     1       0.549  10.741   6.904  1.00  0.00     0.040 A 
ATOM     74  C   UNL     1       1.964  11.225   5.059  1.00  0.00     0.040 A 
ATOM     75  F   UNL     1       2.697   9.574   3.646  1.00  0.00    -0.206 F 
ATOM     76  C   UNL     1       1.198  11.678   6.117  1.00  0.00     0.006 A 
ENDBRANCH  55  69
BRANCH  56  77
ATOM     77  C   UNL     1      -1.091  -0.343   3.175  1.00  0.00     0.057 A 
ATOM     78  C   UNL     1      -2.294  -0.805   2.624  1.00  0.00     0.134 A 
ATOM     79  C   UNL     1       0.098  -0.798   2.650  1.00  0.00     0.134 A 
ATOM     80  F   UNL     1      -3.466  -0.607   3.246  1.00  0.00    -0.206 F 
ATOM     81  C   UNL     1      -2.304  -1.412   1.372  1.00  0.00     0.040 A 
ATOM     82  C   UNL     1       0.096  -1.339   1.384  1.00  0.00     0.040 A 
ATOM     83  F   UNL     1       1.266  -0.521   3.247  1.00  0.00    -0.206 F 
ATOM     84  C   UNL     1      -1.099  -1.570   0.705  1.00  0.00     0.006 A 
ENDBRANCH  56  77
BRANCH  68  85
ATOM     85  C   UNL     1       1.025   2.985   8.913  1.00  0.00     0.057 A 
ATOM     86  C   UNL     1       1.626   1.778   9.303  1.00  0.00     0.134 A 
ATOM     87  C   UNL     1       1.292   4.091   9.739  1.00  0.00     0.134 A 
ATOM     88  F   UNL     1       1.602   0.692   8.518  1.00  0.00    -0.206 F 
ATOM     89  C   UNL     1       2.316   1.643  10.511  1.00  0.00     0.040 A 
ATOM     90  C   UNL     1       2.029   3.982  10.920  1.00  0.00     0.040 A 
ATOM     91  F   UNL     1       0.855   5.321   9.432  1.00  0.00    -0.206 F 
ATOM     92  C   UNL     1       2.508   2.747  11.330  1.00  0.00     0.006 A 
ENDBRANCH  68  85
ENDBRANCH  42  43
ENDBRANCH  35  37
ENDBRANCH  34  35
ENDBRANCH  33  34
ENDBRANCH  32  33
ENDBRANCH  31  32
ENDBRANCH  30  31
ENDBRANCH   1  30
TORSDOF 19
