REMARK SMILES C=CCN(CC(=O)OCCOCCOC(=O)c1ccc(-c2c3nc(c(-c4c(F)cccc4F)c4ccc([nH]4)c(-c4c(F)cccc4F)c4nc(c(-c5c(F)cccc5F)c5ccc2[nH]5)C=C4)C=C3)cc1)C(=O)N1CCC(CC)(CC)C1
REMARK SMILES IDX 10 1 9 2 8 3 6 4 7 5 5 6 4 7 3 8 2 9 1 10 71 11 72 12 73 13
REMARK SMILES IDX 74 14 81 15 75 16 76 17 77 18 78 19 79 20 80 21 11 22 12 23
REMARK SMILES IDX 13 24 14 25 15 26 16 27 17 28 18 29 70 30 19 31 69 32 20 33
REMARK SMILES IDX 21 34 22 35 63 36 23 37 68 38 62 39 64 40 24 41 67 42 61 43
REMARK SMILES IDX 60 44 25 46 51 47 34 48 50 49 35 50 38 51 49 52 65 53 36 54
REMARK SMILES IDX 37 55 48 57 66 58 39 59 26 60 27 61 32 62 28 63 29 64 31 65
REMARK SMILES IDX 33 66 30 67 52 68 53 69 58 70 54 71 55 72 57 73 59 74 56 75
REMARK SMILES IDX 40 76 41 77 46 78 42 79 43 80 45 81 47 82 44 83
REMARK H PARENT 64 45 38 56
REMARK Flexibility Score: inf
ROOT
ATOM      1  C   UNL     1      -6.575  -2.041  -0.191  1.00  0.00     0.202 C 
ENDROOT
BRANCH   1   2
ATOM      2  C   UNL     1      -5.901  -2.102   1.186  1.00  0.00     0.261 C 
BRANCH   2   3
ATOM      3  O   UNL     1      -4.453  -2.137   1.087  1.00  0.00    -0.462 OA
BRANCH   3   4
ATOM      4  C   UNL     1      -3.811  -2.654   2.171  1.00  0.00     0.325 C 
ATOM      5  O   UNL     1      -4.395  -3.012   3.190  1.00  0.00    -0.250 OA
BRANCH   4   6
ATOM      6  C   UNL     1      -2.271  -2.703   2.065  1.00  0.00     0.244 C 
BRANCH   6   7
ATOM      7  N   UNL     1      -1.572  -2.466   0.791  1.00  0.00    -0.310 N 
BRANCH   7   8
ATOM      8  C   UNL     1      -1.280  -1.056   0.504  1.00  0.00     0.149 C 
BRANCH   8   9
ATOM      9  C   UNL     1       0.123  -0.708   0.930  1.00  0.00    -0.013 C 
ATOM     10  C   UNL     1       0.953   0.056   0.202  1.00  0.00     0.006 C 
ENDBRANCH   8   9
ENDBRANCH   7   8
BRANCH   7  11
ATOM     11  C   UNL     1      -0.993  -3.410  -0.054  1.00  0.00     0.320 C 
ATOM     12  O   UNL     1      -0.160  -3.062  -0.897  1.00  0.00    -0.248 OA
BRANCH  11  13
ATOM     13  N   UNL     1      -1.354  -4.743   0.006  1.00  0.00    -0.324 N 
ATOM     14  C   UNL     1      -2.609  -5.301   0.423  1.00  0.00     0.122 C 
ATOM     15  C   UNL     1      -0.657  -5.717  -0.853  1.00  0.00     0.128 C 
ATOM     16  C   UNL     1      -2.495  -6.792   0.301  1.00  0.00     0.030 C 
ATOM     17  C   UNL     1      -1.486  -7.038  -0.834  1.00  0.00    -0.011 C 
BRANCH  17  18
ATOM     18  C   UNL     1      -0.612  -8.259  -0.428  1.00  0.00     0.005 C 
ATOM     19  C   UNL     1      -1.421  -9.525  -0.123  1.00  0.00     0.004 C 
ENDBRANCH  17  18
BRANCH  17  20
ATOM     20  C   UNL     1      -2.136  -7.383  -2.212  1.00  0.00     0.005 C 
ATOM     21  C   UNL     1      -2.930  -6.330  -2.957  1.00  0.00     0.004 C 
ENDBRANCH  17  20
ENDBRANCH  11  13
ENDBRANCH   7  11
ENDBRANCH   6   7
ENDBRANCH   4   6
ENDBRANCH   3   4
ENDBRANCH   2   3
ENDBRANCH   1   2
BRANCH   1  22
ATOM     22  O   UNL     1      -6.602  -3.248  -0.948  1.00  0.00    -0.374 OA
BRANCH  22  23
ATOM     23  C   UNL     1      -5.383  -3.965  -1.074  1.00  0.00     0.202 C 
BRANCH  23  24
ATOM     24  C   UNL     1      -4.172  -3.224  -1.679  1.00  0.00     0.261 C 
BRANCH  24  25
ATOM     25  O   UNL     1      -4.499  -2.101  -2.457  1.00  0.00    -0.460 OA
BRANCH  25  26
ATOM     26  C   UNL     1      -5.145  -2.381  -3.603  1.00  0.00     0.338 C 
ATOM     27  O   UNL     1      -5.325  -3.451  -4.146  1.00  0.00    -0.246 OA
BRANCH  26  28
ATOM     28  C   UNL     1      -5.813  -1.113  -3.864  1.00  0.00     0.060 A 
ATOM     29  C   UNL     1      -7.201  -1.086  -3.732  1.00  0.00     0.016 A 
ATOM     30  C   UNL     1      -5.044   0.052  -3.974  1.00  0.00     0.016 A 
ATOM     31  C   UNL     1      -7.843   0.139  -3.739  1.00  0.00     0.010 A 
ATOM     32  C   UNL     1      -5.685   1.276  -3.962  1.00  0.00     0.010 A 
ATOM     33  C   UNL     1      -7.085   1.312  -3.872  1.00  0.00    -0.014 A 
BRANCH  33  34
ATOM     34  C   UNL     1      -7.779   2.584  -4.092  1.00  0.00     0.031 A 
ATOM     35  C   UNL     1      -7.894   3.066  -5.503  1.00  0.00     0.074 A 
ATOM     36  C   UNL     1      -8.302   3.251  -3.052  1.00  0.00     0.049 A 
ATOM     37  N   UNL     1      -8.462   4.146  -5.962  1.00  0.00    -0.248 NA
ATOM     38  C   UNL     1      -7.278   2.217  -6.540  1.00  0.00     0.031 C 
ATOM     39  C   UNL     1      -8.233   2.825  -1.653  1.00  0.00     0.029 A 
ATOM     40  N   UNL     1      -8.996   4.427  -3.015  1.00  0.00    -0.354 N 
ATOM     41  C   UNL     1      -8.279   4.101  -7.337  1.00  0.00     0.074 A 
ATOM     42  C   UNL     1      -7.505   2.919  -7.637  1.00  0.00     0.031 C 
ATOM     43  C   UNL     1      -8.867   3.733  -0.891  1.00  0.00     0.029 A 
ATOM     44  C   UNL     1      -9.356   4.810  -1.748  1.00  0.00     0.049 A 
ATOM     45  H   UNL     1      -9.216   4.950  -3.820  1.00  0.00     0.167 HD
ATOM     46  C   UNL     1      -8.738   4.970  -8.264  1.00  0.00     0.037 A 
ATOM     47  C   UNL     1     -10.000   5.919  -1.343  1.00  0.00     0.037 A 
ATOM     48  C   UNL     1      -9.495   6.143  -7.930  1.00  0.00     0.049 A 
ATOM     49  C   UNL     1     -10.443   6.903  -2.394  1.00  0.00     0.074 A 
ATOM     50  C   UNL     1     -10.022   7.100  -8.774  1.00  0.00     0.029 A 
ATOM     51  N   UNL     1      -9.821   6.520  -6.633  1.00  0.00    -0.354 N 
ATOM     52  N   UNL     1     -10.305   6.839  -3.698  1.00  0.00    -0.248 NA
ATOM     53  C   UNL     1     -11.135   8.108  -1.921  1.00  0.00     0.031 C 
ATOM     54  C   UNL     1     -10.622   8.086  -7.985  1.00  0.00     0.029 A 
ATOM     55  C   UNL     1     -10.521   7.713  -6.652  1.00  0.00     0.049 A 
ATOM     56  H   UNL     1      -9.589   6.014  -5.822  1.00  0.00     0.167 HD
ATOM     57  C   UNL     1     -10.912   7.981  -4.204  1.00  0.00     0.074 A 
ATOM     58  C   UNL     1     -11.437   8.707  -3.064  1.00  0.00     0.031 C 
ATOM     59  C   UNL     1     -11.026   8.399  -5.489  1.00  0.00     0.037 A 
BRANCH  46  60
ATOM     60  C   UNL     1      -8.407   4.687  -9.698  1.00  0.00     0.057 A 
ATOM     61  C   UNL     1      -8.975   3.610 -10.393  1.00  0.00     0.134 A 
ATOM     62  C   UNL     1      -7.509   5.503 -10.396  1.00  0.00     0.134 A 
ATOM     63  F   UNL     1      -9.822   2.772  -9.774  1.00  0.00    -0.206 F 
ATOM     64  C   UNL     1      -8.649   3.346 -11.724  1.00  0.00     0.040 A 
ATOM     65  C   UNL     1      -7.196   5.266 -11.735  1.00  0.00     0.040 A 
ATOM     66  F   UNL     1      -6.921   6.544  -9.788  1.00  0.00    -0.206 F 
ATOM     67  C   UNL     1      -7.763   4.181 -12.401  1.00  0.00     0.006 A 
ENDBRANCH  46  60
BRANCH  47  68
ATOM     68  C   UNL     1     -10.254   6.157   0.100  1.00  0.00     0.057 A 
ATOM     69  C   UNL     1     -11.553   6.162   0.621  1.00  0.00     0.134 A 
ATOM     70  C   UNL     1      -9.203   6.399   0.994  1.00  0.00     0.134 A 
ATOM     71  F   UNL     1     -12.604   5.952  -0.185  1.00  0.00    -0.206 F 
ATOM     72  C   UNL     1     -11.800   6.423   1.970  1.00  0.00     0.040 A 
ATOM     73  C   UNL     1      -9.434   6.633   2.351  1.00  0.00     0.040 A 
ATOM     74  F   UNL     1      -7.933   6.399   0.563  1.00  0.00    -0.206 F 
ATOM     75  C   UNL     1     -10.737   6.655   2.841  1.00  0.00     0.006 A 
ENDBRANCH  47  68
BRANCH  59  76
ATOM     76  C   UNL     1     -11.768   9.682  -5.720  1.00  0.00     0.057 A 
ATOM     77  C   UNL     1     -11.223  10.923  -5.368  1.00  0.00     0.134 A 
ATOM     78  C   UNL     1     -13.022   9.675  -6.343  1.00  0.00     0.134 A 
ATOM     79  F   UNL     1     -10.030  10.994  -4.757  1.00  0.00    -0.206 F 
ATOM     80  C   UNL     1     -11.913  12.112  -5.603  1.00  0.00     0.040 A 
ATOM     81  C   UNL     1     -13.707  10.859  -6.614  1.00  0.00     0.040 A 
ATOM     82  F   UNL     1     -13.591   8.519  -6.717  1.00  0.00    -0.206 F 
ATOM     83  C   UNL     1     -13.155  12.082  -6.236  1.00  0.00     0.006 A 
ENDBRANCH  59  76
ENDBRANCH  33  34
ENDBRANCH  26  28
ENDBRANCH  25  26
ENDBRANCH  24  25
ENDBRANCH  23  24
ENDBRANCH  22  23
ENDBRANCH   1  22
TORSDOF 21
