REMARK SMILES Cc1cccc(N2C(=O)/C(=C/c3ccc(C(=O)OCCOCCOC(=O)c4ccc(-c5c6nc(c(-c7c(F)cccc7F)c7ccc([nH]7)c(-c7c(F)cccc7F)c7nc(c(-c8c(F)cccc8F)c8ccc5[nH]8)C=C7)C=C6)cc4)cc3)c3ccccc3C2=O)c1
REMARK SMILES IDX 21 1 20 2 19 3 18 4 16 5 17 6 15 7 12 8 13 9 82 10 14 11
REMARK SMILES IDX 81 12 11 13 7 14 8 15 89 16 9 17 10 18 88 19 90 20 83 21
REMARK SMILES IDX 87 22 84 23 86 24 85 25 6 26 1 27 2 28 3 29 91 30 4 31 5 32
REMARK SMILES IDX 22 33 23 34 24 35 25 36 26 37 27 38 28 39 80 40 29 41 79 42
REMARK SMILES IDX 30 43 31 44 32 45 73 46 33 47 78 48 72 49 74 50 34 51 77 52
REMARK SMILES IDX 71 53 70 54 35 56 61 57 44 58 60 59 45 60 48 61 59 62 75 63
REMARK SMILES IDX 46 64 47 65 58 67 76 68 49 69 36 70 37 71 42 72 38 73 39 74
REMARK SMILES IDX 41 75 43 76 40 77 62 78 63 79 68 80 64 81 65 82 67 83 69 84
REMARK SMILES IDX 66 85 50 86 51 87 56 88 52 89 53 90 55 91 57 92 54 93
REMARK H PARENT 74 55 48 66
REMARK Flexibility Score: inf
ROOT
ATOM      1  O   UNL     1      -2.711  12.488   0.944  1.00  0.00    -0.374 OA
ENDROOT
BRANCH   1   2
ATOM      2  C   UNL     1      -3.587  11.791   1.813  1.00  0.00     0.202 C 
BRANCH   2   3
ATOM      3  C   UNL     1      -4.746  11.339   0.968  1.00  0.00     0.261 C 
BRANCH   3   4
ATOM      4  O   UNL     1      -4.389  10.274   0.066  1.00  0.00    -0.460 OA
BRANCH   4   5
ATOM      5  C   UNL     1      -3.742  10.550  -1.107  1.00  0.00     0.338 C 
ATOM      6  O   UNL     1      -3.469  11.613  -1.604  1.00  0.00    -0.246 OA
BRANCH   5   7
ATOM      7  C   UNL     1      -3.235   9.252  -1.578  1.00  0.00     0.060 A 
ATOM      8  C   UNL     1      -2.026   6.794  -1.431  1.00  0.00    -0.025 A 
ATOM      9  C   UNL     1      -1.254   7.922  -1.736  1.00  0.00     0.009 A 
ATOM     10  C   UNL     1      -3.422   6.867  -1.459  1.00  0.00     0.009 A 
ATOM     11  C   UNL     1      -1.865   9.165  -1.825  1.00  0.00     0.016 A 
ATOM     12  C   UNL     1      -4.034   8.109  -1.497  1.00  0.00     0.016 A 
BRANCH   8  13
ATOM     13  C   UNL     1      -1.342   5.592  -0.961  1.00  0.00     0.022 C 
ATOM     14  N   UNL     1      -1.602   2.491   0.529  1.00  0.00    -0.242 N 
ATOM     15  C   UNL     1      -0.837   3.655   0.321  1.00  0.00     0.265 C 
ATOM     16  C   UNL     1      -2.967   2.590   0.903  1.00  0.00     0.265 C 
ATOM     17  O   UNL     1       0.382   3.785   0.243  1.00  0.00    -0.268 OA
ATOM     18  C   UNL     1      -1.657   4.882   0.145  1.00  0.00     0.049 C 
ATOM     19  C   UNL     1      -3.443   3.899   1.427  1.00  0.00     0.048 A 
ATOM     20  O   UNL     1      -3.822   1.709   0.869  1.00  0.00    -0.268 OA
ATOM     21  C   UNL     1      -2.760   5.063   1.086  1.00  0.00    -0.000 A 
ATOM     22  C   UNL     1      -4.576   3.959   2.252  1.00  0.00     0.014 A 
ATOM     23  C   UNL     1      -3.154   6.281   1.653  1.00  0.00     0.010 A 
ATOM     24  C   UNL     1      -4.996   5.184   2.774  1.00  0.00     0.001 A 
ATOM     25  C   UNL     1      -4.276   6.341   2.486  1.00  0.00     0.001 A 
BRANCH  14  26
ATOM     26  C   UNL     1      -0.980   1.181   0.330  1.00  0.00     0.053 A 
ATOM     27  C   UNL     1       2.539  -0.307  -0.038  1.00  0.00     0.044 C 
ATOM     28  C   UNL     1       1.043  -0.218   0.035  1.00  0.00    -0.049 A 
ATOM     29  C   UNL     1       0.259  -1.360  -0.083  1.00  0.00     0.003 A 
ATOM     30  C   UNL     1       0.418   1.023   0.253  1.00  0.00     0.030 A 
ATOM     31  C   UNL     1      -1.122  -1.250  -0.004  1.00  0.00     0.002 A 
ATOM     32  C   UNL     1      -1.728  -0.000   0.193  1.00  0.00     0.027 A 
ENDBRANCH  14  26
ENDBRANCH   8  13
ENDBRANCH   5   7
ENDBRANCH   4   5
ENDBRANCH   3   4
ENDBRANCH   2   3
ENDBRANCH   1   2
BRANCH   1  33
ATOM     33  C   UNL     1      -1.511  12.959   1.524  1.00  0.00     0.202 C 
BRANCH  33  34
ATOM     34  C   UNL     1      -1.743  14.023   2.604  1.00  0.00     0.261 C 
BRANCH  34  35
ATOM     35  O   UNL     1      -2.405  15.165   2.024  1.00  0.00    -0.460 OA
BRANCH  35  36
ATOM     36  C   UNL     1      -3.740  15.265   2.272  1.00  0.00     0.338 C 
ATOM     37  O   UNL     1      -4.269  15.142   3.366  1.00  0.00    -0.246 OA
BRANCH  36  38
ATOM     38  C   UNL     1      -4.493  15.254   0.985  1.00  0.00     0.060 A 
ATOM     39  C   UNL     1      -5.890  15.077   0.994  1.00  0.00     0.016 A 
ATOM     40  C   UNL     1      -3.782  15.089  -0.201  1.00  0.00     0.016 A 
ATOM     41  C   UNL     1      -6.543  14.568  -0.139  1.00  0.00     0.010 A 
ATOM     42  C   UNL     1      -4.415  14.505  -1.277  1.00  0.00     0.010 A 
ATOM     43  C   UNL     1      -5.786  14.196  -1.246  1.00  0.00    -0.014 A 
BRANCH  43  44
ATOM     44  C   UNL     1      -6.246  13.383  -2.378  1.00  0.00     0.031 A 
ATOM     45  C   UNL     1      -6.101  13.932  -3.749  1.00  0.00     0.074 A 
ATOM     46  C   UNL     1      -6.481  12.054  -2.229  1.00  0.00     0.049 A 
ATOM     47  N   UNL     1      -6.506  13.321  -4.808  1.00  0.00    -0.248 NA
ATOM     48  C   UNL     1      -5.524  15.242  -4.057  1.00  0.00     0.031 C 
ATOM     49  C   UNL     1      -6.344  10.999  -3.238  1.00  0.00     0.029 A 
ATOM     50  N   UNL     1      -6.926  11.343  -1.107  1.00  0.00    -0.354 N 
ATOM     51  C   UNL     1      -5.902  13.918  -5.885  1.00  0.00     0.074 A 
ATOM     52  C   UNL     1      -5.452  15.192  -5.392  1.00  0.00     0.031 C 
ATOM     53  C   UNL     1      -6.961   9.884  -2.814  1.00  0.00     0.029 A 
ATOM     54  C   UNL     1      -7.634  10.222  -1.575  1.00  0.00     0.049 A 
ATOM     55  H   UNL     1      -6.772  11.583  -0.165  1.00  0.00     0.167 HD
ATOM     56  C   UNL     1      -5.736  13.176  -7.016  1.00  0.00     0.037 A 
ATOM     57  C   UNL     1      -8.947  10.043  -1.272  1.00  0.00     0.037 A 
ATOM     58  C   UNL     1      -6.503  11.924  -6.930  1.00  0.00     0.049 A 
ATOM     59  C   UNL     1      -9.745  10.043  -2.542  1.00  0.00     0.074 A 
ATOM     60  C   UNL     1      -6.160  10.586  -6.838  1.00  0.00     0.029 A 
ATOM     61  N   UNL     1      -7.870  11.994  -6.652  1.00  0.00    -0.354 N 
ATOM     62  N   UNL     1      -9.286  10.574  -3.643  1.00  0.00    -0.248 NA
ATOM     63  C   UNL     1     -11.032   9.387  -2.736  1.00  0.00     0.031 C 
ATOM     64  C   UNL     1      -7.316   9.872  -6.399  1.00  0.00     0.029 A 
ATOM     65  C   UNL     1      -8.371  10.765  -6.273  1.00  0.00     0.049 A 
ATOM     66  H   UNL     1      -8.409  12.816  -6.718  1.00  0.00     0.167 HD
ATOM     67  C   UNL     1     -10.107  10.268  -4.680  1.00  0.00     0.074 A 
ATOM     68  C   UNL     1     -11.217   9.566  -4.058  1.00  0.00     0.031 C 
ATOM     69  C   UNL     1      -9.791  10.602  -5.963  1.00  0.00     0.037 A 
BRANCH  56  70
ATOM     70  C   UNL     1      -4.764  13.489  -8.139  1.00  0.00     0.057 A 
ATOM     71  C   UNL     1      -4.751  12.696  -9.305  1.00  0.00     0.134 A 
ATOM     72  C   UNL     1      -3.759  14.479  -8.113  1.00  0.00     0.134 A 
ATOM     73  F   UNL     1      -5.620  11.690  -9.475  1.00  0.00    -0.206 F 
ATOM     74  C   UNL     1      -3.835  12.885 -10.353  1.00  0.00     0.040 A 
ATOM     75  C   UNL     1      -2.872  14.711  -9.176  1.00  0.00     0.040 A 
ATOM     76  F   UNL     1      -3.529  15.243  -7.041  1.00  0.00    -0.206 F 
ATOM     77  C   UNL     1      -2.901  13.907 -10.301  1.00  0.00     0.006 A 
ENDBRANCH  56  70
BRANCH  57  78
ATOM     78  C   UNL     1      -9.274  10.592   0.076  1.00  0.00     0.057 A 
ATOM     79  C   UNL     1      -8.711   9.925   1.187  1.00  0.00     0.134 A 
ATOM     80  C   UNL     1      -9.609  11.938   0.260  1.00  0.00     0.134 A 
ATOM     81  F   UNL     1      -8.340   8.638   1.079  1.00  0.00    -0.206 F 
ATOM     82  C   UNL     1      -8.365  10.596   2.366  1.00  0.00     0.040 A 
ATOM     83  C   UNL     1      -9.268  12.619   1.442  1.00  0.00     0.040 A 
ATOM     84  F   UNL     1     -10.124  12.656  -0.748  1.00  0.00    -0.206 F 
ATOM     85  C   UNL     1      -8.603  11.961   2.477  1.00  0.00     0.006 A 
ENDBRANCH  57  78
BRANCH  69  86
ATOM     86  C   UNL     1     -10.805  10.766  -7.059  1.00  0.00     0.057 A 
ATOM     87  C   UNL     1     -12.152  11.077  -6.824  1.00  0.00     0.134 A 
ATOM     88  C   UNL     1     -10.396  10.831  -8.408  1.00  0.00     0.134 A 
ATOM     89  F   UNL     1     -12.653  11.159  -5.583  1.00  0.00    -0.206 F 
ATOM     90  C   UNL     1     -13.040  11.387  -7.857  1.00  0.00     0.040 A 
ATOM     91  C   UNL     1     -11.259  11.203  -9.440  1.00  0.00     0.040 A 
ATOM     92  F   UNL     1      -9.132  10.579  -8.780  1.00  0.00    -0.206 F 
ATOM     93  C   UNL     1     -12.591  11.470  -9.168  1.00  0.00     0.006 A 
ENDBRANCH  69  86
ENDBRANCH  43  44
ENDBRANCH  36  38
ENDBRANCH  35  36
ENDBRANCH  34  35
ENDBRANCH  33  34
ENDBRANCH   1  33
TORSDOF 16
