REMARK SMILES O=C(Nc1ccc(O)c(C(=O)OCCOCCOC(=O)c2ccc(-c3c4nc(c(-c5c(F)cccc5F)c5ccc([nH]5)c(-c5c(F)cccc5F)c5nc(c(-c6c(F)cccc6F)c6ccc3[nH]6)C=C5)C=C4)cc2)c1)c1cncc(Br)c1
REMARK SMILES IDX 15 1 14 2 13 3 12 4 10 5 11 6 9 7 4 8 5 9 75 10 6 11 7 12
REMARK SMILES IDX 3 13 1 14 2 15 76 17 77 18 82 19 78 20 80 21 79 22 81 23
REMARK SMILES IDX 8 24 16 26 17 27 18 28 19 29 20 30 21 31 22 32 74 33 23 34
REMARK SMILES IDX 73 35 24 36 25 37 26 38 67 39 27 40 72 41 66 42 68 43 28 44
REMARK SMILES IDX 71 45 65 46 64 47 29 49 55 50 38 51 54 52 39 53 42 54 53 55
REMARK SMILES IDX 69 56 40 57 41 58 52 60 70 61 43 62 30 63 31 64 36 65 32 66
REMARK SMILES IDX 33 67 35 68 37 69 34 70 56 71 57 72 62 73 58 74 59 75 61 76
REMARK SMILES IDX 63 77 60 78 44 79 45 80 50 81 46 82 47 83 49 84 51 85 48 86
REMARK H PARENT 3 16 8 25 68 48 42 59
REMARK Flexibility Score: inf
ROOT
ATOM      1  O   UNL     1       7.564   5.951   1.430  1.00  0.00    -0.374 OA
ENDROOT
BRANCH   1   2
ATOM      2  C   UNL     1       8.814   5.411   1.865  1.00  0.00     0.202 C 
BRANCH   2   3
ATOM      3  C   UNL     1       8.734   4.072   2.598  1.00  0.00     0.261 C 
BRANCH   3   4
ATOM      4  O   UNL     1       8.331   3.044   1.682  1.00  0.00    -0.460 OA
BRANCH   4   5
ATOM      5  C   UNL     1       7.233   2.347   2.046  1.00  0.00     0.342 C 
ATOM      6  O   UNL     1       6.658   2.396   3.124  1.00  0.00    -0.246 OA
BRANCH   5   7
ATOM      7  C   UNL     1       6.643   1.656   0.883  1.00  0.00     0.103 A 
ATOM      8  C   UNL     1       4.578   0.965  -0.163  1.00  0.00     0.042 A 
ATOM      9  C   UNL     1       5.304   0.198  -1.079  1.00  0.00     0.030 A 
ATOM     10  C   UNL     1       5.247   1.742   0.774  1.00  0.00     0.045 A 
ATOM     11  C   UNL     1       6.700   0.178  -1.029  1.00  0.00     0.049 A 
ATOM     12  C   UNL     1       7.371   0.889  -0.033  1.00  0.00     0.130 A 
BRANCH   8  13
ATOM     13  N   UNL     1       3.180   0.915  -0.091  1.00  0.00    -0.322 N 
ATOM     14  O   UNL     1       1.176  -0.136  -0.308  1.00  0.00    -0.269 OA
ATOM     15  C   UNL     1       2.388  -0.214  -0.128  1.00  0.00     0.257 C 
ATOM     16  H   UNL     1       2.712   1.777  -0.004  1.00  0.00     0.170 HD
BRANCH  15  17
ATOM     17  C   UNL     1       2.988  -1.535   0.166  1.00  0.00     0.059 A 
ATOM     18  C   UNL     1       3.885  -1.704   1.220  1.00  0.00     0.124 A 
ATOM     19  C   UNL     1       2.629  -2.652  -0.585  1.00  0.00     0.032 A 
ATOM     20  N   UNL     1       4.496  -2.877   1.510  1.00  0.00    -0.263 NA
ATOM     21  C   UNL     1       3.235  -3.871  -0.296  1.00  0.00     0.037 A 
ATOM     22  C   UNL     1       4.160  -3.936   0.738  1.00  0.00     0.126 A 
ATOM     23  Br  UNL     1       2.812  -5.410  -1.299  1.00  0.00    -0.049 Br
ENDBRANCH  15  17
ENDBRANCH   8  13
BRANCH  12  24
ATOM     24  O   UNL     1       8.729   0.798   0.057  1.00  0.00    -0.507 OA
ATOM     25  H   UNL     1       9.206   0.282  -0.562  1.00  0.00     0.293 HD
ENDBRANCH  12  24
ENDBRANCH   5   7
ENDBRANCH   4   5
ENDBRANCH   3   4
ENDBRANCH   2   3
ENDBRANCH   1   2
BRANCH   1  26
ATOM     26  C   UNL     1       6.986   5.392   0.250  1.00  0.00     0.202 C 
BRANCH  26  27
ATOM     27  C   UNL     1       7.552   5.895  -1.083  1.00  0.00     0.261 C 
BRANCH  27  28
ATOM     28  O   UNL     1       8.916   5.483  -1.282  1.00  0.00    -0.460 OA
BRANCH  28  29
ATOM     29  C   UNL     1       9.829   6.476  -1.189  1.00  0.00     0.338 C 
ATOM     30  O   UNL     1       9.612   7.672  -1.042  1.00  0.00    -0.246 OA
BRANCH  29  31
ATOM     31  C   UNL     1      11.188   5.910  -1.118  1.00  0.00     0.060 A 
ATOM     32  C   UNL     1      12.011   6.334  -0.066  1.00  0.00     0.016 A 
ATOM     33  C   UNL     1      11.677   5.042  -2.096  1.00  0.00     0.016 A 
ATOM     34  C   UNL     1      13.342   5.930  -0.015  1.00  0.00     0.010 A 
ATOM     35  C   UNL     1      13.017   4.645  -2.049  1.00  0.00     0.010 A 
ATOM     36  C   UNL     1      13.864   5.115  -1.028  1.00  0.00    -0.014 A 
BRANCH  36  37
ATOM     37  C   UNL     1      15.326   4.875  -1.093  1.00  0.00     0.031 A 
ATOM     38  C   UNL     1      16.159   5.704  -2.031  1.00  0.00     0.074 A 
ATOM     39  C   UNL     1      15.908   3.953  -0.308  1.00  0.00     0.049 A 
ATOM     40  N   UNL     1      17.445   5.649  -2.268  1.00  0.00    -0.248 NA
ATOM     41  C   UNL     1      15.448   6.733  -2.807  1.00  0.00     0.031 C 
ATOM     42  C   UNL     1      15.215   3.115   0.669  1.00  0.00     0.029 A 
ATOM     43  N   UNL     1      17.221   3.566  -0.213  1.00  0.00    -0.354 N 
ATOM     44  C   UNL     1      17.695   6.625  -3.225  1.00  0.00     0.074 A 
ATOM     45  C   UNL     1      16.425   7.242  -3.543  1.00  0.00     0.031 C 
ATOM     46  C   UNL     1      16.110   2.307   1.263  1.00  0.00     0.029 A 
ATOM     47  C   UNL     1      17.431   2.550   0.686  1.00  0.00     0.049 A 
ATOM     48  H   UNL     1      17.943   3.977  -0.741  1.00  0.00     0.167 HD
ATOM     49  C   UNL     1      18.877   6.980  -3.782  1.00  0.00     0.037 A 
ATOM     50  C   UNL     1      18.560   1.884   0.995  1.00  0.00     0.037 A 
ATOM     51  C   UNL     1      20.141   6.375  -3.456  1.00  0.00     0.049 A 
ATOM     52  C   UNL     1      19.850   2.254   0.311  1.00  0.00     0.074 A 
ATOM     53  C   UNL     1      21.398   6.692  -3.941  1.00  0.00     0.029 A 
ATOM     54  N   UNL     1      20.308   5.326  -2.567  1.00  0.00    -0.354 N 
ATOM     55  N   UNL     1      20.080   3.200  -0.567  1.00  0.00    -0.248 NA
ATOM     56  C   UNL     1      21.038   1.461   0.663  1.00  0.00     0.031 C 
ATOM     57  C   UNL     1      22.320   5.803  -3.380  1.00  0.00     0.029 A 
ATOM     58  C   UNL     1      21.643   4.963  -2.511  1.00  0.00     0.049 A 
ATOM     59  H   UNL     1      19.584   4.901  -2.051  1.00  0.00     0.167 HD
ATOM     60  C   UNL     1      21.440   3.138  -0.847  1.00  0.00     0.074 A 
ATOM     61  C   UNL     1      21.985   2.066  -0.040  1.00  0.00     0.031 C 
ATOM     62  C   UNL     1      22.172   3.901  -1.694  1.00  0.00     0.037 A 
BRANCH  49  63
ATOM     63  C   UNL     1      18.856   8.059  -4.823  1.00  0.00     0.057 A 
ATOM     64  C   UNL     1      18.662   9.405  -4.490  1.00  0.00     0.134 A 
ATOM     65  C   UNL     1      19.076   7.750  -6.171  1.00  0.00     0.134 A 
ATOM     66  F   UNL     1      18.432   9.765  -3.218  1.00  0.00    -0.206 F 
ATOM     67  C   UNL     1      18.671  10.405  -5.465  1.00  0.00     0.040 A 
ATOM     68  C   UNL     1      19.110   8.743  -7.151  1.00  0.00     0.040 A 
ATOM     69  F   UNL     1      19.273   6.480  -6.555  1.00  0.00    -0.206 F 
ATOM     70  C   UNL     1      18.903  10.075  -6.799  1.00  0.00     0.006 A 
ENDBRANCH  49  63
BRANCH  50  71
ATOM     71  C   UNL     1      18.530   0.786   1.994  1.00  0.00     0.057 A 
ATOM     72  C   UNL     1      19.159   0.922   3.237  1.00  0.00     0.134 A 
ATOM     73  C   UNL     1      17.903  -0.434   1.718  1.00  0.00     0.134 A 
ATOM     74  F   UNL     1      19.798   2.059   3.549  1.00  0.00    -0.206 F 
ATOM     75  C   UNL     1      19.182  -0.122   4.163  1.00  0.00     0.040 A 
ATOM     76  C   UNL     1      17.898  -1.479   2.643  1.00  0.00     0.040 A 
ATOM     77  F   UNL     1      17.285  -0.628   0.543  1.00  0.00    -0.206 F 
ATOM     78  C   UNL     1      18.546  -1.327   3.867  1.00  0.00     0.006 A 
ENDBRANCH  50  71
BRANCH  62  79
ATOM     79  C   UNL     1      23.647   3.634  -1.763  1.00  0.00     0.057 A 
ATOM     80  C   UNL     1      24.165   2.502  -2.404  1.00  0.00     0.134 A 
ATOM     81  C   UNL     1      24.562   4.543  -1.216  1.00  0.00     0.134 A 
ATOM     82  F   UNL     1      23.341   1.587  -2.938  1.00  0.00    -0.206 F 
ATOM     83  C   UNL     1      25.540   2.273  -2.481  1.00  0.00     0.040 A 
ATOM     84  C   UNL     1      25.939   4.338  -1.308  1.00  0.00     0.040 A 
ATOM     85  F   UNL     1      24.132   5.652  -0.596  1.00  0.00    -0.206 F 
ATOM     86  C   UNL     1      26.431   3.197  -1.938  1.00  0.00     0.006 A 
ENDBRANCH  62  79
ENDBRANCH  36  37
ENDBRANCH  29  31
ENDBRANCH  28  29
ENDBRANCH  27  28
ENDBRANCH  26  27
ENDBRANCH   1  26
TORSDOF 17
