REMARK SMILES Cc1c(CC(=O)OCCOCCOC(=O)c2ccc(-c3c4nc(c(-c5c(F)cccc5F)c5ccc([nH]5)c(-c5c(F)cccc5F)c5nc(c(-c6c(F)cccc6F)c6ccc3[nH]6)C=C5)C=C4)cc2)cc(-c2ccccc2)cc1-c1ccccc1
REMARK SMILES IDX 10 1 9 2 8 3 7 4 5 5 6 6 4 7 3 8 1 9 2 10 79 11 70 12 78 13
REMARK SMILES IDX 71 14 80 15 81 16 85 17 82 18 84 19 83 20 72 21 73 22 77 23
REMARK SMILES IDX 74 24 76 25 75 26 11 27 12 28 13 29 14 30 15 31 16 32 17 33
REMARK SMILES IDX 69 34 18 35 68 36 19 37 20 38 21 39 62 40 22 41 67 42 61 43
REMARK SMILES IDX 63 44 23 45 66 46 60 47 59 48 24 50 50 51 33 52 49 53 34 54
REMARK SMILES IDX 37 55 48 56 64 57 35 58 36 59 47 61 65 62 38 63 25 64 26 65
REMARK SMILES IDX 31 66 27 67 28 68 30 69 32 70 29 71 51 72 52 73 57 74 53 75
REMARK SMILES IDX 54 76 56 77 58 78 55 79 39 80 40 81 45 82 41 83 42 84 44 85
REMARK SMILES IDX 46 86 43 87
REMARK H PARENT 63 49 37 60
REMARK Flexibility Score: inf
ROOT
ATOM      1  O   UNL     1      -2.002  -3.499   1.267  1.00  0.00    -0.374 OA
ENDROOT
BRANCH   1   2
ATOM      2  C   UNL     1      -1.524  -2.358   1.962  1.00  0.00     0.202 C 
BRANCH   2   3
ATOM      3  C   UNL     1      -0.060  -2.550   2.186  1.00  0.00     0.261 C 
BRANCH   3   4
ATOM      4  O   UNL     1       0.740  -2.085   1.105  1.00  0.00    -0.463 OA
BRANCH   4   5
ATOM      5  C   UNL     1       0.888  -2.929   0.034  1.00  0.00     0.310 C 
ATOM      6  O   UNL     1       0.935  -4.136   0.082  1.00  0.00    -0.252 OA
BRANCH   5   7
ATOM      7  C   UNL     1       0.959  -2.106  -1.243  1.00  0.00     0.158 C 
BRANCH   7   8
ATOM      8  C   UNL     1       0.303  -0.747  -1.040  1.00  0.00    -0.033 A 
ATOM      9  C   UNL     1       2.528   0.254  -0.351  1.00  0.00     0.045 C 
ATOM     10  C   UNL     1       1.034   0.374  -0.585  1.00  0.00    -0.039 A 
ATOM     11  C   UNL     1       0.341   1.573  -0.289  1.00  0.00    -0.015 A 
ATOM     12  C   UNL     1      -1.104  -0.694  -1.074  1.00  0.00     0.013 A 
ATOM     13  C   UNL     1      -1.071   1.559  -0.253  1.00  0.00     0.017 A 
ATOM     14  C   UNL     1      -1.806   0.429  -0.621  1.00  0.00    -0.017 A 
BRANCH  11  15
ATOM     15  C   UNL     1       1.042   2.858  -0.137  1.00  0.00    -0.018 A 
ATOM     16  C   UNL     1       0.870   3.692   0.975  1.00  0.00     0.009 A 
ATOM     17  C   UNL     1       1.875   3.300  -1.182  1.00  0.00     0.009 A 
ATOM     18  C   UNL     1       1.513   4.933   1.033  1.00  0.00     0.001 A 
ATOM     19  C   UNL     1       2.526   4.528  -1.119  1.00  0.00     0.001 A 
ATOM     20  C   UNL     1       2.338   5.348  -0.012  1.00  0.00     0.000 A 
ENDBRANCH  11  15
BRANCH  14  21
ATOM     21  C   UNL     1      -3.271   0.404  -0.540  1.00  0.00    -0.018 A 
ATOM     22  C   UNL     1      -3.938   0.121   0.664  1.00  0.00     0.009 A 
ATOM     23  C   UNL     1      -4.041   0.611  -1.690  1.00  0.00     0.009 A 
ATOM     24  C   UNL     1      -5.329  -0.016   0.702  1.00  0.00     0.001 A 
ATOM     25  C   UNL     1      -5.432   0.503  -1.648  1.00  0.00     0.001 A 
ATOM     26  C   UNL     1      -6.075   0.171  -0.457  1.00  0.00     0.000 A 
ENDBRANCH  14  21
ENDBRANCH   7   8
ENDBRANCH   5   7
ENDBRANCH   4   5
ENDBRANCH   3   4
ENDBRANCH   2   3
ENDBRANCH   1   2
BRANCH   1  27
ATOM     27  C   UNL     1      -3.396  -3.498   0.995  1.00  0.00     0.202 C 
BRANCH  27  28
ATOM     28  C   UNL     1      -4.304  -3.179   2.201  1.00  0.00     0.261 C 
BRANCH  28  29
ATOM     29  O   UNL     1      -4.171  -4.192   3.221  1.00  0.00    -0.460 OA
BRANCH  29  30
ATOM     30  C   UNL     1      -3.536  -3.821   4.369  1.00  0.00     0.338 C 
ATOM     31  O   UNL     1      -3.756  -2.803   5.006  1.00  0.00    -0.246 OA
BRANCH  30  32
ATOM     32  C   UNL     1      -2.308  -4.654   4.537  1.00  0.00     0.060 A 
ATOM     33  C   UNL     1      -1.319  -4.287   5.470  1.00  0.00     0.016 A 
ATOM     34  C   UNL     1      -1.991  -5.524   3.501  1.00  0.00     0.016 A 
ATOM     35  C   UNL     1       0.020  -4.657   5.261  1.00  0.00     0.010 A 
ATOM     36  C   UNL     1      -0.663  -5.738   3.219  1.00  0.00     0.010 A 
ATOM     37  C   UNL     1       0.360  -5.309   4.079  1.00  0.00    -0.014 A 
BRANCH  37  38
ATOM     38  C   UNL     1       1.716  -5.550   3.567  1.00  0.00     0.031 A 
ATOM     39  C   UNL     1       2.115  -6.963   3.360  1.00  0.00     0.074 A 
ATOM     40  C   UNL     1       2.513  -4.559   3.087  1.00  0.00     0.049 A 
ATOM     41  N   UNL     1       3.334  -7.376   3.367  1.00  0.00    -0.248 NA
ATOM     42  C   UNL     1       1.162  -8.055   3.167  1.00  0.00     0.031 C 
ATOM     43  C   UNL     1       3.689  -4.678   2.221  1.00  0.00     0.029 A 
ATOM     44  N   UNL     1       2.442  -3.174   3.297  1.00  0.00    -0.354 N 
ATOM     45  C   UNL     1       3.341  -8.656   2.855  1.00  0.00     0.074 A 
ATOM     46  C   UNL     1       1.966  -9.070   2.859  1.00  0.00     0.031 C 
ATOM     47  C   UNL     1       4.387  -3.525   2.254  1.00  0.00     0.029 A 
ATOM     48  C   UNL     1       3.741  -2.651   3.220  1.00  0.00     0.049 A 
ATOM     49  H   UNL     1       1.622  -2.658   3.469  1.00  0.00     0.167 HD
ATOM     50  C   UNL     1       4.499  -9.150   2.332  1.00  0.00     0.037 A 
ATOM     51  C   UNL     1       4.284  -1.980   4.270  1.00  0.00     0.037 A 
ATOM     52  C   UNL     1       5.559  -8.134   2.422  1.00  0.00     0.049 A 
ATOM     53  C   UNL     1       5.452  -2.775   4.763  1.00  0.00     0.074 A 
ATOM     54  C   UNL     1       6.074  -7.252   1.485  1.00  0.00     0.029 A 
ATOM     55  N   UNL     1       5.965  -7.657   3.669  1.00  0.00    -0.354 N 
ATOM     56  N   UNL     1       5.581  -4.043   4.485  1.00  0.00    -0.248 NA
ATOM     57  C   UNL     1       6.582  -2.247   5.517  1.00  0.00     0.031 C 
ATOM     58  C   UNL     1       6.733  -6.204   2.184  1.00  0.00     0.029 A 
ATOM     59  C   UNL     1       6.642  -6.455   3.545  1.00  0.00     0.049 A 
ATOM     60  H   UNL     1       5.793  -8.114   4.524  1.00  0.00     0.167 HD
ATOM     61  C   UNL     1       6.778  -4.489   4.931  1.00  0.00     0.074 A 
ATOM     62  C   UNL     1       7.361  -3.341   5.606  1.00  0.00     0.031 C 
ATOM     63  C   UNL     1       7.186  -5.768   4.713  1.00  0.00     0.037 A 
BRANCH  50  64
ATOM     64  C   UNL     1       4.593 -10.399   1.468  1.00  0.00     0.057 A 
ATOM     65  C   UNL     1       5.692 -10.589   0.607  1.00  0.00     0.134 A 
ATOM     66  C   UNL     1       3.647 -11.443   1.409  1.00  0.00     0.134 A 
ATOM     67  F   UNL     1       6.739  -9.753   0.608  1.00  0.00    -0.206 F 
ATOM     68  C   UNL     1       5.791 -11.661  -0.293  1.00  0.00     0.040 A 
ATOM     69  C   UNL     1       3.704 -12.491   0.476  1.00  0.00     0.040 A 
ATOM     70  F   UNL     1       2.659 -11.563   2.299  1.00  0.00    -0.206 F 
ATOM     71  C   UNL     1       4.779 -12.602  -0.386  1.00  0.00     0.006 A 
ENDBRANCH  50  64
BRANCH  51  72
ATOM     72  C   UNL     1       3.243  -1.244   5.051  1.00  0.00     0.057 A 
ATOM     73  C   UNL     1       2.590  -0.173   4.400  1.00  0.00     0.134 A 
ATOM     74  C   UNL     1       2.560  -1.832   6.121  1.00  0.00     0.134 A 
ATOM     75  F   UNL     1       3.180   0.440   3.361  1.00  0.00    -0.206 F 
ATOM     76  C   UNL     1       1.268   0.185   4.691  1.00  0.00     0.040 A 
ATOM     77  C   UNL     1       1.237  -1.472   6.427  1.00  0.00     0.040 A 
ATOM     78  F   UNL     1       3.101  -2.856   6.794  1.00  0.00    -0.206 F 
ATOM     79  C   UNL     1       0.571  -0.499   5.681  1.00  0.00     0.006 A 
ENDBRANCH  51  72
BRANCH  63  80
ATOM     80  C   UNL     1       8.214  -6.434   5.564  1.00  0.00     0.057 A 
ATOM     81  C   UNL     1       8.398  -6.112   6.918  1.00  0.00     0.134 A 
ATOM     82  C   UNL     1       8.928  -7.550   5.093  1.00  0.00     0.134 A 
ATOM     83  F   UNL     1       7.676  -5.154   7.518  1.00  0.00    -0.206 F 
ATOM     84  C   UNL     1       9.297  -6.801   7.729  1.00  0.00     0.040 A 
ATOM     85  C   UNL     1       9.782  -8.285   5.913  1.00  0.00     0.040 A 
ATOM     86  F   UNL     1       8.801  -7.990   3.833  1.00  0.00    -0.206 F 
ATOM     87  C   UNL     1       9.986  -7.898   7.230  1.00  0.00     0.006 A 
ENDBRANCH  63  80
ENDBRANCH  37  38
ENDBRANCH  30  32
ENDBRANCH  29  30
ENDBRANCH  28  29
ENDBRANCH  27  28
ENDBRANCH   1  27
TORSDOF 17
