REMARK SMILES O=C(OCCOCCOC(=O)[C@H]1CC=CC[C@H]1C(=O)Nc1ccc(S(=O)(=O)N2CCc3ccccc32)cc1)c1ccc(-c2c3nc(c(-c4c(F)cccc4F)c4ccc([nH]4)c(-c4c(F)cccc4F)c4nc(c(-c5c(F)cccc5F)c5ccc2[nH]5)C=C4)C=C3)cc1
REMARK SMILES IDX 7 1 6 2 5 3 4 4 3 5 2 6 1 7 39 8 40 9 92 10 41 11 91 12
REMARK SMILES IDX 42 13 43 14 44 15 85 16 45 17 90 18 84 19 86 20 46 21 89 22
REMARK SMILES IDX 83 23 82 24 47 26 73 27 56 28 72 29 57 30 60 31 71 32 87 33
REMARK SMILES IDX 58 34 59 35 70 37 88 38 61 39 48 40 49 41 54 42 50 43 51 44
REMARK SMILES IDX 53 45 55 46 52 47 74 48 75 49 80 50 76 51 77 52 79 53 81 54
REMARK SMILES IDX 78 55 62 56 63 57 68 58 64 59 65 60 67 61 69 62 66 63 8 64
REMARK SMILES IDX 9 65 10 66 11 67 12 68 13 69 17 70 14 71 16 72 15 73 18 74
REMARK SMILES IDX 19 75 20 76 21 78 22 79 38 80 23 81 37 82 24 83 25 84 26 85
REMARK SMILES IDX 27 86 28 87 29 88 36 89 30 90 31 91 35 92 32 93 34 94 33 95
REMARK H PARENT 86 25 60 36 20 77
REMARK Flexibility Score: inf
ROOT
ATOM      1  C   UNL     1       1.581  -1.704   0.827  1.00  0.00     0.202 C 
ENDROOT
BRANCH   1   2
ATOM      2  O   UNL     1       2.733  -0.862   0.717  1.00  0.00    -0.374 OA
BRANCH   2   3
ATOM      3  C   UNL     1       2.868   0.058   1.808  1.00  0.00     0.202 C 
BRANCH   3   4
ATOM      4  C   UNL     1       3.492   1.369   1.326  1.00  0.00     0.261 C 
BRANCH   4   5
ATOM      5  O   UNL     1       2.683   2.118   0.390  1.00  0.00    -0.460 OA
BRANCH   5   6
ATOM      6  C   UNL     1       1.951   1.448  -0.536  1.00  0.00     0.338 C 
ATOM      7  O   UNL     1       0.736   1.325  -0.474  1.00  0.00    -0.246 OA
BRANCH   6   8
ATOM      8  C   UNL     1       2.715   1.189  -1.783  1.00  0.00     0.060 A 
ATOM      9  C   UNL     1       3.943   0.522  -1.778  1.00  0.00     0.016 A 
ATOM     10  C   UNL     1       2.165   1.612  -2.998  1.00  0.00     0.016 A 
ATOM     11  C   UNL     1       4.651   0.337  -2.959  1.00  0.00     0.010 A 
ATOM     12  C   UNL     1       2.868   1.415  -4.190  1.00  0.00     0.010 A 
ATOM     13  C   UNL     1       4.128   0.799  -4.168  1.00  0.00    -0.014 A 
BRANCH  13  14
ATOM     14  C   UNL     1       4.966   0.729  -5.383  1.00  0.00     0.031 A 
ATOM     15  C   UNL     1       5.699   1.956  -5.827  1.00  0.00     0.074 A 
ATOM     16  C   UNL     1       5.136  -0.434  -6.033  1.00  0.00     0.049 A 
ATOM     17  N   UNL     1       6.452   2.134  -6.880  1.00  0.00    -0.248 NA
ATOM     18  C   UNL     1       5.579   3.139  -4.959  1.00  0.00     0.031 C 
ATOM     19  C   UNL     1       4.554  -1.712  -5.634  1.00  0.00     0.029 A 
ATOM     20  N   UNL     1       5.858  -0.728  -7.161  1.00  0.00    -0.354 N 
ATOM     21  C   UNL     1       6.883   3.450  -6.813  1.00  0.00     0.074 A 
ATOM     22  C   UNL     1       6.303   4.029  -5.619  1.00  0.00     0.031 C 
ATOM     23  C   UNL     1       4.942  -2.653  -6.510  1.00  0.00     0.029 A 
ATOM     24  C   UNL     1       5.761  -2.042  -7.544  1.00  0.00     0.049 A 
ATOM     25  H   UNL     1       6.394  -0.061  -7.648  1.00  0.00     0.167 HD
ATOM     26  C   UNL     1       7.684   4.115  -7.677  1.00  0.00     0.037 A 
ATOM     27  C   UNL     1       6.254  -2.682  -8.620  1.00  0.00     0.037 A 
ATOM     28  C   UNL     1       8.238   3.537  -8.871  1.00  0.00     0.049 A 
ATOM     29  C   UNL     1       7.063  -1.901  -9.611  1.00  0.00     0.074 A 
ATOM     30  C   UNL     1       9.021   4.137  -9.840  1.00  0.00     0.029 A 
ATOM     31  N   UNL     1       8.059   2.217  -9.261  1.00  0.00    -0.354 N 
ATOM     32  N   UNL     1       7.421  -0.641  -9.571  1.00  0.00    -0.248 NA
ATOM     33  C   UNL     1       7.523  -2.625 -10.803  1.00  0.00     0.031 C 
ATOM     34  C   UNL     1       9.283   3.191 -10.838  1.00  0.00     0.029 A 
ATOM     35  C   UNL     1       8.701   1.989 -10.467  1.00  0.00     0.049 A 
ATOM     36  H   UNL     1       7.551   1.542  -8.755  1.00  0.00     0.167 HD
ATOM     37  C   UNL     1       8.154  -0.420 -10.726  1.00  0.00     0.074 A 
ATOM     38  C   UNL     1       8.207  -1.683 -11.437  1.00  0.00     0.031 C 
ATOM     39  C   UNL     1       8.729   0.727 -11.162  1.00  0.00     0.037 A 
BRANCH  26  40
ATOM     40  C   UNL     1       7.939   5.560  -7.378  1.00  0.00     0.057 A 
ATOM     41  C   UNL     1       8.782   5.966  -6.336  1.00  0.00     0.134 A 
ATOM     42  C   UNL     1       7.301   6.559  -8.123  1.00  0.00     0.134 A 
ATOM     43  F   UNL     1       9.399   5.057  -5.567  1.00  0.00    -0.206 F 
ATOM     44  C   UNL     1       8.960   7.316  -6.029  1.00  0.00     0.040 A 
ATOM     45  C   UNL     1       7.488   7.912  -7.840  1.00  0.00     0.040 A 
ATOM     46  F   UNL     1       6.475   6.235  -9.130  1.00  0.00    -0.206 F 
ATOM     47  C   UNL     1       8.314   8.293  -6.784  1.00  0.00     0.006 A 
ENDBRANCH  26  40
BRANCH  27  48
ATOM     48  C   UNL     1       5.961  -4.119  -8.845  1.00  0.00     0.057 A 
ATOM     49  C   UNL     1       6.953  -5.095  -8.708  1.00  0.00     0.134 A 
ATOM     50  C   UNL     1       4.687  -4.545  -9.238  1.00  0.00     0.134 A 
ATOM     51  F   UNL     1       8.202  -4.745  -8.367  1.00  0.00    -0.206 F 
ATOM     52  C   UNL     1       6.692  -6.443  -8.964  1.00  0.00     0.040 A 
ATOM     53  C   UNL     1       4.409  -5.891  -9.488  1.00  0.00     0.040 A 
ATOM     54  F   UNL     1       3.691  -3.659  -9.385  1.00  0.00    -0.206 F 
ATOM     55  C   UNL     1       5.415  -6.844  -9.352  1.00  0.00     0.006 A 
ENDBRANCH  27  48
BRANCH  39  56
ATOM     56  C   UNL     1       9.472   0.656 -12.460  1.00  0.00     0.057 A 
ATOM     57  C   UNL     1       8.803   0.572 -13.687  1.00  0.00     0.134 A 
ATOM     58  C   UNL     1      10.871   0.694 -12.482  1.00  0.00     0.134 A 
ATOM     59  F   UNL     1       7.463   0.513 -13.729  1.00  0.00    -0.206 F 
ATOM     60  C   UNL     1       9.502   0.508 -14.893  1.00  0.00     0.040 A 
ATOM     61  C   UNL     1      11.580   0.654 -13.682  1.00  0.00     0.040 A 
ATOM     62  F   UNL     1      11.568   0.776 -11.338  1.00  0.00    -0.206 F 
ATOM     63  C   UNL     1      10.895   0.556 -14.891  1.00  0.00     0.006 A 
ENDBRANCH  39  56
ENDBRANCH  13  14
ENDBRANCH   6   8
ENDBRANCH   5   6
ENDBRANCH   4   5
ENDBRANCH   3   4
ENDBRANCH   2   3
ENDBRANCH   1   2
BRANCH   1  64
ATOM     64  C   UNL     1       1.863  -3.004   1.587  1.00  0.00     0.261 C 
BRANCH  64  65
ATOM     65  O   UNL     1       2.853  -2.788   2.612  1.00  0.00    -0.463 OA
BRANCH  65  66
ATOM     66  C   UNL     1       3.891  -3.676   2.648  1.00  0.00     0.310 C 
ATOM     67  O   UNL     1       3.897  -4.743   2.048  1.00  0.00    -0.252 OA
BRANCH  66  68
ATOM     68  C   UNL     1       5.024  -3.141   3.515  1.00  0.00     0.116 C 
ATOM     69  C   UNL     1       5.314  -4.258   4.542  1.00  0.00     0.043 C 
ATOM     70  C   UNL     1       6.345  -2.693   2.821  1.00  0.00     0.097 C 
ATOM     71  C   UNL     1       6.229  -5.328   4.017  1.00  0.00    -0.030 C 
ATOM     72  C   UNL     1       7.242  -3.825   2.289  1.00  0.00     0.041 C 
ATOM     73  C   UNL     1       7.082  -5.131   3.003  1.00  0.00    -0.030 C 
BRANCH  70  74
ATOM     74  C   UNL     1       6.375  -1.363   2.010  1.00  0.00     0.228 C 
ATOM     75  O   UNL     1       6.227  -0.285   2.598  1.00  0.00    -0.274 OA
ATOM     76  N   UNL     1       6.707  -1.333   0.670  1.00  0.00    -0.326 N 
ATOM     77  H   UNL     1       7.313  -0.612   0.382  1.00  0.00     0.169 HD
BRANCH  76  78
ATOM     78  C   UNL     1       6.270  -2.221  -0.323  1.00  0.00     0.041 A 
ATOM     79  C   UNL     1       6.941  -2.412  -1.526  1.00  0.00     0.027 A 
ATOM     80  C   UNL     1       5.087  -2.899  -0.112  1.00  0.00     0.027 A 
ATOM     81  C   UNL     1       6.489  -3.408  -2.412  1.00  0.00     0.024 A 
ATOM     82  C   UNL     1       4.659  -3.920  -0.932  1.00  0.00     0.024 A 
ATOM     83  C   UNL     1       5.380  -4.200  -2.072  1.00  0.00     0.088 A 
BRANCH  83  84
ATOM     84  S   UNL     1       4.812  -5.504  -3.126  1.00  0.00     0.264 S 
ATOM     85  O   UNL     1       5.188  -5.095  -4.471  1.00  0.00    -0.201 OA
ATOM     86  O   UNL     1       5.282  -6.747  -2.569  1.00  0.00    -0.201 OA
BRANCH  84  87
ATOM     87  N   UNL     1       3.052  -5.410  -2.942  1.00  0.00    -0.266 N 
ATOM     88  C   UNL     1       2.527  -6.399  -1.907  1.00  0.00     0.140 C 
ATOM     89  C   UNL     1       2.418  -5.802  -4.160  1.00  0.00     0.055 A 
ATOM     90  C   UNL     1       1.934  -7.592  -2.689  1.00  0.00     0.060 C 
ATOM     91  C   UNL     1       1.995  -7.119  -4.102  1.00  0.00    -0.022 A 
ATOM     92  C   UNL     1       2.415  -5.070  -5.328  1.00  0.00     0.027 A 
ATOM     93  C   UNL     1       1.760  -7.811  -5.275  1.00  0.00     0.006 A 
ATOM     94  C   UNL     1       2.158  -5.747  -6.512  1.00  0.00     0.002 A 
ATOM     95  C   UNL     1       1.887  -7.123  -6.489  1.00  0.00     0.000 A 
ENDBRANCH  84  87
ENDBRANCH  83  84
ENDBRANCH  76  78
ENDBRANCH  70  74
ENDBRANCH  66  68
ENDBRANCH  65  66
ENDBRANCH  64  65
ENDBRANCH   1  64
TORSDOF 18
