REMARK SMILES Nc1c(Cl)ccc2c1C=C(C(=O)OCCOCCOC(=O)c1ccc(-c3c4nc(c(-c5c(F)cccc5F)c5ccc([nH]5)c(-c5c(F)cccc5F)c5nc(c(-c6c(F)cccc6F)c6ccc3[nH]6)C=C5)C=C4)cc1)[C@@H](C(F)(F)F)O2
REMARK SMILES IDX 17 1 16 2 15 3 14 4 13 5 11 6 12 7 10 8 2 9 3 10 8 11 4 12
REMARK SMILES IDX 5 13 7 14 9 15 6 16 81 17 76 18 1 19 77 22 78 23 79 24 80 25
REMARK SMILES IDX 18 26 19 27 20 28 21 29 22 30 23 31 75 32 24 33 74 34 25 35
REMARK SMILES IDX 26 36 27 37 68 38 28 39 73 40 67 41 69 42 29 43 72 44 66 45
REMARK SMILES IDX 65 46 30 48 56 49 39 50 55 51 40 52 43 53 54 54 70 55 41 56
REMARK SMILES IDX 42 57 53 59 71 60 44 61 31 62 32 63 37 64 33 65 34 66 36 67
REMARK SMILES IDX 38 68 35 69 57 70 58 71 63 72 59 73 60 74 62 75 64 76 61 77
REMARK SMILES IDX 45 78 46 79 51 80 47 81 48 82 50 83 52 84 49 85
REMARK H PARENT 1 20 1 21 69 47 43 58
REMARK Flexibility Score: inf
ROOT
ATOM      1  C   UNL     1      -3.272   0.054   3.472  1.00  0.00     0.202 C 
ENDROOT
BRANCH   1   2
ATOM      2  O   UNL     1      -2.941   0.309   4.840  1.00  0.00    -0.374 OA
BRANCH   2   3
ATOM      3  C   UNL     1      -3.449   1.502   5.432  1.00  0.00     0.202 C 
BRANCH   3   4
ATOM      4  C   UNL     1      -2.684   2.792   5.125  1.00  0.00     0.261 C 
BRANCH   4   5
ATOM      5  O   UNL     1      -2.576   3.021   3.711  1.00  0.00    -0.460 OA
BRANCH   5   6
ATOM      6  C   UNL     1      -1.315   2.940   3.225  1.00  0.00     0.338 C 
ATOM      7  O   UNL     1      -0.285   2.839   3.874  1.00  0.00    -0.246 OA
BRANCH   6   8
ATOM      8  C   UNL     1      -1.351   2.863   1.753  1.00  0.00     0.088 C 
ATOM      9  C   UNL     1       0.476   1.021  -0.902  1.00  0.00     0.061 A 
ATOM     10  C   UNL     1       0.638   1.155  -2.297  1.00  0.00     0.064 A 
ATOM     11  C   UNL     1      -0.427   1.895  -0.251  1.00  0.00     0.042 A 
ATOM     12  Cl  UNL     1       1.798   0.188  -3.148  1.00  0.00    -0.082 Cl
ATOM     13  C   UNL     1      -0.134   2.051  -3.037  1.00  0.00     0.026 A 
ATOM     14  C   UNL     1      -1.224   2.769  -1.006  1.00  0.00     0.130 A 
ATOM     15  C   UNL     1      -0.523   1.966   1.203  1.00  0.00     0.029 C 
ATOM     16  C   UNL     1      -1.083   2.840  -2.392  1.00  0.00     0.049 A 
ATOM     17  O   UNL     1      -2.179   3.593  -0.476  1.00  0.00    -0.475 OA
ATOM     18  C   UNL     1      -2.250   3.768   0.965  1.00  0.00     0.316 C 
BRANCH   9  19
ATOM     19  N   UNL     1       1.289   0.133  -0.185  1.00  0.00    -0.397 N 
ATOM     20  H   UNL     1       1.908  -0.464  -0.665  1.00  0.00     0.156 HD
ATOM     21  H   UNL     1       1.240   0.105   0.798  1.00  0.00     0.156 HD
ENDBRANCH   9  19
BRANCH  18  22
ATOM     22  C   UNL     1      -2.015   5.253   1.282  1.00  0.00     0.430 C 
ATOM     23  F   UNL     1      -2.811   6.047   0.524  1.00  0.00    -0.167 F 
ATOM     24  F   UNL     1      -2.303   5.542   2.573  1.00  0.00    -0.167 F 
ATOM     25  F   UNL     1      -0.736   5.626   1.057  1.00  0.00    -0.167 F 
ENDBRANCH  18  22
ENDBRANCH   6   8
ENDBRANCH   5   6
ENDBRANCH   4   5
ENDBRANCH   3   4
ENDBRANCH   2   3
ENDBRANCH   1   2
BRANCH   1  26
ATOM     26  C   UNL     1      -4.727  -0.322   3.171  1.00  0.00     0.261 C 
BRANCH  26  27
ATOM     27  O   UNL     1      -5.606   0.815   3.285  1.00  0.00    -0.460 OA
BRANCH  27  28
ATOM     28  C   UNL     1      -6.584   0.692   4.213  1.00  0.00     0.338 C 
ATOM     29  O   UNL     1      -6.835  -0.280   4.909  1.00  0.00    -0.246 OA
BRANCH  28  30
ATOM     30  C   UNL     1      -7.242   1.992   4.413  1.00  0.00     0.060 A 
ATOM     31  C   UNL     1      -7.116   2.609   5.664  1.00  0.00     0.016 A 
ATOM     32  C   UNL     1      -8.066   2.537   3.427  1.00  0.00     0.016 A 
ATOM     33  C   UNL     1      -7.847   3.760   5.949  1.00  0.00     0.010 A 
ATOM     34  C   UNL     1      -8.814   3.680   3.721  1.00  0.00     0.010 A 
ATOM     35  C   UNL     1      -8.733   4.274   4.994  1.00  0.00    -0.014 A 
BRANCH  35  36
ATOM     36  C   UNL     1      -9.698   5.325   5.389  1.00  0.00     0.031 A 
ATOM     37  C   UNL     1     -11.063   4.911   5.864  1.00  0.00     0.074 A 
ATOM     38  C   UNL     1      -9.357   6.623   5.349  1.00  0.00     0.049 A 
ATOM     39  N   UNL     1     -12.071   5.654   6.245  1.00  0.00    -0.248 NA
ATOM     40  C   UNL     1     -11.326   3.464   5.917  1.00  0.00     0.031 C 
ATOM     41  C   UNL     1      -8.052   7.143   4.947  1.00  0.00     0.029 A 
ATOM     42  N   UNL     1     -10.091   7.742   5.647  1.00  0.00    -0.354 N 
ATOM     43  C   UNL     1     -13.081   4.766   6.593  1.00  0.00     0.074 A 
ATOM     44  C   UNL     1     -12.579   3.432   6.344  1.00  0.00     0.031 C 
ATOM     45  C   UNL     1      -8.082   8.486   5.008  1.00  0.00     0.029 A 
ATOM     46  C   UNL     1      -9.414   8.916   5.430  1.00  0.00     0.049 A 
ATOM     47  H   UNL     1     -11.015   7.707   5.985  1.00  0.00     0.167 HD
ATOM     48  C   UNL     1     -14.314   5.038   7.084  1.00  0.00     0.037 A 
ATOM     49  C   UNL     1      -9.834  10.190   5.541  1.00  0.00     0.037 A 
ATOM     50  C   UNL     1     -14.822   6.365   7.307  1.00  0.00     0.049 A 
ATOM     51  C   UNL     1     -11.244  10.467   5.991  1.00  0.00     0.074 A 
ATOM     52  C   UNL     1     -16.053   6.748   7.809  1.00  0.00     0.029 A 
ATOM     53  N   UNL     1     -14.125   7.531   7.026  1.00  0.00    -0.354 N 
ATOM     54  N   UNL     1     -12.182   9.622   6.349  1.00  0.00    -0.248 NA
ATOM     55  C   UNL     1     -11.653  11.878   6.052  1.00  0.00     0.031 C 
ATOM     56  C   UNL     1     -16.119   8.146   7.787  1.00  0.00     0.029 A 
ATOM     57  C   UNL     1     -14.911   8.634   7.315  1.00  0.00     0.049 A 
ATOM     58  H   UNL     1     -13.207   7.569   6.673  1.00  0.00     0.167 HD
ATOM     59  C   UNL     1     -13.279  10.398   6.701  1.00  0.00     0.074 A 
ATOM     60  C   UNL     1     -12.886  11.781   6.527  1.00  0.00     0.031 C 
ATOM     61  C   UNL     1     -14.503  10.004   7.132  1.00  0.00     0.037 A 
BRANCH  48  62
ATOM     62  C   UNL     1     -15.202   3.868   7.384  1.00  0.00     0.057 A 
ATOM     63  C   UNL     1     -16.308   3.582   6.573  1.00  0.00     0.134 A 
ATOM     64  C   UNL     1     -14.967   3.025   8.478  1.00  0.00     0.134 A 
ATOM     65  F   UNL     1     -16.590   4.350   5.510  1.00  0.00    -0.206 F 
ATOM     66  C   UNL     1     -17.146   2.498   6.839  1.00  0.00     0.040 A 
ATOM     67  C   UNL     1     -15.785   1.924   8.741  1.00  0.00     0.040 A 
ATOM     68  F   UNL     1     -13.914   3.234   9.283  1.00  0.00    -0.206 F 
ATOM     69  C   UNL     1     -16.881   1.661   7.921  1.00  0.00     0.006 A 
ENDBRANCH  48  62
BRANCH  49  70
ATOM     70  C   UNL     1      -8.921  11.310   5.205  1.00  0.00     0.057 A 
ATOM     71  C   UNL     1      -8.547  11.572   3.881  1.00  0.00     0.134 A 
ATOM     72  C   UNL     1      -8.435  12.171   6.196  1.00  0.00     0.134 A 
ATOM     73  F   UNL     1      -8.982  10.785   2.886  1.00  0.00    -0.206 F 
ATOM     74  C   UNL     1      -7.720  12.647   3.555  1.00  0.00     0.040 A 
ATOM     75  C   UNL     1      -7.626  13.264   5.882  1.00  0.00     0.040 A 
ATOM     76  F   UNL     1      -8.781  11.986   7.478  1.00  0.00    -0.206 F 
ATOM     77  C   UNL     1      -7.264  13.502   4.557  1.00  0.00     0.006 A 
ENDBRANCH  49  70
BRANCH  61  78
ATOM     78  C   UNL     1     -15.489  11.084   7.468  1.00  0.00     0.057 A 
ATOM     79  C   UNL     1     -15.832  11.349   8.800  1.00  0.00     0.134 A 
ATOM     80  C   UNL     1     -16.110  11.852   6.474  1.00  0.00     0.134 A 
ATOM     81  F   UNL     1     -15.280  10.644   9.799  1.00  0.00    -0.206 F 
ATOM     82  C   UNL     1     -16.757  12.339   9.132  1.00  0.00     0.040 A 
ATOM     83  C   UNL     1     -17.017  12.864   6.796  1.00  0.00     0.040 A 
ATOM     84  F   UNL     1     -15.812  11.659   5.181  1.00  0.00    -0.206 F 
ATOM     85  C   UNL     1     -17.346  13.106   8.128  1.00  0.00     0.006 A 
ENDBRANCH  61  78
ENDBRANCH  35  36
ENDBRANCH  28  30
ENDBRANCH  27  28
ENDBRANCH  26  27
ENDBRANCH   1  26
TORSDOF 16
