REMARK SMILES O=C(OCCOCCOC(=O)[C@@H]1[C@@H](C(=O)Nc2cccc([N+](=O)[O-])c2)[C@@H]2C=C[C@H]1O2)c1ccc(-c2c3nc(c(-c4c(F)cccc4F)c4ccc([nH]4)c(-c4c(F)cccc4F)c4nc(c(-c5c(F)cccc5F)c5ccc2[nH]5)C=C4)C=C3)cc1
REMARK SMILES IDX 7 1 6 2 5 3 4 4 3 5 2 6 1 7 31 8 32 9 84 10 33 11 83 12
REMARK SMILES IDX 34 13 35 14 36 15 77 16 37 17 82 18 76 19 78 20 38 21 81 22
REMARK SMILES IDX 75 23 74 24 39 26 65 27 48 28 64 29 49 30 52 31 63 32 79 33
REMARK SMILES IDX 50 34 51 35 62 37 80 38 53 39 40 40 41 41 46 42 42 43 43 44
REMARK SMILES IDX 45 45 47 46 44 47 66 48 67 49 72 50 68 51 69 52 71 53 73 54
REMARK SMILES IDX 70 55 54 56 55 57 60 58 56 59 57 60 59 61 61 62 58 63 8 64
REMARK SMILES IDX 9 65 10 66 11 67 12 68 13 69 29 70 26 71 28 72 30 73 27 74
REMARK SMILES IDX 14 75 15 76 16 77 17 79 18 80 25 81 19 82 21 83 20 84 22 85
REMARK SMILES IDX 23 86 24 87
REMARK H PARENT 78 25 52 36 16 78
REMARK Flexibility Score: inf
ROOT
ATOM      1  C   UNL     1       3.398   2.076  -1.295  1.00  0.00     0.202 C 
ENDROOT
BRANCH   1   2
ATOM      2  O   UNL     1       4.625   1.450  -0.900  1.00  0.00    -0.374 OA
BRANCH   2   3
ATOM      3  C   UNL     1       4.706   0.039  -1.109  1.00  0.00     0.202 C 
BRANCH   3   4
ATOM      4  C   UNL     1       3.923  -0.924  -0.193  1.00  0.00     0.261 C 
BRANCH   4   5
ATOM      5  O   UNL     1       2.517  -0.595  -0.107  1.00  0.00    -0.460 OA
BRANCH   5   6
ATOM      6  C   UNL     1       1.852  -0.483   1.082  1.00  0.00     0.338 C 
ATOM      7  O   UNL     1       0.703  -0.888   1.200  1.00  0.00    -0.246 OA
BRANCH   6   8
ATOM      8  C   UNL     1       2.539   0.194   2.219  1.00  0.00     0.060 A 
ATOM      9  C   UNL     1       3.653   0.983   1.991  1.00  0.00     0.016 A 
ATOM     10  C   UNL     1       2.092   0.066   3.536  1.00  0.00     0.016 A 
ATOM     11  C   UNL     1       4.445   1.464   2.999  1.00  0.00     0.010 A 
ATOM     12  C   UNL     1       2.814   0.671   4.581  1.00  0.00     0.010 A 
ATOM     13  C   UNL     1       4.017   1.343   4.309  1.00  0.00    -0.014 A 
BRANCH  13  14
ATOM     14  C   UNL     1       4.952   1.860   5.322  1.00  0.00     0.031 A 
ATOM     15  C   UNL     1       5.711   0.878   6.154  1.00  0.00     0.074 A 
ATOM     16  C   UNL     1       5.293   3.165   5.287  1.00  0.00     0.049 A 
ATOM     17  N   UNL     1       6.585   1.099   7.097  1.00  0.00    -0.248 NA
ATOM     18  C   UNL     1       5.473  -0.548   5.872  1.00  0.00     0.031 C 
ATOM     19  C   UNL     1       4.742   4.157   4.352  1.00  0.00     0.029 A 
ATOM     20  N   UNL     1       6.237   3.865   5.985  1.00  0.00    -0.354 N 
ATOM     21  C   UNL     1       6.951  -0.155   7.565  1.00  0.00     0.074 A 
ATOM     22  C   UNL     1       6.232  -1.135   6.784  1.00  0.00     0.031 C 
ATOM     23  C   UNL     1       5.413   5.310   4.487  1.00  0.00     0.029 A 
ATOM     24  C   UNL     1       6.353   5.176   5.590  1.00  0.00     0.049 A 
ATOM     25  H   UNL     1       6.782   3.467   6.702  1.00  0.00     0.167 HD
ATOM     26  C   UNL     1       7.795  -0.445   8.579  1.00  0.00     0.037 A 
ATOM     27  C   UNL     1       7.108   6.166   6.100  1.00  0.00     0.037 A 
ATOM     28  C   UNL     1       8.509   0.561   9.315  1.00  0.00     0.049 A 
ATOM     29  C   UNL     1       7.961   5.836   7.290  1.00  0.00     0.074 A 
ATOM     30  C   UNL     1       9.309   0.422  10.432  1.00  0.00     0.029 A 
ATOM     31  N   UNL     1       8.511   1.911   8.982  1.00  0.00    -0.354 N 
ATOM     32  N   UNL     1       8.188   4.667   7.842  1.00  0.00    -0.248 NA
ATOM     33  C   UNL     1       8.625   6.960   7.958  1.00  0.00     0.031 C 
ATOM     34  C   UNL     1       9.767   1.695  10.795  1.00  0.00     0.029 A 
ATOM     35  C   UNL     1       9.287   2.620   9.879  1.00  0.00     0.049 A 
ATOM     36  H   UNL     1       8.030   2.304   8.218  1.00  0.00     0.167 HD
ATOM     37  C   UNL     1       9.024   4.910   8.920  1.00  0.00     0.074 A 
ATOM     38  C   UNL     1       9.284   6.339   8.926  1.00  0.00     0.031 C 
ATOM     39  C   UNL     1       9.523   4.042   9.834  1.00  0.00     0.037 A 
BRANCH  26  40
ATOM     40  C   UNL     1       7.873  -1.882   8.996  1.00  0.00     0.057 A 
ATOM     41  C   UNL     1       8.543  -2.852   8.241  1.00  0.00     0.134 A 
ATOM     42  C   UNL     1       7.187  -2.312  10.139  1.00  0.00     0.134 A 
ATOM     43  F   UNL     1       9.185  -2.513   7.113  1.00  0.00    -0.206 F 
ATOM     44  C   UNL     1       8.502  -4.204   8.593  1.00  0.00     0.040 A 
ATOM     45  C   UNL     1       7.156  -3.656  10.512  1.00  0.00     0.040 A 
ATOM     46  F   UNL     1       6.512  -1.435  10.898  1.00  0.00    -0.206 F 
ATOM     47  C   UNL     1       7.807  -4.609   9.731  1.00  0.00     0.006 A 
ENDBRANCH  26  40
BRANCH  27  48
ATOM     48  C   UNL     1       7.024   7.546   5.554  1.00  0.00     0.057 A 
ATOM     49  C   UNL     1       8.131   8.170   4.968  1.00  0.00     0.134 A 
ATOM     50  C   UNL     1       5.833   8.285   5.615  1.00  0.00     0.134 A 
ATOM     51  F   UNL     1       9.307   7.531   4.897  1.00  0.00    -0.206 F 
ATOM     52  C   UNL     1       8.060   9.476   4.473  1.00  0.00     0.040 A 
ATOM     53  C   UNL     1       5.739   9.578   5.098  1.00  0.00     0.040 A 
ATOM     54  F   UNL     1       4.732   7.752   6.168  1.00  0.00    -0.206 F 
ATOM     55  C   UNL     1       6.859  10.180   4.531  1.00  0.00     0.006 A 
ENDBRANCH  27  48
BRANCH  39  56
ATOM     56  C   UNL     1      10.417   4.622  10.883  1.00  0.00     0.057 A 
ATOM     57  C   UNL     1       9.906   5.359  11.957  1.00  0.00     0.134 A 
ATOM     58  C   UNL     1      11.799   4.408  10.831  1.00  0.00     0.134 A 
ATOM     59  F   UNL     1       8.591   5.608  12.047  1.00  0.00    -0.206 F 
ATOM     60  C   UNL     1      10.746   5.881  12.939  1.00  0.00     0.040 A 
ATOM     61  C   UNL     1      12.645   4.906  11.819  1.00  0.00     0.040 A 
ATOM     62  F   UNL     1      12.342   3.704   9.827  1.00  0.00    -0.206 F 
ATOM     63  C   UNL     1      12.119   5.649  12.875  1.00  0.00     0.006 A 
ENDBRANCH  39  56
ENDBRANCH  13  14
ENDBRANCH   6   8
ENDBRANCH   5   6
ENDBRANCH   4   5
ENDBRANCH   3   4
ENDBRANCH   2   3
ENDBRANCH   1   2
BRANCH   1  64
ATOM     64  C   UNL     1       3.622   3.048  -2.448  1.00  0.00     0.261 C 
BRANCH  64  65
ATOM     65  O   UNL     1       3.839   2.274  -3.640  1.00  0.00    -0.463 OA
BRANCH  65  66
ATOM     66  C   UNL     1       5.136   2.062  -3.983  1.00  0.00     0.312 C 
ATOM     67  O   UNL     1       6.093   2.661  -3.517  1.00  0.00    -0.252 OA
BRANCH  66  68
ATOM     68  C   UNL     1       5.223   1.005  -5.052  1.00  0.00     0.147 C 
ATOM     69  C   UNL     1       4.316  -0.243  -4.835  1.00  0.00     0.129 C 
ATOM     70  C   UNL     1       6.625   0.374  -5.049  1.00  0.00     0.157 C 
ATOM     71  C   UNL     1       5.362  -1.387  -4.891  1.00  0.00     0.155 C 
ATOM     72  C   UNL     1       6.977  -0.287  -3.742  1.00  0.00     0.004 C 
ATOM     73  O   UNL     1       6.337  -0.828  -5.813  1.00  0.00    -0.365 OA
ATOM     74  C   UNL     1       6.215  -1.385  -3.657  1.00  0.00     0.004 C 
BRANCH  69  75
ATOM     75  C   UNL     1       3.304  -0.501  -5.937  1.00  0.00     0.231 C 
ATOM     76  O   UNL     1       3.585  -0.368  -7.127  1.00  0.00    -0.274 OA
ATOM     77  N   UNL     1       2.116  -1.111  -5.604  1.00  0.00    -0.325 N 
ATOM     78  H   UNL     1       1.818  -1.796  -6.246  1.00  0.00     0.169 HD
BRANCH  77  79
ATOM     79  C   UNL     1       1.251  -0.926  -4.508  1.00  0.00     0.048 A 
ATOM     80  C   UNL     1       0.354  -1.958  -4.198  1.00  0.00     0.026 A 
ATOM     81  C   UNL     1       1.142   0.284  -3.824  1.00  0.00     0.111 A 
ATOM     82  C   UNL     1      -0.591  -1.816  -3.173  1.00  0.00     0.009 A 
ATOM     83  C   UNL     1       0.166   0.430  -2.820  1.00  0.00     0.271 A 
ATOM     84  C   UNL     1      -0.686  -0.619  -2.470  1.00  0.00     0.086 A 
BRANCH  83  85
ATOM     85  N   UNL     1       0.001   1.722  -2.160  1.00  0.00     0.062 N 
ATOM     86  O   UNL     1      -0.312   1.726  -0.963  1.00  0.00    -0.258 OA
ATOM     87  O   UNL     1       0.219   2.736  -2.837  1.00  0.00    -0.258 OA
ENDBRANCH  83  85
ENDBRANCH  77  79
ENDBRANCH  69  75
ENDBRANCH  66  68
ENDBRANCH  65  66
ENDBRANCH  64  65
ENDBRANCH   1  64
TORSDOF 17
