REMARK SMILES O=C(OCCOCCOC(=O)c1ccc(N2C(=O)[C@@H]3N=NC(c4ccccc4)=C3[C@H]2c2cccc(Br)c2)cc1)c1ccc(-c2c3nc(c(-c4c(F)cccc4F)c4ccc([nH]4)c(-c4c(F)cccc4F)c4nc(c(-c5c(F)cccc5F)c5ccc2[nH]5)C=C4)C=C3)cc1
REMARK SMILES IDX 6 1 5 2 4 3 3 4 2 5 1 6 40 7 41 8 93 9 42 10 92 11 43 12
REMARK SMILES IDX 44 13 45 14 86 15 46 16 91 17 85 18 87 19 47 20 90 21 84 22
REMARK SMILES IDX 83 23 48 25 74 26 57 27 73 28 58 29 61 30 72 31 88 32 59 33
REMARK SMILES IDX 60 34 71 36 89 37 62 38 49 39 50 40 55 41 51 42 52 43 54 44
REMARK SMILES IDX 56 45 53 46 75 47 76 48 81 49 77 50 78 51 80 52 82 53 79 54
REMARK SMILES IDX 63 55 64 56 69 57 65 58 66 59 68 60 70 61 67 62 7 63 8 64
REMARK SMILES IDX 9 65 10 66 11 67 12 68 13 69 39 70 14 71 38 72 15 73 16 74
REMARK SMILES IDX 17 75 30 76 19 77 18 78 29 79 20 80 22 81 21 82 31 83 32 84
REMARK SMILES IDX 37 85 33 86 35 87 34 88 36 89 23 90 24 91 28 92 25 93 27 94
REMARK SMILES IDX 26 95
REMARK H PARENT 87 24 61 35
REMARK Flexibility Score: inf
ROOT
ATOM      1  O   UNL     1       4.309  -0.541  -1.336  1.00  0.00    -0.374 OA
ENDROOT
BRANCH   1   2
ATOM      2  C   UNL     1       4.871  -0.952  -0.095  1.00  0.00     0.202 C 
BRANCH   2   3
ATOM      3  C   UNL     1       4.565  -0.107   1.141  1.00  0.00     0.261 C 
BRANCH   3   4
ATOM      4  O   UNL     1       3.186  -0.158   1.546  1.00  0.00    -0.460 OA
BRANCH   4   5
ATOM      5  C   UNL     1       2.128   0.283   0.834  1.00  0.00     0.338 C 
ATOM      6  O   UNL     1       1.084  -0.367   0.821  1.00  0.00    -0.246 OA
BRANCH   5   7
ATOM      7  C   UNL     1       2.120   1.662   0.284  1.00  0.00     0.060 A 
ATOM      8  C   UNL     1       3.247   2.443   0.033  1.00  0.00     0.016 A 
ATOM      9  C   UNL     1       0.847   2.236   0.140  1.00  0.00     0.016 A 
ATOM     10  C   UNL     1       3.126   3.816  -0.037  1.00  0.00     0.010 A 
ATOM     11  C   UNL     1       0.711   3.601  -0.007  1.00  0.00     0.010 A 
ATOM     12  C   UNL     1       1.856   4.385   0.025  1.00  0.00    -0.014 A 
BRANCH  12  13
ATOM     13  C   UNL     1       1.762   5.830   0.005  1.00  0.00     0.031 A 
ATOM     14  C   UNL     1       2.264   6.432  -1.254  1.00  0.00     0.074 A 
ATOM     15  C   UNL     1       1.181   6.516   1.008  1.00  0.00     0.049 A 
ATOM     16  N   UNL     1       3.292   7.198  -1.411  1.00  0.00    -0.248 NA
ATOM     17  C   UNL     1       1.658   5.976  -2.517  1.00  0.00     0.031 C 
ATOM     18  C   UNL     1       0.450   5.987   2.163  1.00  0.00     0.029 A 
ATOM     19  N   UNL     1       1.036   7.860   1.149  1.00  0.00    -0.354 N 
ATOM     20  C   UNL     1       3.331   7.498  -2.769  1.00  0.00     0.074 A 
ATOM     21  C   UNL     1       2.433   6.580  -3.418  1.00  0.00     0.031 C 
ATOM     22  C   UNL     1      -0.260   6.984   2.739  1.00  0.00     0.029 A 
ATOM     23  C   UNL     1       0.075   8.235   2.084  1.00  0.00     0.049 A 
ATOM     24  H   UNL     1       1.564   8.512   0.635  1.00  0.00     0.167 HD
ATOM     25  C   UNL     1       3.897   8.652  -3.214  1.00  0.00     0.037 A 
ATOM     26  C   UNL     1      -0.449   9.480   2.222  1.00  0.00     0.037 A 
ATOM     27  C   UNL     1       4.773   9.219  -2.222  1.00  0.00     0.049 A 
ATOM     28  C   UNL     1       0.489  10.428   1.565  1.00  0.00     0.074 A 
ATOM     29  C   UNL     1       5.925   8.796  -1.588  1.00  0.00     0.029 A 
ATOM     30  N   UNL     1       4.284  10.254  -1.464  1.00  0.00    -0.354 N 
ATOM     31  N   UNL     1       1.682  10.694   2.022  1.00  0.00    -0.248 NA
ATOM     32  C   UNL     1       0.290  10.696   0.148  1.00  0.00     0.031 C 
ATOM     33  C   UNL     1       5.801   9.265  -0.248  1.00  0.00     0.029 A 
ATOM     34  C   UNL     1       4.623  10.008  -0.159  1.00  0.00     0.049 A 
ATOM     35  H   UNL     1       3.780  11.032  -1.797  1.00  0.00     0.167 HD
ATOM     36  C   UNL     1       2.490  10.735   0.895  1.00  0.00     0.074 A 
ATOM     37  C   UNL     1       1.565  10.799  -0.236  1.00  0.00     0.031 C 
ATOM     38  C   UNL     1       3.815  10.414   0.966  1.00  0.00     0.037 A 
BRANCH  25  39
ATOM     39  C   UNL     1       3.344   9.470  -4.354  1.00  0.00     0.057 A 
ATOM     40  C   UNL     1       4.070  10.584  -4.810  1.00  0.00     0.134 A 
ATOM     41  C   UNL     1       2.008   9.401  -4.802  1.00  0.00     0.134 A 
ATOM     42  F   UNL     1       5.348  10.770  -4.444  1.00  0.00    -0.206 F 
ATOM     43  C   UNL     1       3.485  11.595  -5.581  1.00  0.00     0.040 A 
ATOM     44  C   UNL     1       1.430  10.378  -5.614  1.00  0.00     0.040 A 
ATOM     45  F   UNL     1       1.159   8.449  -4.398  1.00  0.00    -0.206 F 
ATOM     46  C   UNL     1       2.157  11.499  -5.977  1.00  0.00     0.006 A 
ENDBRANCH  25  39
BRANCH  26  47
ATOM     47  C   UNL     1      -1.844   9.852   2.554  1.00  0.00     0.057 A 
ATOM     48  C   UNL     1      -2.177  11.162   2.929  1.00  0.00     0.134 A 
ATOM     49  C   UNL     1      -2.926   9.009   2.243  1.00  0.00     0.134 A 
ATOM     50  F   UNL     1      -1.215  12.056   3.202  1.00  0.00    -0.206 F 
ATOM     51  C   UNL     1      -3.504  11.614   2.969  1.00  0.00     0.040 A 
ATOM     52  C   UNL     1      -4.255   9.445   2.285  1.00  0.00     0.040 A 
ATOM     53  F   UNL     1      -2.727   7.761   1.797  1.00  0.00    -0.206 F 
ATOM     54  C   UNL     1      -4.548  10.756   2.636  1.00  0.00     0.006 A 
ENDBRANCH  26  47
BRANCH  38  55
ATOM     55  C   UNL     1       4.426  10.244   2.329  1.00  0.00     0.057 A 
ATOM     56  C   UNL     1       4.057   9.243   3.241  1.00  0.00     0.134 A 
ATOM     57  C   UNL     1       5.539  11.023   2.663  1.00  0.00     0.134 A 
ATOM     58  F   UNL     1       3.070   8.382   2.964  1.00  0.00    -0.206 F 
ATOM     59  C   UNL     1       4.740   9.055   4.447  1.00  0.00     0.040 A 
ATOM     60  C   UNL     1       6.251  10.824   3.847  1.00  0.00     0.040 A 
ATOM     61  F   UNL     1       5.985  11.961   1.812  1.00  0.00    -0.206 F 
ATOM     62  C   UNL     1       5.846   9.844   4.749  1.00  0.00     0.006 A 
ENDBRANCH  38  55
ENDBRANCH  12  13
ENDBRANCH   5   7
ENDBRANCH   4   5
ENDBRANCH   3   4
ENDBRANCH   2   3
ENDBRANCH   1   2
BRANCH   1  63
ATOM     63  C   UNL     1       3.109  -1.191  -1.770  1.00  0.00     0.202 C 
BRANCH  63  64
ATOM     64  C   UNL     1       3.119  -2.689  -2.125  1.00  0.00     0.261 C 
BRANCH  64  65
ATOM     65  O   UNL     1       3.437  -3.561  -1.022  1.00  0.00    -0.460 OA
BRANCH  65  66
ATOM     66  C   UNL     1       4.708  -4.041  -1.041  1.00  0.00     0.338 C 
ATOM     67  O   UNL     1       5.556  -3.817  -1.881  1.00  0.00    -0.246 OA
BRANCH  66  68
ATOM     68  C   UNL     1       5.037  -4.737   0.225  1.00  0.00     0.060 A 
ATOM     69  C   UNL     1       6.155  -4.276   0.926  1.00  0.00     0.018 A 
ATOM     70  C   UNL     1       4.360  -5.880   0.660  1.00  0.00     0.018 A 
ATOM     71  C   UNL     1       6.621  -4.980   2.034  1.00  0.00     0.027 A 
ATOM     72  C   UNL     1       4.863  -6.616   1.751  1.00  0.00     0.027 A 
ATOM     73  C   UNL     1       6.008  -6.181   2.426  1.00  0.00     0.045 A 
BRANCH  73  74
ATOM     74  N   UNL     1       6.589  -6.942   3.486  1.00  0.00    -0.299 N 
ATOM     75  C   UNL     1       6.936  -6.212   4.672  1.00  0.00     0.259 C 
ATOM     76  C   UNL     1       7.649  -7.933   3.159  1.00  0.00     0.152 C 
ATOM     77  C   UNL     1       8.238  -6.757   5.183  1.00  0.00     0.248 C 
ATOM     78  O   UNL     1       6.318  -5.272   5.155  1.00  0.00    -0.271 OA
ATOM     79  C   UNL     1       8.752  -7.272   3.892  1.00  0.00     0.021 C 
ATOM     80  N   UNL     1       9.256  -5.765   5.547  1.00  0.00    -0.170 NA
ATOM     81  C   UNL     1       9.969  -6.759   3.738  1.00  0.00     0.097 C 
ATOM     82  N   UNL     1      10.259  -5.903   4.787  1.00  0.00    -0.154 NA
BRANCH  76  83
ATOM     83  C   UNL     1       7.399  -9.350   3.717  1.00  0.00    -0.020 A 
ATOM     84  C   UNL     1       8.330  -9.969   4.591  1.00  0.00     0.006 A 
ATOM     85  C   UNL     1       6.280 -10.110   3.344  1.00  0.00     0.022 A 
ATOM     86  C   UNL     1       8.134 -11.246   5.115  1.00  0.00     0.002 A 
ATOM     87  C   UNL     1       6.104 -11.410   3.847  1.00  0.00     0.018 A 
ATOM     88  C   UNL     1       7.016 -11.974   4.739  1.00  0.00     0.016 A 
ATOM     89  Br  UNL     1       4.619 -12.446   3.297  1.00  0.00    -0.051 Br
ENDBRANCH  76  83
BRANCH  81  90
ATOM     90  C   UNL     1      10.908  -6.786   2.615  1.00  0.00     0.002 A 
ATOM     91  C   UNL     1      11.864  -7.804   2.505  1.00  0.00     0.010 A 
ATOM     92  C   UNL     1      11.047  -5.629   1.836  1.00  0.00     0.010 A 
ATOM     93  C   UNL     1      12.998  -7.614   1.705  1.00  0.00     0.001 A 
ATOM     94  C   UNL     1      12.179  -5.442   1.042  1.00  0.00     0.001 A 
ATOM     95  C   UNL     1      13.168  -6.421   1.001  1.00  0.00     0.000 A 
ENDBRANCH  81  90
ENDBRANCH  73  74
ENDBRANCH  66  68
ENDBRANCH  65  66
ENDBRANCH  64  65
ENDBRANCH  63  64
ENDBRANCH   1  63
TORSDOF 17
