REMARK SMILES Cc1ccc2nc(C(=O)OCCOCCOC(=O)c3ccc(-c4c5nc(c(-c6c(F)cccc6F)c6ccc([nH]6)c(-c6c(F)cccc6F)c6nc(c(-c7c(F)cccc7F)c7ccc4[nH]7)C=C6)C=C5)cc3)cc(N3CCOCC3)c2c1
REMARK SMILES IDX 14 1 13 2 12 3 11 4 10 5 8 6 9 7 7 8 1 9 2 10 3 11 82 12
REMARK SMILES IDX 4 13 81 14 5 15 74 16 6 17 73 18 75 19 76 20 80 21 77 22
REMARK SMILES IDX 79 23 78 24 15 25 16 26 17 27 18 28 19 29 20 30 72 31 21 32
REMARK SMILES IDX 71 33 22 34 23 35 24 36 65 37 25 38 70 39 64 40 66 41 26 42
REMARK SMILES IDX 69 43 63 44 62 45 27 47 53 48 36 49 52 50 37 51 40 52 51 53
REMARK SMILES IDX 67 54 38 55 39 56 50 58 68 59 41 60 28 61 29 62 34 63 30 64
REMARK SMILES IDX 31 65 33 66 35 67 32 68 54 69 55 70 60 71 56 72 57 73 59 74
REMARK SMILES IDX 61 75 58 76 42 77 43 78 48 79 44 80 45 81 47 82 49 83 46 84
REMARK H PARENT 66 46 40 57
REMARK Flexibility Score: inf
ROOT
ATOM      1  C   UNL     1      -4.681   2.049   1.736  1.00  0.00     0.202 C 
ENDROOT
BRANCH   1   2
ATOM      2  O   UNL     1      -5.814   2.530   1.010  1.00  0.00    -0.374 OA
BRANCH   2   3
ATOM      3  C   UNL     1      -6.649   1.559   0.382  1.00  0.00     0.202 C 
BRANCH   3   4
ATOM      4  C   UNL     1      -6.142   0.996  -0.948  1.00  0.00     0.261 C 
BRANCH   4   5
ATOM      5  O   UNL     1      -4.927   0.248  -0.760  1.00  0.00    -0.459 OA
BRANCH   5   6
ATOM      6  C   UNL     1      -3.845   0.768  -1.399  1.00  0.00     0.357 C 
ATOM      7  O   UNL     1      -3.866   1.649  -2.245  1.00  0.00    -0.244 OA
BRANCH   6   8
ATOM      8  C   UNL     1      -2.585   0.195  -0.843  1.00  0.00     0.151 A 
ATOM      9  C   UNL     1       3.728  -0.568   0.091  1.00  0.00     0.044 C 
ATOM     10  C   UNL     1       2.300  -0.123   0.003  1.00  0.00    -0.050 A 
ATOM     11  C   UNL     1       1.967   1.223  -0.095  1.00  0.00     0.005 A 
ATOM     12  C   UNL     1       1.270  -1.072  -0.030  1.00  0.00     0.016 A 
ATOM     13  C   UNL     1       0.637   1.594  -0.287  1.00  0.00     0.029 A 
ATOM     14  C   UNL     1      -0.093  -0.710  -0.172  1.00  0.00     0.024 A 
ATOM     15  C   UNL     1      -0.380   0.656  -0.372  1.00  0.00     0.073 A 
ATOM     16  C   UNL     1      -1.180  -1.641  -0.197  1.00  0.00     0.049 A 
ATOM     17  N   UNL     1      -1.593   1.101  -0.691  1.00  0.00    -0.241 NA
ATOM     18  C   UNL     1      -2.443  -1.156  -0.563  1.00  0.00     0.062 A 
BRANCH  16  19
ATOM     19  N   UNL     1      -0.985  -2.989   0.084  1.00  0.00    -0.366 N 
ATOM     20  C   UNL     1      -0.423  -3.401   1.388  1.00  0.00     0.145 C 
ATOM     21  C   UNL     1      -1.773  -4.050  -0.562  1.00  0.00     0.145 C 
ATOM     22  C   UNL     1       0.403  -4.684   1.189  1.00  0.00     0.181 C 
ATOM     23  C   UNL     1      -0.908  -5.319  -0.671  1.00  0.00     0.181 C 
ATOM     24  O   UNL     1      -0.394  -5.731   0.608  1.00  0.00    -0.378 OA
ENDBRANCH  16  19
ENDBRANCH   6   8
ENDBRANCH   5   6
ENDBRANCH   4   5
ENDBRANCH   3   4
ENDBRANCH   2   3
ENDBRANCH   1   2
BRANCH   1  25
ATOM     25  C   UNL     1      -4.968   1.503   3.140  1.00  0.00     0.261 C 
BRANCH  25  26
ATOM     26  O   UNL     1      -5.752   0.295   3.097  1.00  0.00    -0.460 OA
BRANCH  26  27
ATOM     27  C   UNL     1      -7.014   0.417   3.569  1.00  0.00     0.338 C 
ATOM     28  O   UNL     1      -7.517   1.396   4.107  1.00  0.00    -0.246 OA
BRANCH  27  29
ATOM     29  C   UNL     1      -7.810  -0.766   3.193  1.00  0.00     0.060 A 
ATOM     30  C   UNL     1      -9.028  -0.545   2.537  1.00  0.00     0.016 A 
ATOM     31  C   UNL     1      -7.410  -2.061   3.530  1.00  0.00     0.016 A 
ATOM     32  C   UNL     1      -9.875  -1.615   2.258  1.00  0.00     0.010 A 
ATOM     33  C   UNL     1      -8.267  -3.133   3.258  1.00  0.00     0.010 A 
ATOM     34  C   UNL     1      -9.516  -2.911   2.651  1.00  0.00    -0.014 A 
BRANCH  34  35
ATOM     35  C   UNL     1     -10.510  -4.007   2.554  1.00  0.00     0.031 A 
ATOM     36  C   UNL     1     -11.288  -4.399   3.780  1.00  0.00     0.074 A 
ATOM     37  C   UNL     1     -10.739  -4.628   1.384  1.00  0.00     0.049 A 
ATOM     38  N   UNL     1     -12.185  -5.341   3.928  1.00  0.00    -0.248 NA
ATOM     39  C   UNL     1     -11.016  -3.627   5.002  1.00  0.00     0.031 C 
ATOM     40  C   UNL     1     -10.078  -4.315   0.119  1.00  0.00     0.029 A 
ATOM     41  N   UNL     1     -11.591  -5.658   1.076  1.00  0.00    -0.354 N 
ATOM     42  C   UNL     1     -12.582  -5.277   5.258  1.00  0.00     0.074 A 
ATOM     43  C   UNL     1     -11.806  -4.226   5.881  1.00  0.00     0.031 C 
ATOM     44  C   UNL     1     -10.544  -5.144  -0.831  1.00  0.00     0.029 A 
ATOM     45  C   UNL     1     -11.513  -6.061  -0.234  1.00  0.00     0.049 A 
ATOM     46  H   UNL     1     -12.199  -6.070   1.731  1.00  0.00     0.167 HD
ATOM     47  C   UNL     1     -13.514  -6.020   5.900  1.00  0.00     0.037 A 
ATOM     48  C   UNL     1     -12.141  -7.067  -0.873  1.00  0.00     0.037 A 
ATOM     49  C   UNL     1     -14.286  -7.065   5.282  1.00  0.00     0.049 A 
ATOM     50  C   UNL     1     -13.122  -7.926  -0.121  1.00  0.00     0.074 A 
ATOM     51  C   UNL     1     -15.272  -7.858   5.843  1.00  0.00     0.029 A 
ATOM     52  N   UNL     1     -14.152  -7.468   3.962  1.00  0.00    -0.354 N 
ATOM     53  N   UNL     1     -13.509  -7.841   1.129  1.00  0.00    -0.248 NA
ATOM     54  C   UNL     1     -13.754  -9.023  -0.870  1.00  0.00     0.031 C 
ATOM     55  C   UNL     1     -15.702  -8.772   4.875  1.00  0.00     0.029 A 
ATOM     56  C   UNL     1     -15.018  -8.517   3.698  1.00  0.00     0.049 A 
ATOM     57  H   UNL     1     -13.534  -7.068   3.308  1.00  0.00     0.167 HD
ATOM     58  C   UNL     1     -14.446  -8.851   1.309  1.00  0.00     0.074 A 
ATOM     59  C   UNL     1     -14.576  -9.531   0.037  1.00  0.00     0.031 C 
ATOM     60  C   UNL     1     -15.138  -9.184   2.426  1.00  0.00     0.037 A 
BRANCH  47  61
ATOM     61  C   UNL     1     -13.730  -5.741   7.358  1.00  0.00     0.057 A 
ATOM     62  C   UNL     1     -14.377  -4.580   7.802  1.00  0.00     0.134 A 
ATOM     63  C   UNL     1     -13.302  -6.654   8.330  1.00  0.00     0.134 A 
ATOM     64  F   UNL     1     -14.797  -3.658   6.923  1.00  0.00    -0.206 F 
ATOM     65  C   UNL     1     -14.567  -4.326   9.162  1.00  0.00     0.040 A 
ATOM     66  C   UNL     1     -13.509  -6.423   9.690  1.00  0.00     0.040 A 
ATOM     67  F   UNL     1     -12.680  -7.788   7.972  1.00  0.00    -0.206 F 
ATOM     68  C   UNL     1     -14.138  -5.252  10.110  1.00  0.00     0.006 A 
ENDBRANCH  47  61
BRANCH  48  69
ATOM     69  C   UNL     1     -11.856  -7.325  -2.306  1.00  0.00     0.057 A 
ATOM     70  C   UNL     1     -12.813  -7.064  -3.293  1.00  0.00     0.134 A 
ATOM     71  C   UNL     1     -10.626  -7.850  -2.721  1.00  0.00     0.134 A 
ATOM     72  F   UNL     1     -14.018  -6.584  -2.954  1.00  0.00    -0.206 F 
ATOM     73  C   UNL     1     -12.562  -7.326  -4.641  1.00  0.00     0.040 A 
ATOM     74  C   UNL     1     -10.354  -8.096  -4.067  1.00  0.00     0.040 A 
ATOM     75  F   UNL     1      -9.668  -8.121  -1.822  1.00  0.00    -0.206 F 
ATOM     76  C   UNL     1     -11.326  -7.839  -5.031  1.00  0.00     0.006 A 
ENDBRANCH  48  69
BRANCH  60  77
ATOM     77  C   UNL     1     -16.119 -10.314   2.317  1.00  0.00     0.057 A 
ATOM     78  C   UNL     1     -15.704 -11.648   2.226  1.00  0.00     0.134 A 
ATOM     79  C   UNL     1     -17.498 -10.066   2.344  1.00  0.00     0.134 A 
ATOM     80  F   UNL     1     -14.398 -11.951   2.183  1.00  0.00    -0.206 F 
ATOM     81  C   UNL     1     -16.624 -12.694   2.146  1.00  0.00     0.040 A 
ATOM     82  C   UNL     1     -18.428 -11.105   2.289  1.00  0.00     0.040 A 
ATOM     83  F   UNL     1     -17.963  -8.811   2.438  1.00  0.00    -0.206 F 
ATOM     84  C   UNL     1     -17.991 -12.424   2.184  1.00  0.00     0.006 A 
ENDBRANCH  60  77
ENDBRANCH  34  35
ENDBRANCH  27  29
ENDBRANCH  26  27
ENDBRANCH  25  26
ENDBRANCH   1  25
TORSDOF 15
