REMARK SMILES CC(C)[C@H]1CC[C@@H](C)C/C1=C(\F)C(=O)OCCOCCOC(=O)c1ccc(-c2c3nc(c(-c4c(F)cccc4F)c4ccc([nH]4)c(-c4c(F)cccc4F)c4nc(c(-c5c(F)cccc5F)c5ccc2[nH]5)C=C4)C=C3)cc1
REMARK SMILES IDX 19 1 18 2 17 3 16 4 15 5 13 6 14 7 11 8 4 9 5 10 10 11 6 12
REMARK SMILES IDX 9 13 7 14 12 15 8 16 2 17 1 18 3 19 20 20 21 21 22 22 23 23
REMARK SMILES IDX 24 24 25 25 77 26 26 27 76 28 27 29 28 30 29 31 70 32 30 33
REMARK SMILES IDX 75 34 69 35 71 36 31 37 74 38 68 39 67 40 32 42 58 43 41 44
REMARK SMILES IDX 57 45 42 46 45 47 56 48 72 49 43 50 44 51 55 53 73 54 46 55
REMARK SMILES IDX 33 56 34 57 39 58 35 59 36 60 38 61 40 62 37 63 59 64 60 65
REMARK SMILES IDX 65 66 61 67 62 68 64 69 66 70 63 71 47 72 48 73 53 74 49 75
REMARK SMILES IDX 50 76 52 77 54 78 51 79
REMARK H PARENT 71 41 45 52
REMARK Flexibility Score: inf
ROOT
ATOM      1  C   UNL     1      -4.331  -2.356   1.504  1.00  0.00     0.202 C 
ENDROOT
BRANCH   1   2
ATOM      2  O   UNL     1      -3.978  -3.183   2.612  1.00  0.00    -0.374 OA
BRANCH   2   3
ATOM      3  C   UNL     1      -4.204  -2.710   3.934  1.00  0.00     0.202 C 
BRANCH   3   4
ATOM      4  C   UNL     1      -3.405  -1.505   4.451  1.00  0.00     0.261 C 
BRANCH   4   5
ATOM      5  O   UNL     1      -3.159  -0.526   3.439  1.00  0.00    -0.458 OA
BRANCH   5   6
ATOM      6  C   UNL     1      -1.847  -0.318   3.155  1.00  0.00     0.367 C 
ATOM      7  O   UNL     1      -0.895  -0.686   3.822  1.00  0.00    -0.243 OA
BRANCH   6   8
ATOM      8  C   UNL     1      -1.737   0.448   1.894  1.00  0.00     0.207 C 
ATOM      9  C   UNL     1      -0.707  -1.300   0.196  1.00  0.00     0.021 C 
ATOM     10  C   UNL     1      -1.399  -1.641  -1.151  1.00  0.00     0.009 C 
ATOM     11  C   UNL     1      -1.237   0.072   0.694  1.00  0.00    -0.023 C 
ATOM     12  C   UNL     1      -1.242  -0.543  -2.202  1.00  0.00     0.004 C 
ATOM     13  C   UNL     1      -1.125   1.163  -0.370  1.00  0.00     0.038 C 
ATOM     14  C   UNL     1      -1.763   0.808  -1.718  1.00  0.00    -0.010 C 
ATOM     15  F   UNL     1      -2.226   1.704   2.039  1.00  0.00    -0.199 F 
ATOM     16  C   UNL     1      -3.292   0.844  -1.672  1.00  0.00     0.008 C 
BRANCH   9  17
ATOM     17  C   UNL     1      -0.731  -2.516   1.184  1.00  0.00    -0.010 C 
ATOM     18  C   UNL     1      -0.885  -3.905   0.542  1.00  0.00     0.008 C 
ATOM     19  C   UNL     1       0.546  -2.548   2.036  1.00  0.00     0.008 C 
ENDBRANCH   9  17
ENDBRANCH   6   8
ENDBRANCH   5   6
ENDBRANCH   4   5
ENDBRANCH   3   4
ENDBRANCH   2   3
ENDBRANCH   1   2
BRANCH   1  20
ATOM     20  C   UNL     1      -5.800  -2.013   1.250  1.00  0.00     0.261 C 
BRANCH  20  21
ATOM     21  O   UNL     1      -6.428  -1.347   2.352  1.00  0.00    -0.460 OA
BRANCH  21  22
ATOM     22  C   UNL     1      -7.371  -2.087   2.981  1.00  0.00     0.338 C 
ATOM     23  O   UNL     1      -7.750  -3.212   2.694  1.00  0.00    -0.246 OA
BRANCH  22  24
ATOM     24  C   UNL     1      -7.777  -1.413   4.222  1.00  0.00     0.060 A 
ATOM     25  C   UNL     1      -7.687  -2.145   5.413  1.00  0.00     0.016 A 
ATOM     26  C   UNL     1      -8.312  -0.124   4.209  1.00  0.00     0.016 A 
ATOM     27  C   UNL     1      -8.184  -1.609   6.593  1.00  0.00     0.010 A 
ATOM     28  C   UNL     1      -8.822   0.409   5.394  1.00  0.00     0.010 A 
ATOM     29  C   UNL     1      -8.796  -0.349   6.578  1.00  0.00    -0.014 A 
BRANCH  29  30
ATOM     30  C   UNL     1      -9.552   0.090   7.770  1.00  0.00     0.031 A 
ATOM     31  C   UNL     1     -11.044  -0.085   7.784  1.00  0.00     0.074 A 
ATOM     32  C   UNL     1      -8.905   0.584   8.839  1.00  0.00     0.049 A 
ATOM     33  N   UNL     1     -11.905   0.216   8.721  1.00  0.00    -0.248 NA
ATOM     34  C   UNL     1     -11.646  -0.679   6.580  1.00  0.00     0.031 C 
ATOM     35  C   UNL     1      -7.458   0.762   8.942  1.00  0.00     0.029 A 
ATOM     36  N   UNL     1      -9.388   1.025  10.043  1.00  0.00    -0.354 N 
ATOM     37  C   UNL     1     -13.148  -0.148   8.219  1.00  0.00     0.074 A 
ATOM     38  C   UNL     1     -12.936  -0.659   6.883  1.00  0.00     0.031 C 
ATOM     39  C   UNL     1      -7.168   1.282  10.147  1.00  0.00     0.029 A 
ATOM     40  C   UNL     1      -8.411   1.497  10.884  1.00  0.00     0.049 A 
ATOM     41  H   UNL     1     -10.343   1.006  10.282  1.00  0.00     0.167 HD
ATOM     42  C   UNL     1     -14.357  -0.070   8.824  1.00  0.00     0.037 A 
ATOM     43  C   UNL     1      -8.518   2.055  12.105  1.00  0.00     0.037 A 
ATOM     44  C   UNL     1     -14.556   0.440  10.155  1.00  0.00     0.049 A 
ATOM     45  C   UNL     1      -9.880   2.183  12.732  1.00  0.00     0.074 A 
ATOM     46  C   UNL     1     -15.735   0.547  10.871  1.00  0.00     0.029 A 
ATOM     47  N   UNL     1     -13.547   0.939  10.966  1.00  0.00    -0.354 N 
ATOM     48  N   UNL     1     -11.047   1.810  12.263  1.00  0.00    -0.248 NA
ATOM     49  C   UNL     1      -9.939   2.803  14.062  1.00  0.00     0.031 C 
ATOM     50  C   UNL     1     -15.447   1.158  12.096  1.00  0.00     0.029 A 
ATOM     51  C   UNL     1     -14.080   1.379  12.166  1.00  0.00     0.049 A 
ATOM     52  H   UNL     1     -12.593   0.974  10.725  1.00  0.00     0.167 HD
ATOM     53  C   UNL     1     -11.973   2.123  13.250  1.00  0.00     0.074 A 
ATOM     54  C   UNL     1     -11.228   2.701  14.350  1.00  0.00     0.031 C 
ATOM     55  C   UNL     1     -13.318   1.949  13.249  1.00  0.00     0.037 A 
BRANCH  42  56
ATOM     56  C   UNL     1     -15.555  -0.523   8.042  1.00  0.00     0.057 A 
ATOM     57  C   UNL     1     -15.788  -1.875   7.754  1.00  0.00     0.134 A 
ATOM     58  C   UNL     1     -16.504   0.404   7.594  1.00  0.00     0.134 A 
ATOM     59  F   UNL     1     -14.910  -2.813   8.139  1.00  0.00    -0.206 F 
ATOM     60  C   UNL     1     -16.911  -2.284   7.032  1.00  0.00     0.040 A 
ATOM     61  C   UNL     1     -17.644   0.004   6.895  1.00  0.00     0.040 A 
ATOM     62  F   UNL     1     -16.344   1.714   7.836  1.00  0.00    -0.206 F 
ATOM     63  C   UNL     1     -17.847  -1.344   6.607  1.00  0.00     0.006 A 
ENDBRANCH  42  56
BRANCH  43  64
ATOM     64  C   UNL     1      -7.304   2.541  12.809  1.00  0.00     0.057 A 
ATOM     65  C   UNL     1      -6.840   1.921  13.974  1.00  0.00     0.134 A 
ATOM     66  C   UNL     1      -6.590   3.652  12.342  1.00  0.00     0.134 A 
ATOM     67  F   UNL     1      -7.493   0.865  14.482  1.00  0.00    -0.206 F 
ATOM     68  C   UNL     1      -5.723   2.398  14.662  1.00  0.00     0.040 A 
ATOM     69  C   UNL     1      -5.455   4.123  13.004  1.00  0.00     0.040 A 
ATOM     70  F   UNL     1      -6.981   4.290  11.229  1.00  0.00    -0.206 F 
ATOM     71  C   UNL     1      -5.024   3.501  14.173  1.00  0.00     0.006 A 
ENDBRANCH  43  64
BRANCH  55  72
ATOM     72  C   UNL     1     -14.061   2.357  14.489  1.00  0.00     0.057 A 
ATOM     73  C   UNL     1     -14.232   3.702  14.842  1.00  0.00     0.134 A 
ATOM     74  C   UNL     1     -14.636   1.391  15.324  1.00  0.00     0.134 A 
ATOM     75  F   UNL     1     -13.697   4.676  14.091  1.00  0.00    -0.206 F 
ATOM     76  C   UNL     1     -14.920   4.069  16.000  1.00  0.00     0.040 A 
ATOM     77  C   UNL     1     -15.352   1.746  16.467  1.00  0.00     0.040 A 
ATOM     78  F   UNL     1     -14.520   0.085  15.037  1.00  0.00    -0.206 F 
ATOM     79  C   UNL     1     -15.488   3.089  16.812  1.00  0.00     0.006 A 
ENDBRANCH  55  72
ENDBRANCH  29  30
ENDBRANCH  22  24
ENDBRANCH  21  22
ENDBRANCH  20  21
ENDBRANCH   1  20
TORSDOF 15
