REMARK SMILES O=C(OCCOCCOC(=O)c1cncnc1N1CC[C@H]2[NH2+]CCC[C@]2(CO)C1)c1ccc(-c2c3nc(c(-c4c(F)cccc4F)c4ccc([nH]4)c(-c4c(F)cccc4F)c4nc(c(-c5c(F)cccc5F)c5ccc2[nH]5)C=C4)C=C3)cc1
REMARK SMILES IDX 7 1 6 2 5 3 4 4 3 5 2 6 1 7 30 8 31 9 83 10 32 11 82 12
REMARK SMILES IDX 33 13 34 14 35 15 76 16 36 17 81 18 75 19 77 20 37 21 80 22
REMARK SMILES IDX 74 23 73 24 38 26 64 27 47 28 63 29 48 30 51 31 62 32 78 33
REMARK SMILES IDX 49 34 50 35 61 37 79 38 52 39 39 40 40 41 45 42 41 43 42 44
REMARK SMILES IDX 44 45 46 46 43 47 65 48 66 49 71 50 67 51 68 52 70 53 72 54
REMARK SMILES IDX 69 55 53 56 54 57 59 58 55 59 56 60 58 61 60 62 57 63 8 64
REMARK SMILES IDX 9 65 10 66 11 67 12 68 13 69 17 70 14 71 16 72 15 73 18 74
REMARK SMILES IDX 19 75 29 76 20 77 26 78 21 79 25 80 22 81 24 82 23 83 27 86
REMARK SMILES IDX 28 87
REMARK H PARENT 77 25 51 36 22 84 22 85 28 88
REMARK Flexibility Score: inf
ROOT
ATOM      1  C   UNL     1       2.292  -2.474   1.492  1.00  0.00     0.202 C 
ENDROOT
BRANCH   1   2
ATOM      2  O   UNL     1       3.234  -1.718   0.751  1.00  0.00    -0.374 OA
BRANCH   2   3
ATOM      3  C   UNL     1       3.438  -0.382   1.183  1.00  0.00     0.202 C 
BRANCH   3   4
ATOM      4  C   UNL     1       2.768   0.673   0.297  1.00  0.00     0.261 C 
BRANCH   4   5
ATOM      5  O   UNL     1       1.471   0.253  -0.167  1.00  0.00    -0.460 OA
BRANCH   5   6
ATOM      6  C   UNL     1       1.154   0.215  -1.491  1.00  0.00     0.338 C 
ATOM      7  O   UNL     1       0.013   0.441  -1.875  1.00  0.00    -0.246 OA
BRANCH   6   8
ATOM      8  C   UNL     1       2.204  -0.152  -2.481  1.00  0.00     0.060 A 
ATOM      9  C   UNL     1       3.231  -1.023  -2.140  1.00  0.00     0.016 A 
ATOM     10  C   UNL     1       2.129   0.288  -3.802  1.00  0.00     0.016 A 
ATOM     11  C   UNL     1       4.253  -1.349  -3.004  1.00  0.00     0.010 A 
ATOM     12  C   UNL     1       3.056  -0.184  -4.742  1.00  0.00     0.010 A 
ATOM     13  C   UNL     1       4.109  -1.028  -4.343  1.00  0.00    -0.014 A 
BRANCH  13  14
ATOM     14  C   UNL     1       5.004  -1.690  -5.312  1.00  0.00     0.031 A 
ATOM     15  C   UNL     1       5.875  -0.858  -6.186  1.00  0.00     0.074 A 
ATOM     16  C   UNL     1       5.018  -3.039  -5.378  1.00  0.00     0.049 A 
ATOM     17  N   UNL     1       6.524  -1.202  -7.263  1.00  0.00    -0.248 NA
ATOM     18  C   UNL     1       6.024   0.557  -5.809  1.00  0.00     0.031 C 
ATOM     19  C   UNL     1       4.271  -3.946  -4.495  1.00  0.00     0.029 A 
ATOM     20  N   UNL     1       5.684  -3.890  -6.220  1.00  0.00    -0.354 N 
ATOM     21  C   UNL     1       7.096  -0.033  -7.739  1.00  0.00     0.074 A 
ATOM     22  C   UNL     1       6.745   1.026  -6.817  1.00  0.00     0.031 C 
ATOM     23  C   UNL     1       4.544  -5.216  -4.822  1.00  0.00     0.029 A 
ATOM     24  C   UNL     1       5.377  -5.215  -6.012  1.00  0.00     0.049 A 
ATOM     25  H   UNL     1       6.321  -3.583  -6.905  1.00  0.00     0.167 HD
ATOM     26  C   UNL     1       7.822   0.126  -8.868  1.00  0.00     0.037 A 
ATOM     27  C   UNL     1       5.665  -6.301  -6.751  1.00  0.00     0.037 A 
ATOM     28  C   UNL     1       8.169  -0.965  -9.739  1.00  0.00     0.049 A 
ATOM     29  C   UNL     1       6.425  -6.087  -8.027  1.00  0.00     0.074 A 
ATOM     30  C   UNL     1       8.888  -0.937 -10.919  1.00  0.00     0.029 A 
ATOM     31  N   UNL     1       7.819  -2.290  -9.510  1.00  0.00    -0.354 N 
ATOM     32  N   UNL     1       6.909  -4.971  -8.518  1.00  0.00    -0.248 NA
ATOM     33  C   UNL     1       6.646  -7.266  -8.870  1.00  0.00     0.031 C 
ATOM     34  C   UNL     1       8.939  -2.241 -11.423  1.00  0.00     0.029 A 
ATOM     35  C   UNL     1       8.289  -3.088 -10.537  1.00  0.00     0.049 A 
ATOM     36  H   UNL     1       7.311  -2.614  -8.731  1.00  0.00     0.167 HD
ATOM     37  C   UNL     1       7.496  -5.311  -9.726  1.00  0.00     0.074 A 
ATOM     38  C   UNL     1       7.329  -6.744  -9.878  1.00  0.00     0.031 C 
ATOM     39  C   UNL     1       8.107  -4.515 -10.636  1.00  0.00     0.037 A 
BRANCH  26  40
ATOM     40  C   UNL     1       8.199   1.525  -9.248  1.00  0.00     0.057 A 
ATOM     41  C   UNL     1       9.177   2.254  -8.560  1.00  0.00     0.134 A 
ATOM     42  C   UNL     1       7.544   2.163 -10.309  1.00  0.00     0.134 A 
ATOM     43  F   UNL     1       9.820   1.711  -7.515  1.00  0.00    -0.206 F 
ATOM     44  C   UNL     1       9.471   3.577  -8.898  1.00  0.00     0.040 A 
ATOM     45  C   UNL     1       7.846   3.477 -10.671  1.00  0.00     0.040 A 
ATOM     46  F   UNL     1       6.591   1.524 -11.005  1.00  0.00    -0.206 F 
ATOM     47  C   UNL     1       8.807   4.190  -9.959  1.00  0.00     0.006 A 
ENDBRANCH  26  40
BRANCH  27  48
ATOM     48  C   UNL     1       5.158  -7.643  -6.360  1.00  0.00     0.057 A 
ATOM     49  C   UNL     1       6.033  -8.672  -5.998  1.00  0.00     0.134 A 
ATOM     50  C   UNL     1       3.786  -7.935  -6.346  1.00  0.00     0.134 A 
ATOM     51  F   UNL     1       7.358  -8.465  -6.008  1.00  0.00    -0.206 F 
ATOM     52  C   UNL     1       5.567  -9.943  -5.653  1.00  0.00     0.040 A 
ATOM     53  C   UNL     1       3.305  -9.191  -5.974  1.00  0.00     0.040 A 
ATOM     54  F   UNL     1       2.888  -6.995  -6.678  1.00  0.00    -0.206 F 
ATOM     55  C   UNL     1       4.198 -10.204  -5.635  1.00  0.00     0.006 A 
ENDBRANCH  27  48
BRANCH  39  56
ATOM     56  C   UNL     1       8.657  -5.190 -11.852  1.00  0.00     0.057 A 
ATOM     57  C   UNL     1       7.825  -5.620 -12.891  1.00  0.00     0.134 A 
ATOM     58  C   UNL     1      10.038  -5.358 -12.005  1.00  0.00     0.134 A 
ATOM     59  F   UNL     1       6.492  -5.503 -12.789  1.00  0.00    -0.206 F 
ATOM     60  C   UNL     1       8.350  -6.204 -14.043  1.00  0.00     0.040 A 
ATOM     61  C   UNL     1      10.576  -5.918 -13.162  1.00  0.00     0.040 A 
ATOM     62  F   UNL     1      10.884  -4.961 -11.042  1.00  0.00    -0.206 F 
ATOM     63  C   UNL     1       9.730  -6.344 -14.184  1.00  0.00     0.006 A 
ENDBRANCH  39  56
ENDBRANCH  13  14
ENDBRANCH   6   8
ENDBRANCH   5   6
ENDBRANCH   4   5
ENDBRANCH   3   4
ENDBRANCH   2   3
ENDBRANCH   1   2
BRANCH   1  64
ATOM     64  C   UNL     1       3.052  -3.406   2.430  1.00  0.00     0.261 C 
BRANCH  64  65
ATOM     65  O   UNL     1       3.782  -2.621   3.392  1.00  0.00    -0.460 OA
BRANCH  65  66
ATOM     66  C   UNL     1       5.080  -2.294   3.105  1.00  0.00     0.343 C 
ATOM     67  O   UNL     1       5.757  -2.716   2.196  1.00  0.00    -0.246 OA
BRANCH  66  68
ATOM     68  C   UNL     1       5.478  -1.285   4.105  1.00  0.00     0.120 A 
ATOM     69  C   UNL     1       5.068  -1.488   5.414  1.00  0.00     0.132 A 
ATOM     70  C   UNL     1       6.159  -0.098   3.850  1.00  0.00     0.146 A 
ATOM     71  N   UNL     1       5.276  -0.620   6.421  1.00  0.00    -0.244 NA
ATOM     72  N   UNL     1       6.364   0.799   4.847  1.00  0.00    -0.219 NA
ATOM     73  C   UNL     1       5.923   0.494   6.076  1.00  0.00     0.224 A 
BRANCH  70  74
ATOM     74  N   UNL     1       6.653   0.287   2.586  1.00  0.00    -0.355 N 
ATOM     75  C   UNL     1       6.133   1.584   2.151  1.00  0.00     0.124 C 
ATOM     76  C   UNL     1       8.127   0.100   2.514  1.00  0.00     0.133 C 
ATOM     77  C   UNL     1       6.580   1.935   0.727  1.00  0.00     0.087 C 
ATOM     78  C   UNL     1       8.849   1.092   1.550  1.00  0.00     0.063 C 
ATOM     79  C   UNL     1       7.936   1.333   0.330  1.00  0.00     0.194 C 
ATOM     80  C   UNL     1      10.164   0.436   1.040  1.00  0.00     0.023 C 
ATOM     81  N   UNL     1       8.578   2.181  -0.694  1.00  0.00    -0.343 N 
ATOM     82  C   UNL     1      10.817   1.257  -0.076  1.00  0.00     0.062 C 
ATOM     83  C   UNL     1       9.825   1.586  -1.190  1.00  0.00     0.260 C 
ATOM     84  H   UNL     1       8.787   3.091  -0.285  1.00  0.00     0.346 HD
ATOM     85  H   UNL     1       7.935   2.271  -1.480  1.00  0.00     0.346 HD
BRANCH  78  86
ATOM     86  C   UNL     1       9.204   2.423   2.272  1.00  0.00     0.171 C 
BRANCH  86  87
ATOM     87  O   UNL     1      10.039   2.192   3.403  1.00  0.00    -0.395 OA
ATOM     88  H   UNL     1       9.574   1.625   4.038  1.00  0.00     0.210 HD
ENDBRANCH  86  87
ENDBRANCH  78  86
ENDBRANCH  70  74
ENDBRANCH  66  68
ENDBRANCH  65  66
ENDBRANCH  64  65
ENDBRANCH   1  64
TORSDOF 17
