REMARK SMILES CC(C)[C@H](NC(=O)[C@H](C)NC(=O)CNC(=O)OCc1ccccc1)C(=O)OCCOCCOC(=O)c1ccc(-c2c3nc(c(-c4c(F)cccc4F)c4ccc([nH]4)c(-c4c(F)cccc4F)c4nc(c(-c5c(F)cccc5F)c5ccc2[nH]5)C=C4)C=C3)cc1
REMARK SMILES IDX 27 1 25 2 26 3 4 4 2 5 1 6 3 7 5 8 6 9 7 11 8 12 9 13 10 14
REMARK SMILES IDX 11 15 12 17 13 18 14 19 15 20 16 22 17 23 18 24 19 25 20 26
REMARK SMILES IDX 24 27 21 28 23 29 22 30 28 31 29 32 30 33 31 34 32 35 33 36
REMARK SMILES IDX 34 37 35 38 36 39 37 40 89 41 38 42 88 43 39 44 40 45 41 46
REMARK SMILES IDX 82 47 42 48 87 49 81 50 83 51 43 52 86 53 80 54 79 55 44 57
REMARK SMILES IDX 70 58 53 59 69 60 54 61 57 62 68 63 84 64 55 65 56 66 67 68
REMARK SMILES IDX 85 69 58 70 45 71 46 72 51 73 47 74 48 75 50 76 52 77 49 78
REMARK SMILES IDX 71 79 72 80 77 81 73 82 74 83 76 84 78 85 75 86 59 87 60 88
REMARK SMILES IDX 65 89 61 90 62 91 64 92 66 93 63 94
REMARK H PARENT 5 10 10 16 14 21 83 56 57 67
REMARK Flexibility Score: inf
ROOT
ATOM      1  O   UNL     1      -4.037   2.006  -3.239  1.00  0.00    -0.462 OA
ENDROOT
BRANCH   1   2
ATOM      2  C   UNL     1      -2.719   1.637  -3.240  1.00  0.00     0.328 C 
ATOM      3  O   UNL     1      -2.079   1.409  -2.219  1.00  0.00    -0.250 OA
BRANCH   2   4
ATOM      4  C   UNL     1      -2.107   1.505  -4.664  1.00  0.00     0.194 C 
BRANCH   4   5
ATOM      5  C   UNL     1      -0.687   2.151  -4.636  1.00  0.00     0.017 C 
ATOM      6  C   UNL     1       0.361   1.073  -4.323  1.00  0.00     0.010 C 
ATOM      7  C   UNL     1      -0.274   2.886  -5.915  1.00  0.00     0.010 C 
ENDBRANCH   4   5
BRANCH   4   8
ATOM      8  N   UNL     1      -2.935   2.034  -5.762  1.00  0.00    -0.341 N 
ATOM      9  C   UNL     1      -3.551   1.412  -6.809  1.00  0.00     0.242 C 
ATOM     10  H   UNL     1      -3.067   3.009  -5.735  1.00  0.00     0.164 HD
ATOM     11  O   UNL     1      -3.717   2.089  -7.829  1.00  0.00    -0.273 OA
BRANCH   9  12
ATOM     12  C   UNL     1      -3.970  -0.085  -6.767  1.00  0.00     0.168 C 
ATOM     13  C   UNL     1      -5.291  -0.189  -7.538  1.00  0.00     0.041 C 
BRANCH  12  14
ATOM     14  N   UNL     1      -4.136  -0.507  -5.382  1.00  0.00    -0.343 N 
ATOM     15  C   UNL     1      -3.869  -1.688  -4.758  1.00  0.00     0.240 C 
ATOM     16  H   UNL     1      -4.508   0.186  -4.790  1.00  0.00     0.164 HD
ATOM     17  O   UNL     1      -3.786  -1.677  -3.528  1.00  0.00    -0.273 OA
BRANCH  15  18
ATOM     18  C   UNL     1      -3.706  -2.984  -5.539  1.00  0.00     0.219 C 
BRANCH  18  19
ATOM     19  N   UNL     1      -4.984  -3.327  -6.124  1.00  0.00    -0.312 N 
ATOM     20  C   UNL     1      -5.255  -3.401  -7.452  1.00  0.00     0.407 C 
ATOM     21  H   UNL     1      -5.723  -3.524  -5.504  1.00  0.00     0.167 HD
ATOM     22  O   UNL     1      -6.401  -3.501  -7.863  1.00  0.00    -0.225 OA
BRANCH  20  23
ATOM     23  O   UNL     1      -4.139  -3.334  -8.212  1.00  0.00    -0.445 OA
BRANCH  23  24
ATOM     24  C   UNL     1      -4.351  -3.328  -9.629  1.00  0.00     0.270 C 
BRANCH  24  25
ATOM     25  C   UNL     1      -4.411  -4.709 -10.240  1.00  0.00    -0.011 A 
ATOM     26  C   UNL     1      -4.035  -4.874 -11.582  1.00  0.00     0.007 A 
ATOM     27  C   UNL     1      -4.922  -5.819  -9.550  1.00  0.00     0.007 A 
ATOM     28  C   UNL     1      -4.167  -6.114 -12.210  1.00  0.00     0.000 A 
ATOM     29  C   UNL     1      -5.059  -7.055 -10.180  1.00  0.00     0.000 A 
ATOM     30  C   UNL     1      -4.684  -7.202 -11.511  1.00  0.00     0.000 A 
ENDBRANCH  24  25
ENDBRANCH  23  24
ENDBRANCH  20  23
ENDBRANCH  18  19
ENDBRANCH  15  18
ENDBRANCH  12  14
ENDBRANCH   9  12
ENDBRANCH   4   8
ENDBRANCH   2   4
ENDBRANCH   1   2
BRANCH   1  31
ATOM     31  C   UNL     1      -4.575   2.168  -1.902  1.00  0.00     0.261 C 
BRANCH  31  32
ATOM     32  C   UNL     1      -6.106   2.262  -1.897  1.00  0.00     0.202 C 
BRANCH  32  33
ATOM     33  O   UNL     1      -6.825   1.023  -1.931  1.00  0.00    -0.374 OA
BRANCH  33  34
ATOM     34  C   UNL     1      -6.524   0.148  -3.012  1.00  0.00     0.202 C 
BRANCH  34  35
ATOM     35  C   UNL     1      -7.261   0.452  -4.321  1.00  0.00     0.261 C 
BRANCH  35  36
ATOM     36  O   UNL     1      -7.200   1.845  -4.656  1.00  0.00    -0.460 OA
BRANCH  36  37
ATOM     37  C   UNL     1      -8.416   2.439  -4.723  1.00  0.00     0.338 C 
ATOM     38  O   UNL     1      -9.510   1.903  -4.764  1.00  0.00    -0.246 OA
BRANCH  37  39
ATOM     39  C   UNL     1      -8.265   3.888  -4.545  1.00  0.00     0.060 A 
ATOM     40  C   UNL     1      -8.787   4.443  -3.370  1.00  0.00     0.016 A 
ATOM     41  C   UNL     1      -7.719   4.695  -5.544  1.00  0.00     0.016 A 
ATOM     42  C   UNL     1      -8.815   5.824  -3.213  1.00  0.00     0.010 A 
ATOM     43  C   UNL     1      -7.758   6.083  -5.389  1.00  0.00     0.010 A 
ATOM     44  C   UNL     1      -8.344   6.649  -4.242  1.00  0.00    -0.014 A 
BRANCH  44  45
ATOM     45  C   UNL     1      -8.656   8.095  -4.189  1.00  0.00     0.031 A 
ATOM     46  C   UNL     1      -9.902   8.581  -4.878  1.00  0.00     0.074 A 
ATOM     47  C   UNL     1      -7.883   8.938  -3.485  1.00  0.00     0.049 A 
ATOM     48  N   UNL     1     -10.403   9.787  -4.934  1.00  0.00    -0.248 NA
ATOM     49  C   UNL     1     -10.692   7.565  -5.595  1.00  0.00     0.031 C 
ATOM     50  C   UNL     1      -6.679   8.561  -2.746  1.00  0.00     0.029 A 
ATOM     51  N   UNL     1      -8.003  10.287  -3.269  1.00  0.00    -0.354 N 
ATOM     52  C   UNL     1     -11.570   9.673  -5.681  1.00  0.00     0.074 A 
ATOM     53  C   UNL     1     -11.684   8.291  -6.088  1.00  0.00     0.031 C 
ATOM     54  C   UNL     1      -6.169   9.657  -2.157  1.00  0.00     0.029 A 
ATOM     55  C   UNL     1      -7.000  10.811  -2.492  1.00  0.00     0.049 A 
ATOM     56  H   UNL     1      -8.739  10.828  -3.637  1.00  0.00     0.167 HD
ATOM     57  C   UNL     1     -12.471  10.635  -5.987  1.00  0.00     0.037 A 
ATOM     58  C   UNL     1      -6.782  12.082  -2.105  1.00  0.00     0.037 A 
ATOM     59  C   UNL     1     -12.341  12.010  -5.591  1.00  0.00     0.049 A 
ATOM     60  C   UNL     1      -7.766  13.146  -2.515  1.00  0.00     0.074 A 
ATOM     61  C   UNL     1     -13.178  13.075  -5.869  1.00  0.00     0.029 A 
ATOM     62  N   UNL     1     -11.294  12.508  -4.829  1.00  0.00    -0.354 N 
ATOM     63  N   UNL     1      -8.871  13.026  -3.211  1.00  0.00    -0.248 NA
ATOM     64  C   UNL     1      -7.477  14.520  -2.081  1.00  0.00     0.031 C 
ATOM     65  C   UNL     1     -12.621  14.225  -5.300  1.00  0.00     0.029 A 
ATOM     66  C   UNL     1     -11.458  13.868  -4.635  1.00  0.00     0.049 A 
ATOM     67  H   UNL     1     -10.545  11.973  -4.479  1.00  0.00     0.167 HD
ATOM     68  C   UNL     1      -9.424  14.298  -3.272  1.00  0.00     0.074 A 
ATOM     69  C   UNL     1      -8.536  15.175  -2.536  1.00  0.00     0.031 C 
ATOM     70  C   UNL     1     -10.564  14.708  -3.880  1.00  0.00     0.037 A 
BRANCH  57  71
ATOM     71  C   UNL     1     -13.662  10.226  -6.802  1.00  0.00     0.057 A 
ATOM     72  C   UNL     1     -14.704   9.467  -6.252  1.00  0.00     0.134 A 
ATOM     73  C   UNL     1     -13.773  10.599  -8.147  1.00  0.00     0.134 A 
ATOM     74  F   UNL     1     -14.648   9.062  -4.975  1.00  0.00    -0.206 F 
ATOM     75  C   UNL     1     -15.805   9.077  -7.017  1.00  0.00     0.040 A 
ATOM     76  C   UNL     1     -14.880  10.234  -8.916  1.00  0.00     0.040 A 
ATOM     77  F   UNL     1     -12.810  11.325  -8.734  1.00  0.00    -0.206 F 
ATOM     78  C   UNL     1     -15.897   9.466  -8.352  1.00  0.00     0.006 A 
ENDBRANCH  57  71
BRANCH  58  79
ATOM     79  C   UNL     1      -5.593  12.420  -1.282  1.00  0.00     0.057 A 
ATOM     80  C   UNL     1      -5.722  12.821   0.053  1.00  0.00     0.134 A 
ATOM     81  C   UNL     1      -4.300  12.369  -1.817  1.00  0.00     0.134 A 
ATOM     82  F   UNL     1      -6.935  12.910   0.617  1.00  0.00    -0.206 F 
ATOM     83  C   UNL     1      -4.611  13.175   0.821  1.00  0.00     0.040 A 
ATOM     84  C   UNL     1      -3.178  12.698  -1.054  1.00  0.00     0.040 A 
ATOM     85  F   UNL     1      -4.107  11.990  -3.089  1.00  0.00    -0.206 F 
ATOM     86  C   UNL     1      -3.333  13.110   0.268  1.00  0.00     0.006 A 
ENDBRANCH  58  79
BRANCH  70  87
ATOM     87  C   UNL     1     -10.935  16.153  -3.737  1.00  0.00     0.057 A 
ATOM     88  C   UNL     1     -10.278  17.157  -4.458  1.00  0.00     0.134 A 
ATOM     89  C   UNL     1     -11.999  16.533  -2.910  1.00  0.00     0.134 A 
ATOM     90  F   UNL     1      -9.245  16.855  -5.258  1.00  0.00    -0.206 F 
ATOM     91  C   UNL     1     -10.657  18.495  -4.348  1.00  0.00     0.040 A 
ATOM     92  C   UNL     1     -12.401  17.865  -2.808  1.00  0.00     0.040 A 
ATOM     93  F   UNL     1     -12.673  15.615  -2.201  1.00  0.00    -0.206 F 
ATOM     94  C   UNL     1     -11.726  18.851  -3.526  1.00  0.00     0.006 A 
ENDBRANCH  70  87
ENDBRANCH  44  45
ENDBRANCH  37  39
ENDBRANCH  36  37
ENDBRANCH  35  36
ENDBRANCH  34  35
ENDBRANCH  33  34
ENDBRANCH  32  33
ENDBRANCH  31  32
ENDBRANCH   1  31
TORSDOF 23
