REMARK SMILES CCOc1ccc(-c2cc(Cl)cc3c2O[C@@H](C(F)(F)F)C(C(=O)OCCOCCOC(=O)c2ccc(-c4c5nc(c(-c6c(F)cccc6F)c6ccc([nH]6)c(-c6c(F)cccc6F)c6nc(c(-c7c(F)cccc7F)c7ccc4[nH]7)C=C6)C=C5)cc2)=C3)cc1
REMARK SMILES IDX 26 1 25 2 24 3 22 4 23 5 21 6 8 7 9 8 14 9 10 10 13 11 15 12
REMARK SMILES IDX 11 13 12 14 87 15 16 16 7 17 4 18 5 19 89 20 6 21 88 22 3 23
REMARK SMILES IDX 2 24 1 25 17 26 18 27 19 28 20 29 27 30 28 31 29 32 30 33
REMARK SMILES IDX 31 34 32 35 33 36 34 37 86 38 35 39 85 40 36 41 37 42 38 43
REMARK SMILES IDX 79 44 39 45 84 46 78 47 80 48 40 49 83 50 77 51 76 52 41 54
REMARK SMILES IDX 67 55 50 56 66 57 51 58 54 59 65 60 81 61 52 62 53 63 64 65
REMARK SMILES IDX 82 66 55 67 42 68 43 69 48 70 44 71 45 72 47 73 49 74 46 75
REMARK SMILES IDX 68 76 69 77 74 78 70 79 71 80 73 81 75 82 72 83 56 84 57 85
REMARK SMILES IDX 62 86 58 87 59 88 61 89 63 90 60 91
REMARK H PARENT 80 53 54 64
REMARK Flexibility Score: inf
ROOT
ATOM      1  C   UNL     1      12.427   0.974  -5.749  1.00  0.00     0.202 C 
ENDROOT
BRANCH   1   2
ATOM      2  C   UNL     1      12.847  -0.004  -4.640  1.00  0.00     0.261 C 
BRANCH   2   3
ATOM      3  O   UNL     1      11.825  -0.955  -4.308  1.00  0.00    -0.460 OA
BRANCH   3   4
ATOM      4  C   UNL     1      11.757  -1.313  -3.011  1.00  0.00     0.338 C 
ATOM      5  O   UNL     1      12.576  -1.014  -2.152  1.00  0.00    -0.246 OA
BRANCH   4   6
ATOM      6  C   UNL     1      10.477  -1.980  -2.675  1.00  0.00     0.087 C 
ATOM      7  C   UNL     1       7.003  -0.163  -4.067  1.00  0.00     0.026 A 
ATOM      8  C   UNL     1       7.379   1.178  -4.301  1.00  0.00     0.033 A 
ATOM      9  C   UNL     1       8.008  -0.967  -3.484  1.00  0.00     0.135 A 
ATOM     10  C   UNL     1       8.466   1.740  -3.632  1.00  0.00     0.042 A 
ATOM     11  C   UNL     1       8.928  -0.368  -2.609  1.00  0.00     0.019 A 
ATOM     12  O   UNL     1       8.438  -2.135  -4.152  1.00  0.00    -0.475 OA
ATOM     13  Cl  UNL     1       8.851   3.396  -3.877  1.00  0.00    -0.084 Cl
ATOM     14  C   UNL     1       9.176   0.995  -2.701  1.00  0.00     0.032 A 
ATOM     15  C   UNL     1       9.794  -1.240  -1.786  1.00  0.00     0.027 C 
ATOM     16  C   UNL     1       9.616  -2.842  -3.576  1.00  0.00     0.316 C 
BRANCH   7  17
ATOM     17  C   UNL     1       5.527  -0.311  -3.754  1.00  0.00    -0.014 A 
ATOM     18  C   UNL     1       2.831   0.048  -2.833  1.00  0.00     0.119 A 
ATOM     19  C   UNL     1       3.213   0.477  -4.101  1.00  0.00     0.047 A 
ATOM     20  C   UNL     1       3.766  -0.611  -2.043  1.00  0.00     0.047 A 
ATOM     21  C   UNL     1       4.535   0.295  -4.556  1.00  0.00     0.013 A 
ATOM     22  C   UNL     1       5.092  -0.787  -2.498  1.00  0.00     0.013 A 
BRANCH  18  23
ATOM     23  O   UNL     1       1.510   0.157  -2.501  1.00  0.00    -0.494 OA
BRANCH  23  24
ATOM     24  C   UNL     1       1.201   0.910  -1.320  1.00  0.00     0.226 C 
ATOM     25  C   UNL     1       1.027   0.015  -0.102  1.00  0.00     0.049 C 
ENDBRANCH  23  24
ENDBRANCH  18  23
ENDBRANCH   7  17
BRANCH  16  26
ATOM     26  C   UNL     1      10.405  -3.771  -4.528  1.00  0.00     0.430 C 
ATOM     27  F   UNL     1      11.059  -4.711  -3.791  1.00  0.00    -0.167 F 
ATOM     28  F   UNL     1       9.587  -4.447  -5.367  1.00  0.00    -0.167 F 
ATOM     29  F   UNL     1      11.335  -3.161  -5.286  1.00  0.00    -0.167 F 
ENDBRANCH  16  26
ENDBRANCH   4   6
ENDBRANCH   3   4
ENDBRANCH   2   3
ENDBRANCH   1   2
BRANCH   1  30
ATOM     30  O   UNL     1      11.041   1.177  -5.988  1.00  0.00    -0.374 OA
BRANCH  30  31
ATOM     31  C   UNL     1      10.275   0.086  -6.493  1.00  0.00     0.202 C 
BRANCH  31  32
ATOM     32  C   UNL     1      10.566  -0.427  -7.907  1.00  0.00     0.261 C 
BRANCH  32  33
ATOM     33  O   UNL     1      11.909  -0.902  -8.084  1.00  0.00    -0.460 OA
BRANCH  33  34
ATOM     34  C   UNL     1      12.658  -0.171  -8.940  1.00  0.00     0.338 C 
ATOM     35  O   UNL     1      12.321   0.829  -9.563  1.00  0.00    -0.246 OA
BRANCH  34  36
ATOM     36  C   UNL     1      14.045  -0.653  -8.928  1.00  0.00     0.060 A 
ATOM     37  C   UNL     1      15.050   0.233  -8.522  1.00  0.00     0.016 A 
ATOM     38  C   UNL     1      14.363  -1.923  -9.411  1.00  0.00     0.016 A 
ATOM     39  C   UNL     1      16.387  -0.138  -8.630  1.00  0.00     0.010 A 
ATOM     40  C   UNL     1      15.705  -2.290  -9.526  1.00  0.00     0.010 A 
ATOM     41  C   UNL     1      16.723  -1.388  -9.165  1.00  0.00    -0.014 A 
BRANCH  41  42
ATOM     42  C   UNL     1      18.138  -1.705  -9.466  1.00  0.00     0.031 A 
ATOM     43  C   UNL     1      18.620  -1.620 -10.888  1.00  0.00     0.074 A 
ATOM     44  C   UNL     1      18.983  -2.050  -8.479  1.00  0.00     0.049 A 
ATOM     45  N   UNL     1      19.791  -1.919 -11.386  1.00  0.00    -0.248 NA
ATOM     46  C   UNL     1      17.648  -1.135 -11.882  1.00  0.00     0.031 C 
ATOM     47  C   UNL     1      18.638  -2.126  -7.060  1.00  0.00     0.029 A 
ATOM     48  N   UNL     1      20.306  -2.412  -8.525  1.00  0.00    -0.354 N 
ATOM     49  C   UNL     1      19.697  -1.667 -12.749  1.00  0.00     0.074 A 
ATOM     50  C   UNL     1      18.345  -1.220 -13.006  1.00  0.00     0.031 C 
ATOM     51  C   UNL     1      19.720  -2.526  -6.370  1.00  0.00     0.029 A 
ATOM     52  C   UNL     1      20.818  -2.770  -7.302  1.00  0.00     0.049 A 
ATOM     53  H   UNL     1      20.836  -2.414  -9.354  1.00  0.00     0.167 HD
ATOM     54  C   UNL     1      20.656  -1.787 -13.697  1.00  0.00     0.037 A 
ATOM     55  C   UNL     1      22.028  -3.266  -6.981  1.00  0.00     0.037 A 
ATOM     56  C   UNL     1      22.000  -2.233 -13.433  1.00  0.00     0.049 A 
ATOM     57  C   UNL     1      23.052  -3.466  -8.068  1.00  0.00     0.074 A 
ATOM     58  C   UNL     1      23.050  -2.379 -14.322  1.00  0.00     0.029 A 
ATOM     59  N   UNL     1      22.475  -2.609 -12.186  1.00  0.00    -0.354 N 
ATOM     60  N   UNL     1      22.961  -3.204  -9.350  1.00  0.00    -0.248 NA
ATOM     61  C   UNL     1      24.348  -4.027  -7.662  1.00  0.00     0.031 C 
ATOM     62  C   UNL     1      24.145  -2.895 -13.623  1.00  0.00     0.029 A 
ATOM     63  C   UNL     1      23.797  -3.011 -12.287  1.00  0.00     0.049 A 
ATOM     64  H   UNL     1      21.951  -2.593 -11.352  1.00  0.00     0.167 HD
ATOM     65  C   UNL     1      24.195  -3.535  -9.896  1.00  0.00     0.074 A 
ATOM     66  C   UNL     1      25.022  -4.003  -8.803  1.00  0.00     0.031 C 
ATOM     67  C   UNL     1      24.609  -3.460 -11.185  1.00  0.00     0.037 A 
BRANCH  54  68
ATOM     68  C   UNL     1      20.285  -1.452 -15.113  1.00  0.00     0.057 A 
ATOM     69  C   UNL     1      20.053  -0.134 -15.526  1.00  0.00     0.134 A 
ATOM     70  C   UNL     1      20.208  -2.456 -16.087  1.00  0.00     0.134 A 
ATOM     71  F   UNL     1      20.098   0.874 -14.641  1.00  0.00    -0.206 F 
ATOM     72  C   UNL     1      19.744   0.172 -16.852  1.00  0.00     0.040 A 
ATOM     73  C   UNL     1      19.926  -2.160 -17.421  1.00  0.00     0.040 A 
ATOM     74  F   UNL     1      20.423  -3.740 -15.761  1.00  0.00    -0.206 F 
ATOM     75  C   UNL     1      19.689  -0.843 -17.806  1.00  0.00     0.006 A 
ENDBRANCH  54  68
BRANCH  55  76
ATOM     76  C   UNL     1      22.339  -3.634  -5.575  1.00  0.00     0.057 A 
ATOM     77  C   UNL     1      23.308  -2.943  -4.839  1.00  0.00     0.134 A 
ATOM     78  C   UNL     1      21.702  -4.712  -4.946  1.00  0.00     0.134 A 
ATOM     79  F   UNL     1      23.970  -1.916  -5.393  1.00  0.00    -0.206 F 
ATOM     80  C   UNL     1      23.655  -3.326  -3.542  1.00  0.00     0.040 A 
ATOM     81  C   UNL     1      22.016  -5.087  -3.639  1.00  0.00     0.040 A 
ATOM     82  F   UNL     1      20.761  -5.415  -5.593  1.00  0.00    -0.206 F 
ATOM     83  C   UNL     1      23.004  -4.400  -2.937  1.00  0.00     0.006 A 
ENDBRANCH  55  76
BRANCH  67  84
ATOM     84  C   UNL     1      26.032  -3.844 -11.476  1.00  0.00     0.057 A 
ATOM     85  C   UNL     1      26.471  -5.173 -11.418  1.00  0.00     0.134 A 
ATOM     86  C   UNL     1      26.965  -2.872 -11.860  1.00  0.00     0.134 A 
ATOM     87  F   UNL     1      25.631  -6.151 -11.046  1.00  0.00    -0.206 F 
ATOM     88  C   UNL     1      27.793  -5.517 -11.704  1.00  0.00     0.040 A 
ATOM     89  C   UNL     1      28.281  -3.208 -12.179  1.00  0.00     0.040 A 
ATOM     90  F   UNL     1      26.609  -1.581 -11.947  1.00  0.00    -0.206 F 
ATOM     91  C   UNL     1      28.700  -4.533 -12.093  1.00  0.00     0.006 A 
ENDBRANCH  67  84
ENDBRANCH  41  42
ENDBRANCH  34  36
ENDBRANCH  33  34
ENDBRANCH  32  33
ENDBRANCH  31  32
ENDBRANCH  30  31
ENDBRANCH   1  30
TORSDOF 18
