REMARK SMILES Cc1ccc(-c2nc(NC(=O)[C@H]3[C@@H](C(=O)OCCOCCOC(=O)c4ccc(-c5c6nc(c(-c7c(F)cccc7F)c7ccc([nH]7)c(-c7c(F)cccc7F)c7nc(c(-c8c(F)cccc8F)c8ccc5[nH]8)C=C7)C=C6)cc4)[C@@H]4CC[C@H]3O4)sc2C)cc1
REMARK SMILES IDX 18 1 17 2 16 3 14 4 15 5 13 6 12 7 82 8 79 9 81 10 83 11
REMARK SMILES IDX 80 12 10 13 9 14 11 16 8 17 6 18 7 19 85 20 84 21 86 22 5 23
REMARK SMILES IDX 1 24 2 25 3 26 88 27 4 28 87 29 19 30 20 31 21 32 22 33
REMARK SMILES IDX 23 34 24 35 25 36 26 37 78 38 27 39 77 40 28 41 29 42 30 43
REMARK SMILES IDX 71 44 31 45 76 46 70 47 72 48 32 49 75 50 69 51 68 52 33 54
REMARK SMILES IDX 59 55 42 56 58 57 43 58 46 59 57 60 73 61 44 62 45 63 56 65
REMARK SMILES IDX 74 66 47 67 34 68 35 69 40 70 36 71 37 72 39 73 41 74 38 75
REMARK SMILES IDX 60 76 61 77 66 78 62 79 63 80 65 81 67 82 64 83 48 84 49 85
REMARK SMILES IDX 54 86 50 87 51 88 53 89 55 90 52 91
REMARK H PARENT 9 15 72 53 46 64
REMARK Flexibility Score: inf
ROOT
ATOM      1  C   UNL     1      -6.951   1.314  -1.925  1.00  0.00     0.202 C 
ENDROOT
BRANCH   1   2
ATOM      2  C   UNL     1      -7.062   1.373  -0.376  1.00  0.00     0.261 C 
BRANCH   2   3
ATOM      3  O   UNL     1      -8.229   1.175   0.549  1.00  0.00    -0.463 OA
BRANCH   3   4
ATOM      4  C   UNL     1      -9.259   0.537   1.122  1.00  0.00     0.312 C 
ATOM      5  O   UNL     1      -9.771   0.925   2.173  1.00  0.00    -0.252 OA
BRANCH   4   6
ATOM      6  C   UNL     1      -9.753  -0.727   0.558  1.00  0.00     0.143 C 
ATOM      7  C   UNL     1      -9.365  -0.890  -0.857  1.00  0.00     0.124 C 
ATOM      8  C   UNL     1     -10.313  -2.026  -1.246  1.00  0.00     0.132 C 
ATOM      9  C   UNL     1     -11.270  -1.066   0.456  1.00  0.00     0.133 C 
ATOM     10  C   UNL     1     -10.504  -3.174  -0.219  1.00  0.00     0.035 C 
ATOM     11  O   UNL     1     -11.517  -1.258  -0.982  1.00  0.00    -0.373 OA
ATOM     12  C   UNL     1     -11.482  -2.534   0.790  1.00  0.00     0.036 C 
BRANCH   7  13
ATOM     13  C   UNL     1      -9.697   0.267  -1.838  1.00  0.00     0.232 C 
ATOM     14  N   UNL     1     -10.046   1.577  -1.683  1.00  0.00    -0.302 N 
ATOM     15  H   UNL     1     -10.128   1.968  -2.583  1.00  0.00     0.172 HD
ATOM     16  O   UNL     1      -9.471  -0.056  -3.027  1.00  0.00    -0.274 OA
BRANCH  14  17
ATOM     17  C   UNL     1     -10.331   2.576  -0.769  1.00  0.00     0.190 A 
ATOM     18  C   UNL     1     -10.212   4.659   0.098  1.00  0.00     0.086 A 
ATOM     19  N   UNL     1      -9.752   3.760  -0.871  1.00  0.00    -0.220 NA
ATOM     20  C   UNL     1     -11.349   4.219   0.742  1.00  0.00     0.031 A 
ATOM     21  S   UNL     1     -11.712   2.587   0.230  1.00  0.00    -0.101 S 
ATOM     22  C   UNL     1     -12.150   4.904   1.788  1.00  0.00     0.059 C 
BRANCH  18  23
ATOM     23  C   UNL     1      -9.351   5.797   0.530  1.00  0.00     0.001 A 
ATOM     24  C   UNL     1      -5.514   8.852   1.711  1.00  0.00     0.044 C 
ATOM     25  C   UNL     1      -6.234   7.587   1.272  1.00  0.00    -0.051 A 
ATOM     26  C   UNL     1      -6.949   7.640  -0.380  1.00  0.00     0.004 A 
ATOM     27  C   UNL     1      -7.019   6.605   2.570  1.00  0.00     0.004 A 
ATOM     28  C   UNL     1      -8.469   6.695  -0.760  1.00  0.00     0.010 A 
ATOM     29  C   UNL     1      -8.670   5.844   2.230  1.00  0.00     0.010 A 
ENDBRANCH  18  23
ENDBRANCH  14  17
ENDBRANCH   7  13
ENDBRANCH   4   6
ENDBRANCH   3   4
ENDBRANCH   2   3
ENDBRANCH   1   2
BRANCH   1  30
ATOM     30  O   UNL     1      -7.701   2.348  -2.566  1.00  0.00    -0.374 OA
BRANCH  30  31
ATOM     31  C   UNL     1      -7.882   2.344  -3.987  1.00  0.00     0.202 C 
BRANCH  31  32
ATOM     32  C   UNL     1      -6.672   2.078  -4.886  1.00  0.00     0.261 C 
BRANCH  32  33
ATOM     33  O   UNL     1      -5.774   3.207  -4.944  1.00  0.00    -0.460 OA
BRANCH  33  34
ATOM     34  C   UNL     1      -4.758   3.221  -4.034  1.00  0.00     0.338 C 
ATOM     35  O   UNL     1      -3.913   2.350  -3.921  1.00  0.00    -0.246 OA
BRANCH  34  36
ATOM     36  C   UNL     1      -4.992   4.315  -3.039  1.00  0.00     0.060 A 
ATOM     37  C   UNL     1      -4.248   4.451  -1.855  1.00  0.00     0.016 A 
ATOM     38  C   UNL     1      -6.221   4.917  -3.105  1.00  0.00     0.016 A 
ATOM     39  C   UNL     1      -4.820   5.083  -0.714  1.00  0.00     0.010 A 
ATOM     40  C   UNL     1      -6.855   5.093  -1.903  1.00  0.00     0.010 A 
ATOM     41  C   UNL     1      -6.205   5.344  -0.683  1.00  0.00    -0.014 A 
BRANCH  41  42
ATOM     42  C   UNL     1      -7.184   5.706   0.668  1.00  0.00     0.031 A 
ATOM     43  C   UNL     1      -8.310   7.487   1.145  1.00  0.00     0.074 A 
ATOM     44  C   UNL     1      -7.121   4.345   1.244  1.00  0.00     0.049 A 
ATOM     45  N   UNL     1      -8.512   8.097   2.376  1.00  0.00    -0.248 NA
ATOM     46  C   UNL     1      -9.270   8.574   0.312  1.00  0.00     0.031 C 
ATOM     47  C   UNL     1      -8.154   3.556   2.012  1.00  0.00     0.029 A 
ATOM     48  N   UNL     1      -5.990   3.542   1.548  1.00  0.00    -0.354 N 
ATOM     49  C   UNL     1      -9.690   8.739   2.523  1.00  0.00     0.074 A 
ATOM     50  C   UNL     1     -10.063   9.154   1.213  1.00  0.00     0.031 C 
ATOM     51  C   UNL     1      -7.627   2.750   2.914  1.00  0.00     0.029 A 
ATOM     52  C   UNL     1      -6.228   2.787   2.696  1.00  0.00     0.049 A 
ATOM     53  H   UNL     1      -5.157   3.521   1.023  1.00  0.00     0.167 HD
ATOM     54  C   UNL     1     -10.312   8.756   3.738  1.00  0.00     0.037 A 
ATOM     55  C   UNL     1      -5.413   2.354   3.665  1.00  0.00     0.037 A 
ATOM     56  C   UNL     1      -9.925   7.637   4.650  1.00  0.00     0.049 A 
ATOM     57  C   UNL     1      -5.831   3.010   4.951  1.00  0.00     0.074 A 
ATOM     58  C   UNL     1     -10.608   6.482   5.017  1.00  0.00     0.029 A 
ATOM     59  N   UNL     1      -8.625   7.454   5.152  1.00  0.00    -0.354 N 
ATOM     60  N   UNL     1      -6.568   4.108   4.954  1.00  0.00    -0.248 NA
ATOM     61  C   UNL     1      -5.511   2.549   6.292  1.00  0.00     0.031 C 
ATOM     62  C   UNL     1      -9.711   5.596   5.681  1.00  0.00     0.029 A 
ATOM     63  C   UNL     1      -8.469   6.207   5.787  1.00  0.00     0.049 A 
ATOM     64  H   UNL     1      -7.905   8.121   5.069  1.00  0.00     0.167 HD
ATOM     65  C   UNL     1      -6.737   4.545   6.237  1.00  0.00     0.074 A 
ATOM     66  C   UNL     1      -6.075   3.519   7.036  1.00  0.00     0.031 C 
ATOM     67  C   UNL     1      -7.259   5.780   6.531  1.00  0.00     0.037 A 
BRANCH  54  68
ATOM     68  C   UNL     1     -11.498   9.669   3.935  1.00  0.00     0.057 A 
ATOM     69  C   UNL     1     -12.509   9.430   4.875  1.00  0.00     0.134 A 
ATOM     70  C   UNL     1     -11.623  10.893   3.237  1.00  0.00     0.134 A 
ATOM     71  F   UNL     1     -12.479   8.366   5.688  1.00  0.00    -0.206 F 
ATOM     72  C   UNL     1     -13.600  10.297   5.042  1.00  0.00     0.040 A 
ATOM     73  C   UNL     1     -12.740  11.726   3.337  1.00  0.00     0.040 A 
ATOM     74  F   UNL     1     -10.637  11.358   2.454  1.00  0.00    -0.206 F 
ATOM     75  C   UNL     1     -13.736  11.430   4.249  1.00  0.00     0.006 A 
ENDBRANCH  54  68
BRANCH  55  76
ATOM     76  C   UNL     1      -4.384   1.446   3.133  1.00  0.00     0.057 A 
ATOM     77  C   UNL     1      -4.811   0.152   2.749  1.00  0.00     0.134 A 
ATOM     78  C   UNL     1      -3.347   2.007   2.379  1.00  0.00     0.134 A 
ATOM     79  F   UNL     1      -5.835  -0.440   3.388  1.00  0.00    -0.206 F 
ATOM     80  C   UNL     1      -4.337  -0.474   1.587  1.00  0.00     0.040 A 
ATOM     81  C   UNL     1      -2.888   1.402   1.201  1.00  0.00     0.040 A 
ATOM     82  F   UNL     1      -2.934   3.255   2.644  1.00  0.00    -0.206 F 
ATOM     83  C   UNL     1      -3.410   0.180   0.781  1.00  0.00     0.006 A 
ENDBRANCH  55  76
BRANCH  67  84
ATOM     84  C   UNL     1      -6.716   6.593   7.689  1.00  0.00     0.057 A 
ATOM     85  C   UNL     1      -5.455   6.367   8.281  1.00  0.00     0.134 A 
ATOM     86  C   UNL     1      -7.374   7.751   8.146  1.00  0.00     0.134 A 
ATOM     87  F   UNL     1      -4.633   5.395   7.865  1.00  0.00    -0.206 F 
ATOM     88  C   UNL     1      -4.937   7.170   9.303  1.00  0.00     0.040 A 
ATOM     89  C   UNL     1      -6.832   8.601   9.116  1.00  0.00     0.040 A 
ATOM     90  F   UNL     1      -8.558   8.137   7.653  1.00  0.00    -0.206 F 
ATOM     91  C   UNL     1      -5.621   8.300   9.716  1.00  0.00     0.006 A 
ENDBRANCH  67  84
ENDBRANCH  41  42
ENDBRANCH  34  36
ENDBRANCH  33  34
ENDBRANCH  32  33
ENDBRANCH  31  32
ENDBRANCH  30  31
ENDBRANCH   1  30
TORSDOF 17
