REMARK SMILES CC(C)CCc1cc2c(cc1Cl)C=C(C(=O)OCCOCCOC(=O)c1ccc(-c3c4nc(c(-c5c(F)cccc5F)c5ccc([nH]5)c(-c5c(F)cccc5F)c5nc(c(-c6c(F)cccc6F)c6ccc3[nH]6)C=C5)C=C4)cc1)[C@H](C(F)(F)F)O2
REMARK SMILES IDX 19 1 18 2 17 3 15 4 16 5 14 6 6 7 7 8 11 9 8 10 10 11 12 12
REMARK SMILES IDX 9 13 85 14 13 15 80 16 5 17 4 18 2 19 1 20 3 21 81 22 82 23
REMARK SMILES IDX 83 24 84 25 20 26 21 27 22 28 23 29 24 30 25 31 26 32 27 33
REMARK SMILES IDX 79 34 28 35 78 36 29 37 30 38 31 39 72 40 32 41 77 42 71 43
REMARK SMILES IDX 73 44 33 45 76 46 70 47 69 48 34 50 60 51 43 52 59 53 44 54
REMARK SMILES IDX 47 55 58 56 74 57 45 58 46 59 57 61 75 62 48 63 35 64 36 65
REMARK SMILES IDX 41 66 37 67 38 68 40 69 42 70 39 71 61 72 62 73 67 74 63 75
REMARK SMILES IDX 64 76 66 77 68 78 65 79 49 80 50 81 55 82 51 83 52 84 54 85
REMARK SMILES IDX 56 86 53 87
REMARK H PARENT 73 49 47 60
REMARK Flexibility Score: inf
ROOT
ATOM      1  C   UNL     1       2.979 -10.669   2.341  1.00  0.00     0.202 C 
ENDROOT
BRANCH   1   2
ATOM      2  C   UNL     1       3.500 -10.116   1.013  1.00  0.00     0.261 C 
BRANCH   2   3
ATOM      3  O   UNL     1       3.205  -8.713   0.918  1.00  0.00    -0.460 OA
BRANCH   3   4
ATOM      4  C   UNL     1       2.129  -8.422   0.158  1.00  0.00     0.338 C 
ATOM      5  O   UNL     1       1.573  -9.174  -0.625  1.00  0.00    -0.246 OA
BRANCH   4   6
ATOM      6  C   UNL     1       1.637  -7.071   0.478  1.00  0.00     0.087 C 
ATOM      7  C   UNL     1      -1.011  -2.807   0.281  1.00  0.00    -0.026 A 
ATOM      8  C   UNL     1       0.353  -3.146   0.334  1.00  0.00     0.052 A 
ATOM      9  C   UNL     1      -1.938  -3.865   0.237  1.00  0.00     0.045 A 
ATOM     10  C   UNL     1       0.780  -4.465   0.424  1.00  0.00     0.128 A 
ATOM     11  C   UNL     1      -1.509  -5.199   0.274  1.00  0.00     0.032 A 
ATOM     12  Cl  UNL     1      -3.640  -3.608   0.068  1.00  0.00    -0.084 Cl
ATOM     13  C   UNL     1      -0.149  -5.498   0.368  1.00  0.00     0.019 A 
ATOM     14  O   UNL     1       2.135  -4.667   0.483  1.00  0.00    -0.475 OA
ATOM     15  C   UNL     1       0.333  -6.861   0.253  1.00  0.00     0.027 C 
ATOM     16  C   UNL     1       2.567  -5.981   0.941  1.00  0.00     0.316 C 
BRANCH   7  17
ATOM     17  C   UNL     1      -1.410  -1.347   0.176  1.00  0.00     0.037 C 
BRANCH  17  18
ATOM     18  C   UNL     1      -0.959  -0.420   1.325  1.00  0.00     0.008 C 
BRANCH  18  19
ATOM     19  C   UNL     1       0.545  -0.094   1.440  1.00  0.00    -0.017 C 
ATOM     20  C   UNL     1       1.148   0.425   0.133  1.00  0.00     0.007 C 
ATOM     21  C   UNL     1       0.792   0.921   2.558  1.00  0.00     0.007 C 
ENDBRANCH  18  19
ENDBRANCH  17  18
ENDBRANCH   7  17
BRANCH  16  22
ATOM     22  C   UNL     1       2.818  -5.943   2.465  1.00  0.00     0.430 C 
ATOM     23  F   UNL     1       1.703  -5.629   3.166  1.00  0.00    -0.167 F 
ATOM     24  F   UNL     1       3.267  -7.123   2.951  1.00  0.00    -0.167 F 
ATOM     25  F   UNL     1       3.763  -5.021   2.778  1.00  0.00    -0.167 F 
ENDBRANCH  16  22
ENDBRANCH   4   6
ENDBRANCH   3   4
ENDBRANCH   2   3
ENDBRANCH   1   2
BRANCH   1  26
ATOM     26  O   UNL     1       1.558 -10.671   2.486  1.00  0.00    -0.374 OA
BRANCH  26  27
ATOM     27  C   UNL     1       0.973  -9.514   3.091  1.00  0.00     0.202 C 
BRANCH  27  28
ATOM     28  C   UNL     1       1.032  -9.446   4.623  1.00  0.00     0.261 C 
BRANCH  28  29
ATOM     29  O   UNL     1       2.369  -9.178   5.081  1.00  0.00    -0.460 OA
BRANCH  29  30
ATOM     30  C   UNL     1       3.038 -10.244   5.583  1.00  0.00     0.338 C 
ATOM     31  O   UNL     1       2.590 -11.358   5.801  1.00  0.00    -0.246 OA
BRANCH  30  32
ATOM     32  C   UNL     1       4.485  -9.933   5.624  1.00  0.00     0.060 A 
ATOM     33  C   UNL     1       4.968  -8.704   6.077  1.00  0.00     0.016 A 
ATOM     34  C   UNL     1       5.375 -10.918   5.172  1.00  0.00     0.016 A 
ATOM     35  C   UNL     1       6.348  -8.479   6.112  1.00  0.00     0.010 A 
ATOM     36  C   UNL     1       6.751 -10.692   5.210  1.00  0.00     0.010 A 
ATOM     37  C   UNL     1       7.250  -9.479   5.702  1.00  0.00    -0.014 A 
BRANCH  37  38
ATOM     38  C   UNL     1       8.710  -9.305   5.917  1.00  0.00     0.031 A 
ATOM     39  C   UNL     1       9.656  -9.070   4.777  1.00  0.00     0.074 A 
ATOM     40  C   UNL     1       9.184  -9.397   7.175  1.00  0.00     0.049 A 
ATOM     41  N   UNL     1      10.948  -8.856   4.812  1.00  0.00    -0.248 NA
ATOM     42  C   UNL     1       9.084  -9.084   3.424  1.00  0.00     0.031 C 
ATOM     43  C   UNL     1       8.371  -9.669   8.362  1.00  0.00     0.029 A 
ATOM     44  N   UNL     1      10.459  -9.271   7.665  1.00  0.00    -0.354 N 
ATOM     45  C   UNL     1      11.344  -8.689   3.491  1.00  0.00     0.074 A 
ATOM     46  C   UNL     1      10.161  -8.880   2.676  1.00  0.00     0.031 C 
ATOM     47  C   UNL     1       9.162  -9.659   9.446  1.00  0.00     0.029 A 
ATOM     48  C   UNL     1      10.539  -9.417   9.028  1.00  0.00     0.049 A 
ATOM     49  H   UNL     1      11.241  -9.092   7.094  1.00  0.00     0.167 HD
ATOM     50  C   UNL     1      12.574  -8.388   3.007  1.00  0.00     0.037 A 
ATOM     51  C   UNL     1      11.603  -9.365   9.850  1.00  0.00     0.037 A 
ATOM     52  C   UNL     1      13.756  -8.227   3.819  1.00  0.00     0.049 A 
ATOM     53  C   UNL     1      12.966  -9.092   9.275  1.00  0.00     0.074 A 
ATOM     54  C   UNL     1      15.038  -7.886   3.420  1.00  0.00     0.029 A 
ATOM     55  N   UNL     1      13.807  -8.415   5.192  1.00  0.00    -0.354 N 
ATOM     56  N   UNL     1      13.309  -8.846   8.034  1.00  0.00    -0.248 NA
ATOM     57  C   UNL     1      14.089  -9.084  10.222  1.00  0.00     0.031 C 
ATOM     58  C   UNL     1      15.875  -7.925   4.541  1.00  0.00     0.029 A 
ATOM     59  C   UNL     1      15.104  -8.230   5.650  1.00  0.00     0.049 A 
ATOM     60  H   UNL     1      13.036  -8.646   5.760  1.00  0.00     0.167 HD
ATOM     61  C   UNL     1      14.680  -8.624   8.057  1.00  0.00     0.074 A 
ATOM     62  C   UNL     1      15.100  -8.741   9.437  1.00  0.00     0.031 C 
ATOM     63  C   UNL     1      15.516  -8.350   7.026  1.00  0.00     0.037 A 
BRANCH  50  64
ATOM     64  C   UNL     1      12.711  -8.214   1.521  1.00  0.00     0.057 A 
ATOM     65  C   UNL     1      13.449  -9.125   0.753  1.00  0.00     0.134 A 
ATOM     66  C   UNL     1      12.157  -7.112   0.855  1.00  0.00     0.134 A 
ATOM     67  F   UNL     1      14.018 -10.195   1.327  1.00  0.00    -0.206 F 
ATOM     68  C   UNL     1      13.631  -8.945  -0.619  1.00  0.00     0.040 A 
ATOM     69  C   UNL     1      12.309  -6.936  -0.522  1.00  0.00     0.040 A 
ATOM     70  F   UNL     1      11.435  -6.204   1.528  1.00  0.00    -0.206 F 
ATOM     71  C   UNL     1      13.055  -7.852  -1.262  1.00  0.00     0.006 A 
ENDBRANCH  50  64
BRANCH  51  72
ATOM     72  C   UNL     1      11.435  -9.568  11.311  1.00  0.00     0.057 A 
ATOM     73  C   UNL     1      11.085 -10.816  11.839  1.00  0.00     0.134 A 
ATOM     74  C   UNL     1      11.671  -8.527  12.217  1.00  0.00     0.134 A 
ATOM     75  F   UNL     1      10.837 -11.852  11.025  1.00  0.00    -0.206 F 
ATOM     76  C   UNL     1      10.983 -11.024  13.215  1.00  0.00     0.040 A 
ATOM     77  C   UNL     1      11.604  -8.729  13.596  1.00  0.00     0.040 A 
ATOM     78  F   UNL     1      12.028  -7.313  11.772  1.00  0.00    -0.206 F 
ATOM     79  C   UNL     1      11.258  -9.981  14.098  1.00  0.00     0.006 A 
ENDBRANCH  51  72
BRANCH  63  80
ATOM     80  C   UNL     1      16.964  -8.122   7.363  1.00  0.00     0.057 A 
ATOM     81  C   UNL     1      17.532  -6.847   7.245  1.00  0.00     0.134 A 
ATOM     82  C   UNL     1      17.797  -9.159   7.804  1.00  0.00     0.134 A 
ATOM     83  F   UNL     1      16.795  -5.808   6.822  1.00  0.00    -0.206 F 
ATOM     84  C   UNL     1      18.872  -6.611   7.555  1.00  0.00     0.040 A 
ATOM     85  C   UNL     1      19.131  -8.929   8.149  1.00  0.00     0.040 A 
ATOM     86  F   UNL     1      17.314 -10.402   7.955  1.00  0.00    -0.206 F 
ATOM     87  C   UNL     1      19.673  -7.652   8.019  1.00  0.00     0.006 A 
ENDBRANCH  63  80
ENDBRANCH  37  38
ENDBRANCH  30  32
ENDBRANCH  29  30
ENDBRANCH  28  29
ENDBRANCH  27  28
ENDBRANCH  26  27
ENDBRANCH   1  26
TORSDOF 18
