REMARK SMILES CC[C@@H]1CCC[C@@](CC[NH+]2CCOCC2)(C(=O)OCCOCCOC(=O)c2ccc(-c3c4nc(c(-c5c(F)cccc5F)c5ccc([nH]5)c(-c5c(F)cccc5F)c5nc(c(-c6c(F)cccc6F)c6ccc3[nH]6)C=C5)C=C4)cc2)C1
REMARK SMILES IDX 20 1 19 2 18 3 16 4 17 5 7 6 3 7 4 8 81 9 5 10 6 11 2 12
REMARK SMILES IDX 1 13 8 14 9 15 10 16 11 17 15 18 12 20 14 21 13 22 21 23
REMARK SMILES IDX 22 24 23 25 24 26 25 27 26 28 27 29 28 30 80 31 29 32 79 33
REMARK SMILES IDX 30 34 31 35 32 36 73 37 33 38 78 39 72 40 74 41 34 42 77 43
REMARK SMILES IDX 71 44 70 45 35 47 61 48 44 49 60 50 45 51 48 52 59 53 75 54
REMARK SMILES IDX 46 55 47 56 58 58 76 59 49 60 36 61 37 62 42 63 38 64 39 65
REMARK SMILES IDX 41 66 43 67 40 68 62 69 63 70 68 71 64 72 65 73 67 74 69 75
REMARK SMILES IDX 66 76 50 77 51 78 56 79 52 80 53 81 55 82 57 83 54 84
REMARK H PARENT 10 19 74 46 48 57
REMARK Flexibility Score: inf
ROOT
ATOM      1  C   UNL     1       5.701   4.119   1.938  1.00  0.00     0.202 C 
ENDROOT
BRANCH   1   2
ATOM      2  C   UNL     1       4.622   4.732   1.045  1.00  0.00     0.261 C 
BRANCH   2   3
ATOM      3  O   UNL     1       3.285   4.619   1.575  1.00  0.00    -0.463 OA
BRANCH   3   4
ATOM      4  C   UNL     1       2.359   4.187   0.675  1.00  0.00     0.312 C 
ATOM      5  O   UNL     1       2.641   3.751  -0.440  1.00  0.00    -0.252 OA
BRANCH   4   6
ATOM      6  C   UNL     1       0.893   4.320   1.137  1.00  0.00     0.074 C 
ATOM      7  C   UNL     1       0.622   1.843   1.778  1.00  0.00    -0.010 C 
ATOM      8  C   UNL     1       0.161   2.228   3.185  1.00  0.00     0.003 C 
ATOM      9  C   UNL     1       0.204   2.960   0.806  1.00  0.00     0.022 C 
ATOM     10  C   UNL     1       0.816   3.531   3.626  1.00  0.00     0.001 C 
ATOM     11  C   UNL     1       0.651   4.674   2.624  1.00  0.00     0.019 C 
BRANCH   7  12
ATOM     12  C   UNL     1       0.086   0.460   1.377  1.00  0.00     0.000 C 
ATOM     13  C   UNL     1       0.765  -0.089   0.127  1.00  0.00     0.004 C 
ENDBRANCH   7  12
BRANCH   6  14
ATOM     14  C   UNL     1       0.254   5.423   0.225  1.00  0.00     0.080 C 
BRANCH  14  15
ATOM     15  C   UNL     1       0.658   6.883   0.523  1.00  0.00     0.263 C 
BRANCH  15  16
ATOM     16  N   UNL     1       2.103   7.112   0.462  1.00  0.00    -0.331 N 
ATOM     17  C   UNL     1       2.522   8.313   1.212  1.00  0.00     0.291 C 
ATOM     18  C   UNL     1       2.624   7.212  -0.921  1.00  0.00     0.291 C 
ATOM     19  H   UNL     1       2.506   6.284   0.900  1.00  0.00     0.348 HD
ATOM     20  C   UNL     1       2.217   9.634   0.491  1.00  0.00     0.221 C 
ATOM     21  C   UNL     1       2.343   8.561  -1.604  1.00  0.00     0.221 C 
ATOM     22  O   UNL     1       2.813   9.659  -0.812  1.00  0.00    -0.370 OA
ENDBRANCH  15  16
ENDBRANCH  14  15
ENDBRANCH   6  14
ENDBRANCH   4   6
ENDBRANCH   3   4
ENDBRANCH   2   3
ENDBRANCH   1   2
BRANCH   1  23
ATOM     23  O   UNL     1       5.627   2.710   2.147  1.00  0.00    -0.374 OA
BRANCH  23  24
ATOM     24  C   UNL     1       4.527   2.233   2.922  1.00  0.00     0.202 C 
BRANCH  24  25
ATOM     25  C   UNL     1       4.564   2.604   4.407  1.00  0.00     0.261 C 
BRANCH  25  26
ATOM     26  O   UNL     1       4.433   4.026   4.598  1.00  0.00    -0.460 OA
BRANCH  26  27
ATOM     27  C   UNL     1       5.212   4.518   5.587  1.00  0.00     0.338 C 
ATOM     28  O   UNL     1       5.830   3.885   6.426  1.00  0.00    -0.246 OA
BRANCH  27  29
ATOM     29  C   UNL     1       5.365   5.976   5.450  1.00  0.00     0.060 A 
ATOM     30  C   UNL     1       6.604   6.458   5.009  1.00  0.00     0.016 A 
ATOM     31  C   UNL     1       4.399   6.849   5.954  1.00  0.00     0.016 A 
ATOM     32  C   UNL     1       6.915   7.808   5.157  1.00  0.00     0.010 A 
ATOM     33  C   UNL     1       4.716   8.206   6.104  1.00  0.00     0.010 A 
ATOM     34  C   UNL     1       5.998   8.675   5.767  1.00  0.00    -0.014 A 
BRANCH  34  35
ATOM     35  C   UNL     1       6.485   9.991   6.257  1.00  0.00     0.031 A 
ATOM     36  C   UNL     1       6.946  10.105   7.688  1.00  0.00     0.074 A 
ATOM     37  C   UNL     1       6.600  11.047   5.434  1.00  0.00     0.049 A 
ATOM     38  N   UNL     1       7.491  11.121   8.309  1.00  0.00    -0.248 NA
ATOM     39  C   UNL     1       6.773   8.910   8.530  1.00  0.00     0.031 C 
ATOM     40  C   UNL     1       6.229  11.066   4.022  1.00  0.00     0.029 A 
ATOM     41  N   UNL     1       7.084  12.309   5.676  1.00  0.00    -0.354 N 
ATOM     42  C   UNL     1       7.730  10.687   9.607  1.00  0.00     0.074 A 
ATOM     43  C   UNL     1       7.239   9.329   9.697  1.00  0.00     0.031 C 
ATOM     44  C   UNL     1       6.510  12.280   3.516  1.00  0.00     0.029 A 
ATOM     45  C   UNL     1       7.069  13.124   4.571  1.00  0.00     0.049 A 
ATOM     46  H   UNL     1       7.410  12.602   6.557  1.00  0.00     0.167 HD
ATOM     47  C   UNL     1       8.318  11.349  10.632  1.00  0.00     0.037 A 
ATOM     48  C   UNL     1       7.470  14.402   4.428  1.00  0.00     0.037 A 
ATOM     49  C   UNL     1       8.817  12.695  10.555  1.00  0.00     0.049 A 
ATOM     50  C   UNL     1       8.073  15.136   5.595  1.00  0.00     0.074 A 
ATOM     51  C   UNL     1       9.446  13.441  11.538  1.00  0.00     0.029 A 
ATOM     52  N   UNL     1       8.740  13.500   9.430  1.00  0.00    -0.354 N 
ATOM     53  N   UNL     1       8.323  14.704   6.806  1.00  0.00    -0.248 NA
ATOM     54  C   UNL     1       8.458  16.538   5.368  1.00  0.00     0.031 C 
ATOM     55  C   UNL     1       9.719  14.711  11.016  1.00  0.00     0.029 A 
ATOM     56  C   UNL     1       9.290  14.742   9.699  1.00  0.00     0.049 A 
ATOM     57  H   UNL     1       8.351  13.229   8.567  1.00  0.00     0.167 HD
ATOM     58  C   UNL     1       8.921  15.765   7.474  1.00  0.00     0.074 A 
ATOM     59  C   UNL     1       8.999  16.863   6.534  1.00  0.00     0.031 C 
ATOM     60  C   UNL     1       9.371  15.822   8.752  1.00  0.00     0.037 A 
BRANCH  47  61
ATOM     61  C   UNL     1       8.435  10.620  11.936  1.00  0.00     0.057 A 
ATOM     62  C   UNL     1       9.378   9.603  12.130  1.00  0.00     0.134 A 
ATOM     63  C   UNL     1       7.600  10.945  13.012  1.00  0.00     0.134 A 
ATOM     64  F   UNL     1      10.195   9.236  11.131  1.00  0.00    -0.206 F 
ATOM     65  C   UNL     1       9.472   8.919  13.342  1.00  0.00     0.040 A 
ATOM     66  C   UNL     1       7.698  10.282  14.236  1.00  0.00     0.040 A 
ATOM     67  F   UNL     1       6.677  11.911  12.890  1.00  0.00    -0.206 F 
ATOM     68  C   UNL     1       8.633   9.261  14.401  1.00  0.00     0.006 A 
ENDBRANCH  47  61
BRANCH  48  69
ATOM     69  C   UNL     1       7.337  15.072   3.111  1.00  0.00     0.057 A 
ATOM     70  C   UNL     1       8.460  15.340   2.321  1.00  0.00     0.134 A 
ATOM     71  C   UNL     1       6.088  15.471   2.623  1.00  0.00     0.134 A 
ATOM     72  F   UNL     1       9.684  15.002   2.751  1.00  0.00    -0.206 F 
ATOM     73  C   UNL     1       8.347  15.992   1.092  1.00  0.00     0.040 A 
ATOM     74  C   UNL     1       5.959  16.107   1.387  1.00  0.00     0.040 A 
ATOM     75  F   UNL     1       4.977  15.244   3.338  1.00  0.00    -0.206 F 
ATOM     76  C   UNL     1       7.092  16.373   0.620  1.00  0.00     0.006 A 
ENDBRANCH  48  69
BRANCH  60  77
ATOM     77  C   UNL     1      10.020  17.099   9.198  1.00  0.00     0.057 A 
ATOM     78  C   UNL     1       9.270  18.244   9.491  1.00  0.00     0.134 A 
ATOM     79  C   UNL     1      11.408  17.170   9.372  1.00  0.00     0.134 A 
ATOM     80  F   UNL     1       7.938  18.243   9.334  1.00  0.00    -0.206 F 
ATOM     81  C   UNL     1       9.881  19.423   9.924  1.00  0.00     0.040 A 
ATOM     82  C   UNL     1      12.028  18.336   9.823  1.00  0.00     0.040 A 
ATOM     83  F   UNL     1      12.182  16.104   9.115  1.00  0.00    -0.206 F 
ATOM     84  C   UNL     1      11.263  19.468  10.097  1.00  0.00     0.006 A 
ENDBRANCH  60  77
ENDBRANCH  34  35
ENDBRANCH  27  29
ENDBRANCH  26  27
ENDBRANCH  25  26
ENDBRANCH  24  25
ENDBRANCH  23  24
ENDBRANCH   1  23
TORSDOF 18
