REMARK SMILES O=C(OCCOCCOC(=O)c1ccccc1C[NH2+]C1CCCC1)c1ccc(-c2c3nc(c(-c4c(F)cccc4F)c4ccc([nH]4)c(-c4c(F)cccc4F)c4nc(c(-c5c(F)cccc5F)c5ccc2[nH]5)C=C4)C=C3)cc1
REMARK SMILES IDX 7 1 6 2 5 3 4 4 3 5 2 6 1 7 25 8 26 9 78 10 27 11 77 12
REMARK SMILES IDX 28 13 29 14 30 15 71 16 31 17 76 18 70 19 72 20 32 21 75 22
REMARK SMILES IDX 69 23 68 24 33 26 59 27 42 28 58 29 43 30 46 31 57 32 73 33
REMARK SMILES IDX 44 34 45 35 56 37 74 38 47 39 34 40 35 41 40 42 36 43 37 44
REMARK SMILES IDX 39 45 41 46 38 47 60 48 61 49 66 50 62 51 63 52 65 53 67 54
REMARK SMILES IDX 64 55 48 56 49 57 54 58 50 59 51 60 53 61 55 62 52 63 8 64
REMARK SMILES IDX 9 65 10 66 11 67 12 68 13 69 17 70 14 71 16 72 15 73 18 74
REMARK SMILES IDX 19 75 20 78 21 79 24 80 22 81 23 82
REMARK H PARENT 72 25 46 36 19 76 19 77
REMARK Flexibility Score: inf
ROOT
ATOM      1  C   UNL     1       2.892   1.225  -1.667  1.00  0.00     0.202 C 
ENDROOT
BRANCH   1   2
ATOM      2  O   UNL     1       4.177   0.735  -1.270  1.00  0.00    -0.374 OA
BRANCH   2   3
ATOM      3  C   UNL     1       4.352  -0.680  -1.364  1.00  0.00     0.202 C 
BRANCH   3   4
ATOM      4  C   UNL     1       4.004  -1.430  -0.074  1.00  0.00     0.261 C 
BRANCH   4   5
ATOM      5  O   UNL     1       2.632  -1.202   0.291  1.00  0.00    -0.460 OA
BRANCH   5   6
ATOM      6  C   UNL     1       2.119  -0.302   1.162  1.00  0.00     0.338 C 
ATOM      7  O   UNL     1       0.899  -0.278   1.321  1.00  0.00    -0.246 OA
BRANCH   6   8
ATOM      8  C   UNL     1       2.939   0.661   1.963  1.00  0.00     0.060 A 
ATOM      9  C   UNL     1       4.223   1.095   1.635  1.00  0.00     0.016 A 
ATOM     10  C   UNL     1       2.332   1.225   3.101  1.00  0.00     0.016 A 
ATOM     11  C   UNL     1       4.907   2.008   2.417  1.00  0.00     0.010 A 
ATOM     12  C   UNL     1       3.006   2.162   3.893  1.00  0.00     0.010 A 
ATOM     13  C   UNL     1       4.310   2.533   3.556  1.00  0.00    -0.014 A 
BRANCH  13  14
ATOM     14  C   UNL     1       5.178   3.324   4.440  1.00  0.00     0.031 A 
ATOM     15  C   UNL     1       5.801   2.626   5.608  1.00  0.00     0.074 A 
ATOM     16  C   UNL     1       5.559   4.555   4.057  1.00  0.00     0.049 A 
ATOM     17  N   UNL     1       6.659   3.076   6.481  1.00  0.00    -0.248 NA
ATOM     18  C   UNL     1       5.427   1.213   5.801  1.00  0.00     0.031 C 
ATOM     19  C   UNL     1       5.110   5.234   2.838  1.00  0.00     0.029 A 
ATOM     20  N   UNL     1       6.450   5.427   4.617  1.00  0.00    -0.354 N 
ATOM     21  C   UNL     1       6.908   2.013   7.339  1.00  0.00     0.074 A 
ATOM     22  C   UNL     1       6.115   0.895   6.884  1.00  0.00     0.031 C 
ATOM     23  C   UNL     1       5.757   6.404   2.726  1.00  0.00     0.029 A 
ATOM     24  C   UNL     1       6.616   6.582   3.891  1.00  0.00     0.049 A 
ATOM     25  H   UNL     1       6.928   5.246   5.458  1.00  0.00     0.167 HD
ATOM     26  C   UNL     1       7.722   1.988   8.418  1.00  0.00     0.037 A 
ATOM     27  C   UNL     1       7.369   7.663   4.163  1.00  0.00     0.037 A 
ATOM     28  C   UNL     1       8.495   3.122   8.842  1.00  0.00     0.049 A 
ATOM     29  C   UNL     1       8.188   7.645   5.425  1.00  0.00     0.074 A 
ATOM     30  C   UNL     1       9.290   3.262   9.962  1.00  0.00     0.029 A 
ATOM     31  N   UNL     1       8.562   4.322   8.144  1.00  0.00    -0.354 N 
ATOM     32  N   UNL     1       8.354   6.669   6.288  1.00  0.00    -0.248 NA
ATOM     33  C   UNL     1       8.910   8.876   5.762  1.00  0.00     0.031 C 
ATOM     34  C   UNL     1       9.806   4.563   9.964  1.00  0.00     0.029 A 
ATOM     35  C   UNL     1       9.374   5.216   8.818  1.00  0.00     0.049 A 
ATOM     36  H   UNL     1       8.100   4.508   7.295  1.00  0.00     0.167 HD
ATOM     37  C   UNL     1       9.216   7.159   7.258  1.00  0.00     0.074 A 
ATOM     38  C   UNL     1       9.550   8.515   6.865  1.00  0.00     0.031 C 
ATOM     39  C   UNL     1       9.687   6.553   8.376  1.00  0.00     0.037 A 
BRANCH  26  40
ATOM     40  C   UNL     1       7.721   0.731   9.235  1.00  0.00     0.057 A 
ATOM     41  C   UNL     1       8.319  -0.456   8.791  1.00  0.00     0.134 A 
ATOM     42  C   UNL     1       7.050   0.695  10.464  1.00  0.00     0.134 A 
ATOM     43  F   UNL     1       8.946  -0.499   7.606  1.00  0.00    -0.206 F 
ATOM     44  C   UNL     1       8.222  -1.641   9.525  1.00  0.00     0.040 A 
ATOM     45  C   UNL     1       6.966  -0.477  11.217  1.00  0.00     0.040 A 
ATOM     46  F   UNL     1       6.446   1.793  10.942  1.00  0.00    -0.206 F 
ATOM     47  C   UNL     1       7.545  -1.652  10.743  1.00  0.00     0.006 A 
ENDBRANCH  26  40
BRANCH  27  48
ATOM     48  C   UNL     1       7.348   8.847   3.265  1.00  0.00     0.057 A 
ATOM     49  C   UNL     1       8.491   9.267   2.575  1.00  0.00     0.134 A 
ATOM     50  C   UNL     1       6.181   9.605   3.089  1.00  0.00     0.134 A 
ATOM     51  F   UNL     1       9.646   8.599   2.712  1.00  0.00    -0.206 F 
ATOM     52  C   UNL     1       8.480  10.402   1.760  1.00  0.00     0.040 A 
ATOM     53  C   UNL     1       6.149  10.725   2.256  1.00  0.00     0.040 A 
ATOM     54  F   UNL     1       5.048   9.261   3.721  1.00  0.00    -0.206 F 
ATOM     55  C   UNL     1       7.304  11.132   1.595  1.00  0.00     0.006 A 
ENDBRANCH  27  48
BRANCH  39  56
ATOM     56  C   UNL     1      10.643   7.343   9.216  1.00  0.00     0.057 A 
ATOM     57  C   UNL     1      10.217   8.411  10.014  1.00  0.00     0.134 A 
ATOM     58  C   UNL     1      12.000   7.000   9.252  1.00  0.00     0.134 A 
ATOM     59  F   UNL     1       8.931   8.793  10.011  1.00  0.00    -0.206 F 
ATOM     60  C   UNL     1      11.116   9.128  10.803  1.00  0.00     0.040 A 
ATOM     61  C   UNL     1      12.902   7.692  10.057  1.00  0.00     0.040 A 
ATOM     62  F   UNL     1      12.465   5.979   8.515  1.00  0.00    -0.206 F 
ATOM     63  C   UNL     1      12.461   8.764  10.831  1.00  0.00     0.006 A 
ENDBRANCH  39  56
ENDBRANCH  13  14
ENDBRANCH   6   8
ENDBRANCH   5   6
ENDBRANCH   4   5
ENDBRANCH   3   4
ENDBRANCH   2   3
ENDBRANCH   1   2
BRANCH   1  64
ATOM     64  C   UNL     1       3.029   2.030  -2.955  1.00  0.00     0.261 C 
BRANCH  64  65
ATOM     65  O   UNL     1       3.533   1.149  -3.967  1.00  0.00    -0.460 OA
BRANCH  65  66
ATOM     66  C   UNL     1       4.876   1.146  -4.141  1.00  0.00     0.338 C 
ATOM     67  O   UNL     1       5.675   1.970  -3.729  1.00  0.00    -0.246 OA
BRANCH  66  68
ATOM     68  C   UNL     1       5.259  -0.139  -4.779  1.00  0.00     0.068 A 
ATOM     69  C   UNL     1       6.383  -0.780  -4.234  1.00  0.00     0.016 A 
ATOM     70  C   UNL     1       4.532  -0.737  -5.830  1.00  0.00     0.021 A 
ATOM     71  C   UNL     1       6.753  -2.047  -4.675  1.00  0.00     0.001 A 
ATOM     72  C   UNL     1       4.925  -2.016  -6.259  1.00  0.00     0.010 A 
ATOM     73  C   UNL     1       6.017  -2.668  -5.679  1.00  0.00     0.001 A 
BRANCH  70  74
ATOM     74  C   UNL     1       3.361  -0.056  -6.512  1.00  0.00     0.298 C 
BRANCH  74  75
ATOM     75  N   UNL     1       3.757   1.226  -7.096  1.00  0.00    -0.340 N 
ATOM     76  H   UNL     1       4.311   1.048  -7.933  1.00  0.00     0.346 HD
ATOM     77  H   UNL     1       4.294   1.736  -6.394  1.00  0.00     0.346 HD
BRANCH  75  78
ATOM     78  C   UNL     1       2.610   2.047  -7.460  1.00  0.00     0.182 C 
ATOM     79  C   UNL     1       3.032   3.501  -7.670  1.00  0.00     0.065 C 
ATOM     80  C   UNL     1       2.009   1.679  -8.811  1.00  0.00     0.065 C 
ATOM     81  C   UNL     1       1.859   4.095  -8.434  1.00  0.00     0.006 C 
ATOM     82  C   UNL     1       1.298   2.949  -9.278  1.00  0.00     0.006 C 
ENDBRANCH  75  78
ENDBRANCH  74  75
ENDBRANCH  70  74
ENDBRANCH  66  68
ENDBRANCH  65  66
ENDBRANCH  64  65
ENDBRANCH   1  64
TORSDOF 17
