REMARK SMILES C[C@H]1CCc2sc3ncn4nc(/C=C\C(=O)OCCOCCOC(=O)c5ccc(-c6c7nc(c(-c8c(F)cccc8F)c8ccc([nH]8)c(-c8c(F)cccc8F)c8nc(c(-c9c(F)cccc9F)c9ccc6[nH]9)C=C8)C=C7)cc5)nc4c3c2C1
REMARK SMILES IDX 21 1 20 2 19 3 18 4 17 5 15 6 16 7 14 8 13 9 12 10 1 11 2 12
REMARK SMILES IDX 3 13 84 14 4 15 83 16 5 17 82 18 6 19 7 20 81 21 8 22 10 23
REMARK SMILES IDX 80 24 9 25 11 26 22 27 23 28 24 29 25 30 26 31 27 32 79 33
REMARK SMILES IDX 28 34 78 35 29 36 30 37 31 38 72 39 32 40 77 41 71 42 73 43
REMARK SMILES IDX 33 44 76 45 70 46 69 47 34 49 60 50 43 51 59 52 44 53 47 54
REMARK SMILES IDX 58 55 74 56 45 57 46 58 57 60 75 61 48 62 35 63 36 64 41 65
REMARK SMILES IDX 37 66 38 67 40 68 42 69 39 70 61 71 62 72 67 73 63 74 64 75
REMARK SMILES IDX 66 76 68 77 65 78 49 79 50 80 55 81 51 82 52 83 54 84 56 85
REMARK SMILES IDX 53 86
REMARK H PARENT 73 48 47 59
REMARK Flexibility Score: inf
ROOT
ATOM      1  C   UNL     1       2.393  -4.870   1.452  1.00  0.00     0.202 C 
ENDROOT
BRANCH   1   2
ATOM      2  O   UNL     1       1.988  -4.062   0.351  1.00  0.00    -0.374 OA
BRANCH   2   3
ATOM      3  C   UNL     1       1.290  -2.851   0.648  1.00  0.00     0.202 C 
BRANCH   3   4
ATOM      4  C   UNL     1      -0.153  -3.051   1.102  1.00  0.00     0.261 C 
BRANCH   4   5
ATOM      5  O   UNL     1      -0.173  -3.415   2.496  1.00  0.00    -0.460 OA
BRANCH   5   6
ATOM      6  C   UNL     1      -0.831  -4.542   2.815  1.00  0.00     0.330 C 
ATOM      7  O   UNL     1      -1.454  -5.256   2.040  1.00  0.00    -0.247 OA
BRANCH   6   8
ATOM      8  C   UNL     1      -0.587  -4.993   4.200  1.00  0.00     0.097 C 
ATOM      9  C   UNL     1      -0.321  -4.364   5.355  1.00  0.00     0.058 C 
BRANCH   9  10
ATOM     10  C   UNL     1      -0.184  -2.988   5.690  1.00  0.00     0.175 A 
ATOM     11  C   UNL     1      -1.089   1.715   0.958  1.00  0.00     0.008 C 
ATOM     12  C   UNL     1       0.365   1.368   1.294  1.00  0.00    -0.009 C 
ATOM     13  C   UNL     1       1.218   2.634   1.538  1.00  0.00     0.009 C 
ATOM     14  C   UNL     1       0.454   0.392   2.485  1.00  0.00     0.041 C 
ATOM     15  C   UNL     1       0.853   3.395   2.827  1.00  0.00     0.047 C 
ATOM     16  C   UNL     1       0.450   1.078   3.810  1.00  0.00    -0.020 A 
ATOM     17  C   UNL     1       0.648   2.436   3.959  1.00  0.00     0.011 A 
ATOM     18  C   UNL     1       0.290   0.475   5.072  1.00  0.00     0.060 A 
ATOM     19  S   UNL     1       0.600   2.941   5.594  1.00  0.00    -0.120 S 
ATOM     20  C   UNL     1       0.330   1.344   6.151  1.00  0.00     0.129 A 
ATOM     21  C   UNL     1       0.087  -0.930   5.441  1.00  0.00     0.168 A 
ATOM     22  N   UNL     1       0.184   1.033   7.485  1.00  0.00    -0.225 NA
ATOM     23  N   UNL     1      -0.043  -1.211   6.763  1.00  0.00    -0.201 N 
ATOM     24  N   UNL     1       0.000  -2.025   4.731  1.00  0.00    -0.207 NA
ATOM     25  C   UNL     1      -0.003  -0.236   7.760  1.00  0.00     0.227 A 
ATOM     26  N   UNL     1      -0.195  -2.532   6.960  1.00  0.00    -0.145 NA
ENDBRANCH   9  10
ENDBRANCH   6   8
ENDBRANCH   5   6
ENDBRANCH   4   5
ENDBRANCH   3   4
ENDBRANCH   2   3
ENDBRANCH   1   2
BRANCH   1  27
ATOM     27  C   UNL     1       3.651  -4.397   2.162  1.00  0.00     0.261 C 
BRANCH  27  28
ATOM     28  O   UNL     1       3.405  -3.253   2.975  1.00  0.00    -0.460 OA
BRANCH  28  29
ATOM     29  C   UNL     1       3.943  -2.099   2.515  1.00  0.00     0.338 C 
ATOM     30  O   UNL     1       4.231  -1.826   1.365  1.00  0.00    -0.246 OA
BRANCH  29  31
ATOM     31  C   UNL     1       4.354  -1.288   3.671  1.00  0.00     0.060 A 
ATOM     32  C   UNL     1       5.064  -0.115   3.397  1.00  0.00     0.016 A 
ATOM     33  C   UNL     1       4.296  -1.827   4.966  1.00  0.00     0.016 A 
ATOM     34  C   UNL     1       5.862   0.422   4.386  1.00  0.00     0.010 A 
ATOM     35  C   UNL     1       5.111  -1.306   5.944  1.00  0.00     0.010 A 
ATOM     36  C   UNL     1       5.935  -0.230   5.620  1.00  0.00    -0.014 A 
BRANCH  36  37
ATOM     37  C   UNL     1       6.904   0.250   6.582  1.00  0.00     0.031 A 
ATOM     38  C   UNL     1       6.487   1.444   7.352  1.00  0.00     0.074 A 
ATOM     39  C   UNL     1       8.033  -0.430   6.850  1.00  0.00     0.049 A 
ATOM     40  N   UNL     1       7.054   2.604   7.404  1.00  0.00    -0.248 NA
ATOM     41  C   UNL     1       5.220   1.353   8.094  1.00  0.00     0.031 C 
ATOM     42  C   UNL     1       8.407  -1.781   6.421  1.00  0.00     0.029 A 
ATOM     43  N   UNL     1       9.053  -0.073   7.673  1.00  0.00    -0.354 N 
ATOM     44  C   UNL     1       6.305   3.346   8.311  1.00  0.00     0.074 A 
ATOM     45  C   UNL     1       5.119   2.580   8.599  1.00  0.00     0.031 C 
ATOM     46  C   UNL     1       9.460  -2.201   7.160  1.00  0.00     0.029 A 
ATOM     47  C   UNL     1       9.902  -1.111   8.014  1.00  0.00     0.049 A 
ATOM     48  H   UNL     1       9.177   0.848   7.999  1.00  0.00     0.167 HD
ATOM     49  C   UNL     1       6.797   4.453   8.926  1.00  0.00     0.037 A 
ATOM     50  C   UNL     1      10.832  -1.082   9.000  1.00  0.00     0.037 A 
ATOM     51  C   UNL     1       7.933   5.000   8.238  1.00  0.00     0.049 A 
ATOM     52  C   UNL     1      11.094   0.342   9.333  1.00  0.00     0.074 A 
ATOM     53  C   UNL     1       8.139   5.514   6.972  1.00  0.00     0.029 A 
ATOM     54  N   UNL     1       9.185   4.748   8.739  1.00  0.00    -0.354 N 
ATOM     55  N   UNL     1      11.699   1.184   8.544  1.00  0.00    -0.248 NA
ATOM     56  C   UNL     1      10.298   0.945  10.392  1.00  0.00     0.031 C 
ATOM     57  C   UNL     1       9.447   5.083   6.603  1.00  0.00     0.029 A 
ATOM     58  C   UNL     1       9.967   4.362   7.678  1.00  0.00     0.049 A 
ATOM     59  H   UNL     1       9.469   4.829   9.678  1.00  0.00     0.167 HD
ATOM     60  C   UNL     1      11.045   2.393   8.740  1.00  0.00     0.074 A 
ATOM     61  C   UNL     1      10.258   2.206   9.955  1.00  0.00     0.031 C 
ATOM     62  C   UNL     1      10.980   3.335   7.753  1.00  0.00     0.037 A 
BRANCH  49  63
ATOM     63  C   UNL     1       6.404   4.855  10.318  1.00  0.00     0.057 A 
ATOM     64  C   UNL     1       6.668   6.151  10.782  1.00  0.00     0.134 A 
ATOM     65  C   UNL     1       5.989   3.931  11.300  1.00  0.00     0.134 A 
ATOM     66  F   UNL     1       7.118   7.101   9.949  1.00  0.00    -0.206 F 
ATOM     67  C   UNL     1       6.540   6.499  12.133  1.00  0.00     0.040 A 
ATOM     68  C   UNL     1       5.804   4.280  12.639  1.00  0.00     0.040 A 
ATOM     69  F   UNL     1       5.834   2.627  11.029  1.00  0.00    -0.206 F 
ATOM     70  C   UNL     1       6.101   5.564  13.064  1.00  0.00     0.006 A 
ENDBRANCH  49  63
BRANCH  50  71
ATOM     71  C   UNL     1      11.237  -2.185   9.901  1.00  0.00     0.057 A 
ATOM     72  C   UNL     1      12.398  -2.089  10.679  1.00  0.00     0.134 A 
ATOM     73  C   UNL     1      10.357  -3.232  10.230  1.00  0.00     0.134 A 
ATOM     74  F   UNL     1      13.278  -1.100  10.468  1.00  0.00    -0.206 F 
ATOM     75  C   UNL     1      12.656  -2.964  11.742  1.00  0.00     0.040 A 
ATOM     76  C   UNL     1      10.608  -4.119  11.281  1.00  0.00     0.040 A 
ATOM     77  F   UNL     1       9.179  -3.375   9.606  1.00  0.00    -0.206 F 
ATOM     78  C   UNL     1      11.754  -3.977  12.053  1.00  0.00     0.006 A 
ENDBRANCH  50  71
BRANCH  62  79
ATOM     79  C   UNL     1      11.835   3.127   6.532  1.00  0.00     0.057 A 
ATOM     80  C   UNL     1      11.693   2.036   5.659  1.00  0.00     0.134 A 
ATOM     81  C   UNL     1      12.733   4.127   6.146  1.00  0.00     0.134 A 
ATOM     82  F   UNL     1      10.779   1.084   5.883  1.00  0.00    -0.206 F 
ATOM     83  C   UNL     1      12.450   1.919   4.489  1.00  0.00     0.040 A 
ATOM     84  C   UNL     1      13.470   4.040   4.961  1.00  0.00     0.040 A 
ATOM     85  F   UNL     1      12.878   5.232   6.894  1.00  0.00    -0.206 F 
ATOM     86  C   UNL     1      13.340   2.927   4.135  1.00  0.00     0.006 A 
ENDBRANCH  62  79
ENDBRANCH  36  37
ENDBRANCH  29  31
ENDBRANCH  28  29
ENDBRANCH  27  28
ENDBRANCH   1  27
TORSDOF 15
