REMARK SMILES O=C(OCCOCCOC(=O)c1cc(/C=C/c2cc(O)cc(O)c2)ccc1O)c1ccc(-c2c3nc(c(-c4c(F)cccc4F)c4ccc([nH]4)c(-c4c(F)cccc4F)c4nc(c(-c5c(F)cccc5F)c5ccc2[nH]5)C=C4)C=C3)cc1
REMARK SMILES IDX 7 1 6 2 5 3 4 4 3 5 2 6 1 7 29 8 30 9 82 10 31 11 81 12
REMARK SMILES IDX 32 13 33 14 34 15 75 16 35 17 80 18 74 19 76 20 36 21 79 22
REMARK SMILES IDX 73 23 72 24 37 26 63 27 46 28 62 29 47 30 50 31 61 32 77 33
REMARK SMILES IDX 48 34 49 35 60 37 78 38 51 39 38 40 39 41 44 42 40 43 41 44
REMARK SMILES IDX 43 45 45 46 42 47 64 48 65 49 70 50 66 51 67 52 69 53 71 54
REMARK SMILES IDX 68 55 52 56 53 57 58 58 54 59 55 60 57 61 59 62 56 63 8 64
REMARK SMILES IDX 9 65 10 66 11 67 12 68 13 69 27 70 14 71 26 72 25 73 28 74
REMARK SMILES IDX 15 76 16 77 17 78 18 79 24 80 19 81 22 82 21 83 20 84 23 86
REMARK H PARENT 76 25 50 36 28 75 20 85 23 87
REMARK Flexibility Score: inf
ROOT
ATOM      1  C   UNL     1       2.703  -0.158   2.115  1.00  0.00     0.202 C 
ENDROOT
BRANCH   1   2
ATOM      2  O   UNL     1       4.036   0.097   1.656  1.00  0.00    -0.374 OA
BRANCH   2   3
ATOM      3  C   UNL     1       4.260   1.381   1.079  1.00  0.00     0.202 C 
BRANCH   3   4
ATOM      4  C   UNL     1       3.955   1.451  -0.420  1.00  0.00     0.261 C 
BRANCH   4   5
ATOM      5  O   UNL     1       2.582   1.104  -0.671  1.00  0.00    -0.460 OA
BRANCH   5   6
ATOM      6  C   UNL     1       2.093  -0.028  -1.230  1.00  0.00     0.338 C 
ATOM      7  O   UNL     1       0.891  -0.089  -1.482  1.00  0.00    -0.246 OA
BRANCH   6   8
ATOM      8  C   UNL     1       2.933  -1.222  -1.551  1.00  0.00     0.060 A 
ATOM      9  C   UNL     1       4.105  -1.569  -0.881  1.00  0.00     0.016 A 
ATOM     10  C   UNL     1       2.443  -2.114  -2.520  1.00  0.00     0.016 A 
ATOM     11  C   UNL     1       4.795  -2.734  -1.168  1.00  0.00     0.010 A 
ATOM     12  C   UNL     1       3.108  -3.315  -2.792  1.00  0.00     0.010 A 
ATOM     13  C   UNL     1       4.287  -3.624  -2.107  1.00  0.00    -0.014 A 
BRANCH  13  14
ATOM     14  C   UNL     1       5.062  -4.847  -2.364  1.00  0.00     0.031 A 
ATOM     15  C   UNL     1       5.903  -4.916  -3.597  1.00  0.00     0.074 A 
ATOM     16  C   UNL     1       5.106  -5.801  -1.416  1.00  0.00     0.049 A 
ATOM     17  N   UNL     1       6.642  -5.896  -4.036  1.00  0.00    -0.248 NA
ATOM     18  C   UNL     1       5.930  -3.709  -4.442  1.00  0.00     0.031 C 
ATOM     19  C   UNL     1       4.413  -5.738  -0.124  1.00  0.00     0.029 A 
ATOM     20  N   UNL     1       5.783  -6.988  -1.370  1.00  0.00    -0.354 N 
ATOM     21  C   UNL     1       7.198  -5.440  -5.222  1.00  0.00     0.074 A 
ATOM     22  C   UNL     1       6.721  -4.092  -5.433  1.00  0.00     0.031 C 
ATOM     23  C   UNL     1       4.716  -6.832   0.591  1.00  0.00     0.029 A 
ATOM     24  C   UNL     1       5.560  -7.702  -0.217  1.00  0.00     0.049 A 
ATOM     25  H   UNL     1       6.374  -7.301  -2.093  1.00  0.00     0.167 HD
ATOM     26  C   UNL     1       8.024  -6.106  -6.059  1.00  0.00     0.037 A 
ATOM     27  C   UNL     1       5.963  -8.942   0.117  1.00  0.00     0.037 A 
ATOM     28  C   UNL     1       8.480  -7.447  -5.811  1.00  0.00     0.049 A 
ATOM     29  C   UNL     1       6.801  -9.694  -0.881  1.00  0.00     0.074 A 
ATOM     30  C   UNL     1       9.274  -8.252  -6.604  1.00  0.00     0.029 A 
ATOM     31  N   UNL     1       8.174  -8.177  -4.669  1.00  0.00    -0.354 N 
ATOM     32  N   UNL     1       7.278  -9.284  -2.034  1.00  0.00    -0.248 NA
ATOM     33  C   UNL     1       7.138 -11.084  -0.550  1.00  0.00     0.031 C 
ATOM     34  C   UNL     1       9.409  -9.488  -5.964  1.00  0.00     0.029 A 
ATOM     35  C   UNL     1       8.742  -9.435  -4.748  1.00  0.00     0.049 A 
ATOM     36  H   UNL     1       7.633  -7.848  -3.916  1.00  0.00     0.167 HD
ATOM     37  C   UNL     1       7.980 -10.358  -2.560  1.00  0.00     0.074 A 
ATOM     38  C   UNL     1       7.889 -11.429  -1.586  1.00  0.00     0.031 C 
ATOM     39  C   UNL     1       8.631 -10.464  -3.745  1.00  0.00     0.037 A 
BRANCH  26  40
ATOM     40  C   UNL     1       8.405  -5.425  -7.337  1.00  0.00     0.057 A 
ATOM     41  C   UNL     1       9.322  -4.367  -7.379  1.00  0.00     0.134 A 
ATOM     42  C   UNL     1       7.832  -5.834  -8.548  1.00  0.00     0.134 A 
ATOM     43  F   UNL     1       9.882  -3.907  -6.251  1.00  0.00    -0.206 F 
ATOM     44  C   UNL     1       9.645  -3.732  -8.580  1.00  0.00     0.040 A 
ATOM     45  C   UNL     1       8.163  -5.220  -9.757  1.00  0.00     0.040 A 
ATOM     46  F   UNL     1       6.939  -6.834  -8.575  1.00  0.00    -0.206 F 
ATOM     47  C   UNL     1       9.069  -4.162  -9.775  1.00  0.00     0.006 A 
ENDBRANCH  26  40
BRANCH  27  48
ATOM     48  C   UNL     1       5.522  -9.573   1.389  1.00  0.00     0.057 A 
ATOM     49  C   UNL     1       6.438  -9.958   2.375  1.00  0.00     0.134 A 
ATOM     50  C   UNL     1       4.169  -9.852   1.631  1.00  0.00     0.134 A 
ATOM     51  F   UNL     1       7.749  -9.741   2.201  1.00  0.00    -0.206 F 
ATOM     52  C   UNL     1       6.030 -10.620   3.537  1.00  0.00     0.040 A 
ATOM     53  C   UNL     1       3.744 -10.484   2.801  1.00  0.00     0.040 A 
ATOM     54  F   UNL     1       3.235  -9.514   0.730  1.00  0.00    -0.206 F 
ATOM     55  C   UNL     1       4.678 -10.882   3.753  1.00  0.00     0.006 A 
ENDBRANCH  27  48
BRANCH  39  56
ATOM     56  C   UNL     1       9.309 -11.769  -4.024  1.00  0.00     0.057 A 
ATOM     57  C   UNL     1       8.582 -12.918  -4.357  1.00  0.00     0.134 A 
ATOM     58  C   UNL     1      10.706 -11.862  -4.005  1.00  0.00     0.134 A 
ATOM     59  F   UNL     1       7.241 -12.893  -4.377  1.00  0.00    -0.206 F 
ATOM     60  C   UNL     1       9.223 -14.123  -4.644  1.00  0.00     0.040 A 
ATOM     61  C   UNL     1      11.358 -13.053  -4.317  1.00  0.00     0.040 A 
ATOM     62  F   UNL     1      11.456 -10.791  -3.702  1.00  0.00    -0.206 F 
ATOM     63  C   UNL     1      10.615 -14.189  -4.633  1.00  0.00     0.006 A 
ENDBRANCH  39  56
ENDBRANCH  13  14
ENDBRANCH   6   8
ENDBRANCH   5   6
ENDBRANCH   4   5
ENDBRANCH   3   4
ENDBRANCH   2   3
ENDBRANCH   1   2
BRANCH   1  64
ATOM     64  C   UNL     1       2.771  -0.699   3.543  1.00  0.00     0.261 C 
BRANCH  64  65
ATOM     65  O   UNL     1       3.321   0.336   4.368  1.00  0.00    -0.460 OA
BRANCH  65  66
ATOM     66  C   UNL     1       4.677   0.349   4.482  1.00  0.00     0.342 C 
ATOM     67  O   UNL     1       5.447  -0.556   4.235  1.00  0.00    -0.246 OA
BRANCH  66  68
ATOM     68  C   UNL     1       5.097   1.755   4.701  1.00  0.00     0.102 A 
ATOM     69  C   UNL     1       6.178   2.237   3.935  1.00  0.00     0.027 A 
ATOM     70  C   UNL     1       4.407   2.616   5.558  1.00  0.00     0.130 A 
ATOM     71  C   UNL     1       6.535   3.590   3.985  1.00  0.00    -0.025 A 
ATOM     72  C   UNL     1       4.772   3.955   5.637  1.00  0.00     0.048 A 
ATOM     73  C   UNL     1       5.824   4.434   4.852  1.00  0.00     0.012 A 
BRANCH  70  74
ATOM     74  O   UNL     1       3.386   2.156   6.340  1.00  0.00    -0.507 OA
ATOM     75  H   UNL     1       3.131   1.255   6.296  1.00  0.00     0.293 HD
ENDBRANCH  70  74
BRANCH  71  76
ATOM     76  C   UNL     1       7.654   4.181   3.231  1.00  0.00     0.009 C 
ATOM     77  C   UNL     1       8.153   3.772   2.051  1.00  0.00     0.009 C 
BRANCH  77  78
ATOM     78  C   UNL     1       9.276   4.478   1.401  1.00  0.00    -0.018 A 
ATOM     79  C   UNL     1      10.389   4.910   2.142  1.00  0.00     0.054 A 
ATOM     80  C   UNL     1       9.255   4.705   0.017  1.00  0.00     0.054 A 
ATOM     81  C   UNL     1      11.432   5.587   1.513  1.00  0.00     0.119 A 
ATOM     82  C   UNL     1      10.315   5.382  -0.594  1.00  0.00     0.119 A 
ATOM     83  C   UNL     1      11.401   5.830   0.147  1.00  0.00     0.092 A 
BRANCH  81  84
ATOM     84  O   UNL     1      12.514   6.032   2.215  1.00  0.00    -0.508 OA
ATOM     85  H   UNL     1      12.565   5.884   3.139  1.00  0.00     0.293 HD
ENDBRANCH  81  84
BRANCH  82  86
ATOM     86  O   UNL     1      10.323   5.634  -1.935  1.00  0.00    -0.508 OA
ATOM     87  H   UNL     1      11.045   6.090  -2.321  1.00  0.00     0.293 HD
ENDBRANCH  82  86
ENDBRANCH  77  78
ENDBRANCH  71  76
ENDBRANCH  66  68
ENDBRANCH  65  66
ENDBRANCH  64  65
ENDBRANCH   1  64
TORSDOF 19
