REMARK SMILES CC(C)[C@@H](CCC(=O)OCCOCCOC(=O)c1ccc(-c2c3nc(c(-c4c(F)cccc4F)c4ccc([nH]4)c(-c4c(F)cccc4F)c4nc(c(-c5c(F)cccc5F)c5ccc2[nH]5)C=C4)C=C3)cc1)CC[NH+]1CC2(CC2)C1
REMARK SMILES IDX 10 1 9 2 7 3 8 4 6 5 5 6 4 7 2 8 1 9 3 10 72 11 73 12 74 13
REMARK SMILES IDX 75 14 79 15 76 17 77 18 78 19 11 20 12 21 13 22 14 23 15 24
REMARK SMILES IDX 16 25 17 26 18 27 19 28 71 29 20 30 70 31 21 32 22 33 23 34
REMARK SMILES IDX 64 35 24 36 69 37 63 38 65 39 25 40 68 41 62 42 61 43 26 45
REMARK SMILES IDX 52 46 35 47 51 48 36 49 39 50 50 51 66 52 37 53 38 54 49 56
REMARK SMILES IDX 67 57 40 58 27 59 28 60 33 61 29 62 30 63 32 64 34 65 31 66
REMARK SMILES IDX 53 67 54 68 59 69 55 70 56 71 58 72 60 73 57 74 41 75 42 76
REMARK SMILES IDX 47 77 43 78 44 79 46 80 48 81 45 82
REMARK H PARENT 74 16 65 44 39 55
REMARK Flexibility Score: inf
ROOT
ATOM      1  C   UNL     1      -1.244   5.708   1.564  1.00  0.00     0.261 C 
ENDROOT
BRANCH   1   2
ATOM      2  O   UNL     1      -0.699   4.374   1.543  1.00  0.00    -0.463 OA
BRANCH   2   3
ATOM      3  C   UNL     1      -0.869   3.627   2.659  1.00  0.00     0.305 C 
ATOM      4  O   UNL     1      -1.388   4.013   3.697  1.00  0.00    -0.252 OA
BRANCH   3   5
ATOM      5  C   UNL     1      -0.283   2.247   2.489  1.00  0.00     0.123 C 
BRANCH   5   6
ATOM      6  C   UNL     1      -0.887   1.381   1.375  1.00  0.00     0.016 C 
BRANCH   6   7
ATOM      7  C   UNL     1      -0.312   1.450  -0.084  1.00  0.00    -0.002 C 
BRANCH   7   8
ATOM      8  C   UNL     1       1.246   1.393  -0.109  1.00  0.00    -0.014 C 
ATOM      9  C   UNL     1       1.714  -0.029   0.240  1.00  0.00     0.007 C 
ATOM     10  C   UNL     1       1.919   1.808  -1.415  1.00  0.00     0.007 C 
ENDBRANCH   7   8
BRANCH   7  11
ATOM     11  C   UNL     1      -0.997   2.559  -0.916  1.00  0.00     0.065 C 
BRANCH  11  12
ATOM     12  C   UNL     1      -1.023   2.476  -2.466  1.00  0.00     0.262 C 
BRANCH  12  13
ATOM     13  N   UNL     1      -1.758   1.479  -3.252  1.00  0.00    -0.334 N 
ATOM     14  C   UNL     1      -1.453   0.079  -2.964  1.00  0.00     0.275 C 
ATOM     15  C   UNL     1      -3.152   1.309  -2.858  1.00  0.00     0.275 C 
ATOM     16  H   UNL     1      -1.530   1.843  -4.178  1.00  0.00     0.348 HD
ATOM     17  C   UNL     1      -2.772  -0.001  -2.301  1.00  0.00     0.068 C 
ATOM     18  C   UNL     1      -3.138  -0.506  -0.942  1.00  0.00     0.020 C 
ATOM     19  C   UNL     1      -3.649  -1.205  -2.173  1.00  0.00     0.020 C 
ENDBRANCH  12  13
ENDBRANCH  11  12
ENDBRANCH   7  11
ENDBRANCH   6   7
ENDBRANCH   5   6
ENDBRANCH   3   5
ENDBRANCH   2   3
ENDBRANCH   1   2
BRANCH   1  20
ATOM     20  C   UNL     1      -2.590   5.749   0.841  1.00  0.00     0.202 C 
BRANCH  20  21
ATOM     21  O   UNL     1      -3.675   5.310   1.659  1.00  0.00    -0.374 OA
BRANCH  21  22
ATOM     22  C   UNL     1      -4.032   3.937   1.504  1.00  0.00     0.202 C 
BRANCH  22  23
ATOM     23  C   UNL     1      -5.113   3.708   0.443  1.00  0.00     0.261 C 
BRANCH  23  24
ATOM     24  O   UNL     1      -4.607   3.967  -0.880  1.00  0.00    -0.460 OA
BRANCH  24  25
ATOM     25  C   UNL     1      -4.914   5.175  -1.416  1.00  0.00     0.338 C 
ATOM     26  O   UNL     1      -5.632   6.037  -0.944  1.00  0.00    -0.246 OA
BRANCH  25  27
ATOM     27  C   UNL     1      -4.088   5.369  -2.626  1.00  0.00     0.060 A 
ATOM     28  C   UNL     1      -3.341   6.543  -2.756  1.00  0.00     0.016 A 
ATOM     29  C   UNL     1      -4.033   4.396  -3.622  1.00  0.00     0.016 A 
ATOM     30  C   UNL     1      -2.543   6.743  -3.888  1.00  0.00     0.010 A 
ATOM     31  C   UNL     1      -3.182   4.566  -4.718  1.00  0.00     0.010 A 
ATOM     32  C   UNL     1      -2.459   5.760  -4.887  1.00  0.00    -0.014 A 
BRANCH  32  33
ATOM     33  C   UNL     1      -1.752   6.026  -6.175  1.00  0.00     0.031 A 
ATOM     34  C   UNL     1      -2.551   6.051  -7.457  1.00  0.00     0.074 A 
ATOM     35  C   UNL     1      -0.422   6.242  -6.228  1.00  0.00     0.049 A 
ATOM     36  N   UNL     1      -2.141   6.189  -8.694  1.00  0.00    -0.248 NA
ATOM     37  C   UNL     1      -4.006   5.868  -7.329  1.00  0.00     0.031 C 
ATOM     38  C   UNL     1       0.491   6.236  -5.086  1.00  0.00     0.029 A 
ATOM     39  N   UNL     1       0.394   6.509  -7.303  1.00  0.00    -0.354 N 
ATOM     40  C   UNL     1      -3.279   6.068  -9.483  1.00  0.00     0.074 A 
ATOM     41  C   UNL     1      -4.384   5.788  -8.594  1.00  0.00     0.031 C 
ATOM     42  C   UNL     1       1.735   6.510  -5.518  1.00  0.00     0.029 A 
ATOM     43  C   UNL     1       1.718   6.676  -6.970  1.00  0.00     0.049 A 
ATOM     44  H   UNL     1       0.061   6.575  -8.227  1.00  0.00     0.167 HD
ATOM     45  C   UNL     1      -3.411   6.209 -10.823  1.00  0.00     0.037 A 
ATOM     46  C   UNL     1       2.792   6.926  -7.745  1.00  0.00     0.037 A 
ATOM     47  C   UNL     1      -2.337   6.551 -11.714  1.00  0.00     0.049 A 
ATOM     48  C   UNL     1       2.626   7.075  -9.237  1.00  0.00     0.074 A 
ATOM     49  C   UNL     1      -2.391   6.781 -13.078  1.00  0.00     0.029 A 
ATOM     50  N   UNL     1      -1.017   6.721 -11.329  1.00  0.00    -0.354 N 
ATOM     51  N   UNL     1       1.535   7.008  -9.961  1.00  0.00    -0.248 NA
ATOM     52  C   UNL     1       3.844   7.337 -10.021  1.00  0.00     0.031 C 
ATOM     53  C   UNL     1      -1.095   7.053 -13.526  1.00  0.00     0.029 A 
ATOM     54  C   UNL     1      -0.244   7.038 -12.433  1.00  0.00     0.049 A 
ATOM     55  H   UNL     1      -0.680   6.630 -10.409  1.00  0.00     0.167 HD
ATOM     56  C   UNL     1       1.930   7.254 -11.272  1.00  0.00     0.074 A 
ATOM     57  C   UNL     1       3.358   7.479 -11.245  1.00  0.00     0.031 C 
ATOM     58  C   UNL     1       1.174   7.288 -12.396  1.00  0.00     0.037 A 
BRANCH  45  59
ATOM     59  C   UNL     1      -4.778   6.002 -11.406  1.00  0.00     0.057 A 
ATOM     60  C   UNL     1      -5.824   6.907 -11.183  1.00  0.00     0.134 A 
ATOM     61  C   UNL     1      -5.047   4.890 -12.214  1.00  0.00     0.134 A 
ATOM     62  F   UNL     1      -5.636   7.985 -10.406  1.00  0.00    -0.206 F 
ATOM     63  C   UNL     1      -7.098   6.696 -11.714  1.00  0.00     0.040 A 
ATOM     64  C   UNL     1      -6.308   4.685 -12.777  1.00  0.00     0.040 A 
ATOM     65  F   UNL     1      -4.088   3.989 -12.475  1.00  0.00    -0.206 F 
ATOM     66  C   UNL     1      -7.340   5.585 -12.519  1.00  0.00     0.006 A 
ENDBRANCH  45  59
BRANCH  46  67
ATOM     67  C   UNL     1       4.141   7.068  -7.135  1.00  0.00     0.057 A 
ATOM     68  C   UNL     1       4.798   8.305  -7.115  1.00  0.00     0.134 A 
ATOM     69  C   UNL     1       4.824   5.968  -6.604  1.00  0.00     0.134 A 
ATOM     70  F   UNL     1       4.207   9.391  -7.634  1.00  0.00    -0.206 F 
ATOM     71  C   UNL     1       6.093   8.439  -6.611  1.00  0.00     0.040 A 
ATOM     72  C   UNL     1       6.110   6.092  -6.073  1.00  0.00     0.040 A 
ATOM     73  F   UNL     1       4.252   4.756  -6.594  1.00  0.00    -0.206 F 
ATOM     74  C   UNL     1       6.752   7.329  -6.085  1.00  0.00     0.006 A 
ENDBRANCH  46  67
BRANCH  58  75
ATOM     75  C   UNL     1       1.854   7.629 -13.690  1.00  0.00     0.057 A 
ATOM     76  C   UNL     1       2.699   6.726 -14.345  1.00  0.00     0.134 A 
ATOM     77  C   UNL     1       1.601   8.854 -14.324  1.00  0.00     0.134 A 
ATOM     78  F   UNL     1       2.990   5.540 -13.789  1.00  0.00    -0.206 F 
ATOM     79  C   UNL     1       3.279   7.032 -15.578  1.00  0.00     0.040 A 
ATOM     80  C   UNL     1       2.154   9.161 -15.567  1.00  0.00     0.040 A 
ATOM     81  F   UNL     1       0.792   9.761 -13.755  1.00  0.00    -0.206 F 
ATOM     82  C   UNL     1       2.999   8.250 -16.197  1.00  0.00     0.006 A 
ENDBRANCH  58  75
ENDBRANCH  32  33
ENDBRANCH  25  27
ENDBRANCH  24  25
ENDBRANCH  23  24
ENDBRANCH  22  23
ENDBRANCH  21  22
ENDBRANCH  20  21
ENDBRANCH   1  20
TORSDOF 20
