REMARK SMILES Cc1ccc([C@@H]2[C@H](C(=O)OCCOCCOC(=O)c3ccc(-c4c5nc(c(-c6c(F)cccc6F)c6ccc([nH]6)c(-c6c(F)cccc6F)c6nc(c(-c7c(F)cccc7F)c7ccc4[nH]7)C=C6)C=C5)cc3)c3ccccc3C(=O)N2c2ccccc2)cc1
REMARK SMILES IDX 14 1 13 2 12 3 11 4 10 5 8 6 9 7 7 8 6 9 81 10 73 11 79 12
REMARK SMILES IDX 74 13 78 14 80 15 75 16 77 17 76 18 5 19 1 20 2 21 3 22
REMARK SMILES IDX 89 23 4 24 88 25 82 26 83 27 87 28 84 29 86 30 85 31 15 32
REMARK SMILES IDX 16 33 17 34 18 35 19 36 20 37 72 38 21 39 71 40 22 41 23 42
REMARK SMILES IDX 24 43 65 44 25 45 70 46 64 47 66 48 26 49 69 50 63 51 62 52
REMARK SMILES IDX 27 54 53 55 36 56 52 57 37 58 40 59 51 60 67 61 38 62 39 63
REMARK SMILES IDX 50 65 68 66 41 67 28 68 29 69 34 70 30 71 31 72 33 73 35 74
REMARK SMILES IDX 32 75 54 76 55 77 60 78 56 79 57 80 59 81 61 82 58 83 42 84
REMARK SMILES IDX 43 85 48 86 44 87 45 88 47 89 49 90 46 91
REMARK H PARENT 66 53 40 64
REMARK Flexibility Score: inf
ROOT
ATOM      1  C   UNL     1      -6.839  -4.142   2.348  1.00  0.00     0.202 C 
ENDROOT
BRANCH   1   2
ATOM      2  O   UNL     1      -5.443  -4.035   2.547  1.00  0.00    -0.374 OA
BRANCH   2   3
ATOM      3  C   UNL     1      -5.075  -4.141   3.906  1.00  0.00     0.202 C 
BRANCH   3   4
ATOM      4  C   UNL     1      -3.674  -3.639   3.990  1.00  0.00     0.261 C 
BRANCH   4   5
ATOM      5  O   UNL     1      -3.659  -2.229   3.797  1.00  0.00    -0.463 OA
BRANCH   5   6
ATOM      6  C   UNL     1      -2.639  -1.573   3.192  1.00  0.00     0.316 C 
ATOM      7  O   UNL     1      -1.554  -2.077   2.916  1.00  0.00    -0.251 OA
BRANCH   6   8
ATOM      8  C   UNL     1      -3.003  -0.123   2.927  1.00  0.00     0.157 C 
ATOM      9  C   UNL     1      -2.973   0.183   1.397  1.00  0.00     0.140 C 
ATOM     10  N   UNL     1      -4.080  -0.538   0.740  1.00  0.00    -0.300 N 
ATOM     11  C   UNL     1      -4.414   0.126   3.489  1.00  0.00    -0.019 A 
ATOM     12  C   UNL     1      -5.349  -0.056   1.136  1.00  0.00     0.259 C 
ATOM     13  C   UNL     1      -4.623   0.032   4.886  1.00  0.00     0.005 A 
ATOM     14  C   UNL     1      -5.521   0.096   2.622  1.00  0.00     0.044 A 
ATOM     15  O   UNL     1      -6.306   0.140   0.396  1.00  0.00    -0.269 OA
ATOM     16  C   UNL     1      -5.904  -0.185   5.391  1.00  0.00     0.000 A 
ATOM     17  C   UNL     1      -6.811  -0.028   3.154  1.00  0.00     0.014 A 
ATOM     18  C   UNL     1      -6.997  -0.202   4.529  1.00  0.00     0.001 A 
BRANCH   9  19
ATOM     19  C   UNL     1      -1.591   0.405   0.740  1.00  0.00    -0.024 A 
ATOM     20  C   UNL     1       2.641   0.610  -0.210  1.00  0.00     0.044 C 
ATOM     21  C   UNL     1       1.156   0.647  -0.008  1.00  0.00    -0.051 A 
ATOM     22  C   UNL     1       0.327  -0.286  -0.619  1.00  0.00     0.004 A 
ATOM     23  C   UNL     1       0.570   1.579   0.848  1.00  0.00     0.004 A 
ATOM     24  C   UNL     1      -1.041  -0.333  -0.313  1.00  0.00     0.006 A 
ATOM     25  C   UNL     1      -0.775   1.445   1.231  1.00  0.00     0.006 A 
ENDBRANCH   9  19
BRANCH  10  26
ATOM     26  C   UNL     1      -4.017  -1.858   0.145  1.00  0.00     0.045 A 
ATOM     27  C   UNL     1      -5.145  -2.435  -0.462  1.00  0.00     0.026 A 
ATOM     28  C   UNL     1      -2.874  -2.662   0.172  1.00  0.00     0.026 A 
ATOM     29  C   UNL     1      -5.115  -3.718  -1.029  1.00  0.00     0.002 A 
ATOM     30  C   UNL     1      -2.801  -3.889  -0.492  1.00  0.00     0.002 A 
ATOM     31  C   UNL     1      -3.932  -4.438  -1.067  1.00  0.00     0.000 A 
ENDBRANCH  10  26
ENDBRANCH   6   8
ENDBRANCH   5   6
ENDBRANCH   4   5
ENDBRANCH   3   4
ENDBRANCH   2   3
ENDBRANCH   1   2
BRANCH   1  32
ATOM     32  C   UNL     1      -7.376  -5.549   2.642  1.00  0.00     0.261 C 
BRANCH  32  33
ATOM     33  O   UNL     1      -6.448  -6.552   2.177  1.00  0.00    -0.460 OA
BRANCH  33  34
ATOM     34  C   UNL     1      -5.910  -7.368   3.130  1.00  0.00     0.338 C 
ATOM     35  O   UNL     1      -6.477  -7.750   4.143  1.00  0.00    -0.246 OA
BRANCH  34  36
ATOM     36  C   UNL     1      -4.426  -7.437   2.945  1.00  0.00     0.060 A 
ATOM     37  C   UNL     1      -3.601  -7.796   4.029  1.00  0.00     0.016 A 
ATOM     38  C   UNL     1      -3.861  -6.807   1.847  1.00  0.00     0.016 A 
ATOM     39  C   UNL     1      -2.262  -7.356   4.086  1.00  0.00     0.010 A 
ATOM     40  C   UNL     1      -2.566  -6.330   1.949  1.00  0.00     0.010 A 
ATOM     41  C   UNL     1      -1.762  -6.542   3.074  1.00  0.00    -0.014 A 
BRANCH  41  42
ATOM     42  C   UNL     1      -0.494  -5.782   3.113  1.00  0.00     0.031 A 
ATOM     43  C   UNL     1       0.542  -6.002   2.078  1.00  0.00     0.074 A 
ATOM     44  C   UNL     1      -0.339  -4.685   3.899  1.00  0.00     0.049 A 
ATOM     45  N   UNL     1       1.778  -5.671   2.223  1.00  0.00    -0.248 NA
ATOM     46  C   UNL     1       0.273  -6.574   0.765  1.00  0.00     0.031 C 
ATOM     47  C   UNL     1       0.662  -3.612   3.847  1.00  0.00     0.029 A 
ATOM     48  N   UNL     1      -1.156  -4.223   4.932  1.00  0.00    -0.354 N 
ATOM     49  C   UNL     1       2.356  -5.627   0.975  1.00  0.00     0.074 A 
ATOM     50  C   UNL     1       1.409  -6.298   0.118  1.00  0.00     0.031 C 
ATOM     51  C   UNL     1       0.613  -2.884   4.984  1.00  0.00     0.029 A 
ATOM     52  C   UNL     1      -0.376  -3.511   5.848  1.00  0.00     0.049 A 
ATOM     53  H   UNL     1      -2.126  -4.374   5.004  1.00  0.00     0.167 HD
ATOM     54  C   UNL     1       3.498  -4.894   0.802  1.00  0.00     0.037 A 
ATOM     55  C   UNL     1      -0.255  -3.926   7.134  1.00  0.00     0.037 A 
ATOM     56  C   UNL     1       3.863  -4.201   2.059  1.00  0.00     0.049 A 
ATOM     57  C   UNL     1       1.184  -4.298   7.298  1.00  0.00     0.074 A 
ATOM     58  C   UNL     1       3.797  -2.871   2.448  1.00  0.00     0.029 A 
ATOM     59  N   UNL     1       4.059  -4.931   3.239  1.00  0.00    -0.354 N 
ATOM     60  N   UNL     1       1.907  -4.704   6.287  1.00  0.00    -0.248 NA
ATOM     61  C   UNL     1       1.967  -4.051   8.501  1.00  0.00     0.031 C 
ATOM     62  C   UNL     1       3.881  -2.818   3.869  1.00  0.00     0.029 A 
ATOM     63  C   UNL     1       4.003  -4.112   4.356  1.00  0.00     0.049 A 
ATOM     64  H   UNL     1       4.217  -5.902   3.270  1.00  0.00     0.167 HD
ATOM     65  C   UNL     1       3.216  -4.568   6.612  1.00  0.00     0.074 A 
ATOM     66  C   UNL     1       3.213  -4.252   8.034  1.00  0.00     0.031 C 
ATOM     67  C   UNL     1       4.227  -4.636   5.703  1.00  0.00     0.037 A 
BRANCH  54  68
ATOM     68  C   UNL     1       4.136  -4.575  -0.548  1.00  0.00     0.057 A 
ATOM     69  C   UNL     1       5.061  -3.518  -0.688  1.00  0.00     0.134 A 
ATOM     70  C   UNL     1       3.903  -5.268  -1.753  1.00  0.00     0.134 A 
ATOM     71  F   UNL     1       5.493  -2.814   0.367  1.00  0.00    -0.206 F 
ATOM     72  C   UNL     1       5.621  -3.133  -1.918  1.00  0.00     0.040 A 
ATOM     73  C   UNL     1       4.416  -4.867  -2.999  1.00  0.00     0.040 A 
ATOM     74  F   UNL     1       3.236  -6.425  -1.791  1.00  0.00    -0.206 F 
ATOM     75  C   UNL     1       5.278  -3.789  -3.087  1.00  0.00     0.006 A 
ENDBRANCH  54  68
BRANCH  55  76
ATOM     76  C   UNL     1      -1.499  -4.582   7.638  1.00  0.00     0.057 A 
ATOM     77  C   UNL     1      -2.639  -3.764   7.818  1.00  0.00     0.134 A 
ATOM     78  C   UNL     1      -1.738  -5.954   7.524  1.00  0.00     0.134 A 
ATOM     79  F   UNL     1      -2.501  -2.430   7.910  1.00  0.00    -0.206 F 
ATOM     80  C   UNL     1      -3.947  -4.267   7.768  1.00  0.00     0.040 A 
ATOM     81  C   UNL     1      -3.046  -6.469   7.474  1.00  0.00     0.040 A 
ATOM     82  F   UNL     1      -0.724  -6.808   7.331  1.00  0.00    -0.206 F 
ATOM     83  C   UNL     1      -4.154  -5.624   7.554  1.00  0.00     0.006 A 
ENDBRANCH  55  76
BRANCH  67  84
ATOM     84  C   UNL     1       5.570  -5.151   6.097  1.00  0.00     0.057 A 
ATOM     85  C   UNL     1       5.743  -6.045   7.167  1.00  0.00     0.134 A 
ATOM     86  C   UNL     1       6.696  -4.935   5.284  1.00  0.00     0.134 A 
ATOM     87  F   UNL     1       4.718  -6.427   7.943  1.00  0.00    -0.206 F 
ATOM     88  C   UNL     1       6.972  -6.632   7.452  1.00  0.00     0.040 A 
ATOM     89  C   UNL     1       7.914  -5.566   5.524  1.00  0.00     0.040 A 
ATOM     90  F   UNL     1       6.650  -4.141   4.204  1.00  0.00    -0.206 F 
ATOM     91  C   UNL     1       8.060  -6.404   6.622  1.00  0.00     0.006 A 
ENDBRANCH  67  84
ENDBRANCH  41  42
ENDBRANCH  34  36
ENDBRANCH  33  34
ENDBRANCH  32  33
ENDBRANCH   1  32
TORSDOF 16
