REMARK SMILES COc1cc(OC)c([C@@H]2C[C@H]2C(=O)OCCOCCOC(=O)c2ccc(-c3c4nc(c(-c5c(F)cccc5F)c5ccc([nH]5)c(-c5c(F)cccc5F)c5nc(c(-c6c(F)cccc6F)c6ccc3[nH]6)C=C5)C=C4)cc2)c(OC)c1
REMARK SMILES IDX 17 1 16 2 15 3 14 4 12 5 13 6 11 7 9 8 10 9 8 10 3 11 4 12
REMARK SMILES IDX 80 13 5 14 77 15 2 16 1 17 6 18 7 19 78 20 79 21 18 22 19 23
REMARK SMILES IDX 20 24 21 25 22 26 23 27 24 28 76 29 25 30 75 31 26 32 27 33
REMARK SMILES IDX 28 34 69 35 29 36 74 37 68 38 70 39 30 40 73 41 67 42 66 43
REMARK SMILES IDX 31 45 57 46 40 47 56 48 41 49 44 50 55 51 71 52 42 53 43 54
REMARK SMILES IDX 54 56 72 57 45 58 32 59 33 60 38 61 34 62 35 63 37 64 39 65
REMARK SMILES IDX 36 66 58 67 59 68 64 69 60 70 61 71 63 72 65 73 62 74 46 75
REMARK SMILES IDX 47 76 52 77 48 78 49 79 51 80 53 81 50 82
REMARK H PARENT 70 44 44 55
REMARK Flexibility Score: inf
ROOT
ATOM      1  O   UNL     1       4.132  -8.134   3.806  1.00  0.00    -0.374 OA
ENDROOT
BRANCH   1   2
ATOM      2  C   UNL     1       4.022  -8.570   5.161  1.00  0.00     0.202 C 
BRANCH   2   3
ATOM      3  C   UNL     1       4.575  -7.624   6.231  1.00  0.00     0.261 C 
BRANCH   3   4
ATOM      4  O   UNL     1       3.920  -6.350   6.181  1.00  0.00    -0.463 OA
BRANCH   4   5
ATOM      5  C   UNL     1       4.747  -5.271   6.149  1.00  0.00     0.309 C 
ATOM      6  O   UNL     1       5.946  -5.281   6.385  1.00  0.00    -0.252 OA
BRANCH   5   7
ATOM      7  C   UNL     1       4.063  -4.013   5.755  1.00  0.00     0.107 C 
ATOM      8  C   UNL     1       2.587  -3.947   5.375  1.00  0.00     0.042 C 
ATOM      9  C   UNL     1       3.087  -3.364   6.686  1.00  0.00     0.025 C 
BRANCH   8  10
ATOM     10  C   UNL     1       2.004  -2.986   4.329  1.00  0.00     0.040 A 
ATOM     11  C   UNL     1       0.839  -1.210   2.408  1.00  0.00     0.126 A 
ATOM     12  C   UNL     1       0.080  -1.719   3.454  1.00  0.00     0.093 A 
ATOM     13  C   UNL     1       2.169  -1.601   2.291  1.00  0.00     0.093 A 
ATOM     14  C   UNL     1       0.645  -2.596   4.389  1.00  0.00     0.129 A 
ATOM     15  C   UNL     1       2.745  -2.485   3.225  1.00  0.00     0.129 A 
BRANCH  11  16
ATOM     16  O   UNL     1       0.174  -0.360   1.569  1.00  0.00    -0.496 OA
ATOM     17  C   UNL     1       0.770  -0.107   0.301  1.00  0.00     0.278 C 
ENDBRANCH  11  16
BRANCH  14  18
ATOM     18  O   UNL     1      -0.264  -3.174   5.245  1.00  0.00    -0.496 OA
ATOM     19  C   UNL     1      -0.054  -2.865   6.617  1.00  0.00     0.278 C 
ENDBRANCH  14  18
BRANCH  15  20
ATOM     20  O   UNL     1       4.025  -2.967   3.087  1.00  0.00    -0.496 OA
ATOM     21  C   UNL     1       4.906  -2.278   2.207  1.00  0.00     0.278 C 
ENDBRANCH  15  20
ENDBRANCH   8  10
ENDBRANCH   5   7
ENDBRANCH   4   5
ENDBRANCH   3   4
ENDBRANCH   2   3
ENDBRANCH   1   2
BRANCH   1  22
ATOM     22  C   UNL     1       3.244  -7.103   3.368  1.00  0.00     0.202 C 
BRANCH  22  23
ATOM     23  C   UNL     1       1.782  -7.502   3.126  1.00  0.00     0.261 C 
BRANCH  23  24
ATOM     24  O   UNL     1       1.124  -7.985   4.313  1.00  0.00    -0.460 OA
BRANCH  24  25
ATOM     25  C   UNL     1       0.784  -9.296   4.272  1.00  0.00     0.338 C 
ATOM     26  O   UNL     1       0.914 -10.066   3.334  1.00  0.00    -0.246 OA
BRANCH  25  27
ATOM     27  C   UNL     1       0.348  -9.768   5.601  1.00  0.00     0.060 A 
ATOM     28  C   UNL     1       0.959 -10.926   6.100  1.00  0.00     0.016 A 
ATOM     29  C   UNL     1      -0.713  -9.175   6.289  1.00  0.00     0.016 A 
ATOM     30  C   UNL     1       0.463 -11.538   7.249  1.00  0.00     0.010 A 
ATOM     31  C   UNL     1      -1.215  -9.796   7.441  1.00  0.00     0.010 A 
ATOM     32  C   UNL     1      -0.659 -11.005   7.897  1.00  0.00    -0.014 A 
BRANCH  32  33
ATOM     33  C   UNL     1      -1.347 -11.824   8.927  1.00  0.00     0.031 A 
ATOM     34  C   UNL     1      -2.543 -12.646   8.522  1.00  0.00     0.074 A 
ATOM     35  C   UNL     1      -0.881 -11.893  10.186  1.00  0.00     0.049 A 
ATOM     36  N   UNL     1      -3.274 -13.461   9.241  1.00  0.00    -0.248 NA
ATOM     37  C   UNL     1      -2.972 -12.533   7.119  1.00  0.00     0.031 C 
ATOM     38  C   UNL     1       0.284 -11.175  10.697  1.00  0.00     0.029 A 
ATOM     39  N   UNL     1      -1.335 -12.612  11.264  1.00  0.00    -0.354 N 
ATOM     40  C   UNL     1      -4.245 -13.956   8.379  1.00  0.00     0.074 A 
ATOM     41  C   UNL     1      -4.033 -13.327   7.094  1.00  0.00     0.031 C 
ATOM     42  C   UNL     1       0.453 -11.486  11.995  1.00  0.00     0.029 A 
ATOM     43  C   UNL     1      -0.601 -12.412  12.407  1.00  0.00     0.049 A 
ATOM     44  H   UNL     1      -2.113 -13.213  11.222  1.00  0.00     0.167 HD
ATOM     45  C   UNL     1      -5.220 -14.863   8.630  1.00  0.00     0.037 A 
ATOM     46  C   UNL     1      -0.765 -12.917  13.645  1.00  0.00     0.037 A 
ATOM     47  C   UNL     1      -5.433 -15.497   9.903  1.00  0.00     0.049 A 
ATOM     48  C   UNL     1      -1.878 -13.897  13.908  1.00  0.00     0.074 A 
ATOM     49  C   UNL     1      -6.392 -16.433  10.252  1.00  0.00     0.029 A 
ATOM     50  N   UNL     1      -4.673 -15.260  11.037  1.00  0.00    -0.354 N 
ATOM     51  N   UNL     1      -2.773 -14.376  13.078  1.00  0.00    -0.248 NA
ATOM     52  C   UNL     1      -1.993 -14.418  15.278  1.00  0.00     0.031 C 
ATOM     53  C   UNL     1      -6.232 -16.737  11.609  1.00  0.00     0.029 A 
ATOM     54  C   UNL     1      -5.147 -16.023  12.091  1.00  0.00     0.049 A 
ATOM     55  H   UNL     1      -3.909 -14.641  11.087  1.00  0.00     0.167 HD
ATOM     56  C   UNL     1      -3.532 -15.278  13.815  1.00  0.00     0.074 A 
ATOM     57  C   UNL     1      -2.988 -15.285  15.156  1.00  0.00     0.031 C 
ATOM     58  C   UNL     1      -4.583 -16.035  13.415  1.00  0.00     0.037 A 
BRANCH  45  59
ATOM     59  C   UNL     1      -6.143 -15.211   7.500  1.00  0.00     0.057 A 
ATOM     60  C   UNL     1      -5.729 -16.015   6.431  1.00  0.00     0.134 A 
ATOM     61  C   UNL     1      -7.469 -14.762   7.498  1.00  0.00     0.134 A 
ATOM     62  F   UNL     1      -4.466 -16.464   6.367  1.00  0.00    -0.206 F 
ATOM     63  C   UNL     1      -6.597 -16.346   5.389  1.00  0.00     0.040 A 
ATOM     64  C   UNL     1      -8.353 -15.104   6.473  1.00  0.00     0.040 A 
ATOM     65  F   UNL     1      -7.929 -13.991   8.495  1.00  0.00    -0.206 F 
ATOM     66  C   UNL     1      -7.915 -15.895   5.412  1.00  0.00     0.006 A 
ENDBRANCH  45  59
BRANCH  46  67
ATOM     67  C   UNL     1       0.151 -12.513  14.741  1.00  0.00     0.057 A 
ATOM     68  C   UNL     1       1.074 -13.413  15.287  1.00  0.00     0.134 A 
ATOM     69  C   UNL     1       0.100 -11.227  15.291  1.00  0.00     0.134 A 
ATOM     70  F   UNL     1       1.152 -14.667  14.818  1.00  0.00    -0.206 F 
ATOM     71  C   UNL     1       1.898 -13.056  16.355  1.00  0.00     0.040 A 
ATOM     72  C   UNL     1       0.935 -10.849  16.344  1.00  0.00     0.040 A 
ATOM     73  F   UNL     1      -0.763 -10.319  14.812  1.00  0.00    -0.206 F 
ATOM     74  C   UNL     1       1.832 -11.768  16.884  1.00  0.00     0.006 A 
ENDBRANCH  46  67
BRANCH  58  75
ATOM     75  C   UNL     1      -5.178 -16.973  14.424  1.00  0.00     0.057 A 
ATOM     76  C   UNL     1      -5.964 -16.516  15.489  1.00  0.00     0.134 A 
ATOM     77  C   UNL     1      -4.986 -18.355  14.307  1.00  0.00     0.134 A 
ATOM     78  F   UNL     1      -6.178 -15.203  15.663  1.00  0.00    -0.206 F 
ATOM     79  C   UNL     1      -6.516 -17.401  16.418  1.00  0.00     0.040 A 
ATOM     80  C   UNL     1      -5.552 -19.251  15.215  1.00  0.00     0.040 A 
ATOM     81  F   UNL     1      -4.251 -18.859  13.303  1.00  0.00    -0.206 F 
ATOM     82  C   UNL     1      -6.315 -18.773  16.279  1.00  0.00     0.006 A 
ENDBRANCH  58  75
ENDBRANCH  32  33
ENDBRANCH  25  27
ENDBRANCH  24  25
ENDBRANCH  23  24
ENDBRANCH  22  23
ENDBRANCH   1  22
TORSDOF 18
