REMARK SMILES CC(C)[C@@H]([NH3+])C(=O)N[C@@H](Cc1ccccc1)C(=O)OCCOCCOC(=O)c1ccc(-c2c3nc(c(-c4c(F)cccc4F)c4ccc([nH]4)c(-c4c(F)cccc4F)c4nc(c(-c5c(F)cccc5F)c5ccc2[nH]5)C=C4)C=C3)cc1
REMARK SMILES IDX 21 1 20 2 19 3 17 4 18 5 9 6 8 7 6 8 7 9 4 11 2 12 1 13 3 14
REMARK SMILES IDX 5 15 10 19 11 20 12 21 16 22 13 23 15 24 14 25 22 26 23 27
REMARK SMILES IDX 24 28 25 29 26 30 27 31 28 32 29 33 81 34 30 35 80 36 31 37
REMARK SMILES IDX 32 38 33 39 74 40 34 41 79 42 73 43 75 44 35 45 78 46 72 47
REMARK SMILES IDX 71 48 36 50 62 51 45 52 61 53 46 54 49 55 60 56 76 57 47 58
REMARK SMILES IDX 48 59 59 61 77 62 50 63 37 64 38 65 43 66 39 67 40 68 42 69
REMARK SMILES IDX 44 70 41 71 63 72 64 73 69 74 65 75 66 76 68 77 70 78 67 79
REMARK SMILES IDX 51 80 52 81 57 82 53 83 54 84 56 85 58 86 55 87
REMARK H PARENT 8 10 5 16 5 17 5 18 75 49 49 60
REMARK Flexibility Score: inf
ROOT
ATOM      1  C   UNL     1      -3.205  -4.776  -4.821  1.00  0.00     0.202 C 
ENDROOT
BRANCH   1   2
ATOM      2  C   UNL     1      -1.754  -5.188  -4.571  1.00  0.00     0.261 C 
BRANCH   2   3
ATOM      3  O   UNL     1      -1.385  -4.945  -3.207  1.00  0.00    -0.462 OA
BRANCH   3   4
ATOM      4  C   UNL     1      -0.121  -4.469  -3.035  1.00  0.00     0.329 C 
ATOM      5  O   UNL     1       0.748  -4.468  -3.902  1.00  0.00    -0.250 OA
BRANCH   4   6
ATOM      6  C   UNL     1       0.119  -3.935  -1.616  1.00  0.00     0.196 C 
BRANCH   6   7
ATOM      7  N   UNL     1      -1.056  -3.861  -0.735  1.00  0.00    -0.337 N 
ATOM      8  C   UNL     1      -1.455  -2.889   0.132  1.00  0.00     0.279 C 
ATOM      9  O   UNL     1      -2.392  -3.157   0.891  1.00  0.00    -0.268 OA
ATOM     10  H   UNL     1      -1.653  -4.643  -0.780  1.00  0.00     0.164 HD
BRANCH   8  11
ATOM     11  C   UNL     1      -0.872  -1.446   0.099  1.00  0.00     0.273 C 
BRANCH  11  12
ATOM     12  C   UNL     1       0.636  -1.294   0.413  1.00  0.00     0.051 C 
ATOM     13  C   UNL     1       1.125   0.153   0.249  1.00  0.00     0.014 C 
ATOM     14  C   UNL     1       0.949  -1.764   1.837  1.00  0.00     0.014 C 
ENDBRANCH  11  12
BRANCH  11  15
ATOM     15  N   UNL     1      -1.264  -0.850  -1.200  1.00  0.00    -0.347 N 
ATOM     16  H   UNL     1      -0.844  -1.385  -1.961  1.00  0.00     0.345 HD
ATOM     17  H   UNL     1      -0.937   0.116  -1.244  1.00  0.00     0.345 HD
ATOM     18  H   UNL     1      -2.279  -0.869  -1.291  1.00  0.00     0.345 HD
ENDBRANCH  11  15
ENDBRANCH   8  11
ENDBRANCH   6   7
BRANCH   6  19
ATOM     19  C   UNL     1       1.224  -4.784  -0.952  1.00  0.00     0.072 C 
BRANCH  19  20
ATOM     20  C   UNL     1       0.895  -6.264  -0.900  1.00  0.00    -0.045 A 
ATOM     21  C   UNL     1      -0.020  -6.772   0.032  1.00  0.00     0.004 A 
ATOM     22  C   UNL     1       1.460  -7.140  -1.839  1.00  0.00     0.004 A 
ATOM     23  C   UNL     1      -0.391  -8.118   0.000  1.00  0.00     0.000 A 
ATOM     24  C   UNL     1       1.100  -8.488  -1.859  1.00  0.00     0.000 A 
ATOM     25  C   UNL     1       0.168  -8.975  -0.946  1.00  0.00     0.000 A 
ENDBRANCH  19  20
ENDBRANCH   6  19
ENDBRANCH   4   6
ENDBRANCH   3   4
ENDBRANCH   2   3
ENDBRANCH   1   2
BRANCH   1  26
ATOM     26  O   UNL     1      -3.514  -3.395  -4.633  1.00  0.00    -0.374 OA
BRANCH  26  27
ATOM     27  C   UNL     1      -3.463  -2.878  -3.303  1.00  0.00     0.202 C 
BRANCH  27  28
ATOM     28  C   UNL     1      -4.579  -3.315  -2.343  1.00  0.00     0.261 C 
BRANCH  28  29
ATOM     29  O   UNL     1      -4.608  -4.734  -2.112  1.00  0.00    -0.460 OA
BRANCH  29  30
ATOM     30  C   UNL     1      -5.741  -5.350  -2.529  1.00  0.00     0.338 C 
ATOM     31  O   UNL     1      -6.733  -4.831  -3.022  1.00  0.00    -0.246 OA
BRANCH  30  32
ATOM     32  C   UNL     1      -5.588  -6.813  -2.465  1.00  0.00     0.060 A 
ATOM     33  C   UNL     1      -5.711  -7.530  -3.662  1.00  0.00     0.016 A 
ATOM     34  C   UNL     1      -5.458  -7.479  -1.246  1.00  0.00     0.016 A 
ATOM     35  C   UNL     1      -5.749  -8.923  -3.640  1.00  0.00     0.010 A 
ATOM     36  C   UNL     1      -5.509  -8.879  -1.224  1.00  0.00     0.010 A 
ATOM     37  C   UNL     1      -5.690  -9.603  -2.416  1.00  0.00    -0.014 A 
BRANCH  37  38
ATOM     38  C   UNL     1      -5.970 -11.059  -2.384  1.00  0.00     0.031 A 
ATOM     39  C   UNL     1      -7.361 -11.530  -2.058  1.00  0.00     0.074 A 
ATOM     40  C   UNL     1      -5.010 -11.950  -2.688  1.00  0.00     0.049 A 
ATOM     41  N   UNL     1      -7.826 -12.751  -1.976  1.00  0.00    -0.248 NA
ATOM     42  C   UNL     1      -8.361 -10.485  -1.791  1.00  0.00     0.031 C 
ATOM     43  C   UNL     1      -3.637 -11.618  -3.062  1.00  0.00     0.029 A 
ATOM     44  N   UNL     1      -5.051 -13.321  -2.730  1.00  0.00    -0.354 N 
ATOM     45  C   UNL     1      -9.169 -12.622  -1.649  1.00  0.00     0.074 A 
ATOM     46  C   UNL     1      -9.440 -11.206  -1.520  1.00  0.00     0.031 C 
ATOM     47  C   UNL     1      -2.961 -12.758  -3.289  1.00  0.00     0.029 A 
ATOM     48  C   UNL     1      -3.847 -13.896  -3.052  1.00  0.00     0.049 A 
ATOM     49  H   UNL     1      -5.866 -13.842  -2.546  1.00  0.00     0.167 HD
ATOM     50  C   UNL     1     -10.097 -13.594  -1.479  1.00  0.00     0.037 A 
ATOM     51  C   UNL     1      -3.499 -15.195  -3.131  1.00  0.00     0.037 A 
ATOM     52  C   UNL     1      -9.832 -15.002  -1.606  1.00  0.00     0.049 A 
ATOM     53  C   UNL     1      -4.530 -16.259  -2.867  1.00  0.00     0.074 A 
ATOM     54  C   UNL     1     -10.711 -16.062  -1.470  1.00  0.00     0.029 A 
ATOM     55  N   UNL     1      -8.589 -15.547  -1.891  1.00  0.00    -0.354 N 
ATOM     56  N   UNL     1      -5.803 -16.125  -2.582  1.00  0.00    -0.248 NA
ATOM     57  C   UNL     1      -4.076 -17.656  -2.936  1.00  0.00     0.031 C 
ATOM     58  C   UNL     1      -9.991 -17.251  -1.632  1.00  0.00     0.029 A 
ATOM     59  C   UNL     1      -8.672 -16.929  -1.909  1.00  0.00     0.049 A 
ATOM     60  H   UNL     1      -7.769 -15.028  -2.056  1.00  0.00     0.167 HD
ATOM     61  C   UNL     1      -6.305 -17.415  -2.460  1.00  0.00     0.074 A 
ATOM     62  C   UNL     1      -5.202 -18.319  -2.714  1.00  0.00     0.031 C 
ATOM     63  C   UNL     1      -7.566 -17.815  -2.166  1.00  0.00     0.037 A 
BRANCH  50  64
ATOM     64  C   UNL     1     -11.487 -13.163  -1.116  1.00  0.00     0.057 A 
ATOM     65  C   UNL     1     -12.345 -12.573  -2.052  1.00  0.00     0.134 A 
ATOM     66  C   UNL     1     -11.981 -13.367   0.178  1.00  0.00     0.134 A 
ATOM     67  F   UNL     1     -11.926 -12.338  -3.305  1.00  0.00    -0.206 F 
ATOM     68  C   UNL     1     -13.640 -12.181  -1.708  1.00  0.00     0.040 A 
ATOM     69  C   UNL     1     -13.281 -12.999   0.528  1.00  0.00     0.040 A 
ATOM     70  F   UNL     1     -11.211 -13.931   1.121  1.00  0.00    -0.206 F 
ATOM     71  C   UNL     1     -14.113 -12.400  -0.415  1.00  0.00     0.006 A 
ENDBRANCH  50  64
BRANCH  51  72
ATOM     72  C   UNL     1      -2.101 -15.568  -3.462  1.00  0.00     0.057 A 
ATOM     73  C   UNL     1      -1.778 -16.157  -4.689  1.00  0.00     0.134 A 
ATOM     74  C   UNL     1      -1.059 -15.361  -2.550  1.00  0.00     0.134 A 
ATOM     75  F   UNL     1      -2.738 -16.403  -5.593  1.00  0.00    -0.206 F 
ATOM     76  C   UNL     1      -0.471 -16.541  -4.992  1.00  0.00     0.040 A 
ATOM     77  C   UNL     1       0.256 -15.719  -2.849  1.00  0.00     0.040 A 
ATOM     78  F   UNL     1      -1.305 -14.800  -1.356  1.00  0.00    -0.206 F 
ATOM     79  C   UNL     1       0.551 -16.317  -4.072  1.00  0.00     0.006 A 
ENDBRANCH  51  72
BRANCH  63  80
ATOM     80  C   UNL     1      -7.828 -19.291  -2.126  1.00  0.00     0.057 A 
ATOM     81  C   UNL     1      -7.387 -20.089  -1.063  1.00  0.00     0.134 A 
ATOM     82  C   UNL     1      -8.565 -19.914  -3.141  1.00  0.00     0.134 A 
ATOM     83  F   UNL     1      -6.665 -19.555  -0.066  1.00  0.00    -0.206 F 
ATOM     84  C   UNL     1      -7.656 -21.458  -1.019  1.00  0.00     0.040 A 
ATOM     85  C   UNL     1      -8.860 -21.277  -3.097  1.00  0.00     0.040 A 
ATOM     86  F   UNL     1      -9.024 -19.204  -4.183  1.00  0.00    -0.206 F 
ATOM     87  C   UNL     1      -8.400 -22.054  -2.036  1.00  0.00     0.006 A 
ENDBRANCH  63  80
ENDBRANCH  37  38
ENDBRANCH  30  32
ENDBRANCH  29  30
ENDBRANCH  28  29
ENDBRANCH  27  28
ENDBRANCH  26  27
ENDBRANCH   1  26
TORSDOF 20
