REMARK SMILES Cc1ccc(F)cc1S(=O)(=O)Nc1cc(C(=O)OCCOCCOC(=O)c2ccc(-c3c4nc(c(-c5c(F)cccc5F)c5ccc([nH]5)c(-c5c(F)cccc5F)c5nc(c(-c6c(F)cccc6F)c6ccc3[nH]6)C=C5)C=C4)cc2)ccc1N(C)Cc1ccccc1
REMARK SMILES IDX 20 1 19 2 18 3 16 4 17 5 15 6 13 7 14 8 83 9 82 10 81 11
REMARK SMILES IDX 12 12 9 14 10 15 11 16 8 17 1 18 2 19 3 20 4 21 7 22 5 23
REMARK SMILES IDX 6 24 84 25 85 26 86 27 87 28 88 29 92 30 89 31 91 32 90 33
REMARK SMILES IDX 21 34 22 35 23 36 24 37 25 38 26 39 27 40 28 41 80 42 29 43
REMARK SMILES IDX 79 44 30 45 31 46 32 47 73 48 33 49 78 50 72 51 74 52 34 53
REMARK SMILES IDX 77 54 71 55 70 56 35 58 61 59 44 60 60 61 45 62 48 63 59 64
REMARK SMILES IDX 75 65 46 66 47 67 58 69 76 70 49 71 36 72 37 73 42 74 38 75
REMARK SMILES IDX 39 76 41 77 43 78 40 79 62 80 63 81 68 82 64 83 65 84 67 85
REMARK SMILES IDX 69 86 66 87 50 88 51 89 56 90 52 91 53 92 55 93 57 94 54 95
REMARK H PARENT 12 13 74 57 48 68
REMARK Flexibility Score: inf
ROOT
ATOM      1  C   UNL     1       9.716   1.317  -1.619  1.00  0.00     0.202 C 
ENDROOT
BRANCH   1   2
ATOM      2  C   UNL     1       8.350   2.005  -1.722  1.00  0.00     0.261 C 
BRANCH   2   3
ATOM      3  O   UNL     1       7.477   1.744  -0.586  1.00  0.00    -0.460 OA
BRANCH   3   4
ATOM      4  C   UNL     1       6.300   1.186  -0.958  1.00  0.00     0.338 C 
ATOM      5  O   UNL     1       5.966   1.060  -2.129  1.00  0.00    -0.246 OA
BRANCH   4   6
ATOM      6  C   UNL     1       5.497   0.510   0.115  1.00  0.00     0.062 A 
ATOM      7  C   UNL     1       3.844  -1.283   0.312  1.00  0.00     0.073 A 
ATOM      8  C   UNL     1       5.058  -0.773  -0.212  1.00  0.00     0.044 A 
ATOM      9  C   UNL     1       3.159  -0.716   1.398  1.00  0.00     0.061 A 
ATOM     10  C   UNL     1       3.741   0.522   1.819  1.00  0.00     0.029 A 
ATOM     11  C   UNL     1       4.849   1.157   1.159  1.00  0.00     0.018 A 
BRANCH   7  12
ATOM     12  N   UNL     1       3.068  -2.057  -0.605  1.00  0.00    -0.277 N 
ATOM     13  H   UNL     1       2.941  -3.030  -0.533  1.00  0.00     0.180 HD
BRANCH  12  14
ATOM     14  S   UNL     1       2.377  -1.077  -1.862  1.00  0.00     0.262 S 
ATOM     15  O   UNL     1       1.358  -1.856  -2.510  1.00  0.00    -0.201 OA
ATOM     16  O   UNL     1       3.512  -0.673  -2.676  1.00  0.00    -0.201 OA
BRANCH  14  17
ATOM     17  C   UNL     1       1.583   0.404  -1.145  1.00  0.00     0.093 A 
ATOM     18  C   UNL     1       3.062   2.131  -2.271  1.00  0.00     0.046 C 
ATOM     19  C   UNL     1       1.852   1.723  -1.512  1.00  0.00    -0.030 A 
ATOM     20  C   UNL     1       0.971   2.762  -1.115  1.00  0.00     0.008 A 
ATOM     21  C   UNL     1      -0.125   2.526  -0.292  1.00  0.00     0.039 A 
ATOM     22  C   UNL     1       0.550   0.241  -0.233  1.00  0.00     0.061 A 
ATOM     23  C   UNL     1      -0.298   1.256   0.188  1.00  0.00     0.124 A 
ATOM     24  F   UNL     1      -1.268   0.989   1.073  1.00  0.00    -0.207 F 
ENDBRANCH  14  17
ENDBRANCH  12  14
ENDBRANCH   7  12
BRANCH   9  25
ATOM     25  N   UNL     1       1.917  -1.228   1.880  1.00  0.00    -0.369 N 
ATOM     26  C   UNL     1       1.362  -0.523   3.046  1.00  0.00     0.144 C 
BRANCH  25  27
ATOM     27  C   UNL     1       1.350  -2.657   1.705  1.00  0.00     0.151 C 
BRANCH  27  28
ATOM     28  C   UNL     1       0.556  -3.215   0.469  1.00  0.00    -0.029 A 
ATOM     29  C   UNL     1      -0.528  -2.649  -0.238  1.00  0.00     0.005 A 
ATOM     30  C   UNL     1       0.847  -4.539   0.074  1.00  0.00     0.005 A 
ATOM     31  C   UNL     1      -1.002  -3.182  -1.460  1.00  0.00     0.000 A 
ATOM     32  C   UNL     1       0.291  -5.136  -1.076  1.00  0.00     0.000 A 
ATOM     33  C   UNL     1      -0.566  -4.420  -1.897  1.00  0.00     0.000 A 
ENDBRANCH  27  28
ENDBRANCH  25  27
ENDBRANCH   9  25
ENDBRANCH   4   6
ENDBRANCH   3   4
ENDBRANCH   2   3
ENDBRANCH   1   2
BRANCH   1  34
ATOM     34  O   UNL     1       9.785  -0.102  -1.510  1.00  0.00    -0.374 OA
BRANCH  34  35
ATOM     35  C   UNL     1       8.947  -0.756  -0.570  1.00  0.00     0.202 C 
BRANCH  35  36
ATOM     36  C   UNL     1       9.161  -0.500   0.934  1.00  0.00     0.261 C 
BRANCH  36  37
ATOM     37  O   UNL     1       9.345   0.876   1.308  1.00  0.00    -0.460 OA
BRANCH  37  38
ATOM     38  C   UNL     1      10.634   1.227   1.535  1.00  0.00     0.338 C 
ATOM     39  O   UNL     1      11.615   0.504   1.492  1.00  0.00    -0.246 OA
BRANCH  38  40
ATOM     40  C   UNL     1      10.748   2.690   1.695  1.00  0.00     0.060 A 
ATOM     41  C   UNL     1      11.604   3.375   0.821  1.00  0.00     0.016 A 
ATOM     42  C   UNL     1      10.134   3.357   2.755  1.00  0.00     0.016 A 
ATOM     43  C   UNL     1      11.892   4.718   1.033  1.00  0.00     0.010 A 
ATOM     44  C   UNL     1      10.438   4.705   2.978  1.00  0.00     0.010 A 
ATOM     45  C   UNL     1      11.354   5.375   2.146  1.00  0.00    -0.014 A 
BRANCH  45  46
ATOM     46  C   UNL     1      11.914   6.690   2.540  1.00  0.00     0.031 A 
ATOM     47  C   UNL     1      12.926   6.741   3.652  1.00  0.00     0.074 A 
ATOM     48  C   UNL     1      11.580   7.811   1.878  1.00  0.00     0.049 A 
ATOM     49  N   UNL     1      13.548   7.771   4.167  1.00  0.00    -0.248 NA
ATOM     50  C   UNL     1      13.280   5.454   4.270  1.00  0.00     0.031 C 
ATOM     51  C   UNL     1      10.659   7.881   0.747  1.00  0.00     0.029 A 
ATOM     52  N   UNL     1      11.989   9.107   2.065  1.00  0.00    -0.354 N 
ATOM     53  C   UNL     1      14.360   7.257   5.171  1.00  0.00     0.074 A 
ATOM     54  C   UNL     1      14.117   5.832   5.223  1.00  0.00     0.031 C 
ATOM     55  C   UNL     1      10.574   9.158   0.335  1.00  0.00     0.029 A 
ATOM     56  C   UNL     1      11.409   9.995   1.194  1.00  0.00     0.049 A 
ATOM     57  H   UNL     1      12.636   9.374   2.756  1.00  0.00     0.167 HD
ATOM     58  C   UNL     1      15.240   7.910   5.968  1.00  0.00     0.037 A 
ATOM     59  C   UNL     1      11.531  11.334   1.111  1.00  0.00     0.037 A 
ATOM     60  C   UNL     1      15.474   9.330   5.916  1.00  0.00     0.049 A 
ATOM     61  C   UNL     1      12.447  12.052   2.066  1.00  0.00     0.074 A 
ATOM     62  C   UNL     1      16.343  10.091   6.678  1.00  0.00     0.029 A 
ATOM     63  N   UNL     1      14.826  10.205   5.055  1.00  0.00    -0.354 N 
ATOM     64  N   UNL     1      13.217  11.559   3.007  1.00  0.00    -0.248 NA
ATOM     65  C   UNL     1      12.515  13.514   1.941  1.00  0.00     0.031 C 
ATOM     66  C   UNL     1      16.178  11.433   6.318  1.00  0.00     0.029 A 
ATOM     67  C   UNL     1      15.258  11.501   5.284  1.00  0.00     0.049 A 
ATOM     68  H   UNL     1      14.159   9.943   4.380  1.00  0.00     0.167 HD
ATOM     69  C   UNL     1      13.891  12.644   3.557  1.00  0.00     0.074 A 
ATOM     70  C   UNL     1      13.440  13.819   2.840  1.00  0.00     0.031 C 
ATOM     71  C   UNL     1      14.807  12.663   4.557  1.00  0.00     0.037 A 
BRANCH  58  72
ATOM     72  C   UNL     1      15.979   7.089   6.987  1.00  0.00     0.057 A 
ATOM     73  C   UNL     1      16.941   6.136   6.622  1.00  0.00     0.134 A 
ATOM     74  C   UNL     1      15.718   7.246   8.354  1.00  0.00     0.134 A 
ATOM     75  F   UNL     1      17.230   5.923   5.329  1.00  0.00    -0.206 F 
ATOM     76  C   UNL     1      17.581   5.340   7.575  1.00  0.00     0.040 A 
ATOM     77  C   UNL     1      16.377   6.481   9.318  1.00  0.00     0.040 A 
ATOM     78  F   UNL     1      14.815   8.144   8.778  1.00  0.00    -0.206 F 
ATOM     79  C   UNL     1      17.302   5.515   8.928  1.00  0.00     0.006 A 
ENDBRANCH  58  72
BRANCH  59  80
ATOM     80  C   UNL     1      10.776  12.082   0.075  1.00  0.00     0.057 A 
ATOM     81  C   UNL     1      11.435  12.695  -0.997  1.00  0.00     0.134 A 
ATOM     82  C   UNL     1       9.383  12.206   0.131  1.00  0.00     0.134 A 
ATOM     83  F   UNL     1      12.771  12.629  -1.094  1.00  0.00    -0.206 F 
ATOM     84  C   UNL     1      10.739  13.415  -1.968  1.00  0.00     0.040 A 
ATOM     85  C   UNL     1       8.671  12.901  -0.847  1.00  0.00     0.040 A 
ATOM     86  F   UNL     1       8.692  11.640   1.131  1.00  0.00    -0.206 F 
ATOM     87  C   UNL     1       9.350  13.514  -1.898  1.00  0.00     0.006 A 
ENDBRANCH  59  80
BRANCH  71  88
ATOM     88  C   UNL     1      15.428  13.989   4.899  1.00  0.00     0.057 A 
ATOM     89  C   UNL     1      14.709  15.012   5.531  1.00  0.00     0.134 A 
ATOM     90  C   UNL     1      16.780  14.230   4.619  1.00  0.00     0.134 A 
ATOM     91  F   UNL     1      13.408  14.852   5.818  1.00  0.00    -0.206 F 
ATOM     92  C   UNL     1      15.303  16.237   5.842  1.00  0.00     0.040 A 
ATOM     93  C   UNL     1      17.393  15.438   4.954  1.00  0.00     0.040 A 
ATOM     94  F   UNL     1      17.531  13.290   4.026  1.00  0.00    -0.206 F 
ATOM     95  C   UNL     1      16.651  16.449   5.559  1.00  0.00     0.006 A 
ENDBRANCH  71  88
ENDBRANCH  45  46
ENDBRANCH  38  40
ENDBRANCH  37  38
ENDBRANCH  36  37
ENDBRANCH  35  36
ENDBRANCH  34  35
ENDBRANCH   1  34
TORSDOF 20
