REMARK SMILES Cc1ccc([C@H]2NC(=O)N(C)C3=C2C(=O)N(c2cccc(C(=O)OCCOCCOC(=O)c4ccc(-c5c6nc(c(-c7c(F)cccc7F)c7ccc([nH]7)c(-c7c(F)cccc7F)c7nc(c(-c8c(F)cccc8F)c8ccc5[nH]8)C=C7)C=C6)cc4)c2)C3)cc1
REMARK SMILES IDX 27 1 26 2 25 3 24 4 22 5 23 6 21 7 17 8 18 9 87 10 19 11
REMARK SMILES IDX 20 12 16 13 6 14 7 15 13 16 8 17 12 19 14 20 9 21 10 22
REMARK SMILES IDX 88 23 15 24 11 25 5 26 1 27 2 28 3 29 90 30 4 31 89 32 28 33
REMARK SMILES IDX 29 34 30 35 31 36 32 37 33 38 34 39 86 40 35 41 85 42 36 43
REMARK SMILES IDX 37 44 38 45 79 46 39 47 84 48 78 49 80 50 40 51 83 52 77 53
REMARK SMILES IDX 76 54 41 56 67 57 50 58 66 59 51 60 54 61 65 62 81 63 52 64
REMARK SMILES IDX 53 65 64 67 82 68 55 69 42 70 43 71 48 72 44 73 45 74 47 75
REMARK SMILES IDX 49 76 46 77 68 78 69 79 74 80 70 81 71 82 73 83 75 84 72 85
REMARK SMILES IDX 56 86 57 87 62 88 58 89 59 90 61 91 63 92 60 93
REMARK H PARENT 7 18 80 55 54 66
REMARK Flexibility Score: inf
ROOT
ATOM      1  O   UNL     1      -7.917   3.025   7.467  1.00  0.00    -0.374 OA
ENDROOT
BRANCH   1   2
ATOM      2  C   UNL     1      -7.165   3.185   8.661  1.00  0.00     0.202 C 
BRANCH   2   3
ATOM      3  C   UNL     1      -6.825   1.798   9.115  1.00  0.00     0.261 C 
BRANCH   3   4
ATOM      4  O   UNL     1      -5.718   1.276   8.372  1.00  0.00    -0.460 OA
BRANCH   4   5
ATOM      5  C   UNL     1      -5.963   0.781   7.126  1.00  0.00     0.338 C 
ATOM      6  O   UNL     1      -7.016   0.512   6.617  1.00  0.00    -0.246 OA
BRANCH   5   7
ATOM      7  C   UNL     1      -4.664   0.765   6.432  1.00  0.00     0.062 A 
ATOM      8  C   UNL     1      -3.516   1.078   4.351  1.00  0.00     0.045 A 
ATOM      9  C   UNL     1      -2.292   1.014   5.024  1.00  0.00     0.026 A 
ATOM     10  C   UNL     1      -4.706   0.945   5.055  1.00  0.00     0.042 A 
ATOM     11  C   UNL     1      -2.256   0.828   6.406  1.00  0.00     0.003 A 
ATOM     12  C   UNL     1      -3.445   0.686   7.113  1.00  0.00     0.016 A 
BRANCH   8  13
ATOM     13  N   UNL     1      -3.564   1.244   2.966  1.00  0.00    -0.303 N 
ATOM     14  C   UNL     1      -3.274  -0.080  -0.457  1.00  0.00     0.152 C 
ATOM     15  N   UNL     1      -3.759   0.727  -1.571  1.00  0.00    -0.327 N 
ATOM     16  C   UNL     1      -3.441   0.711   0.766  1.00  0.00     0.066 C 
ATOM     17  C   UNL     1      -4.611   1.797  -1.495  1.00  0.00     0.322 C 
ATOM     18  H   UNL     1      -3.441   0.478  -2.469  1.00  0.00     0.166 HD
ATOM     19  C   UNL     1      -4.273   1.744   0.888  1.00  0.00     0.053 C 
ATOM     20  C   UNL     1      -2.882   0.421   2.081  1.00  0.00     0.258 C 
ATOM     21  O   UNL     1      -5.046   2.292  -2.532  1.00  0.00    -0.248 OA
ATOM     22  N   UNL     1      -4.898   2.275  -0.217  1.00  0.00    -0.299 N 
ATOM     23  C   UNL     1      -4.483   2.140   2.303  1.00  0.00     0.180 C 
ATOM     24  O   UNL     1      -2.045  -0.435   2.299  1.00  0.00    -0.269 OA
ATOM     25  C   UNL     1      -5.808   3.401  -0.069  1.00  0.00     0.155 C 
BRANCH  14  26
ATOM     26  C   UNL     1      -3.990  -1.433  -0.444  1.00  0.00    -0.021 A 
ATOM     27  C   UNL     1      -5.913  -5.321  -0.531  1.00  0.00     0.044 C 
ATOM     28  C   UNL     1      -5.255  -3.974  -0.497  1.00  0.00    -0.051 A 
ATOM     29  C   UNL     1      -4.312  -3.625  -1.468  1.00  0.00     0.004 A 
ATOM     30  C   UNL     1      -5.572  -3.047   0.496  1.00  0.00     0.004 A 
ATOM     31  C   UNL     1      -3.685  -2.374  -1.440  1.00  0.00     0.006 A 
ATOM     32  C   UNL     1      -4.955  -1.791   0.517  1.00  0.00     0.006 A 
ENDBRANCH  14  26
ENDBRANCH   8  13
ENDBRANCH   5   7
ENDBRANCH   4   5
ENDBRANCH   3   4
ENDBRANCH   2   3
ENDBRANCH   1   2
BRANCH   1  33
ATOM     33  C   UNL     1      -8.358   4.219   6.854  1.00  0.00     0.202 C 
BRANCH  33  34
ATOM     34  C   UNL     1      -9.256   5.069   7.763  1.00  0.00     0.261 C 
BRANCH  34  35
ATOM     35  O   UNL     1     -10.439   4.324   8.125  1.00  0.00    -0.460 OA
BRANCH  35  36
ATOM     36  C   UNL     1     -10.447   3.766   9.369  1.00  0.00     0.338 C 
ATOM     37  O   UNL     1     -10.151   4.339  10.405  1.00  0.00    -0.246 OA
BRANCH  36  38
ATOM     38  C   UNL     1     -10.570   2.283   9.248  1.00  0.00     0.060 A 
ATOM     39  C   UNL     1     -10.302   1.456  10.359  1.00  0.00     0.016 A 
ATOM     40  C   UNL     1     -10.601   1.736   7.969  1.00  0.00     0.016 A 
ATOM     41  C   UNL     1      -9.923   0.117  10.168  1.00  0.00     0.010 A 
ATOM     42  C   UNL     1     -10.105   0.466   7.782  1.00  0.00     0.010 A 
ATOM     43  C   UNL     1      -9.757  -0.355   8.866  1.00  0.00    -0.014 A 
BRANCH  43  44
ATOM     44  C   UNL     1      -9.146  -1.627   8.476  1.00  0.00     0.031 A 
ATOM     45  C   UNL     1      -9.963  -2.602   7.720  1.00  0.00     0.074 A 
ATOM     46  C   UNL     1      -7.809  -1.824   8.562  1.00  0.00     0.049 A 
ATOM     47  N   UNL     1      -9.684  -3.857   7.647  1.00  0.00    -0.248 NA
ATOM     48  C   UNL     1     -11.190  -2.254   7.004  1.00  0.00     0.031 C 
ATOM     49  C   UNL     1      -6.983  -2.735   7.770  1.00  0.00     0.029 A 
ATOM     50  N   UNL     1      -6.885  -1.207   9.404  1.00  0.00    -0.354 N 
ATOM     51  C   UNL     1     -10.460  -4.393   6.647  1.00  0.00     0.074 A 
ATOM     52  C   UNL     1     -11.446  -3.386   6.346  1.00  0.00     0.031 C 
ATOM     53  C   UNL     1      -5.743  -2.787   8.288  1.00  0.00     0.029 A 
ATOM     54  C   UNL     1      -5.745  -2.010   9.516  1.00  0.00     0.049 A 
ATOM     55  H   UNL     1      -7.014  -0.339   9.851  1.00  0.00     0.167 HD
ATOM     56  C   UNL     1     -10.080  -5.564   6.062  1.00  0.00     0.037 A 
ATOM     57  C   UNL     1      -5.287  -2.383  10.741  1.00  0.00     0.037 A 
ATOM     58  C   UNL     1      -8.786  -6.008   6.596  1.00  0.00     0.049 A 
ATOM     59  C   UNL     1      -5.484  -3.863  10.889  1.00  0.00     0.074 A 
ATOM     60  C   UNL     1      -7.497  -5.902   6.098  1.00  0.00     0.029 A 
ATOM     61  N   UNL     1      -8.652  -6.313   7.950  1.00  0.00    -0.354 N 
ATOM     62  N   UNL     1      -6.297  -4.529  10.116  1.00  0.00    -0.248 NA
ATOM     63  C   UNL     1      -4.777  -4.723  11.828  1.00  0.00     0.031 C 
ATOM     64  C   UNL     1      -6.588  -6.115   7.168  1.00  0.00     0.029 A 
ATOM     65  C   UNL     1      -7.319  -6.373   8.317  1.00  0.00     0.049 A 
ATOM     66  H   UNL     1      -9.406  -6.465   8.565  1.00  0.00     0.167 HD
ATOM     67  C   UNL     1      -6.203  -5.856  10.380  1.00  0.00     0.074 A 
ATOM     68  C   UNL     1      -5.259  -5.933  11.481  1.00  0.00     0.031 C 
ATOM     69  C   UNL     1      -6.918  -6.768   9.665  1.00  0.00     0.037 A 
BRANCH  56  70
ATOM     70  C   UNL     1     -10.717  -6.102   4.798  1.00  0.00     0.057 A 
ATOM     71  C   UNL     1      -9.987  -6.890   3.889  1.00  0.00     0.134 A 
ATOM     72  C   UNL     1     -12.051  -5.867   4.412  1.00  0.00     0.134 A 
ATOM     73  F   UNL     1      -8.742  -7.304   4.155  1.00  0.00    -0.206 F 
ATOM     74  C   UNL     1     -10.502  -7.309   2.654  1.00  0.00     0.040 A 
ATOM     75  C   UNL     1     -12.561  -6.226   3.154  1.00  0.00     0.040 A 
ATOM     76  F   UNL     1     -12.942  -5.334   5.258  1.00  0.00    -0.206 F 
ATOM     77  C   UNL     1     -11.781  -6.944   2.263  1.00  0.00     0.006 A 
ENDBRANCH  56  70
BRANCH  57  78
ATOM     78  C   UNL     1      -5.461  -1.309  11.763  1.00  0.00     0.057 A 
ATOM     79  C   UNL     1      -4.597  -0.196  11.693  1.00  0.00     0.134 A 
ATOM     80  C   UNL     1      -6.668  -1.120  12.447  1.00  0.00     0.134 A 
ATOM     81  F   UNL     1      -3.445  -0.280  11.007  1.00  0.00    -0.206 F 
ATOM     82  C   UNL     1      -4.952   1.062  12.199  1.00  0.00     0.040 A 
ATOM     83  C   UNL     1      -7.046   0.143  12.932  1.00  0.00     0.040 A 
ATOM     84  F   UNL     1      -7.564  -2.113  12.533  1.00  0.00    -0.206 F 
ATOM     85  C   UNL     1      -6.200   1.242  12.789  1.00  0.00     0.006 A 
ENDBRANCH  57  78
BRANCH  69  86
ATOM     86  C   UNL     1      -7.228  -8.153  10.145  1.00  0.00     0.057 A 
ATOM     87  C   UNL     1      -7.299  -8.496  11.502  1.00  0.00     0.134 A 
ATOM     88  C   UNL     1      -7.662  -9.145   9.242  1.00  0.00     0.134 A 
ATOM     89  F   UNL     1      -7.029  -7.611  12.472  1.00  0.00    -0.206 F 
ATOM     90  C   UNL     1      -7.718  -9.758  11.930  1.00  0.00     0.040 A 
ATOM     91  C   UNL     1      -8.146 -10.383   9.662  1.00  0.00     0.040 A 
ATOM     92  F   UNL     1      -7.672  -8.945   7.916  1.00  0.00    -0.206 F 
ATOM     93  C   UNL     1      -8.159 -10.700  11.011  1.00  0.00     0.006 A 
ENDBRANCH  69  86
ENDBRANCH  43  44
ENDBRANCH  36  38
ENDBRANCH  35  36
ENDBRANCH  34  35
ENDBRANCH  33  34
ENDBRANCH   1  33
TORSDOF 16
