REMARK SMILES COc1cnc(F)c(C(=O)OCCOCCOC(=O)c2ccc(-c3c4nc(c(-c5c(F)cccc5F)c5ccc([nH]5)c(-c5c(F)cccc5F)c5nc(c(-c6c(F)cccc6F)c6ccc3[nH]6)C=C5)C=C4)cc2)c1
REMARK SMILES IDX 15 1 14 2 13 3 12 4 11 5 9 6 10 7 8 8 3 9 4 10 74 11 5 12
REMARK SMILES IDX 6 13 7 14 2 15 1 16 16 17 17 18 18 19 19 20 20 21 21 22
REMARK SMILES IDX 73 23 22 24 72 25 23 26 24 27 25 28 66 29 26 30 71 31 65 32
REMARK SMILES IDX 67 33 27 34 70 35 64 36 63 37 28 39 54 40 37 41 53 42 38 43
REMARK SMILES IDX 41 44 52 45 68 46 39 47 40 48 51 50 69 51 42 52 29 53 30 54
REMARK SMILES IDX 35 55 31 56 32 57 34 58 36 59 33 60 55 61 56 62 61 63 57 64
REMARK SMILES IDX 58 65 60 66 62 67 59 68 43 69 44 70 49 71 45 72 46 73 48 74
REMARK SMILES IDX 50 75 47 76
REMARK H PARENT 67 38 41 49
REMARK Flexibility Score: inf
ROOT
ATOM      1  C   UNL     1       4.615  -3.315   2.338  1.00  0.00     0.202 C 
ENDROOT
BRANCH   1   2
ATOM      2  O   UNL     1       5.899  -3.102   2.925  1.00  0.00    -0.374 OA
BRANCH   2   3
ATOM      3  C   UNL     1       6.012  -3.314   4.334  1.00  0.00     0.202 C 
BRANCH   3   4
ATOM      4  C   UNL     1       5.531  -2.158   5.215  1.00  0.00     0.261 C 
BRANCH   4   5
ATOM      5  O   UNL     1       4.112  -1.970   5.073  1.00  0.00    -0.460 OA
BRANCH   5   6
ATOM      6  C   UNL     1       3.720  -0.763   4.610  1.00  0.00     0.343 C 
ATOM      7  O   UNL     1       4.428   0.215   4.417  1.00  0.00    -0.246 OA
BRANCH   6   8
ATOM      8  C   UNL     1       2.329  -0.819   4.151  1.00  0.00     0.118 A 
ATOM      9  C   UNL     1       0.680  -0.218   2.507  1.00  0.00     0.138 A 
ATOM     10  C   UNL     1      -0.251  -0.905   3.274  1.00  0.00     0.160 A 
ATOM     11  C   UNL     1       1.989  -0.153   2.967  1.00  0.00     0.068 A 
ATOM     12  N   UNL     1       0.051  -1.568   4.417  1.00  0.00    -0.224 NA
ATOM     13  C   UNL     1       1.341  -1.512   4.831  1.00  0.00     0.227 A 
ATOM     14  F   UNL     1       1.629  -2.153   5.973  1.00  0.00    -0.184 F 
BRANCH   9  15
ATOM     15  O   UNL     1       0.257   0.436   1.388  1.00  0.00    -0.495 OA
ATOM     16  C   UNL     1       0.931  -0.008   0.209  1.00  0.00     0.278 C 
ENDBRANCH   9  15
ENDBRANCH   6   8
ENDBRANCH   5   6
ENDBRANCH   4   5
ENDBRANCH   3   4
ENDBRANCH   2   3
ENDBRANCH   1   2
BRANCH   1  17
ATOM     17  C   UNL     1       4.238  -4.774   2.051  1.00  0.00     0.261 C 
BRANCH  17  18
ATOM     18  O   UNL     1       4.063  -5.531   3.261  1.00  0.00    -0.460 OA
BRANCH  18  19
ATOM     19  C   UNL     1       5.016  -6.465   3.491  1.00  0.00     0.338 C 
ATOM     20  O   UNL     1       5.939  -6.778   2.753  1.00  0.00    -0.246 OA
BRANCH  19  21
ATOM     21  C   UNL     1       4.905  -6.974   4.870  1.00  0.00     0.060 A 
ATOM     22  C   UNL     1       6.066  -6.974   5.653  1.00  0.00     0.016 A 
ATOM     23  C   UNL     1       3.714  -7.509   5.367  1.00  0.00     0.016 A 
ATOM     24  C   UNL     1       6.055  -7.554   6.919  1.00  0.00     0.010 A 
ATOM     25  C   UNL     1       3.707  -8.098   6.637  1.00  0.00     0.010 A 
ATOM     26  C   UNL     1       4.885  -8.154   7.403  1.00  0.00    -0.014 A 
BRANCH  26  27
ATOM     27  C   UNL     1       4.936  -8.955   8.650  1.00  0.00     0.031 A 
ATOM     28  C   UNL     1       5.038 -10.452   8.555  1.00  0.00     0.074 A 
ATOM     29  C   UNL     1       4.926  -8.355   9.853  1.00  0.00     0.049 A 
ATOM     30  N   UNL     1       5.066 -11.345   9.511  1.00  0.00    -0.248 NA
ATOM     31  C   UNL     1       5.120 -11.018   7.199  1.00  0.00     0.031 C 
ATOM     32  C   UNL     1       4.863  -6.912  10.077  1.00  0.00     0.029 A 
ATOM     33  N   UNL     1       4.960  -8.892  11.116  1.00  0.00    -0.354 N 
ATOM     34  C   UNL     1       5.171 -12.576   8.875  1.00  0.00     0.074 A 
ATOM     35  C   UNL     1       5.166 -12.318   7.451  1.00  0.00     0.031 C 
ATOM     36  C   UNL     1       4.846  -6.678  11.401  1.00  0.00     0.029 A 
ATOM     37  C   UNL     1       4.870  -7.954  12.114  1.00  0.00     0.049 A 
ATOM     38  H   UNL     1       5.042  -9.858  11.289  1.00  0.00     0.167 HD
ATOM     39  C   UNL     1       5.275 -13.808   9.427  1.00  0.00     0.037 A 
ATOM     40  C   UNL     1       4.792  -8.110  13.450  1.00  0.00     0.037 A 
ATOM     41  C   UNL     1       5.272 -14.066  10.843  1.00  0.00     0.049 A 
ATOM     42  C   UNL     1       4.842  -9.495  14.038  1.00  0.00     0.074 A 
ATOM     43  C   UNL     1       5.369 -15.281  11.499  1.00  0.00     0.029 A 
ATOM     44  N   UNL     1       5.161 -13.090  11.822  1.00  0.00    -0.354 N 
ATOM     45  N   UNL     1       4.957 -10.650  13.429  1.00  0.00    -0.248 NA
ATOM     46  C   UNL     1       4.756  -9.597  15.503  1.00  0.00     0.031 C 
ATOM     47  C   UNL     1       5.277 -15.043  12.875  1.00  0.00     0.029 A 
ATOM     48  C   UNL     1       5.171 -13.677  13.076  1.00  0.00     0.049 A 
ATOM     49  H   UNL     1       5.087 -12.124  11.650  1.00  0.00     0.167 HD
ATOM     50  C   UNL     1       4.985 -11.610  14.432  1.00  0.00     0.074 A 
ATOM     51  C   UNL     1       4.887 -10.902  15.691  1.00  0.00     0.031 C 
ATOM     52  C   UNL     1       5.083 -12.958  14.321  1.00  0.00     0.037 A 
BRANCH  39  53
ATOM     53  C   UNL     1       5.389 -14.975   8.491  1.00  0.00     0.057 A 
ATOM     54  C   UNL     1       6.561 -15.225   7.765  1.00  0.00     0.134 A 
ATOM     55  C   UNL     1       4.329 -15.877   8.339  1.00  0.00     0.134 A 
ATOM     56  F   UNL     1       7.607 -14.390   7.856  1.00  0.00    -0.206 F 
ATOM     57  C   UNL     1       6.667 -16.320   6.906  1.00  0.00     0.040 A 
ATOM     58  C   UNL     1       4.432 -16.989   7.501  1.00  0.00     0.040 A 
ATOM     59  F   UNL     1       3.180 -15.698   9.008  1.00  0.00    -0.206 F 
ATOM     60  C   UNL     1       5.603 -17.210   6.778  1.00  0.00     0.006 A 
ENDBRANCH  39  53
BRANCH  40  61
ATOM     61  C   UNL     1       4.638  -6.922  14.327  1.00  0.00     0.057 A 
ATOM     62  C   UNL     1       5.666  -6.509  15.181  1.00  0.00     0.134 A 
ATOM     63  C   UNL     1       3.447  -6.186  14.346  1.00  0.00     0.134 A 
ATOM     64  F   UNL     1       6.822  -7.188  15.225  1.00  0.00    -0.206 F 
ATOM     65  C   UNL     1       5.510  -5.417  16.037  1.00  0.00     0.040 A 
ATOM     66  C   UNL     1       3.286  -5.078  15.178  1.00  0.00     0.040 A 
ATOM     67  F   UNL     1       2.424  -6.532  13.551  1.00  0.00    -0.206 F 
ATOM     68  C   UNL     1       4.317  -4.695  16.033  1.00  0.00     0.006 A 
ENDBRANCH  40  61
BRANCH  52  69
ATOM     69  C   UNL     1       5.127 -13.753  15.593  1.00  0.00     0.057 A 
ATOM     70  C   UNL     1       3.990 -13.940  16.389  1.00  0.00     0.134 A 
ATOM     71  C   UNL     1       6.314 -14.374  16.004  1.00  0.00     0.134 A 
ATOM     72  F   UNL     1       2.825 -13.363  16.058  1.00  0.00    -0.206 F 
ATOM     73  C   UNL     1       4.037 -14.700  17.559  1.00  0.00     0.040 A 
ATOM     74  C   UNL     1       6.368 -15.155  17.158  1.00  0.00     0.040 A 
ATOM     75  F   UNL     1       7.437 -14.242  15.281  1.00  0.00    -0.206 F 
ATOM     76  C   UNL     1       5.228 -15.316  17.943  1.00  0.00     0.006 A 
ENDBRANCH  52  69
ENDBRANCH  26  27
ENDBRANCH  19  21
ENDBRANCH  18  19
ENDBRANCH  17  18
ENDBRANCH   1  17
TORSDOF 15
