REMARK SMILES CC[C@@H](C)N(C)C(=O)N1[C@@H](C(=O)OCCOCCOC(=O)c2ccc(-c3c4nc(c(-c5c(F)cccc5F)c5ccc([nH]5)c(-c5c(F)cccc5F)c5nc(c(-c6c(F)cccc6F)c6ccc3[nH]6)C=C5)C=C4)cc2)CC[C@H]2CCCC[C@H]21
REMARK SMILES IDX 15 1 14 2 13 3 11 4 12 5 10 6 9 7 83 8 76 9 78 10 82 11
REMARK SMILES IDX 77 12 79 13 81 14 80 15 7 16 8 17 5 18 6 19 3 20 4 21 2 22
REMARK SMILES IDX 1 23 16 24 17 25 18 26 19 27 20 28 21 29 22 30 23 31 75 32
REMARK SMILES IDX 24 33 74 34 25 35 26 36 27 37 68 38 28 39 73 40 67 41 69 42
REMARK SMILES IDX 29 43 72 44 66 45 65 46 30 48 56 49 39 50 55 51 40 52 43 53
REMARK SMILES IDX 54 54 70 55 41 56 42 57 53 59 71 60 44 61 31 62 32 63 37 64
REMARK SMILES IDX 33 65 34 66 36 67 38 68 35 69 57 70 58 71 63 72 59 73 60 74
REMARK SMILES IDX 62 75 64 76 61 77 45 78 46 79 51 80 47 81 48 82 50 83 52 84
REMARK SMILES IDX 49 85
REMARK H PARENT 69 47 43 58
REMARK Flexibility Score: inf
ROOT
ATOM      1  C   UNL     1       0.811  -7.503   4.068  1.00  0.00     0.202 C 
ENDROOT
BRANCH   1   2
ATOM      2  C   UNL     1       1.009  -6.268   3.187  1.00  0.00     0.261 C 
BRANCH   2   3
ATOM      3  O   UNL     1      -0.052  -6.139   2.224  1.00  0.00    -0.462 OA
BRANCH   3   4
ATOM      4  C   UNL     1       0.251  -6.501   0.948  1.00  0.00     0.329 C 
ATOM      5  O   UNL     1       1.332  -6.947   0.579  1.00  0.00    -0.250 OA
BRANCH   4   6
ATOM      6  C   UNL     1      -0.945  -6.311   0.003  1.00  0.00     0.197 C 
ATOM      7  N   UNL     1      -1.287  -4.933  -0.386  1.00  0.00    -0.308 N 
ATOM      8  C   UNL     1      -2.419  -4.798  -1.320  1.00  0.00     0.091 C 
ATOM      9  C   UNL     1      -2.179  -7.080   0.491  1.00  0.00     0.038 C 
ATOM     10  C   UNL     1      -3.654  -5.663  -0.994  1.00  0.00     0.012 C 
ATOM     11  C   UNL     1      -2.846  -3.375  -1.697  1.00  0.00     0.025 C 
ATOM     12  C   UNL     1      -3.259  -7.087  -0.587  1.00  0.00     0.008 C 
ATOM     13  C   UNL     1      -4.649  -5.059   0.005  1.00  0.00     0.006 C 
ATOM     14  C   UNL     1      -3.890  -2.716  -0.794  1.00  0.00     0.002 C 
ATOM     15  C   UNL     1      -4.510  -3.576   0.299  1.00  0.00     0.000 C 
BRANCH   7  16
ATOM     16  C   UNL     1      -0.859  -3.870   0.382  1.00  0.00     0.320 C 
ATOM     17  O   UNL     1      -1.642  -3.225   1.069  1.00  0.00    -0.248 OA
BRANCH  16  18
ATOM     18  N   UNL     1       0.477  -3.502   0.232  1.00  0.00    -0.325 N 
ATOM     19  C   UNL     1       1.436  -4.162  -0.653  1.00  0.00     0.149 C 
BRANCH  18  20
ATOM     20  C   UNL     1       0.929  -2.195   0.756  1.00  0.00     0.083 C 
ATOM     21  C   UNL     1       0.612  -1.957   2.237  1.00  0.00     0.031 C 
BRANCH  20  22
ATOM     22  C   UNL     1       0.410  -1.071  -0.164  1.00  0.00     0.021 C 
ATOM     23  C   UNL     1       1.016   0.292   0.123  1.00  0.00     0.006 C 
ENDBRANCH  20  22
ENDBRANCH  18  20
ENDBRANCH  16  18
ENDBRANCH   7  16
ENDBRANCH   4   6
ENDBRANCH   3   4
ENDBRANCH   2   3
ENDBRANCH   1   2
BRANCH   1  24
ATOM     24  O   UNL     1       1.133  -8.755   3.456  1.00  0.00    -0.374 OA
BRANCH  24  25
ATOM     25  C   UNL     1       0.130  -9.325   2.618  1.00  0.00     0.202 C 
BRANCH  25  26
ATOM     26  C   UNL     1      -0.907 -10.199   3.327  1.00  0.00     0.261 C 
BRANCH  26  27
ATOM     27  O   UNL     1      -1.681  -9.425   4.260  1.00  0.00    -0.460 OA
BRANCH  27  28
ATOM     28  C   UNL     1      -1.337  -9.620   5.553  1.00  0.00     0.338 C 
ATOM     29  O   UNL     1      -0.571 -10.467   5.993  1.00  0.00    -0.246 OA
BRANCH  28  30
ATOM     30  C   UNL     1      -1.885  -8.549   6.404  1.00  0.00     0.060 A 
ATOM     31  C   UNL     1      -1.011  -7.986   7.340  1.00  0.00     0.016 A 
ATOM     32  C   UNL     1      -3.226  -8.158   6.358  1.00  0.00     0.016 A 
ATOM     33  C   UNL     1      -1.493  -7.101   8.297  1.00  0.00     0.010 A 
ATOM     34  C   UNL     1      -3.711  -7.266   7.323  1.00  0.00     0.010 A 
ATOM     35  C   UNL     1      -2.856  -6.781   8.329  1.00  0.00    -0.014 A 
BRANCH  35  36
ATOM     36  C   UNL     1      -3.382  -6.093   9.532  1.00  0.00     0.031 A 
ATOM     37  C   UNL     1      -4.040  -6.912  10.610  1.00  0.00     0.074 A 
ATOM     38  C   UNL     1      -3.185  -4.776   9.709  1.00  0.00     0.049 A 
ATOM     39  N   UNL     1      -4.472  -6.540  11.788  1.00  0.00    -0.248 NA
ATOM     40  C   UNL     1      -4.235  -8.341  10.322  1.00  0.00     0.031 C 
ATOM     41  C   UNL     1      -2.544  -3.882   8.746  1.00  0.00     0.029 A 
ATOM     42  N   UNL     1      -3.495  -3.966  10.770  1.00  0.00    -0.354 N 
ATOM     43  C   UNL     1      -4.988  -7.686  12.380  1.00  0.00     0.074 A 
ATOM     44  C   UNL     1      -4.851  -8.758  11.417  1.00  0.00     0.031 C 
ATOM     45  C   UNL     1      -2.508  -2.643   9.263  1.00  0.00     0.029 A 
ATOM     46  C   UNL     1      -3.134  -2.655  10.584  1.00  0.00     0.049 A 
ATOM     47  H   UNL     1      -3.936  -4.293  11.588  1.00  0.00     0.167 HD
ATOM     48  C   UNL     1      -5.515  -7.837  13.618  1.00  0.00     0.037 A 
ATOM     49  C   UNL     1      -3.294  -1.587  11.388  1.00  0.00     0.037 A 
ATOM     50  C   UNL     1      -5.647  -6.772  14.576  1.00  0.00     0.049 A 
ATOM     51  C   UNL     1      -3.906  -1.773  12.750  1.00  0.00     0.074 A 
ATOM     52  C   UNL     1      -6.138  -6.829  15.869  1.00  0.00     0.029 A 
ATOM     53  N   UNL     1      -5.293  -5.452  14.341  1.00  0.00    -0.354 N 
ATOM     54  N   UNL     1      -4.346  -2.870  13.318  1.00  0.00    -0.248 NA
ATOM     55  C   UNL     1      -4.028  -0.572  13.588  1.00  0.00     0.031 C 
ATOM     56  C   UNL     1      -6.127  -5.533  16.398  1.00  0.00     0.029 A 
ATOM     57  C   UNL     1      -5.581  -4.678  15.454  1.00  0.00     0.049 A 
ATOM     58  H   UNL     1      -4.897  -5.114  13.505  1.00  0.00     0.167 HD
ATOM     59  C   UNL     1      -4.780  -2.497  14.584  1.00  0.00     0.074 A 
ATOM     60  C   UNL     1      -4.529  -1.076  14.707  1.00  0.00     0.031 C 
ATOM     61  C   UNL     1      -5.336  -3.262  15.557  1.00  0.00     0.037 A 
BRANCH  48  62
ATOM     62  C   UNL     1      -6.015  -9.203  13.989  1.00  0.00     0.057 A 
ATOM     63  C   UNL     1      -5.143 -10.273  14.234  1.00  0.00     0.134 A 
ATOM     64  C   UNL     1      -7.388  -9.449  14.111  1.00  0.00     0.134 A 
ATOM     65  F   UNL     1      -3.817 -10.109  14.118  1.00  0.00    -0.206 F 
ATOM     66  C   UNL     1      -5.621 -11.544  14.559  1.00  0.00     0.040 A 
ATOM     67  C   UNL     1      -7.877 -10.709  14.461  1.00  0.00     0.040 A 
ATOM     68  F   UNL     1      -8.278  -8.469  13.893  1.00  0.00    -0.206 F 
ATOM     69  C   UNL     1      -6.992 -11.763  14.678  1.00  0.00     0.006 A 
ENDBRANCH  48  62
BRANCH  49  70
ATOM     70  C   UNL     1      -2.865  -0.247  10.920  1.00  0.00     0.057 A 
ATOM     71  C   UNL     1      -1.756   0.402  11.474  1.00  0.00     0.134 A 
ATOM     72  C   UNL     1      -3.558   0.415   9.899  1.00  0.00     0.134 A 
ATOM     73  F   UNL     1      -1.065  -0.172  12.470  1.00  0.00    -0.206 F 
ATOM     74  C   UNL     1      -1.358   1.667  11.038  1.00  0.00     0.040 A 
ATOM     75  C   UNL     1      -3.157   1.669   9.437  1.00  0.00     0.040 A 
ATOM     76  F   UNL     1      -4.628  -0.156   9.328  1.00  0.00    -0.206 F 
ATOM     77  C   UNL     1      -2.056   2.301  10.011  1.00  0.00     0.006 A 
ENDBRANCH  49  70
BRANCH  61  78
ATOM     78  C   UNL     1      -5.693  -2.574  16.843  1.00  0.00     0.057 A 
ATOM     79  C   UNL     1      -6.769  -1.681  16.930  1.00  0.00     0.134 A 
ATOM     80  C   UNL     1      -4.962  -2.821  18.012  1.00  0.00     0.134 A 
ATOM     81  F   UNL     1      -7.503  -1.393  15.844  1.00  0.00    -0.206 F 
ATOM     82  C   UNL     1      -7.084  -1.033  18.125  1.00  0.00     0.040 A 
ATOM     83  C   UNL     1      -5.285  -2.199  19.220  1.00  0.00     0.040 A 
ATOM     84  F   UNL     1      -3.926  -3.673  18.002  1.00  0.00    -0.206 F 
ATOM     85  C   UNL     1      -6.343  -1.295  19.276  1.00  0.00     0.006 A 
ENDBRANCH  61  78
ENDBRANCH  35  36
ENDBRANCH  28  30
ENDBRANCH  27  28
ENDBRANCH  26  27
ENDBRANCH  25  26
ENDBRANCH  24  25
ENDBRANCH   1  24
TORSDOF 18
