REMARK SMILES CC(C)C[C@H](NC(=O)[C@H]1CCCCC[C@H]1[NH3+])C(=O)OCCOCCOC(=O)c1ccc(-c2c3nc(c(-c4c(F)cccc4F)c4ccc([nH]4)c(-c4c(F)cccc4F)c4nc(c(-c5c(F)cccc5F)c5ccc2[nH]5)C=C4)C=C3)cc1
REMARK SMILES IDX 20 1 19 2 17 3 18 4 5 5 4 6 2 7 1 8 3 9 6 10 7 11 8 13 9 14
REMARK SMILES IDX 10 15 11 16 15 18 14 19 13 20 12 21 16 23 21 27 22 28 23 29
REMARK SMILES IDX 24 30 25 31 26 32 27 33 28 34 29 35 81 36 30 37 80 38 31 39
REMARK SMILES IDX 32 40 33 41 74 42 34 43 79 44 73 45 75 46 35 47 78 48 72 49
REMARK SMILES IDX 71 50 36 52 62 53 45 54 61 55 46 56 49 57 60 58 76 59 47 60
REMARK SMILES IDX 48 61 59 63 77 64 50 65 37 66 38 67 43 68 39 69 40 70 42 71
REMARK SMILES IDX 44 72 41 73 63 74 64 75 69 76 65 77 66 78 68 79 70 80 67 81
REMARK SMILES IDX 51 82 52 83 57 84 53 85 54 86 56 87 58 88 55 89
REMARK H PARENT 6 12 16 24 16 25 16 26 75 51 49 62
REMARK Flexibility Score: 90.00
ROOT
ATOM      1  C   UNL     1       0.251   7.610  -1.623  1.00  0.00     0.261 C 
ENDROOT
BRANCH   1   2
ATOM      2  O   UNL     1      -0.014   6.199  -1.561  1.00  0.00    -0.462 OA
BRANCH   2   3
ATOM      3  C   UNL     1       0.529   5.503  -2.597  1.00  0.00     0.328 C 
ATOM      4  O   UNL     1       1.123   6.023  -3.538  1.00  0.00    -0.250 OA
BRANCH   3   5
ATOM      5  C   UNL     1       0.287   3.981  -2.530  1.00  0.00     0.192 C 
BRANCH   5   6
ATOM      6  C   UNL     1      -0.707   3.501  -3.595  1.00  0.00     0.040 C 
BRANCH   6   7
ATOM      7  C   UNL     1      -0.220   3.745  -5.049  1.00  0.00    -0.015 C 
ATOM      8  C   UNL     1       1.095   3.030  -5.378  1.00  0.00     0.007 C 
ATOM      9  C   UNL     1      -1.284   3.328  -6.059  1.00  0.00     0.007 C 
ENDBRANCH   6   7
ENDBRANCH   5   6
BRANCH   5  10
ATOM     10  N   UNL     1       0.010   3.428  -1.197  1.00  0.00    -0.342 N 
ATOM     11  C   UNL     1       0.742   2.566  -0.418  1.00  0.00     0.229 C 
ATOM     12  H   UNL     1      -0.840   3.724  -0.797  1.00  0.00     0.164 HD
ATOM     13  O   UNL     1       0.492   2.616   0.794  1.00  0.00    -0.275 OA
BRANCH  11  14
ATOM     14  C   UNL     1       1.727   1.490  -0.988  1.00  0.00     0.136 C 
BRANCH  14  15
ATOM     15  C   UNL     1       2.656   1.887  -2.144  1.00  0.00     0.020 C 
BRANCH  15  16
ATOM     16  C   UNL     1       3.391   3.209  -1.908  1.00  0.00     0.001 CG0
ATOM     17  G   UNL     1       4.739   3.098  -1.225  1.00  0.00     0.000 G0
ENDBRANCH  15  16
ENDBRANCH  14  15
BRANCH  14  18
ATOM     18  C   UNL     1       2.614   0.799   0.098  1.00  0.00     0.193 C 
BRANCH  18  19
ATOM     19  C   UNL     1       3.707   1.710   0.707  1.00  0.00     0.066 C 
BRANCH  19  20
ATOM     20  C   UNL     1       4.897   1.956  -0.231  1.00  0.00     0.006 C 
BRANCH  20  21
ATOM     21  C   UNL     1       4.739   3.098  -1.225  1.00  0.00     0.000 CG0
ATOM     22  G   UNL     1       3.391   3.209  -1.908  1.00  0.00     0.000 G0
ENDBRANCH  20  21
ENDBRANCH  19  20
ENDBRANCH  18  19
BRANCH  18  23
ATOM     23  N   UNL     1       1.817   0.163   1.152  1.00  0.00    -0.354 N 
ATOM     24  H   UNL     1       1.313   0.878   1.676  1.00  0.00     0.344 HD
ATOM     25  H   UNL     1       2.434  -0.349   1.783  1.00  0.00     0.344 HD
ATOM     26  H   UNL     1       1.150  -0.484   0.731  1.00  0.00     0.344 HD
ENDBRANCH  18  23
ENDBRANCH  14  18
ENDBRANCH  11  14
ENDBRANCH   5  10
ENDBRANCH   3   5
ENDBRANCH   2   3
ENDBRANCH   1   2
BRANCH   1  27
ATOM     27  C   UNL     1       1.387   8.100  -0.709  1.00  0.00     0.202 C 
BRANCH  27  28
ATOM     28  O   UNL     1       2.405   7.175  -0.356  1.00  0.00    -0.374 OA
BRANCH  28  29
ATOM     29  C   UNL     1       2.071   6.120   0.551  1.00  0.00     0.202 C 
BRANCH  29  30
ATOM     30  C   UNL     1       1.381   6.499   1.865  1.00  0.00     0.261 C 
BRANCH  30  31
ATOM     31  O   UNL     1       0.006   6.865   1.629  1.00  0.00    -0.460 OA
BRANCH  31  32
ATOM     32  C   UNL     1      -0.393   8.023   2.200  1.00  0.00     0.338 C 
ATOM     33  O   UNL     1       0.248   8.749   2.949  1.00  0.00    -0.246 OA
BRANCH  32  34
ATOM     34  C   UNL     1      -1.678   8.425   1.612  1.00  0.00     0.060 A 
ATOM     35  C   UNL     1      -1.727   9.625   0.888  1.00  0.00     0.016 A 
ATOM     36  C   UNL     1      -2.830   7.667   1.819  1.00  0.00     0.016 A 
ATOM     37  C   UNL     1      -2.942  10.086   0.386  1.00  0.00     0.010 A 
ATOM     38  C   UNL     1      -4.051   8.143   1.338  1.00  0.00     0.010 A 
ATOM     39  C   UNL     1      -4.114   9.366   0.646  1.00  0.00    -0.014 A 
BRANCH  39  40
ATOM     40  C   UNL     1      -5.431   9.975   0.353  1.00  0.00     0.031 A 
ATOM     41  C   UNL     1      -6.137  10.715   1.452  1.00  0.00     0.074 A 
ATOM     42  C   UNL     1      -5.992   9.857  -0.861  1.00  0.00     0.049 A 
ATOM     43  N   UNL     1      -7.331  11.246   1.462  1.00  0.00    -0.248 NA
ATOM     44  C   UNL     1      -5.394  10.872   2.714  1.00  0.00     0.031 C 
ATOM     45  C   UNL     1      -5.384   9.194  -2.012  1.00  0.00     0.029 A 
ATOM     46  N   UNL     1      -7.217  10.274  -1.317  1.00  0.00    -0.354 N 
ATOM     47  C   UNL     1      -7.489  11.788   2.731  1.00  0.00     0.074 A 
ATOM     48  C   UNL     1      -6.277  11.507   3.469  1.00  0.00     0.031 C 
ATOM     49  C   UNL     1      -6.254   9.220  -3.037  1.00  0.00     0.029 A 
ATOM     50  C   UNL     1      -7.488   9.871  -2.601  1.00  0.00     0.049 A 
ATOM     51  H   UNL     1      -7.841  10.810  -0.776  1.00  0.00     0.167 HD
ATOM     52  C   UNL     1      -8.552  12.459   3.235  1.00  0.00     0.037 A 
ATOM     53  C   UNL     1      -8.618   9.986  -3.325  1.00  0.00     0.037 A 
ATOM     54  C   UNL     1      -9.757  12.727   2.498  1.00  0.00     0.049 A 
ATOM     55  C   UNL     1      -9.812  10.679  -2.724  1.00  0.00     0.074 A 
ATOM     56  C   UNL     1     -10.880  13.425   2.905  1.00  0.00     0.029 A 
ATOM     57  N   UNL     1      -9.998  12.296   1.202  1.00  0.00    -0.354 N 
ATOM     58  N   UNL     1      -9.942  11.220  -1.536  1.00  0.00    -0.248 NA
ATOM     59  C   UNL     1     -11.016  10.777  -3.562  1.00  0.00     0.031 C 
ATOM     60  C   UNL     1     -11.821  13.373   1.871  1.00  0.00     0.029 A 
ATOM     61  C   UNL     1     -11.265  12.686   0.804  1.00  0.00     0.049 A 
ATOM     62  H   UNL     1      -9.362  11.788   0.648  1.00  0.00     0.167 HD
ATOM     63  C   UNL     1     -11.229  11.741  -1.492  1.00  0.00     0.074 A 
ATOM     64  C   UNL     1     -11.838  11.458  -2.775  1.00  0.00     0.031 C 
ATOM     65  C   UNL     1     -11.850  12.398  -0.481  1.00  0.00     0.037 A 
BRANCH  52  66
ATOM     66  C   UNL     1      -8.464  12.909   4.662  1.00  0.00     0.057 A 
ATOM     67  C   UNL     1      -7.633  13.965   5.058  1.00  0.00     0.134 A 
ATOM     68  C   UNL     1      -9.227  12.280   5.654  1.00  0.00     0.134 A 
ATOM     69  F   UNL     1      -6.864  14.598   4.159  1.00  0.00    -0.206 F 
ATOM     70  C   UNL     1      -7.545  14.362   6.393  1.00  0.00     0.040 A 
ATOM     71  C   UNL     1      -9.165  12.683   6.988  1.00  0.00     0.040 A 
ATOM     72  F   UNL     1     -10.044  11.262   5.342  1.00  0.00    -0.206 F 
ATOM     73  C   UNL     1      -8.316  13.723   7.362  1.00  0.00     0.006 A 
ENDBRANCH  52  66
BRANCH  53  74
ATOM     74  C   UNL     1      -8.681   9.403  -4.688  1.00  0.00     0.057 A 
ATOM     75  C   UNL     1      -8.716  10.214  -5.827  1.00  0.00     0.134 A 
ATOM     76  C   UNL     1      -8.701   8.016  -4.882  1.00  0.00     0.134 A 
ATOM     77  F   UNL     1      -8.722  11.549  -5.704  1.00  0.00    -0.206 F 
ATOM     78  C   UNL     1      -8.778   9.668  -7.110  1.00  0.00     0.040 A 
ATOM     79  C   UNL     1      -8.741   7.456  -6.159  1.00  0.00     0.040 A 
ATOM     80  F   UNL     1      -8.667   7.184  -3.830  1.00  0.00    -0.206 F 
ATOM     81  C   UNL     1      -8.784   8.284  -7.279  1.00  0.00     0.006 A 
ENDBRANCH  53  74
BRANCH  65  82
ATOM     82  C   UNL     1     -13.248  12.883  -0.727  1.00  0.00     0.057 A 
ATOM     83  C   UNL     1     -14.341  12.010  -0.732  1.00  0.00     0.134 A 
ATOM     84  C   UNL     1     -13.507  14.250  -0.892  1.00  0.00     0.134 A 
ATOM     85  F   UNL     1     -14.157  10.688  -0.591  1.00  0.00    -0.206 F 
ATOM     86  C   UNL     1     -15.645  12.478  -0.902  1.00  0.00     0.040 A 
ATOM     87  C   UNL     1     -14.808  14.732  -1.040  1.00  0.00     0.040 A 
ATOM     88  F   UNL     1     -12.503  15.139  -0.887  1.00  0.00    -0.206 F 
ATOM     89  C   UNL     1     -15.882  13.844  -1.047  1.00  0.00     0.006 A 
ENDBRANCH  65  82
ENDBRANCH  39  40
ENDBRANCH  32  34
ENDBRANCH  31  32
ENDBRANCH  30  31
ENDBRANCH  29  30
ENDBRANCH  28  29
ENDBRANCH  27  28
ENDBRANCH   1  27
TORSDOF 19
