REMARK SMILES CCC(CC)[C@@H](C(=O)OCCOCCOC(=O)c1ccc(-c2c3nc(c(-c4c(F)cccc4F)c4ccc([nH]4)c(-c4c(F)cccc4F)c4nc(c(-c5c(F)cccc5F)c5ccc2[nH]5)C=C4)C=C3)cc1)S(=O)(=O)c1cccc(OC)c1
REMARK SMILES IDX 11 1 10 2 9 3 7 4 8 5 6 6 3 7 2 8 1 9 4 10 5 11 72 12 73 13
REMARK SMILES IDX 74 14 75 15 76 16 82 17 77 18 79 19 78 20 80 21 81 22 12 23
REMARK SMILES IDX 13 24 14 25 15 26 16 27 17 28 18 29 19 30 71 31 20 32 70 33
REMARK SMILES IDX 21 34 22 35 23 36 64 37 24 38 69 39 63 40 65 41 25 42 68 43
REMARK SMILES IDX 62 44 61 45 26 47 52 48 35 49 51 50 36 51 39 52 50 53 66 54
REMARK SMILES IDX 37 55 38 56 49 58 67 59 40 60 27 61 28 62 33 63 29 64 30 65
REMARK SMILES IDX 32 66 34 67 31 68 53 69 54 70 59 71 55 72 56 73 58 74 60 75
REMARK SMILES IDX 57 76 41 77 42 78 47 79 43 80 44 81 46 82 48 83 45 84
REMARK H PARENT 65 46 39 57
REMARK Flexibility Score: inf
ROOT
ATOM      1  C   UNL     1       1.889   4.806   2.375  1.00  0.00     0.202 C 
ENDROOT
BRANCH   1   2
ATOM      2  C   UNL     1       0.574   5.315   1.763  1.00  0.00     0.261 C 
BRANCH   2   3
ATOM      3  O   UNL     1       0.124   4.476   0.673  1.00  0.00    -0.462 OA
BRANCH   3   4
ATOM      4  C   UNL     1       0.477   4.875  -0.579  1.00  0.00     0.325 C 
ATOM      5  O   UNL     1       1.018   5.952  -0.778  1.00  0.00    -0.251 OA
BRANCH   4   6
ATOM      6  C   UNL     1       0.138   3.826  -1.641  1.00  0.00     0.226 C 
BRANCH   6   7
ATOM      7  C   UNL     1       0.633   2.339  -1.384  1.00  0.00     0.018 C 
BRANCH   7   8
ATOM      8  C   UNL     1       0.253   1.754   0.010  1.00  0.00     0.002 C 
ATOM      9  C   UNL     1       0.707   0.313   0.257  1.00  0.00     0.004 C 
ENDBRANCH   7   8
BRANCH   7  10
ATOM     10  C   UNL     1       0.200   1.333  -2.490  1.00  0.00     0.002 C 
ATOM     11  C   UNL     1      -1.302   1.208  -2.698  1.00  0.00     0.004 C 
ENDBRANCH   7  10
ENDBRANCH   6   7
BRANCH   6  12
ATOM     12  S   UNL     1       0.754   4.529  -3.223  1.00  0.00     0.192 S 
ATOM     13  O   UNL     1       0.476   3.608  -4.310  1.00  0.00    -0.223 OA
ATOM     14  O   UNL     1       0.271   5.889  -3.376  1.00  0.00    -0.223 OA
BRANCH  12  15
ATOM     15  C   UNL     1       2.544   4.590  -3.088  1.00  0.00     0.071 A 
ATOM     16  C   UNL     1       3.283   3.415  -3.271  1.00  0.00     0.020 A 
ATOM     17  C   UNL     1       3.198   5.811  -2.871  1.00  0.00     0.066 A 
ATOM     18  C   UNL     1       4.670   3.442  -3.153  1.00  0.00     0.005 A 
ATOM     19  C   UNL     1       4.593   5.839  -2.776  1.00  0.00     0.120 A 
ATOM     20  C   UNL     1       5.318   4.649  -2.900  1.00  0.00     0.046 A 
BRANCH  19  21
ATOM     21  O   UNL     1       5.369   6.941  -2.548  1.00  0.00    -0.497 OA
ATOM     22  C   UNL     1       4.707   8.197  -2.481  1.00  0.00     0.278 C 
ENDBRANCH  19  21
ENDBRANCH  12  15
ENDBRANCH   6  12
ENDBRANCH   4   6
ENDBRANCH   3   4
ENDBRANCH   2   3
ENDBRANCH   1   2
BRANCH   1  23
ATOM     23  O   UNL     1       3.084   5.174   1.681  1.00  0.00    -0.374 OA
BRANCH  23  24
ATOM     24  C   UNL     1       3.448   4.380   0.556  1.00  0.00     0.202 C 
BRANCH  24  25
ATOM     25  C   UNL     1       4.339   3.171   0.836  1.00  0.00     0.261 C 
BRANCH  25  26
ATOM     26  O   UNL     1       3.740   2.322   1.823  1.00  0.00    -0.460 OA
BRANCH  26  27
ATOM     27  C   UNL     1       4.262   2.498   3.057  1.00  0.00     0.338 C 
ATOM     28  O   UNL     1       5.263   3.137   3.354  1.00  0.00    -0.246 OA
BRANCH  27  29
ATOM     29  C   UNL     1       3.370   1.927   4.077  1.00  0.00     0.060 A 
ATOM     30  C   UNL     1       3.200   2.677   5.245  1.00  0.00     0.016 A 
ATOM     31  C   UNL     1       2.782   0.665   3.944  1.00  0.00     0.016 A 
ATOM     32  C   UNL     1       2.534   2.125   6.329  1.00  0.00     0.010 A 
ATOM     33  C   UNL     1       2.105   0.112   5.035  1.00  0.00     0.010 A 
ATOM     34  C   UNL     1       2.040   0.817   6.249  1.00  0.00    -0.014 A 
BRANCH  34  35
ATOM     35  C   UNL     1       1.663   0.144   7.513  1.00  0.00     0.031 A 
ATOM     36  C   UNL     1       2.669  -0.758   8.175  1.00  0.00     0.074 A 
ATOM     37  C   UNL     1       0.497   0.429   8.117  1.00  0.00     0.049 A 
ATOM     38  N   UNL     1       2.609  -1.357   9.336  1.00  0.00    -0.248 NA
ATOM     39  C   UNL     1       3.913  -1.015   7.431  1.00  0.00     0.031 C 
ATOM     40  C   UNL     1      -0.535   1.317   7.585  1.00  0.00     0.029 A 
ATOM     41  N   UNL     1      -0.000   0.016   9.325  1.00  0.00    -0.354 N 
ATOM     42  C   UNL     1       3.804  -2.055   9.462  1.00  0.00     0.074 A 
ATOM     43  C   UNL     1       4.552  -1.842   8.244  1.00  0.00     0.031 C 
ATOM     44  C   UNL     1      -1.543   1.391   8.471  1.00  0.00     0.029 A 
ATOM     45  C   UNL     1      -1.230   0.547   9.622  1.00  0.00     0.049 A 
ATOM     46  H   UNL     1       0.479  -0.603   9.923  1.00  0.00     0.167 HD
ATOM     47  C   UNL     1       4.248  -2.791  10.508  1.00  0.00     0.037 A 
ATOM     48  C   UNL     1      -2.009   0.372  10.706  1.00  0.00     0.037 A 
ATOM     49  C   UNL     1       3.505  -2.994  11.722  1.00  0.00     0.049 A 
ATOM     50  C   UNL     1      -1.512  -0.487  11.837  1.00  0.00     0.074 A 
ATOM     51  C   UNL     1       3.867  -3.715  12.846  1.00  0.00     0.029 A 
ATOM     52  N   UNL     1       2.243  -2.475  11.968  1.00  0.00    -0.354 N 
ATOM     53  N   UNL     1      -0.369  -1.119  11.957  1.00  0.00    -0.248 NA
ATOM     54  C   UNL     1      -2.409  -0.645  12.989  1.00  0.00     0.031 C 
ATOM     55  C   UNL     1       2.805  -3.665  13.756  1.00  0.00     0.029 A 
ATOM     56  C   UNL     1       1.802  -2.875  13.217  1.00  0.00     0.049 A 
ATOM     57  H   UNL     1       1.736  -1.905  11.345  1.00  0.00     0.167 HD
ATOM     58  C   UNL     1      -0.399  -1.728  13.205  1.00  0.00     0.074 A 
ATOM     59  C   UNL     1      -1.666  -1.374  13.810  1.00  0.00     0.031 C 
ATOM     60  C   UNL     1       0.536  -2.510  13.799  1.00  0.00     0.037 A 
BRANCH  47  61
ATOM     61  C   UNL     1       5.592  -3.443  10.368  1.00  0.00     0.057 A 
ATOM     62  C   UNL     1       6.782  -2.704  10.406  1.00  0.00     0.134 A 
ATOM     63  C   UNL     1       5.698  -4.830  10.208  1.00  0.00     0.134 A 
ATOM     64  F   UNL     1       6.749  -1.369  10.538  1.00  0.00    -0.206 F 
ATOM     65  C   UNL     1       8.028  -3.318  10.266  1.00  0.00     0.040 A 
ATOM     66  C   UNL     1       6.939  -5.458  10.091  1.00  0.00     0.040 A 
ATOM     67  F   UNL     1       4.598  -5.596  10.163  1.00  0.00    -0.206 F 
ATOM     68  C   UNL     1       8.108  -4.701  10.114  1.00  0.00     0.006 A 
ENDBRANCH  47  61
BRANCH  48  69
ATOM     69  C   UNL     1      -3.337   1.030  10.778  1.00  0.00     0.057 A 
ATOM     70  C   UNL     1      -3.587   2.070  11.680  1.00  0.00     0.134 A 
ATOM     71  C   UNL     1      -4.394   0.620   9.956  1.00  0.00     0.134 A 
ATOM     72  F   UNL     1      -2.620   2.494  12.507  1.00  0.00    -0.206 F 
ATOM     73  C   UNL     1      -4.845   2.668  11.775  1.00  0.00     0.040 A 
ATOM     74  C   UNL     1      -5.650   1.224  10.024  1.00  0.00     0.040 A 
ATOM     75  F   UNL     1      -4.217  -0.370   9.069  1.00  0.00    -0.206 F 
ATOM     76  C   UNL     1      -5.880   2.247  10.942  1.00  0.00     0.006 A 
ENDBRANCH  48  69
BRANCH  60  77
ATOM     77  C   UNL     1       0.230  -3.009  15.181  1.00  0.00     0.057 A 
ATOM     78  C   UNL     1      -0.730  -4.003  15.411  1.00  0.00     0.134 A 
ATOM     79  C   UNL     1       0.918  -2.503  16.291  1.00  0.00     0.134 A 
ATOM     80  F   UNL     1      -1.431  -4.520  14.391  1.00  0.00    -0.206 F 
ATOM     81  C   UNL     1      -1.015  -4.455  16.700  1.00  0.00     0.040 A 
ATOM     82  C   UNL     1       0.660  -2.966  17.581  1.00  0.00     0.040 A 
ATOM     83  F   UNL     1       1.857  -1.557  16.138  1.00  0.00    -0.206 F 
ATOM     84  C   UNL     1      -0.315  -3.939  17.790  1.00  0.00     0.006 A 
ENDBRANCH  60  77
ENDBRANCH  34  35
ENDBRANCH  27  29
ENDBRANCH  26  27
ENDBRANCH  25  26
ENDBRANCH  24  25
ENDBRANCH  23  24
ENDBRANCH   1  23
TORSDOF 20
