REMARK SMILES CCc1ccc(C[NH+]2CCC3(CC2)[C@@H](C(=O)OCCOCCOC(=O)c2ccc(-c4c5nc(c(-c6c(F)cccc6F)c6ccc([nH]6)c(-c6c(F)cccc6F)c6nc(c(-c7c(F)cccc7F)c7ccc4[nH]7)C=C6)C=C5)cc2)CC(=O)N3C)nc1
REMARK SMILES IDX 19 1 18 2 17 3 15 4 16 5 14 6 8 7 9 8 13 9 10 11 12 12 11 13
REMARK SMILES IDX 83 14 80 15 81 16 84 17 82 18 7 19 6 20 3 21 4 22 86 23 5 24
REMARK SMILES IDX 85 25 2 26 1 27 20 28 21 29 22 30 23 31 24 32 25 33 26 34
REMARK SMILES IDX 27 35 79 36 28 37 78 38 29 39 30 40 31 41 72 42 32 43 77 44
REMARK SMILES IDX 71 45 73 46 33 47 76 48 70 49 69 50 34 52 60 53 43 54 59 55
REMARK SMILES IDX 44 56 47 57 58 58 74 59 45 60 46 61 57 63 75 64 48 65 35 66
REMARK SMILES IDX 36 67 41 68 37 69 38 70 40 71 42 72 39 73 61 74 62 75 67 76
REMARK SMILES IDX 63 77 64 78 66 79 68 80 65 81 49 82 50 83 55 84 51 85 52 86
REMARK SMILES IDX 54 87 56 88 53 89
REMARK H PARENT 8 10 73 51 47 62
REMARK Flexibility Score: inf
ROOT
ATOM      1  C   UNL     1       0.750  -4.165  -2.583  1.00  0.00     0.202 C 
ENDROOT
BRANCH   1   2
ATOM      2  C   UNL     1      -0.531  -3.353  -2.298  1.00  0.00     0.261 C 
BRANCH   2   3
ATOM      3  O   UNL     1      -0.890  -3.278  -0.894  1.00  0.00    -0.463 OA
BRANCH   3   4
ATOM      4  C   UNL     1      -1.961  -3.998  -0.441  1.00  0.00     0.311 C 
ATOM      5  O   UNL     1      -2.587  -4.805  -1.110  1.00  0.00    -0.252 OA
BRANCH   4   6
ATOM      6  C   UNL     1      -2.289  -3.615   1.002  1.00  0.00     0.134 C 
ATOM      7  N   UNL     1       0.174  -5.602   4.003  1.00  0.00    -0.330 N 
ATOM      8  C   UNL     1      -0.912  -4.762   4.483  1.00  0.00     0.265 C 
ATOM      9  C   UNL     1      -0.217  -6.428   2.867  1.00  0.00     0.265 C 
ATOM     10  H   UNL     1       0.343  -6.269   4.757  1.00  0.00     0.348 HD
ATOM     11  C   UNL     1      -1.596  -3.911   3.409  1.00  0.00     0.091 C 
ATOM     12  C   UNL     1      -0.964  -5.715   1.734  1.00  0.00     0.091 C 
ATOM     13  C   UNL     1      -2.025  -4.677   2.127  1.00  0.00     0.067 C 
ATOM     14  N   UNL     1      -3.367  -5.250   2.317  1.00  0.00    -0.339 N 
ATOM     15  C   UNL     1      -3.781  -3.283   1.095  1.00  0.00     0.118 C 
ATOM     16  C   UNL     1      -4.384  -4.469   1.791  1.00  0.00     0.223 C 
ATOM     17  C   UNL     1      -3.656  -6.518   2.953  1.00  0.00     0.147 C 
ATOM     18  O   UNL     1      -5.584  -4.673   1.896  1.00  0.00    -0.275 OA
BRANCH   7  19
ATOM     19  C   UNL     1       1.515  -4.979   3.944  1.00  0.00     0.319 C 
BRANCH  19  20
ATOM     20  C   UNL     1       1.674  -3.737   3.088  1.00  0.00     0.095 A 
ATOM     21  C   UNL     1       1.463  -1.519   1.429  1.00  0.00    -0.030 A 
ATOM     22  C   UNL     1       1.698  -1.341   2.788  1.00  0.00     0.007 A 
ATOM     23  C   UNL     1       1.483  -2.826   0.984  1.00  0.00     0.115 A 
ATOM     24  C   UNL     1       1.815  -2.461   3.629  1.00  0.00     0.030 A 
ATOM     25  N   UNL     1       1.580  -3.918   1.761  1.00  0.00    -0.255 NA
BRANCH  21  26
ATOM     26  C   UNL     1       1.029  -0.467   0.446  1.00  0.00     0.034 C 
ATOM     27  C   UNL     1       1.470   0.959   0.699  1.00  0.00     0.009 C 
ENDBRANCH  21  26
ENDBRANCH  19  20
ENDBRANCH   7  19
ENDBRANCH   4   6
ENDBRANCH   3   4
ENDBRANCH   2   3
ENDBRANCH   1   2
BRANCH   1  28
ATOM     28  O   UNL     1       0.568  -5.577  -2.694  1.00  0.00    -0.374 OA
BRANCH  28  29
ATOM     29  C   UNL     1       0.352  -6.255  -1.461  1.00  0.00     0.202 C 
BRANCH  29  30
ATOM     30  C   UNL     1       1.598  -6.880  -0.827  1.00  0.00     0.261 C 
BRANCH  30  31
ATOM     31  O   UNL     1       2.474  -5.880  -0.270  1.00  0.00    -0.460 OA
BRANCH  31  32
ATOM     32  C   UNL     1       3.547  -5.564  -1.022  1.00  0.00     0.338 C 
ATOM     33  O   UNL     1       3.858  -6.072  -2.093  1.00  0.00    -0.246 OA
BRANCH  32  34
ATOM     34  C   UNL     1       4.287  -4.406  -0.473  1.00  0.00     0.060 A 
ATOM     35  C   UNL     1       4.754  -3.467  -1.398  1.00  0.00     0.016 A 
ATOM     36  C   UNL     1       4.606  -4.263   0.881  1.00  0.00     0.016 A 
ATOM     37  C   UNL     1       5.607  -2.443  -0.993  1.00  0.00     0.010 A 
ATOM     38  C   UNL     1       5.436  -3.207   1.295  1.00  0.00     0.010 A 
ATOM     39  C   UNL     1       5.995  -2.328   0.350  1.00  0.00    -0.014 A 
BRANCH  39  40
ATOM     40  C   UNL     1       7.111  -1.400   0.694  1.00  0.00     0.031 A 
ATOM     41  C   UNL     1       8.468  -1.967   1.030  1.00  0.00     0.074 A 
ATOM     42  C   UNL     1       6.958  -0.065   0.597  1.00  0.00     0.049 A 
ATOM     43  N   UNL     1       9.596  -1.342   1.264  1.00  0.00    -0.248 NA
ATOM     44  C   UNL     1       8.570  -3.432   1.112  1.00  0.00     0.031 C 
ATOM     45  C   UNL     1       5.715   0.618   0.248  1.00  0.00     0.029 A 
ATOM     46  N   UNL     1       7.865   0.955   0.762  1.00  0.00    -0.354 N 
ATOM     47  C   UNL     1      10.535  -2.336   1.520  1.00  0.00     0.074 A 
ATOM     48  C   UNL     1       9.835  -3.600   1.464  1.00  0.00     0.031 C 
ATOM     49  C   UNL     1       5.939   1.942   0.204  1.00  0.00     0.029 A 
ATOM     50  C   UNL     1       7.335   2.205   0.551  1.00  0.00     0.049 A 
ATOM     51  H   UNL     1       8.806   0.804   1.009  1.00  0.00     0.167 HD
ATOM     52  C   UNL     1      11.863  -2.214   1.760  1.00  0.00     0.037 A 
ATOM     53  C   UNL     1       7.906   3.424   0.631  1.00  0.00     0.037 A 
ATOM     54  C   UNL     1      12.569  -0.960   1.806  1.00  0.00     0.049 A 
ATOM     55  C   UNL     1       9.370   3.539   0.966  1.00  0.00     0.074 A 
ATOM     56  C   UNL     1      13.919  -0.739   2.020  1.00  0.00     0.029 A 
ATOM     57  N   UNL     1      11.982   0.285   1.644  1.00  0.00    -0.354 N 
ATOM     58  N   UNL     1      10.250   2.589   1.171  1.00  0.00    -0.248 NA
ATOM     59  C   UNL     1       9.923   4.898   1.074  1.00  0.00     0.031 C 
ATOM     60  C   UNL     1      14.137   0.642   2.049  1.00  0.00     0.029 A 
ATOM     61  C   UNL     1      12.936   1.280   1.787  1.00  0.00     0.049 A 
ATOM     62  H   UNL     1      11.028   0.440   1.456  1.00  0.00     0.167 HD
ATOM     63  C   UNL     1      11.461   3.232   1.402  1.00  0.00     0.074 A 
ATOM     64  C   UNL     1      11.206   4.653   1.296  1.00  0.00     0.031 C 
ATOM     65  C   UNL     1      12.675   2.693   1.676  1.00  0.00     0.037 A 
BRANCH  52  66
ATOM     66  C   UNL     1      12.640  -3.475   2.015  1.00  0.00     0.057 A 
ATOM     67  C   UNL     1      12.891  -4.413   1.004  1.00  0.00     0.134 A 
ATOM     68  C   UNL     1      13.169  -3.741   3.284  1.00  0.00     0.134 A 
ATOM     69  F   UNL     1      12.403  -4.227  -0.233  1.00  0.00    -0.206 F 
ATOM     70  C   UNL     1      13.612  -5.582   1.254  1.00  0.00     0.040 A 
ATOM     71  C   UNL     1      13.919  -4.891   3.538  1.00  0.00     0.040 A 
ATOM     72  F   UNL     1      12.975  -2.883   4.297  1.00  0.00    -0.206 F 
ATOM     73  C   UNL     1      14.135  -5.820   2.523  1.00  0.00     0.006 A 
ENDBRANCH  52  66
BRANCH  53  74
ATOM     74  C   UNL     1       7.090   4.645   0.396  1.00  0.00     0.057 A 
ATOM     75  C   UNL     1       7.317   5.475  -0.709  1.00  0.00     0.134 A 
ATOM     76  C   UNL     1       6.080   5.026   1.288  1.00  0.00     0.134 A 
ATOM     77  F   UNL     1       8.287   5.181  -1.587  1.00  0.00    -0.206 F 
ATOM     78  C   UNL     1       6.584   6.647  -0.908  1.00  0.00     0.040 A 
ATOM     79  C   UNL     1       5.319   6.179   1.086  1.00  0.00     0.040 A 
ATOM     80  F   UNL     1       5.810   4.275   2.366  1.00  0.00    -0.206 F 
ATOM     81  C   UNL     1       5.577   6.998  -0.011  1.00  0.00     0.006 A 
ENDBRANCH  53  74
BRANCH  65  82
ATOM     82  C   UNL     1      13.833   3.637   1.845  1.00  0.00     0.057 A 
ATOM     83  C   UNL     1      13.952   4.476   2.960  1.00  0.00     0.134 A 
ATOM     84  C   UNL     1      14.866   3.675   0.898  1.00  0.00     0.134 A 
ATOM     85  F   UNL     1      12.995   4.498   3.900  1.00  0.00    -0.206 F 
ATOM     86  C   UNL     1      15.041   5.337   3.114  1.00  0.00     0.040 A 
ATOM     87  C   UNL     1      15.974   4.508   1.056  1.00  0.00     0.040 A 
ATOM     88  F   UNL     1      14.823   2.889  -0.189  1.00  0.00    -0.206 F 
ATOM     89  C   UNL     1      16.060   5.348   2.163  1.00  0.00     0.006 A 
ENDBRANCH  65  82
ENDBRANCH  39  40
ENDBRANCH  32  34
ENDBRANCH  31  32
ENDBRANCH  30  31
ENDBRANCH  29  30
ENDBRANCH  28  29
ENDBRANCH   1  28
TORSDOF 17
