REMARK SMILES CC(C)(CNC(=O)[C@H]1CCC[C@H](C(=O)OCCOCCOC(=O)c2ccc(-c3c4nc(c(-c5c(F)cccc5F)c5ccc([nH]5)c(-c5c(F)cccc5F)c5nc(c(-c6c(F)cccc6F)c6ccc3[nH]6)C=C5)C=C4)cc2)C1)S(C)(=O)=O
REMARK SMILES IDX 17 1 16 2 15 3 13 4 14 5 12 6 8 7 9 8 78 9 10 10 11 11 6 12
REMARK SMILES IDX 5 13 7 15 4 16 2 17 1 18 3 19 79 20 80 21 81 22 82 23 18 24
REMARK SMILES IDX 19 25 20 26 21 27 22 28 23 29 24 30 25 31 77 32 26 33 76 34
REMARK SMILES IDX 27 35 28 36 29 37 70 38 30 39 75 40 69 41 71 42 31 43 74 44
REMARK SMILES IDX 68 45 67 46 32 48 58 49 41 50 57 51 42 52 45 53 56 54 72 55
REMARK SMILES IDX 43 56 44 57 55 59 73 60 46 61 33 62 34 63 39 64 35 65 36 66
REMARK SMILES IDX 38 67 40 68 37 69 59 70 60 71 65 72 61 73 62 74 64 75 66 76
REMARK SMILES IDX 63 77 47 78 48 79 53 80 49 81 50 82 52 83 54 84 51 85
REMARK H PARENT 5 14 71 47 45 58
REMARK Flexibility Score: inf
ROOT
ATOM      1  C   UNL     1      -8.944   2.090  -4.740  1.00  0.00     0.202 C 
ENDROOT
BRANCH   1   2
ATOM      2  C   UNL     1      -8.291   1.857  -3.376  1.00  0.00     0.261 C 
BRANCH   2   3
ATOM      3  O   UNL     1      -7.172   2.729  -3.127  1.00  0.00    -0.463 OA
BRANCH   3   4
ATOM      4  C   UNL     1      -6.058   2.085  -2.700  1.00  0.00     0.309 C 
ATOM      5  O   UNL     1      -6.019   0.887  -2.426  1.00  0.00    -0.252 OA
BRANCH   4   6
ATOM      6  C   UNL     1      -4.791   2.923  -2.728  1.00  0.00     0.100 C 
ATOM      7  C   UNL     1      -2.454   2.992  -1.731  1.00  0.00     0.079 C 
ATOM      8  C   UNL     1      -2.505   4.530  -1.830  1.00  0.00     0.013 C 
ATOM      9  C   UNL     1      -3.866   2.448  -1.600  1.00  0.00     0.028 C 
ATOM     10  C   UNL     1      -3.459   5.035  -2.915  1.00  0.00     0.002 C 
ATOM     11  C   UNL     1      -4.873   4.444  -2.783  1.00  0.00     0.015 C 
BRANCH   7  12
ATOM     12  C   UNL     1      -1.442   2.395  -2.731  1.00  0.00     0.223 C 
ATOM     13  N   UNL     1      -1.635   1.416  -3.649  1.00  0.00    -0.354 N 
ATOM     14  H   UNL     1      -0.821   1.233  -4.172  1.00  0.00     0.163 HD
ATOM     15  O   UNL     1      -0.280   2.831  -2.717  1.00  0.00    -0.275 OA
BRANCH  13  16
ATOM     16  C   UNL     1      -2.744   0.568  -4.053  1.00  0.00     0.138 C 
BRANCH  16  17
ATOM     17  C   UNL     1      -2.998   0.409  -5.577  1.00  0.00     0.084 C 
ATOM     18  C   UNL     1      -1.895  -0.452  -6.215  1.00  0.00     0.030 C 
ATOM     19  C   UNL     1      -4.360  -0.325  -5.760  1.00  0.00     0.030 C 
BRANCH  17  20
ATOM     20  S   UNL     1      -3.110   1.997  -6.510  1.00  0.00     0.154 S 
ATOM     21  C   UNL     1      -1.552   2.841  -6.398  1.00  0.00     0.158 C 
ATOM     22  O   UNL     1      -3.281   1.663  -7.914  1.00  0.00    -0.229 OA
ATOM     23  O   UNL     1      -4.084   2.863  -5.879  1.00  0.00    -0.229 OA
ENDBRANCH  17  20
ENDBRANCH  16  17
ENDBRANCH  13  16
ENDBRANCH   7  12
ENDBRANCH   4   6
ENDBRANCH   3   4
ENDBRANCH   2   3
ENDBRANCH   1   2
BRANCH   1  24
ATOM     24  O   UNL     1      -8.136   1.921  -5.899  1.00  0.00    -0.374 OA
BRANCH  24  25
ATOM     25  C   UNL     1      -7.077   2.856  -6.106  1.00  0.00     0.202 C 
BRANCH  25  26
ATOM     26  C   UNL     1      -7.452   4.306  -6.446  1.00  0.00     0.261 C 
BRANCH  26  27
ATOM     27  O   UNL     1      -8.148   4.957  -5.366  1.00  0.00    -0.460 OA
BRANCH  27  28
ATOM     28  C   UNL     1      -9.413   5.349  -5.656  1.00  0.00     0.338 C 
ATOM     29  O   UNL     1      -9.974   5.323  -6.736  1.00  0.00    -0.246 OA
BRANCH  28  30
ATOM     30  C   UNL     1     -10.137   5.610  -4.397  1.00  0.00     0.060 A 
ATOM     31  C   UNL     1     -11.280   4.838  -4.145  1.00  0.00     0.016 A 
ATOM     32  C   UNL     1      -9.743   6.612  -3.510  1.00  0.00     0.016 A 
ATOM     33  C   UNL     1     -12.052   5.086  -3.017  1.00  0.00     0.010 A 
ATOM     34  C   UNL     1     -10.536   6.880  -2.390  1.00  0.00     0.010 A 
ATOM     35  C   UNL     1     -11.710   6.139  -2.159  1.00  0.00    -0.014 A 
BRANCH  35  36
ATOM     36  C   UNL     1     -12.702   6.568  -1.148  1.00  0.00     0.031 A 
ATOM     37  C   UNL     1     -13.644   7.685  -1.502  1.00  0.00     0.074 A 
ATOM     38  C   UNL     1     -12.825   5.911   0.019  1.00  0.00     0.049 A 
ATOM     39  N   UNL     1     -14.616   8.206  -0.800  1.00  0.00    -0.248 NA
ATOM     40  C   UNL     1     -13.474   8.289  -2.835  1.00  0.00     0.031 C 
ATOM     41  C   UNL     1     -12.006   4.776   0.441  1.00  0.00     0.029 A 
ATOM     42  N   UNL     1     -13.699   6.101   1.058  1.00  0.00    -0.354 N 
ATOM     43  C   UNL     1     -15.182   9.184  -1.609  1.00  0.00     0.074 A 
ATOM     44  C   UNL     1     -14.421   9.215  -2.838  1.00  0.00     0.031 C 
ATOM     45  C   UNL     1     -12.414   4.373   1.658  1.00  0.00     0.029 A 
ATOM     46  C   UNL     1     -13.504   5.236   2.107  1.00  0.00     0.049 A 
ATOM     47  H   UNL     1     -14.400   6.792   1.053  1.00  0.00     0.167 HD
ATOM     48  C   UNL     1     -16.252   9.972  -1.357  1.00  0.00     0.037 A 
ATOM     49  C   UNL     1     -14.129   5.166   3.298  1.00  0.00     0.037 A 
ATOM     50  C   UNL     1     -16.999   9.947  -0.128  1.00  0.00     0.049 A 
ATOM     51  C   UNL     1     -15.257   6.123   3.589  1.00  0.00     0.074 A 
ATOM     52  C   UNL     1     -18.078  10.730   0.244  1.00  0.00     0.029 A 
ATOM     53  N   UNL     1     -16.740   9.090   0.931  1.00  0.00    -0.354 N 
ATOM     54  N   UNL     1     -15.784   7.043   2.817  1.00  0.00    -0.248 NA
ATOM     55  C   UNL     1     -15.882   6.026   4.916  1.00  0.00     0.031 C 
ATOM     56  C   UNL     1     -18.450  10.370   1.543  1.00  0.00     0.029 A 
ATOM     57  C   UNL     1     -17.632   9.332   1.961  1.00  0.00     0.049 A 
ATOM     58  H   UNL     1     -16.028   8.411   0.947  1.00  0.00     0.167 HD
ATOM     59  C   UNL     1     -16.819   7.610   3.551  1.00  0.00     0.074 A 
ATOM     60  C   UNL     1     -16.858   6.917   4.821  1.00  0.00     0.031 C 
ATOM     61  C   UNL     1     -17.662   8.615   3.209  1.00  0.00     0.037 A 
BRANCH  48  62
ATOM     62  C   UNL     1     -16.673  10.934  -2.428  1.00  0.00     0.057 A 
ATOM     63  C   UNL     1     -17.312  10.497  -3.596  1.00  0.00     0.134 A 
ATOM     64  C   UNL     1     -16.477  12.311  -2.274  1.00  0.00     0.134 A 
ATOM     65  F   UNL     1     -17.512   9.188  -3.813  1.00  0.00    -0.206 F 
ATOM     66  C   UNL     1     -17.733  11.397  -4.577  1.00  0.00     0.040 A 
ATOM     67  C   UNL     1     -16.914  13.222  -3.237  1.00  0.00     0.040 A 
ATOM     68  F   UNL     1     -15.871  12.795  -1.179  1.00  0.00    -0.206 F 
ATOM     69  C   UNL     1     -17.542  12.765  -4.394  1.00  0.00     0.006 A 
ENDBRANCH  48  62
BRANCH  49  70
ATOM     70  C   UNL     1     -13.698   4.179   4.322  1.00  0.00     0.057 A 
ATOM     71  C   UNL     1     -14.540   3.140   4.737  1.00  0.00     0.134 A 
ATOM     72  C   UNL     1     -12.455   4.290   4.957  1.00  0.00     0.134 A 
ATOM     73  F   UNL     1     -15.754   2.993   4.185  1.00  0.00    -0.206 F 
ATOM     74  C   UNL     1     -14.177   2.271   5.768  1.00  0.00     0.040 A 
ATOM     75  C   UNL     1     -12.067   3.411   5.969  1.00  0.00     0.040 A 
ATOM     76  F   UNL     1     -11.600   5.263   4.607  1.00  0.00    -0.206 F 
ATOM     77  C   UNL     1     -12.935   2.405   6.386  1.00  0.00     0.006 A 
ENDBRANCH  49  70
BRANCH  61  78
ATOM     78  C   UNL     1     -18.721   8.989   4.205  1.00  0.00     0.057 A 
ATOM     79  C   UNL     1     -18.415   9.667   5.392  1.00  0.00     0.134 A 
ATOM     80  C   UNL     1     -20.067   8.692   3.957  1.00  0.00     0.134 A 
ATOM     81  F   UNL     1     -17.143   9.970   5.693  1.00  0.00    -0.206 F 
ATOM     82  C   UNL     1     -19.407  10.008   6.312  1.00  0.00     0.040 A 
ATOM     83  C   UNL     1     -21.071   9.053   4.855  1.00  0.00     0.040 A 
ATOM     84  F   UNL     1     -20.429   8.055   2.833  1.00  0.00    -0.206 F 
ATOM     85  C   UNL     1     -20.741   9.706   6.041  1.00  0.00     0.006 A 
ENDBRANCH  61  78
ENDBRANCH  35  36
ENDBRANCH  28  30
ENDBRANCH  27  28
ENDBRANCH  26  27
ENDBRANCH  25  26
ENDBRANCH  24  25
ENDBRANCH   1  24
TORSDOF 18
