REMARK SMILES Cc1nc(C(F)(F)F)c(C(=O)OCCOCCOC(=O)c2ccc(-c3c4nc(c(-c5c(F)cccc5F)c5ccc([nH]5)c(-c5c(F)cccc5F)c5nc(c(-c6c(F)cccc6F)c6ccc3[nH]6)C=C5)C=C4)cc2)s1
REMARK SMILES IDX 16 1 15 2 14 3 13 4 12 5 10 6 11 7 9 8 1 9 2 10 3 11 75 12
REMARK SMILES IDX 4 13 5 14 6 15 7 16 8 17 17 18 18 19 19 20 20 21 21 22 22 23
REMARK SMILES IDX 74 24 23 25 73 26 24 27 25 28 26 29 67 30 27 31 72 32 66 33
REMARK SMILES IDX 68 34 28 35 71 36 65 37 64 38 29 40 55 41 38 42 54 43 39 44
REMARK SMILES IDX 42 45 53 46 69 47 40 48 41 49 52 51 70 52 43 53 30 54 31 55
REMARK SMILES IDX 36 56 32 57 33 58 35 59 37 60 34 61 56 62 57 63 62 64 58 65
REMARK SMILES IDX 59 66 61 67 63 68 60 69 44 70 45 71 50 72 46 73 47 74 49 75
REMARK SMILES IDX 51 76 48 77
REMARK H PARENT 68 39 42 50
REMARK Flexibility Score: inf
ROOT
ATOM      1  C   UNL     1       3.582   1.390  -1.837  1.00  0.00     0.202 C 
ENDROOT
BRANCH   1   2
ATOM      2  O   UNL     1       4.744   1.813  -1.119  1.00  0.00    -0.374 OA
BRANCH   2   3
ATOM      3  C   UNL     1       5.506   0.787  -0.479  1.00  0.00     0.202 C 
BRANCH   3   4
ATOM      4  C   UNL     1       5.015   0.433   0.926  1.00  0.00     0.261 C 
BRANCH   4   5
ATOM      5  O   UNL     1       3.732  -0.212   0.842  1.00  0.00    -0.459 OA
BRANCH   5   6
ATOM      6  C   UNL     1       2.698   0.418   1.462  1.00  0.00     0.350 C 
ATOM      7  O   UNL     1       2.824   1.357   2.237  1.00  0.00    -0.245 OA
BRANCH   6   8
ATOM      8  C   UNL     1       1.444  -0.117   0.980  1.00  0.00     0.145 A 
ATOM      9  C   UNL     1      -2.307  -0.090  -0.040  1.00  0.00     0.079 C 
ATOM     10  C   UNL     1      -0.872  -0.329   0.274  1.00  0.00     0.091 A 
ATOM     11  N   UNL     1      -0.211  -1.421  -0.038  1.00  0.00    -0.236 NA
ATOM     12  S   UNL     1       0.042   0.872   1.078  1.00  0.00    -0.111 S 
ATOM     13  C   UNL     1       1.129  -1.327   0.374  1.00  0.00     0.170 A 
BRANCH  13  14
ATOM     14  C   UNL     1       2.066  -2.478   0.132  1.00  0.00     0.435 C 
ATOM     15  F   UNL     1       2.905  -2.239  -0.911  1.00  0.00    -0.164 F 
ATOM     16  F   UNL     1       2.843  -2.740   1.217  1.00  0.00    -0.164 F 
ATOM     17  F   UNL     1       1.412  -3.635  -0.154  1.00  0.00    -0.164 F 
ENDBRANCH  13  14
ENDBRANCH   6   8
ENDBRANCH   5   6
ENDBRANCH   4   5
ENDBRANCH   3   4
ENDBRANCH   2   3
ENDBRANCH   1   2
BRANCH   1  18
ATOM     18  C   UNL     1       3.847   0.884  -3.259  1.00  0.00     0.261 C 
BRANCH  18  19
ATOM     19  O   UNL     1       4.508  -0.394  -3.241  1.00  0.00    -0.460 OA
BRANCH  19  20
ATOM     20  C   UNL     1       5.797  -0.380  -3.654  1.00  0.00     0.338 C 
ATOM     21  O   UNL     1       6.412   0.562  -4.123  1.00  0.00    -0.246 OA
BRANCH  20  22
ATOM     22  C   UNL     1       6.453  -1.656  -3.298  1.00  0.00     0.060 A 
ATOM     23  C   UNL     1       7.710  -1.582  -2.686  1.00  0.00     0.016 A 
ATOM     24  C   UNL     1       5.886  -2.896  -3.604  1.00  0.00     0.016 A 
ATOM     25  C   UNL     1       8.430  -2.747  -2.424  1.00  0.00     0.010 A 
ATOM     26  C   UNL     1       6.614  -4.064  -3.348  1.00  0.00     0.010 A 
ATOM     27  C   UNL     1       7.902  -3.992  -2.788  1.00  0.00    -0.014 A 
BRANCH  27  28
ATOM     28  C   UNL     1       8.758  -5.200  -2.707  1.00  0.00     0.031 A 
ATOM     29  C   UNL     1       9.452  -5.689  -3.948  1.00  0.00     0.074 A 
ATOM     30  C   UNL     1       8.941  -5.837  -1.537  1.00  0.00     0.049 A 
ATOM     31  N   UNL     1      10.227  -6.731  -4.110  1.00  0.00    -0.248 NA
ATOM     32  C   UNL     1       9.244  -4.897  -5.171  1.00  0.00     0.031 C 
ATOM     33  C   UNL     1       8.353  -5.443  -0.258  1.00  0.00     0.029 A 
ATOM     34  N   UNL     1       9.675  -6.958  -1.240  1.00  0.00    -0.354 N 
ATOM     35  C   UNL     1      10.596  -6.722  -5.449  1.00  0.00     0.074 A 
ATOM     36  C   UNL     1       9.940  -5.588  -6.062  1.00  0.00     0.031 C 
ATOM     37  C   UNL     1       8.741  -6.317   0.687  1.00  0.00     0.029 A 
ATOM     38  C   UNL     1       9.581  -7.344   0.074  1.00  0.00     0.049 A 
ATOM     39  H   UNL     1      10.217  -7.439  -1.906  1.00  0.00     0.167 HD
ATOM     40  C   UNL     1      11.415  -7.577  -6.106  1.00  0.00     0.037 A 
ATOM     41  C   UNL     1      10.100  -8.415   0.705  1.00  0.00     0.037 A 
ATOM     42  C   UNL     1      12.071  -8.704  -5.498  1.00  0.00     0.049 A 
ATOM     43  C   UNL     1      10.956  -9.387  -0.063  1.00  0.00     0.074 A 
ATOM     44  C   UNL     1      12.935  -9.616  -6.080  1.00  0.00     0.029 A 
ATOM     45  N   UNL     1      11.929  -9.077  -4.171  1.00  0.00    -0.354 N 
ATOM     46  N   UNL     1      11.320  -9.353  -1.322  1.00  0.00    -0.248 NA
ATOM     47  C   UNL     1      11.474 -10.546   0.679  1.00  0.00     0.031 C 
ATOM     48  C   UNL     1      13.284 -10.565  -5.114  1.00  0.00     0.029 A 
ATOM     49  C   UNL     1      12.672 -10.219  -3.920  1.00  0.00     0.049 A 
ATOM     50  H   UNL     1      11.382  -8.601  -3.505  1.00  0.00     0.167 HD
ATOM     51  C   UNL     1      12.131 -10.466  -1.514  1.00  0.00     0.074 A 
ATOM     52  C   UNL     1      12.212 -11.150  -0.241  1.00  0.00     0.031 C 
ATOM     53  C   UNL     1      12.753 -10.882  -2.644  1.00  0.00     0.037 A 
BRANCH  40  54
ATOM     54  C   UNL     1      11.634  -7.335  -7.569  1.00  0.00     0.057 A 
ATOM     55  C   UNL     1      12.437  -6.284  -8.031  1.00  0.00     0.134 A 
ATOM     56  C   UNL     1      11.067  -8.186  -8.526  1.00  0.00     0.134 A 
ATOM     57  F   UNL     1      12.998  -5.426  -7.165  1.00  0.00    -0.206 F 
ATOM     58  C   UNL     1      12.654  -6.078  -9.395  1.00  0.00     0.040 A 
ATOM     59  C   UNL     1      11.294  -8.003  -9.891  1.00  0.00     0.040 A 
ATOM     60  F   UNL     1      10.291  -9.213  -8.149  1.00  0.00    -0.206 F 
ATOM     61  C   UNL     1      12.087  -6.944 -10.328  1.00  0.00     0.006 A 
ENDBRANCH  40  54
BRANCH  41  62
ATOM     62  C   UNL     1       9.816  -8.640   2.144  1.00  0.00     0.057 A 
ATOM     63  C   UNL     1      10.817  -8.505   3.111  1.00  0.00     0.134 A 
ATOM     64  C   UNL     1       8.542  -9.024   2.581  1.00  0.00     0.134 A 
ATOM     65  F   UNL     1      12.063  -8.165   2.750  1.00  0.00    -0.206 F 
ATOM     66  C   UNL     1      10.568  -8.759   4.461  1.00  0.00     0.040 A 
ATOM     67  C   UNL     1       8.273  -9.258   3.930  1.00  0.00     0.040 A 
ATOM     68  F   UNL     1       7.540  -9.172   1.702  1.00  0.00    -0.206 F 
ATOM     69  C   UNL     1       9.290  -9.133   4.874  1.00  0.00     0.006 A 
ENDBRANCH  41  62
BRANCH  53  70
ATOM     70  C   UNL     1      13.607 -12.112  -2.548  1.00  0.00     0.057 A 
ATOM     71  C   UNL     1      13.050 -13.392  -2.447  1.00  0.00     0.134 A 
ATOM     72  C   UNL     1      15.003 -12.014  -2.601  1.00  0.00     0.134 A 
ATOM     73  F   UNL     1      11.720 -13.552  -2.379  1.00  0.00    -0.206 F 
ATOM     74  C   UNL     1      13.853 -14.532  -2.383  1.00  0.00     0.040 A 
ATOM     75  C   UNL     1      15.816 -13.148  -2.562  1.00  0.00     0.040 A 
ATOM     76  F   UNL     1      15.600 -10.817  -2.707  1.00  0.00    -0.206 F 
ATOM     77  C   UNL     1      15.240 -14.412  -2.447  1.00  0.00     0.006 A 
ENDBRANCH  53  70
ENDBRANCH  27  28
ENDBRANCH  20  22
ENDBRANCH  19  20
ENDBRANCH  18  19
ENDBRANCH   1  18
TORSDOF 15
