REMARK SMILES O=C(COc1ccc(-c2cc3cc(Br)ccc3oc2=O)cc1)OCCOCCOC(=O)c1ccc(-c2c3nc(c(-c4c(F)cccc4F)c4ccc([nH]4)c(-c4c(F)cccc4F)c4nc(c(-c5c(F)cccc5F)c5ccc2[nH]5)C=C4)C=C3)cc1
REMARK SMILES IDX 25 1 24 2 23 3 2 4 1 5 3 6 4 7 5 8 6 9 22 10 7 11 21 12 8 13
REMARK SMILES IDX 9 14 10 15 19 16 11 17 18 18 20 19 12 20 17 21 13 22 16 23
REMARK SMILES IDX 14 24 15 25 26 26 27 27 28 28 29 29 30 30 31 31 32 32 33 33
REMARK SMILES IDX 85 34 34 35 84 36 35 37 36 38 37 39 78 40 38 41 83 42 77 43
REMARK SMILES IDX 79 44 39 45 82 46 76 47 75 48 40 50 66 51 49 52 65 53 50 54
REMARK SMILES IDX 53 55 64 56 80 57 51 58 52 59 63 61 81 62 54 63 41 64 42 65
REMARK SMILES IDX 47 66 43 67 44 68 46 69 48 70 45 71 67 72 68 73 73 74 69 75
REMARK SMILES IDX 70 76 72 77 74 78 71 79 55 80 56 81 61 82 57 83 58 84 60 85
REMARK SMILES IDX 62 86 59 87
REMARK H PARENT 79 49 53 60
REMARK Flexibility Score: inf
ROOT
ATOM      1  C   UNL     1       4.783  -0.946  -0.700  1.00  0.00     0.202 C 
ENDROOT
BRANCH   1   2
ATOM      2  C   UNL     1       4.289   0.038   0.363  1.00  0.00     0.261 C 
BRANCH   2   3
ATOM      3  O   UNL     1       2.866  -0.036   0.545  1.00  0.00    -0.461 OA
BRANCH   3   4
ATOM      4  C   UNL     1       1.988   0.738  -0.134  1.00  0.00     0.344 C 
ATOM      5  O   UNL     1       0.787   0.466  -0.102  1.00  0.00    -0.248 OA
BRANCH   4   6
ATOM      6  C   UNL     1       2.507   1.908  -0.977  1.00  0.00     0.351 C 
BRANCH   6   7
ATOM      7  O   UNL     1       3.307   2.913  -0.384  1.00  0.00    -0.482 OA
BRANCH   7   8
ATOM      8  C   UNL     1       2.759   3.635   0.635  1.00  0.00     0.120 A 
ATOM      9  C   UNL     1       3.619   4.551   1.239  1.00  0.00     0.047 A 
ATOM     10  C   UNL     1       1.463   3.504   1.120  1.00  0.00     0.047 A 
ATOM     11  C   UNL     1       3.231   5.230   2.396  1.00  0.00     0.013 A 
ATOM     12  C   UNL     1       1.072   4.189   2.269  1.00  0.00     0.013 A 
ATOM     13  C   UNL     1       1.975   4.993   2.973  1.00  0.00    -0.011 A 
BRANCH  13  14
ATOM     14  C   UNL     1       1.730   5.458   4.373  1.00  0.00     0.068 A 
ATOM     15  C   UNL     1       0.523   5.423   4.988  1.00  0.00     0.028 A 
ATOM     16  C   UNL     1       2.732   4.887   5.349  1.00  0.00     0.344 A 
ATOM     17  C   UNL     1       0.091   4.030   5.246  1.00  0.00     0.019 A 
ATOM     18  O   UNL     1       2.427   3.572   5.740  1.00  0.00    -0.422 OA
ATOM     19  O   UNL     1       3.754   5.473   5.680  1.00  0.00    -0.246 OA
ATOM     20  C   UNL     1      -1.220   3.597   5.075  1.00  0.00     0.027 A 
ATOM     21  C   UNL     1       1.107   3.105   5.533  1.00  0.00     0.138 A 
ATOM     22  C   UNL     1      -1.482   2.227   5.124  1.00  0.00     0.018 A 
ATOM     23  C   UNL     1       0.852   1.742   5.579  1.00  0.00     0.049 A 
ATOM     24  Br  UNL     1      -3.243   1.608   4.818  1.00  0.00    -0.051 Br
ATOM     25  C   UNL     1      -0.455   1.301   5.354  1.00  0.00     0.019 A 
ENDBRANCH  13  14
ENDBRANCH   7   8
ENDBRANCH   6   7
ENDBRANCH   4   6
ENDBRANCH   3   4
ENDBRANCH   2   3
ENDBRANCH   1   2
BRANCH   1  26
ATOM     26  O   UNL     1       4.315  -0.714  -2.029  1.00  0.00    -0.374 OA
BRANCH  26  27
ATOM     27  C   UNL     1       3.059  -1.294  -2.393  1.00  0.00     0.202 C 
BRANCH  27  28
ATOM     28  C   UNL     1       3.050  -2.778  -2.767  1.00  0.00     0.261 C 
BRANCH  28  29
ATOM     29  O   UNL     1       3.408  -3.609  -1.653  1.00  0.00    -0.460 OA
BRANCH  29  30
ATOM     30  C   UNL     1       4.665  -4.095  -1.708  1.00  0.00     0.338 C 
ATOM     31  O   UNL     1       5.465  -3.976  -2.631  1.00  0.00    -0.246 OA
BRANCH  30  32
ATOM     32  C   UNL     1       5.049  -4.666  -0.408  1.00  0.00     0.060 A 
ATOM     33  C   UNL     1       6.331  -4.357   0.063  1.00  0.00     0.016 A 
ATOM     34  C   UNL     1       4.217  -5.538   0.302  1.00  0.00     0.016 A 
ATOM     35  C   UNL     1       6.823  -4.992   1.195  1.00  0.00     0.010 A 
ATOM     36  C   UNL     1       4.715  -6.179   1.440  1.00  0.00     0.010 A 
ATOM     37  C   UNL     1       6.038  -5.948   1.852  1.00  0.00    -0.014 A 
BRANCH  37  38
ATOM     38  C   UNL     1       6.697  -6.826   2.843  1.00  0.00     0.031 A 
ATOM     39  C   UNL     1       7.193  -8.173   2.393  1.00  0.00     0.074 A 
ATOM     40  C   UNL     1       6.938  -6.384   4.088  1.00  0.00     0.049 A 
ATOM     41  N   UNL     1       7.874  -9.070   3.056  1.00  0.00    -0.248 NA
ATOM     42  C   UNL     1       6.886  -8.556   1.004  1.00  0.00     0.031 C 
ATOM     43  C   UNL     1       6.527  -5.083   4.615  1.00  0.00     0.029 A 
ATOM     44  N   UNL     1       7.601  -6.978   5.128  1.00  0.00    -0.354 N 
ATOM     45  C   UNL     1       8.088 -10.115   2.165  1.00  0.00     0.074 A 
ATOM     46  C   UNL     1       7.428  -9.762   0.928  1.00  0.00     0.031 C 
ATOM     47  C   UNL     1       6.948  -4.978   5.887  1.00  0.00     0.029 A 
ATOM     48  C   UNL     1       7.644  -6.207   6.262  1.00  0.00     0.049 A 
ATOM     49  H   UNL     1       8.008  -7.873   5.069  1.00  0.00     0.167 HD
ATOM     50  C   UNL     1       8.789 -11.257   2.356  1.00  0.00     0.037 A 
ATOM     51  C   UNL     1       8.182  -6.471   7.467  1.00  0.00     0.037 A 
ATOM     52  C   UNL     1       9.434 -11.606   3.594  1.00  0.00     0.049 A 
ATOM     53  C   UNL     1       8.916  -7.769   7.669  1.00  0.00     0.074 A 
ATOM     54  C   UNL     1      10.157 -12.744   3.903  1.00  0.00     0.029 A 
ATOM     55  N   UNL     1       9.428 -10.812   4.732  1.00  0.00    -0.354 N 
ATOM     56  N   UNL     1       9.125  -8.743   6.815  1.00  0.00    -0.248 NA
ATOM     57  C   UNL     1       9.501  -7.998   8.997  1.00  0.00     0.031 C 
ATOM     58  C   UNL     1      10.558 -12.655   5.241  1.00  0.00     0.029 A 
ATOM     59  C   UNL     1      10.124 -11.442   5.750  1.00  0.00     0.049 A 
ATOM     60  H   UNL     1       8.994  -9.932   4.805  1.00  0.00     0.167 HD
ATOM     61  C   UNL     1       9.877  -9.692   7.495  1.00  0.00     0.074 A 
ATOM     62  C   UNL     1      10.110  -9.162   8.824  1.00  0.00     0.031 C 
ATOM     63  C   UNL     1      10.331 -10.895   7.067  1.00  0.00     0.037 A 
BRANCH  50  64
ATOM     64  C   UNL     1       8.879 -12.211   1.202  1.00  0.00     0.057 A 
ATOM     65  C   UNL     1       9.670 -11.935   0.078  1.00  0.00     0.134 A 
ATOM     66  C   UNL     1       8.187 -13.428   1.221  1.00  0.00     0.134 A 
ATOM     67  F   UNL     1      10.343 -10.778  -0.012  1.00  0.00    -0.206 F 
ATOM     68  C   UNL     1       9.754 -12.828  -0.992  1.00  0.00     0.040 A 
ATOM     69  C   UNL     1       8.282 -14.339   0.167  1.00  0.00     0.040 A 
ATOM     70  F   UNL     1       7.411 -13.754   2.266  1.00  0.00    -0.206 F 
ATOM     71  C   UNL     1       9.064 -14.037  -0.946  1.00  0.00     0.006 A 
ENDBRANCH  50  64
BRANCH  51  72
ATOM     72  C   UNL     1       8.042  -5.491   8.573  1.00  0.00     0.057 A 
ATOM     73  C   UNL     1       9.142  -4.784   9.069  1.00  0.00     0.134 A 
ATOM     74  C   UNL     1       6.798  -5.250   9.170  1.00  0.00     0.134 A 
ATOM     75  F   UNL     1      10.363  -4.985   8.552  1.00  0.00    -0.206 F 
ATOM     76  C   UNL     1       9.016  -3.886  10.131  1.00  0.00     0.040 A 
ATOM     77  C   UNL     1       6.652  -4.338  10.215  1.00  0.00     0.040 A 
ATOM     78  F   UNL     1       5.704  -5.894   8.738  1.00  0.00    -0.206 F 
ATOM     79  C   UNL     1       7.766  -3.658  10.704  1.00  0.00     0.006 A 
ENDBRANCH  51  72
BRANCH  63  80
ATOM     80  C   UNL     1      11.131 -11.703   8.046  1.00  0.00     0.057 A 
ATOM     81  C   UNL     1      10.533 -12.325   9.149  1.00  0.00     0.134 A 
ATOM     82  C   UNL     1      12.511 -11.869   7.877  1.00  0.00     0.134 A 
ATOM     83  F   UNL     1       9.216 -12.194   9.372  1.00  0.00    -0.206 F 
ATOM     84  C   UNL     1      11.285 -13.055  10.070  1.00  0.00     0.040 A 
ATOM     85  C   UNL     1      13.270 -12.619   8.776  1.00  0.00     0.040 A 
ATOM     86  F   UNL     1      13.143 -11.309   6.835  1.00  0.00    -0.206 F 
ATOM     87  C   UNL     1      12.658 -13.206   9.882  1.00  0.00     0.006 A 
ENDBRANCH  63  80
ENDBRANCH  37  38
ENDBRANCH  30  32
ENDBRANCH  29  30
ENDBRANCH  28  29
ENDBRANCH  27  28
ENDBRANCH  26  27
ENDBRANCH   1  26
TORSDOF 17
