REMARK SMILES Cc1cc(C(=O)OCCOCCOC(=O)c2ccc(-c3c4nc(c(-c5c(F)cccc5F)c5ccc([nH]5)c(-c5c(F)cccc5F)c5nc(c(-c6c(F)cccc6F)c6ccc3[nH]6)C=C5)C=C4)cc2)nc(N2CCN(c3ccccc3Cl)CC2)n1
REMARK SMILES IDX 10 1 9 2 8 3 7 4 5 5 6 6 4 7 1 8 2 9 3 10 85 11 71 12 70 13
REMARK SMILES IDX 72 14 73 15 84 16 74 17 83 18 75 19 76 20 77 21 81 22 78 23
REMARK SMILES IDX 80 24 82 25 79 26 11 27 12 28 13 29 14 30 15 31 16 32 17 33
REMARK SMILES IDX 69 34 18 35 68 36 19 37 20 38 21 39 62 40 22 41 67 42 61 43
REMARK SMILES IDX 63 44 23 45 66 46 60 47 59 48 24 50 50 51 33 52 49 53 34 54
REMARK SMILES IDX 37 55 48 56 64 57 35 58 36 59 47 61 65 62 38 63 25 64 26 65
REMARK SMILES IDX 31 66 27 67 28 68 30 69 32 70 29 71 51 72 52 73 57 74 53 75
REMARK SMILES IDX 54 76 56 77 58 78 55 79 39 80 40 81 45 82 41 83 42 84 44 85
REMARK SMILES IDX 46 86 43 87
REMARK H PARENT 63 49 37 60
REMARK Flexibility Score: inf
ROOT
ATOM      1  O   UNL     1       3.894  -3.597  -1.121  1.00  0.00    -0.374 OA
ENDROOT
BRANCH   1   2
ATOM      2  C   UNL     1       3.154  -4.641  -0.487  1.00  0.00     0.202 C 
BRANCH   2   3
ATOM      3  C   UNL     1       2.567  -4.302   0.885  1.00  0.00     0.261 C 
BRANCH   3   4
ATOM      4  O   UNL     1       1.565  -3.278   0.768  1.00  0.00    -0.459 OA
BRANCH   4   5
ATOM      5  C   UNL     1       1.858  -2.130   1.432  1.00  0.00     0.357 C 
ATOM      6  O   UNL     1       2.738  -1.977   2.264  1.00  0.00    -0.244 OA
BRANCH   5   7
ATOM      7  C   UNL     1       1.034  -1.021   0.889  1.00  0.00     0.154 A 
ATOM      8  C   UNL     1      -2.424   0.034   0.003  1.00  0.00     0.067 C 
ATOM      9  C   UNL     1      -0.944   0.006   0.245  1.00  0.00     0.044 A 
ATOM     10  C   UNL     1      -0.320  -1.141   0.684  1.00  0.00     0.059 A 
ATOM     11  N   UNL     1      -0.277   1.168   0.062  1.00  0.00    -0.218 NA
ATOM     12  C   UNL     1       1.051   1.167   0.243  1.00  0.00     0.226 A 
ATOM     13  N   UNL     1       1.734   0.097   0.632  1.00  0.00    -0.206 NA
BRANCH  12  14
ATOM     14  N   UNL     1       1.787   2.300   0.059  1.00  0.00    -0.337 N 
ATOM     15  C   UNL     1       1.321   3.567   0.605  1.00  0.00     0.141 C 
ATOM     16  C   UNL     1       2.597   2.363  -1.158  1.00  0.00     0.141 C 
ATOM     17  C   UNL     1       2.544   4.487   0.855  1.00  0.00     0.138 C 
ATOM     18  C   UNL     1       3.794   3.319  -0.957  1.00  0.00     0.138 C 
ATOM     19  N   UNL     1       3.336   4.593  -0.378  1.00  0.00    -0.367 N 
BRANCH  19  20
ATOM     20  C   UNL     1       3.932   5.780  -0.752  1.00  0.00     0.056 A 
ATOM     21  C   UNL     1       4.738   6.487   0.154  1.00  0.00     0.027 A 
ATOM     22  C   UNL     1       3.738   6.348  -2.029  1.00  0.00     0.064 A 
ATOM     23  C   UNL     1       5.325   7.708  -0.193  1.00  0.00     0.002 A 
ATOM     24  C   UNL     1       4.317   7.573  -2.375  1.00  0.00     0.023 A 
ATOM     25  Cl  UNL     1       2.708   5.601  -3.209  1.00  0.00    -0.082 Cl
ATOM     26  C   UNL     1       5.111   8.253  -1.456  1.00  0.00     0.002 A 
ENDBRANCH  19  20
ENDBRANCH  12  14
ENDBRANCH   5   7
ENDBRANCH   4   5
ENDBRANCH   3   4
ENDBRANCH   2   3
ENDBRANCH   1   2
BRANCH   1  27
ATOM     27  C   UNL     1       3.146  -2.597  -1.814  1.00  0.00     0.202 C 
BRANCH  27  28
ATOM     28  C   UNL     1       2.662  -2.981  -3.218  1.00  0.00     0.261 C 
BRANCH  28  29
ATOM     29  O   UNL     1       1.666  -4.021  -3.175  1.00  0.00    -0.460 OA
BRANCH  29  30
ATOM     30  C   UNL     1       2.071  -5.220  -3.653  1.00  0.00     0.338 C 
ATOM     31  O   UNL     1       3.136  -5.483  -4.194  1.00  0.00    -0.246 OA
BRANCH  30  32
ATOM     32  C   UNL     1       1.102  -6.266  -3.276  1.00  0.00     0.060 A 
ATOM     33  C   UNL     1       1.599  -7.407  -2.633  1.00  0.00     0.016 A 
ATOM     34  C   UNL     1      -0.253  -6.168  -3.599  1.00  0.00     0.016 A 
ATOM     35  C   UNL     1       0.751  -8.477  -2.353  1.00  0.00     0.010 A 
ATOM     36  C   UNL     1      -1.102  -7.247  -3.324  1.00  0.00     0.010 A 
ATOM     37  C   UNL     1      -0.597  -8.418  -2.730  1.00  0.00    -0.014 A 
BRANCH  37  38
ATOM     38  C   UNL     1      -1.440  -9.634  -2.628  1.00  0.00     0.031 A 
ATOM     39  C   UNL     1      -1.674 -10.468  -3.858  1.00  0.00     0.074 A 
ATOM     40  C   UNL     1      -1.969 -10.009  -1.450  1.00  0.00     0.049 A 
ATOM     41  N   UNL     1      -2.403 -11.545  -4.005  1.00  0.00    -0.248 NA
ATOM     42  C   UNL     1      -0.996 -10.027  -5.088  1.00  0.00     0.031 C 
ATOM     43  C   UNL     1      -1.784  -9.310  -0.179  1.00  0.00     0.029 A 
ATOM     44  N   UNL     1      -2.776 -11.073  -1.135  1.00  0.00    -0.354 N 
ATOM     45  C   UNL     1      -2.274 -11.909  -5.339  1.00  0.00     0.074 A 
ATOM     46  C   UNL     1      -1.421 -10.922  -5.967  1.00  0.00     0.031 C 
ATOM     47  C   UNL     1      -2.471  -9.958   0.778  1.00  0.00     0.029 A 
ATOM     48  C   UNL     1      -3.164 -11.099   0.182  1.00  0.00     0.049 A 
ATOM     49  H   UNL     1      -3.052 -11.754  -1.791  1.00  0.00     0.167 HD
ATOM     50  C   UNL     1      -2.807 -12.975  -5.981  1.00  0.00     0.037 A 
ATOM     51  C   UNL     1      -4.000 -11.936   0.827  1.00  0.00     0.037 A 
ATOM     52  C   UNL     1      -3.652 -13.959  -5.358  1.00  0.00     0.049 A 
ATOM     53  C   UNL     1      -4.637 -13.073   0.074  1.00  0.00     0.074 A 
ATOM     54  C   UNL     1      -4.229 -15.083  -5.923  1.00  0.00     0.029 A 
ATOM     55  N   UNL     1      -4.045 -13.934  -4.029  1.00  0.00    -0.354 N 
ATOM     56  N   UNL     1      -4.490 -13.420  -1.182  1.00  0.00    -0.248 NA
ATOM     57  C   UNL     1      -5.557 -13.937   0.830  1.00  0.00     0.031 C 
ATOM     58  C   UNL     1      -5.006 -15.715  -4.947  1.00  0.00     0.029 A 
ATOM     59  C   UNL     1      -4.875 -15.009  -3.761  1.00  0.00     0.049 A 
ATOM     60  H   UNL     1      -3.774 -13.252  -3.372  1.00  0.00     0.167 HD
ATOM     61  C   UNL     1      -5.273 -14.555  -1.359  1.00  0.00     0.074 A 
ATOM     62  C   UNL     1      -5.884 -14.845  -0.079  1.00  0.00     0.031 C 
ATOM     63  C   UNL     1      -5.468 -15.291  -2.480  1.00  0.00     0.037 A 
BRANCH  50  64
ATOM     64  C   UNL     1      -2.506 -13.125  -7.443  1.00  0.00     0.057 A 
ATOM     65  C   UNL     1      -1.245 -13.530  -7.898  1.00  0.00     0.134 A 
ATOM     66  C   UNL     1      -3.501 -12.903  -8.403  1.00  0.00     0.134 A 
ATOM     67  F   UNL     1      -0.245 -13.745  -7.030  1.00  0.00    -0.206 F 
ATOM     68  C   UNL     1      -0.980 -13.694  -9.259  1.00  0.00     0.040 A 
ATOM     69  C   UNL     1      -3.255 -13.086  -9.764  1.00  0.00     0.040 A 
ATOM     70  F   UNL     1      -4.731 -12.518  -8.033  1.00  0.00    -0.206 F 
ATOM     71  C   UNL     1      -1.989 -13.479 -10.196  1.00  0.00     0.006 A 
ENDBRANCH  50  64
BRANCH  51  72
ATOM     72  C   UNL     1      -4.303 -11.726   2.265  1.00  0.00     0.057 A 
ATOM     73  C   UNL     1      -3.860 -12.627   3.240  1.00  0.00     0.134 A 
ATOM     74  C   UNL     1      -5.073 -10.638   2.694  1.00  0.00     0.134 A 
ATOM     75  F   UNL     1      -3.139 -13.701   2.888  1.00  0.00    -0.206 F 
ATOM     76  C   UNL     1      -4.188 -12.466   4.587  1.00  0.00     0.040 A 
ATOM     77  C   UNL     1      -5.389 -10.452   4.041  1.00  0.00     0.040 A 
ATOM     78  F   UNL     1      -5.529  -9.739   1.809  1.00  0.00    -0.206 F 
ATOM     79  C   UNL     1      -4.953 -11.373   4.991  1.00  0.00     0.006 A 
ENDBRANCH  51  72
BRANCH  63  80
ATOM     80  C   UNL     1      -6.347 -16.502  -2.365  1.00  0.00     0.057 A 
ATOM     81  C   UNL     1      -7.738 -16.396  -2.238  1.00  0.00     0.134 A 
ATOM     82  C   UNL     1      -5.798 -17.789  -2.424  1.00  0.00     0.134 A 
ATOM     83  F   UNL     1      -8.325 -15.192  -2.164  1.00  0.00    -0.206 F 
ATOM     84  C   UNL     1      -8.550 -17.529  -2.152  1.00  0.00     0.040 A 
ATOM     85  C   UNL     1      -6.602 -18.929  -2.364  1.00  0.00     0.040 A 
ATOM     86  F   UNL     1      -4.474 -17.960  -2.554  1.00  0.00    -0.206 F 
ATOM     87  C   UNL     1      -7.982 -18.800  -2.222  1.00  0.00     0.006 A 
ENDBRANCH  63  80
ENDBRANCH  37  38
ENDBRANCH  30  32
ENDBRANCH  29  30
ENDBRANCH  28  29
ENDBRANCH  27  28
ENDBRANCH   1  27
TORSDOF 16
