REMARK SMILES Cc1noc(C)c1[C@H](C)[NH2+][C@@H](C)CC(=O)OCCOCCOC(=O)c1ccc(-c2c3nc(c(-c4c(F)cccc4F)c4ccc([nH]4)c(-c4c(F)cccc4F)c4nc(c(-c5c(F)cccc5F)c5ccc2[nH]5)C=C4)C=C3)cc1
REMARK SMILES IDX 18 1 17 2 16 3 14 4 15 5 13 6 11 7 12 8 10 9 8 12 9 13 7 14
REMARK SMILES IDX 1 15 2 16 3 17 4 18 5 19 6 20 19 21 20 22 21 23 22 24 23 25
REMARK SMILES IDX 24 26 25 27 26 28 78 29 27 30 77 31 28 32 29 33 30 34 71 35
REMARK SMILES IDX 31 36 76 37 70 38 72 39 32 40 75 41 69 42 68 43 33 45 59 46
REMARK SMILES IDX 42 47 58 48 43 49 46 50 57 51 73 52 44 53 45 54 56 56 74 57
REMARK SMILES IDX 47 58 34 59 35 60 40 61 36 62 37 63 39 64 41 65 38 66 60 67
REMARK SMILES IDX 61 68 66 69 62 70 63 71 65 72 67 73 64 74 48 75 49 76 54 77
REMARK SMILES IDX 50 78 51 79 53 80 55 81 52 82
REMARK H PARENT 10 10 10 11 72 44 46 55
REMARK Flexibility Score: inf
ROOT
ATOM      1  C   UNL     1       1.038   3.416   5.465  1.00  0.00     0.202 C 
ENDROOT
BRANCH   1   2
ATOM      2  C   UNL     1      -0.475   3.192   5.450  1.00  0.00     0.261 C 
BRANCH   2   3
ATOM      3  O   UNL     1      -1.061   3.380   4.150  1.00  0.00    -0.463 OA
BRANCH   3   4
ATOM      4  C   UNL     1      -1.726   4.552   3.989  1.00  0.00     0.311 C 
ATOM      5  O   UNL     1      -1.803   5.434   4.838  1.00  0.00    -0.252 OA
BRANCH   4   6
ATOM      6  C   UNL     1      -2.470   4.641   2.681  1.00  0.00     0.187 C 
BRANCH   6   7
ATOM      7  C   UNL     1      -1.685   4.529   1.355  1.00  0.00     0.190 C 
ATOM      8  C   UNL     1      -2.565   5.223   0.303  1.00  0.00     0.076 C 
BRANCH   7   9
ATOM      9  N   UNL     1      -1.433   3.128   0.986  1.00  0.00    -0.337 N 
ATOM     10  H   UNL     1      -1.284   2.604   1.847  1.00  0.00     0.347 HD
ATOM     11  H   UNL     1      -2.251   2.844   0.447  1.00  0.00     0.347 HD
BRANCH   9  12
ATOM     12  C   UNL     1      -0.281   2.870   0.102  1.00  0.00     0.216 C 
ATOM     13  C   UNL     1       0.145   1.412   0.309  1.00  0.00     0.081 C 
BRANCH  12  14
ATOM     14  C   UNL     1      -0.588   3.163  -1.339  1.00  0.00     0.074 A 
ATOM     15  C   UNL     1       0.570   5.509  -1.648  1.00  0.00     0.071 C 
ATOM     16  C   UNL     1      -0.192   4.317  -2.091  1.00  0.00     0.090 A 
ATOM     17  N   UNL     1      -0.627   4.261  -3.353  1.00  0.00    -0.085 NA
ATOM     18  O   UNL     1      -1.289   3.062  -3.469  1.00  0.00    -0.361 OA
ATOM     19  C   UNL     1      -1.254   2.400  -2.284  1.00  0.00     0.143 A 
ATOM     20  C   UNL     1      -1.881   1.063  -2.304  1.00  0.00     0.091 C 
ENDBRANCH  12  14
ENDBRANCH   9  12
ENDBRANCH   7   9
ENDBRANCH   6   7
ENDBRANCH   4   6
ENDBRANCH   3   4
ENDBRANCH   2   3
ENDBRANCH   1   2
BRANCH   1  21
ATOM     21  O   UNL     1       1.505   4.720   5.135  1.00  0.00    -0.374 OA
BRANCH  21  22
ATOM     22  C   UNL     1       1.566   5.058   3.750  1.00  0.00     0.202 C 
BRANCH  22  23
ATOM     23  C   UNL     1       2.733   4.465   2.951  1.00  0.00     0.261 C 
BRANCH  23  24
ATOM     24  O   UNL     1       2.588   3.046   2.747  1.00  0.00    -0.460 OA
BRANCH  24  25
ATOM     25  C   UNL     1       3.462   2.270   3.431  1.00  0.00     0.338 C 
ATOM     26  O   UNL     1       4.397   2.640   4.129  1.00  0.00    -0.246 OA
BRANCH  25  27
ATOM     27  C   UNL     1       3.017   0.865   3.384  1.00  0.00     0.060 A 
ATOM     28  C   UNL     1       2.795   0.199   4.597  1.00  0.00     0.016 A 
ATOM     29  C   UNL     1       2.860   0.196   2.171  1.00  0.00     0.016 A 
ATOM     30  C   UNL     1       2.440  -1.149   4.600  1.00  0.00     0.010 A 
ATOM     31  C   UNL     1       2.491  -1.152   2.174  1.00  0.00     0.010 A 
ATOM     32  C   UNL     1       2.314  -1.841   3.388  1.00  0.00    -0.014 A 
BRANCH  32  33
ATOM     33  C   UNL     1       2.162  -3.318   3.384  1.00  0.00     0.031 A 
ATOM     34  C   UNL     1       3.351  -4.165   3.021  1.00  0.00     0.074 A 
ATOM     35  C   UNL     1       0.992  -3.900   3.702  1.00  0.00     0.049 A 
ATOM     36  N   UNL     1       3.433  -5.461   2.866  1.00  0.00    -0.248 NA
ATOM     37  C   UNL     1       4.616  -3.449   2.790  1.00  0.00     0.031 C 
ATOM     38  C   UNL     1      -0.224  -3.196   4.106  1.00  0.00     0.029 A 
ATOM     39  N   UNL     1       0.635  -5.226   3.721  1.00  0.00    -0.354 N 
ATOM     40  C   UNL     1       4.751  -5.713   2.503  1.00  0.00     0.074 A 
ATOM     41  C   UNL     1       5.422  -4.434   2.426  1.00  0.00     0.031 C 
ATOM     42  C   UNL     1      -1.197  -4.098   4.325  1.00  0.00     0.029 A 
ATOM     43  C   UNL     1      -0.684  -5.436   4.040  1.00  0.00     0.049 A 
ATOM     44  H   UNL     1       1.265  -5.957   3.525  1.00  0.00     0.167 HD
ATOM     45  C   UNL     1       5.352  -6.904   2.268  1.00  0.00     0.037 A 
ATOM     46  C   UNL     1      -1.401  -6.577   4.072  1.00  0.00     0.037 A 
ATOM     47  C   UNL     1       4.686  -8.177   2.358  1.00  0.00     0.049 A 
ATOM     48  C   UNL     1      -0.727  -7.884   3.741  1.00  0.00     0.074 A 
ATOM     49  C   UNL     1       5.215  -9.441   2.165  1.00  0.00     0.029 A 
ATOM     50  N   UNL     1       3.344  -8.346   2.662  1.00  0.00    -0.354 N 
ATOM     51  N   UNL     1       0.524  -8.115   3.422  1.00  0.00    -0.248 NA
ATOM     52  C   UNL     1      -1.567  -9.091   3.774  1.00  0.00     0.031 C 
ATOM     53  C   UNL     1       4.180 -10.372   2.299  1.00  0.00     0.029 A 
ATOM     54  C   UNL     1       3.020  -9.692   2.634  1.00  0.00     0.049 A 
ATOM     55  H   UNL     1       2.715  -7.617   2.868  1.00  0.00     0.167 HD
ATOM     56  C   UNL     1       0.627  -9.490   3.248  1.00  0.00     0.074 A 
ATOM     57  C   UNL     1      -0.685 -10.044   3.510  1.00  0.00     0.031 C 
ATOM     58  C   UNL     1       1.711 -10.230   2.905  1.00  0.00     0.037 A 
BRANCH  45  59
ATOM     59  C   UNL     1       6.798  -6.881   1.867  1.00  0.00     0.057 A 
ATOM     60  C   UNL     1       7.814  -6.536   2.768  1.00  0.00     0.134 A 
ATOM     61  C   UNL     1       7.181  -7.234   0.567  1.00  0.00     0.134 A 
ATOM     62  F   UNL     1       7.515  -6.172   4.024  1.00  0.00    -0.206 F 
ATOM     63  C   UNL     1       9.156  -6.517   2.382  1.00  0.00     0.040 A 
ATOM     64  C   UNL     1       8.521  -7.248   0.178  1.00  0.00     0.040 A 
ATOM     65  F   UNL     1       6.259  -7.578  -0.345  1.00  0.00    -0.206 F 
ATOM     66  C   UNL     1       9.513  -6.882   1.085  1.00  0.00     0.006 A 
ENDBRANCH  45  59
BRANCH  46  67
ATOM     67  C   UNL     1      -2.845  -6.543   4.417  1.00  0.00     0.057 A 
ATOM     68  C   UNL     1      -3.322  -7.112   5.603  1.00  0.00     0.134 A 
ATOM     69  C   UNL     1      -3.788  -5.967   3.555  1.00  0.00     0.134 A 
ATOM     70  F   UNL     1      -2.473  -7.701   6.458  1.00  0.00    -0.206 F 
ATOM     71  C   UNL     1      -4.684  -7.128   5.912  1.00  0.00     0.040 A 
ATOM     72  C   UNL     1      -5.149  -5.952   3.863  1.00  0.00     0.040 A 
ATOM     73  F   UNL     1      -3.397  -5.405   2.401  1.00  0.00    -0.206 F 
ATOM     74  C   UNL     1      -5.601  -6.542   5.041  1.00  0.00     0.006 A 
ENDBRANCH  46  67
BRANCH  58  75
ATOM     75  C   UNL     1       1.537 -11.720   2.831  1.00  0.00     0.057 A 
ATOM     76  C   UNL     1       0.808 -12.333   1.804  1.00  0.00     0.134 A 
ATOM     77  C   UNL     1       2.146 -12.555   3.777  1.00  0.00     0.134 A 
ATOM     78  F   UNL     1       0.191 -11.591   0.872  1.00  0.00    -0.206 F 
ATOM     79  C   UNL     1       0.670 -13.721   1.735  1.00  0.00     0.040 A 
ATOM     80  C   UNL     1       2.039 -13.944   3.703  1.00  0.00     0.040 A 
ATOM     81  F   UNL     1       2.868 -12.035   4.781  1.00  0.00    -0.206 F 
ATOM     82  C   UNL     1       1.294 -14.531   2.683  1.00  0.00     0.006 A 
ENDBRANCH  58  75
ENDBRANCH  32  33
ENDBRANCH  25  27
ENDBRANCH  24  25
ENDBRANCH  23  24
ENDBRANCH  22  23
ENDBRANCH  21  22
ENDBRANCH   1  21
TORSDOF 18
