REMARK SMILES O=C(OCCOCCOC(=O)c1cc(N2C(=O)[C@H]3[C@@H]4C=C[C@@H]([C@@H]5C[C@H]45)[C@@H]3C2=O)ccc1Cl)c1ccc(-c2c3nc(c(-c4c(F)cccc4F)c4ccc([nH]4)c(-c4c(F)cccc4F)c4nc(c(-c5c(F)cccc5F)c5ccc2[nH]5)C=C4)C=C3)cc1
REMARK SMILES IDX 5 1 4 2 3 3 2 4 1 5 33 6 34 7 86 8 35 9 85 10 36 11 37 12
REMARK SMILES IDX 38 13 79 14 39 15 84 16 78 17 80 18 40 19 83 20 77 21 76 22
REMARK SMILES IDX 41 24 67 25 50 26 66 27 51 28 54 29 65 30 81 31 52 32 53 33
REMARK SMILES IDX 64 35 82 36 55 37 42 38 43 39 48 40 44 41 45 42 47 43 49 44
REMARK SMILES IDX 46 45 68 46 69 47 74 48 70 49 71 50 73 51 75 52 72 53 56 54
REMARK SMILES IDX 57 55 62 56 58 57 59 58 61 59 63 60 60 61 6 62 7 63 8 64
REMARK SMILES IDX 9 65 10 66 11 67 12 68 13 69 31 70 14 71 30 72 32 73 29 74
REMARK SMILES IDX 15 75 16 76 27 77 17 78 18 79 26 80 28 81 19 82 22 83 20 84
REMARK SMILES IDX 25 85 21 86 23 87 24 88
REMARK H PARENT 80 23 54 34
REMARK Flexibility Score: inf
ROOT
ATOM      1  C   UNL     1       4.353   1.786  -0.036  1.00  0.00     0.202 C 
ENDROOT
BRANCH   1   2
ATOM      2  C   UNL     1       4.005   0.848  -1.196  1.00  0.00     0.261 C 
BRANCH   2   3
ATOM      3  O   UNL     1       2.639   0.407  -1.101  1.00  0.00    -0.460 OA
BRANCH   3   4
ATOM      4  C   UNL     1       2.167  -0.809  -0.741  1.00  0.00     0.338 C 
ATOM      5  O   UNL     1       0.961  -1.027  -0.843  1.00  0.00    -0.246 OA
BRANCH   4   6
ATOM      6  C   UNL     1       3.029  -1.910  -0.211  1.00  0.00     0.060 A 
ATOM      7  C   UNL     1       4.243  -1.719   0.446  1.00  0.00     0.016 A 
ATOM      8  C   UNL     1       2.526  -3.221  -0.292  1.00  0.00     0.016 A 
ATOM      9  C   UNL     1       4.966  -2.780   0.963  1.00  0.00     0.010 A 
ATOM     10  C   UNL     1       3.225  -4.296   0.268  1.00  0.00     0.010 A 
ATOM     11  C   UNL     1       4.455  -4.072   0.894  1.00  0.00    -0.014 A 
BRANCH  11  12
ATOM     12  C   UNL     1       5.289  -5.153   1.442  1.00  0.00     0.031 A 
ATOM     13  C   UNL     1       6.064  -6.010   0.495  1.00  0.00     0.074 A 
ATOM     14  C   UNL     1       5.469  -5.222   2.774  1.00  0.00     0.049 A 
ATOM     15  N   UNL     1       6.880  -6.995   0.752  1.00  0.00    -0.248 NA
ATOM     16  C   UNL     1       5.919  -5.702  -0.939  1.00  0.00     0.031 C 
ATOM     17  C   UNL     1       4.845  -4.329   3.756  1.00  0.00     0.029 A 
ATOM     18  N   UNL     1       6.260  -6.043   3.530  1.00  0.00    -0.354 N 
ATOM     19  C   UNL     1       7.335  -7.434  -0.483  1.00  0.00     0.074 A 
ATOM     20  C   UNL     1       6.701  -6.616  -1.492  1.00  0.00     0.031 C 
ATOM     21  C   UNL     1       5.303  -4.633   4.980  1.00  0.00     0.029 A 
ATOM     22  C   UNL     1       6.194  -5.782   4.877  1.00  0.00     0.049 A 
ATOM     23  H   UNL     1       6.823  -6.754   3.145  1.00  0.00     0.167 HD
ATOM     24  C   UNL     1       8.204  -8.438  -0.740  1.00  0.00     0.037 A 
ATOM     25  C   UNL     1       6.768  -6.428   5.908  1.00  0.00     0.037 A 
ATOM     26  C   UNL     1       8.809  -9.239   0.289  1.00  0.00     0.049 A 
ATOM     27  C   UNL     1       7.643  -7.610   5.591  1.00  0.00     0.074 A 
ATOM     28  C   UNL     1       9.634 -10.339   0.159  1.00  0.00     0.029 A 
ATOM     29  N   UNL     1       8.649  -9.011   1.650  1.00  0.00    -0.354 N 
ATOM     30  N   UNL     1       8.009  -8.075   4.419  1.00  0.00    -0.248 NA
ATOM     31  C   UNL     1       8.168  -8.369   6.731  1.00  0.00     0.031 C 
ATOM     32  C   UNL     1       9.941 -10.802   1.444  1.00  0.00     0.029 A 
ATOM     33  C   UNL     1       9.346  -9.961   2.373  1.00  0.00     0.049 A 
ATOM     34  H   UNL     1       8.116  -8.281   2.042  1.00  0.00     0.167 HD
ATOM     35  C   UNL     1       8.814  -9.174   4.679  1.00  0.00     0.074 A 
ATOM     36  C   UNL     1       8.907  -9.285   6.122  1.00  0.00     0.031 C 
ATOM     37  C   UNL     1       9.414 -10.027   3.812  1.00  0.00     0.037 A 
BRANCH  24  38
ATOM     38  C   UNL     1       8.477  -8.751  -2.180  1.00  0.00     0.057 A 
ATOM     39  C   UNL     1       9.266  -7.921  -2.987  1.00  0.00     0.134 A 
ATOM     40  C   UNL     1       7.915  -9.887  -2.776  1.00  0.00     0.134 A 
ATOM     41  F   UNL     1       9.808  -6.801  -2.486  1.00  0.00    -0.206 F 
ATOM     42  C   UNL     1       9.470  -8.200  -4.340  1.00  0.00     0.040 A 
ATOM     43  C   UNL     1       8.128 -10.187  -4.122  1.00  0.00     0.040 A 
ATOM     44  F   UNL     1       7.140 -10.717  -2.062  1.00  0.00    -0.206 F 
ATOM     45  C   UNL     1       8.902  -9.338  -4.910  1.00  0.00     0.006 A 
ENDBRANCH  24  38
BRANCH  25  46
ATOM     46  C   UNL     1       6.486  -6.027   7.312  1.00  0.00     0.057 A 
ATOM     47  C   UNL     1       7.498  -5.569   8.164  1.00  0.00     0.134 A 
ATOM     48  C   UNL     1       5.197  -6.135   7.852  1.00  0.00     0.134 A 
ATOM     49  F   UNL     1       8.758  -5.462   7.720  1.00  0.00    -0.206 F 
ATOM     50  C   UNL     1       7.244  -5.256   9.502  1.00  0.00     0.040 A 
ATOM     51  C   UNL     1       4.922  -5.797   9.178  1.00  0.00     0.040 A 
ATOM     52  F   UNL     1       4.178  -6.569   7.094  1.00  0.00    -0.206 F 
ATOM     53  C   UNL     1       5.951  -5.367  10.011  1.00  0.00     0.006 A 
ENDBRANCH  25  46
BRANCH  37  54
ATOM     54  C   UNL     1      10.235 -11.125   4.414  1.00  0.00     0.057 A 
ATOM     55  C   UNL     1       9.641 -12.223   5.050  1.00  0.00     0.134 A 
ATOM     56  C   UNL     1      11.631 -11.097   4.329  1.00  0.00     0.134 A 
ATOM     57  F   UNL     1       8.307 -12.296   5.175  1.00  0.00    -0.206 F 
ATOM     58  C   UNL     1      10.412 -13.244   5.604  1.00  0.00     0.040 A 
ATOM     59  C   UNL     1      12.411 -12.126   4.854  1.00  0.00     0.040 A 
ATOM     60  F   UNL     1      12.257 -10.076   3.724  1.00  0.00    -0.206 F 
ATOM     61  C   UNL     1      11.801 -13.200   5.500  1.00  0.00     0.006 A 
ENDBRANCH  37  54
ENDBRANCH  11  12
ENDBRANCH   4   6
ENDBRANCH   3   4
ENDBRANCH   2   3
ENDBRANCH   1   2
BRANCH   1  62
ATOM     62  O   UNL     1       4.172   1.216   1.263  1.00  0.00    -0.374 OA
BRANCH  62  63
ATOM     63  C   UNL     1       2.844   1.308   1.795  1.00  0.00     0.202 C 
BRANCH  63  64
ATOM     64  C   UNL     1       2.895   1.985   3.164  1.00  0.00     0.261 C 
BRANCH  64  65
ATOM     65  O   UNL     1       3.412   3.309   2.971  1.00  0.00    -0.460 OA
BRANCH  65  66
ATOM     66  C   UNL     1       4.750   3.448   3.129  1.00  0.00     0.339 C 
ATOM     67  O   UNL     1       5.526   2.672   3.662  1.00  0.00    -0.246 OA
BRANCH  66  68
ATOM     68  C   UNL     1       5.178   4.587   2.300  1.00  0.00     0.080 A 
ATOM     69  C   UNL     1       6.214   4.341   1.375  1.00  0.00     0.044 A 
ATOM     70  C   UNL     1       4.547   5.836   2.346  1.00  0.00     0.055 A 
ATOM     71  C   UNL     1       6.591   5.340   0.484  1.00  0.00     0.053 A 
ATOM     72  C   UNL     1       4.930   6.830   1.447  1.00  0.00     0.023 A 
ATOM     73  Cl  UNL     1       3.319   6.241   3.491  1.00  0.00    -0.083 Cl
ATOM     74  C   UNL     1       5.944   6.584   0.523  1.00  0.00     0.028 A 
BRANCH  71  75
ATOM     75  N   UNL     1       7.549   5.111  -0.526  1.00  0.00    -0.250 N 
ATOM     76  C   UNL     1       7.154   4.611  -1.785  1.00  0.00     0.238 C 
ATOM     77  C   UNL     1       8.680   5.947  -0.631  1.00  0.00     0.238 C 
ATOM     78  O   UNL     1       6.117   4.059  -2.108  1.00  0.00    -0.274 OA
ATOM     79  C   UNL     1       8.323   4.918  -2.673  1.00  0.00     0.100 C 
ATOM     80  C   UNL     1       8.691   6.280  -2.080  1.00  0.00     0.100 C 
ATOM     81  O   UNL     1       9.338   6.474   0.246  1.00  0.00    -0.274 OA
ATOM     82  C   UNL     1       8.443   4.993  -4.207  1.00  0.00     0.028 C 
ATOM     83  C   UNL     1       9.630   7.015  -3.023  1.00  0.00     0.028 C 
ATOM     84  C   UNL     1       9.988   5.007  -4.350  1.00  0.00    -0.026 C 
ATOM     85  C   UNL     1       7.998   6.319  -4.854  1.00  0.00     0.001 C 
ATOM     86  C   UNL     1      10.593   6.020  -3.686  1.00  0.00    -0.026 C 
ATOM     87  C   UNL     1       8.691   7.515  -4.181  1.00  0.00     0.001 C 
ATOM     88  C   UNL     1       7.165   7.411  -4.253  1.00  0.00     0.009 C 
ENDBRANCH  71  75
ENDBRANCH  66  68
ENDBRANCH  65  66
ENDBRANCH  64  65
ENDBRANCH  63  64
ENDBRANCH  62  63
ENDBRANCH   1  62
TORSDOF 15
