REMARK SMILES O=C(CCc1cccnc1)Nc1ccsc1C(=O)OCCOCCOC(=O)c1ccc(-c2c3nc(c(-c4c(F)cccc4F)c4ccc([nH]4)c(-c4c(F)cccc4F)c4nc(c(-c5c(F)cccc5F)c5ccc2[nH]5)C=C4)C=C3)cc1
REMARK SMILES IDX 21 1 20 2 19 3 17 4 18 5 16 6 12 7 13 8 14 9 15 10 11 11
REMARK SMILES IDX 1 12 2 13 3 15 4 16 5 17 6 18 10 19 7 20 9 21 8 22 22 23
REMARK SMILES IDX 23 24 24 25 25 26 26 27 27 28 28 29 29 30 81 31 30 32 80 33
REMARK SMILES IDX 31 34 32 35 33 36 74 37 34 38 79 39 73 40 75 41 35 42 78 43
REMARK SMILES IDX 72 44 71 45 36 47 62 48 45 49 61 50 46 51 49 52 60 53 76 54
REMARK SMILES IDX 47 55 48 56 59 58 77 59 50 60 37 61 38 62 43 63 39 64 40 65
REMARK SMILES IDX 42 66 44 67 41 68 63 69 64 70 69 71 65 72 66 73 68 74 70 75
REMARK SMILES IDX 67 76 51 77 52 78 57 79 53 80 54 81 56 82 58 83 55 84
REMARK H PARENT 11 14 75 46 49 57
REMARK Flexibility Score: inf
ROOT
ATOM      1  C   UNL     1       5.046   1.854   4.699  1.00  0.00     0.202 C 
ENDROOT
BRANCH   1   2
ATOM      2  C   UNL     1       5.378   0.387   4.420  1.00  0.00     0.261 C 
BRANCH   2   3
ATOM      3  O   UNL     1       4.375  -0.207   3.574  1.00  0.00    -0.459 OA
BRANCH   3   4
ATOM      4  C   UNL     1       3.979  -1.456   3.970  1.00  0.00     0.350 C 
ATOM      5  O   UNL     1       4.601  -2.135   4.780  1.00  0.00    -0.245 OA
BRANCH   4   6
ATOM      6  C   UNL     1       2.690  -1.797   3.389  1.00  0.00     0.136 A 
ATOM      7  C   UNL     1       2.040  -1.397   2.225  1.00  0.00     0.066 A 
ATOM      8  C   UNL     1       0.748  -2.012   2.124  1.00  0.00     0.039 A 
ATOM      9  C   UNL     1       0.456  -2.842   3.178  1.00  0.00     0.068 A 
ATOM     10  S   UNL     1       1.726  -2.900   4.302  1.00  0.00    -0.135 S 
BRANCH   7  11
ATOM     11  N   UNL     1       2.619  -0.564   1.262  1.00  0.00    -0.325 N 
ATOM     12  O   UNL     1       0.791  -0.235  -0.129  1.00  0.00    -0.275 OA
ATOM     13  C   UNL     1       2.000  -0.159   0.094  1.00  0.00     0.224 C 
ATOM     14  H   UNL     1       3.534  -0.243   1.428  1.00  0.00     0.169 HD
BRANCH  13  15
ATOM     15  C   UNL     1       2.916   0.303  -1.032  1.00  0.00     0.105 C 
BRANCH  15  16
ATOM     16  C   UNL     1       4.146   1.110  -0.643  1.00  0.00     0.047 C 
BRANCH  16  17
ATOM     17  C   UNL     1       5.320   0.375  -0.050  1.00  0.00    -0.029 A 
ATOM     18  C   UNL     1       6.245   1.089   0.717  1.00  0.00     0.007 A 
ATOM     19  C   UNL     1       5.575  -0.980  -0.232  1.00  0.00     0.114 A 
ATOM     20  C   UNL     1       7.355   0.453   1.259  1.00  0.00     0.020 A 
ATOM     21  N   UNL     1       6.621  -1.634   0.321  1.00  0.00    -0.264 NA
ATOM     22  C   UNL     1       7.491  -0.904   1.048  1.00  0.00     0.111 A 
ENDBRANCH  16  17
ENDBRANCH  15  16
ENDBRANCH  13  15
ENDBRANCH   7  11
ENDBRANCH   4   6
ENDBRANCH   3   4
ENDBRANCH   2   3
ENDBRANCH   1   2
BRANCH   1  23
ATOM     23  O   UNL     1       3.895   2.046   5.521  1.00  0.00    -0.374 OA
BRANCH  23  24
ATOM     24  C   UNL     1       2.622   1.933   4.885  1.00  0.00     0.202 C 
BRANCH  24  25
ATOM     25  C   UNL     1       2.154   3.191   4.146  1.00  0.00     0.261 C 
BRANCH  25  26
ATOM     26  O   UNL     1       2.943   3.470   2.972  1.00  0.00    -0.460 OA
BRANCH  26  27
ATOM     27  C   UNL     1       3.767   4.544   3.068  1.00  0.00     0.338 C 
ATOM     28  O   UNL     1       3.927   5.273   4.031  1.00  0.00    -0.246 OA
BRANCH  27  29
ATOM     29  C   UNL     1       4.584   4.654   1.841  1.00  0.00     0.060 A 
ATOM     30  C   UNL     1       5.960   4.891   1.972  1.00  0.00     0.016 A 
ATOM     31  C   UNL     1       4.004   4.570   0.573  1.00  0.00     0.016 A 
ATOM     32  C   UNL     1       6.757   5.055   0.834  1.00  0.00     0.010 A 
ATOM     33  C   UNL     1       4.803   4.732  -0.563  1.00  0.00     0.010 A 
ATOM     34  C   UNL     1       6.180   4.995  -0.441  1.00  0.00    -0.014 A 
BRANCH  34  35
ATOM     35  C   UNL     1       6.958   5.354  -1.653  1.00  0.00     0.031 A 
ATOM     36  C   UNL     1       6.801   6.735  -2.222  1.00  0.00     0.074 A 
ATOM     37  C   UNL     1       7.750   4.462  -2.275  1.00  0.00     0.049 A 
ATOM     38  N   UNL     1       7.298   7.240  -3.321  1.00  0.00    -0.248 NA
ATOM     39  C   UNL     1       5.967   7.669  -1.448  1.00  0.00     0.031 C 
ATOM     40  C   UNL     1       8.016   3.104  -1.817  1.00  0.00     0.029 A 
ATOM     41  N   UNL     1       8.457   4.560  -3.449  1.00  0.00    -0.354 N 
ATOM     42  C   UNL     1       6.842   8.550  -3.370  1.00  0.00     0.074 A 
ATOM     43  C   UNL     1       5.995   8.749  -2.213  1.00  0.00     0.031 C 
ATOM     44  C   UNL     1       8.788   2.474  -2.719  1.00  0.00     0.029 A 
ATOM     45  C   UNL     1       9.064   3.386  -3.825  1.00  0.00     0.049 A 
ATOM     46  H   UNL     1       8.521   5.392  -3.972  1.00  0.00     0.167 HD
ATOM     47  C   UNL     1       7.116   9.506  -4.287  1.00  0.00     0.037 A 
ATOM     48  C   UNL     1       9.750   3.076  -4.942  1.00  0.00     0.037 A 
ATOM     49  C   UNL     1       7.950   9.311  -5.441  1.00  0.00     0.049 A 
ATOM     50  C   UNL     1       9.974   4.131  -5.991  1.00  0.00     0.074 A 
ATOM     51  C   UNL     1       8.312  10.231  -6.409  1.00  0.00     0.029 A 
ATOM     52  N   UNL     1       8.543   8.108  -5.789  1.00  0.00    -0.354 N 
ATOM     53  N   UNL     1       9.584   5.383  -5.998  1.00  0.00    -0.248 NA
ATOM     54  C   UNL     1      10.741   3.735  -7.181  1.00  0.00     0.031 C 
ATOM     55  C   UNL     1       9.091   9.573  -7.366  1.00  0.00     0.029 A 
ATOM     56  C   UNL     1       9.248   8.255  -6.972  1.00  0.00     0.049 A 
ATOM     57  H   UNL     1       8.474   7.273  -5.272  1.00  0.00     0.167 HD
ATOM     58  C   UNL     1      10.093   5.933  -7.167  1.00  0.00     0.074 A 
ATOM     59  C   UNL     1      10.815   4.879  -7.848  1.00  0.00     0.031 C 
ATOM     60  C   UNL     1       9.978   7.202  -7.630  1.00  0.00     0.037 A 
BRANCH  47  61
ATOM     61  C   UNL     1       6.492  10.851  -4.074  1.00  0.00     0.057 A 
ATOM     62  C   UNL     1       6.938  11.716  -3.067  1.00  0.00     0.134 A 
ATOM     63  C   UNL     1       5.441  11.289  -4.888  1.00  0.00     0.134 A 
ATOM     64  F   UNL     1       7.929  11.345  -2.242  1.00  0.00    -0.206 F 
ATOM     65  C   UNL     1       6.345  12.962  -2.862  1.00  0.00     0.040 A 
ATOM     66  C   UNL     1       4.854  12.542  -4.707  1.00  0.00     0.040 A 
ATOM     67  F   UNL     1       4.968  10.506  -5.869  1.00  0.00    -0.206 F 
ATOM     68  C   UNL     1       5.302  13.380  -3.687  1.00  0.00     0.006 A 
ENDBRANCH  47  61
BRANCH  48  69
ATOM     69  C   UNL     1      10.282   1.704  -5.134  1.00  0.00     0.057 A 
ATOM     70  C   UNL     1      11.655   1.444  -5.059  1.00  0.00     0.134 A 
ATOM     71  C   UNL     1       9.435   0.627  -5.421  1.00  0.00     0.134 A 
ATOM     72  F   UNL     1      12.517   2.441  -4.808  1.00  0.00    -0.206 F 
ATOM     73  C   UNL     1      12.170   0.166  -5.283  1.00  0.00     0.040 A 
ATOM     74  C   UNL     1       9.934  -0.660  -5.628  1.00  0.00     0.040 A 
ATOM     75  F   UNL     1       8.109   0.813  -5.506  1.00  0.00    -0.206 F 
ATOM     76  C   UNL     1      11.307  -0.891  -5.566  1.00  0.00     0.006 A 
ENDBRANCH  48  69
BRANCH  60  77
ATOM     77  C   UNL     1      10.687   7.540  -8.907  1.00  0.00     0.057 A 
ATOM     78  C   UNL     1      10.204   7.125 -10.153  1.00  0.00     0.134 A 
ATOM     79  C   UNL     1      11.833   8.345  -8.890  1.00  0.00     0.134 A 
ATOM     80  F   UNL     1       9.118   6.341 -10.235  1.00  0.00    -0.206 F 
ATOM     81  C   UNL     1      10.843   7.490 -11.339  1.00  0.00     0.040 A 
ATOM     82  C   UNL     1      12.468   8.735 -10.069  1.00  0.00     0.040 A 
ATOM     83  F   UNL     1      12.342   8.781  -7.727  1.00  0.00    -0.206 F 
ATOM     84  C   UNL     1      11.974   8.305 -11.299  1.00  0.00     0.006 A 
ENDBRANCH  60  77
ENDBRANCH  34  35
ENDBRANCH  27  29
ENDBRANCH  26  27
ENDBRANCH  25  26
ENDBRANCH  24  25
ENDBRANCH  23  24
ENDBRANCH   1  23
TORSDOF 18
