REMARK SMILES O=C(N[C@@H]1C=C[C@@H](C(=O)OCCOCCOC(=O)c2ccc(-c3c4nc(c(-c5c(F)cccc5F)c5ccc([nH]5)c(-c5c(F)cccc5F)c5nc(c(-c6c(F)cccc6F)c6ccc3[nH]6)C=C5)C=C4)cc2)C1)Oc1ccccc1
REMARK SMILES IDX 12 1 11 2 10 3 8 4 9 5 7 6 4 7 5 8 73 9 6 10 3 11 1 12 2 13
REMARK SMILES IDX 74 15 75 16 76 17 80 18 77 19 79 20 78 21 13 22 14 23 15 24
REMARK SMILES IDX 16 25 17 26 18 27 19 28 20 29 72 30 21 31 71 32 22 33 23 34
REMARK SMILES IDX 24 35 65 36 25 37 70 38 64 39 66 40 26 41 69 42 63 43 62 44
REMARK SMILES IDX 27 46 53 47 36 48 52 49 37 50 40 51 51 52 67 53 38 54 39 55
REMARK SMILES IDX 50 57 68 58 41 59 28 60 29 61 34 62 30 63 31 64 33 65 35 66
REMARK SMILES IDX 32 67 54 68 55 69 60 70 56 71 57 72 59 73 61 74 58 75 42 76
REMARK SMILES IDX 43 77 48 78 44 79 45 80 47 81 49 82 46 83
REMARK H PARENT 3 14 66 45 40 56
REMARK Flexibility Score: inf
ROOT
ATOM      1  C   UNL     1       5.450  -3.758   4.259  1.00  0.00     0.202 C 
ENDROOT
BRANCH   1   2
ATOM      2  C   UNL     1       5.600  -2.229   4.236  1.00  0.00     0.261 C 
BRANCH   2   3
ATOM      3  O   UNL     1       5.406  -1.756   2.881  1.00  0.00    -0.463 OA
BRANCH   3   4
ATOM      4  C   UNL     1       5.817  -0.477   2.630  1.00  0.00     0.312 C 
ATOM      5  O   UNL     1       6.230   0.291   3.491  1.00  0.00    -0.252 OA
BRANCH   4   6
ATOM      6  C   UNL     1       5.851  -0.196   1.122  1.00  0.00     0.124 C 
ATOM      7  C   UNL     1       4.506   0.281  -0.874  1.00  0.00     0.109 C 
ATOM      8  C   UNL     1       5.255   1.486  -0.413  1.00  0.00    -0.006 C 
ATOM      9  C   UNL     1       4.619  -0.651   0.333  1.00  0.00     0.049 C 
ATOM     10  C   UNL     1       5.929   1.251   0.721  1.00  0.00    -0.014 C 
BRANCH   7  11
ATOM     11  N   UNL     1       4.837  -0.072  -2.253  1.00  0.00    -0.315 N 
ATOM     12  O   UNL     1       5.699  -0.402  -4.270  1.00  0.00    -0.224 OA
ATOM     13  C   UNL     1       5.817  -0.584  -3.056  1.00  0.00     0.413 C 
ATOM     14  H   UNL     1       4.058   0.138  -2.818  1.00  0.00     0.167 HD
BRANCH  13  15
ATOM     15  O   UNL     1       6.944  -1.227  -2.569  1.00  0.00    -0.410 OA
BRANCH  15  16
ATOM     16  C   UNL     1       6.852  -2.283  -1.659  1.00  0.00     0.132 A 
ATOM     17  C   UNL     1       7.893  -2.339  -0.732  1.00  0.00     0.047 A 
ATOM     18  C   UNL     1       5.762  -3.151  -1.617  1.00  0.00     0.047 A 
ATOM     19  C   UNL     1       7.706  -3.078   0.416  1.00  0.00     0.004 A 
ATOM     20  C   UNL     1       5.582  -3.901  -0.470  1.00  0.00     0.004 A 
ATOM     21  C   UNL     1       6.513  -3.772   0.557  1.00  0.00     0.000 A 
ENDBRANCH  15  16
ENDBRANCH  13  15
ENDBRANCH   7  11
ENDBRANCH   4   6
ENDBRANCH   3   4
ENDBRANCH   2   3
ENDBRANCH   1   2
BRANCH   1  22
ATOM     22  O   UNL     1       6.563  -4.390   3.621  1.00  0.00    -0.374 OA
BRANCH  22  23
ATOM     23  C   UNL     1       6.495  -5.820   3.485  1.00  0.00     0.202 C 
BRANCH  23  24
ATOM     24  C   UNL     1       5.519  -6.396   2.422  1.00  0.00     0.261 C 
BRANCH  24  25
ATOM     25  O   UNL     1       4.171  -5.917   2.554  1.00  0.00    -0.460 OA
BRANCH  25  26
ATOM     26  C   UNL     1       3.519  -6.465   3.599  1.00  0.00     0.338 C 
ATOM     27  O   UNL     1       3.922  -7.398   4.289  1.00  0.00    -0.246 OA
BRANCH  26  28
ATOM     28  C   UNL     1       2.348  -5.656   3.979  1.00  0.00     0.060 A 
ATOM     29  C   UNL     1       2.217  -5.376   5.344  1.00  0.00     0.016 A 
ATOM     30  C   UNL     1       1.367  -5.236   3.075  1.00  0.00     0.016 A 
ATOM     31  C   UNL     1       1.060  -4.779   5.827  1.00  0.00     0.010 A 
ATOM     32  C   UNL     1       0.200  -4.629   3.564  1.00  0.00     0.010 A 
ATOM     33  C   UNL     1       0.018  -4.455   4.949  1.00  0.00    -0.014 A 
BRANCH  33  34
ATOM     34  C   UNL     1      -1.305  -4.119   5.538  1.00  0.00     0.031 A 
ATOM     35  C   UNL     1      -2.378  -5.178   5.574  1.00  0.00     0.074 A 
ATOM     36  C   UNL     1      -1.510  -2.937   6.147  1.00  0.00     0.049 A 
ATOM     37  N   UNL     1      -3.569  -5.135   6.116  1.00  0.00    -0.248 NA
ATOM     38  C   UNL     1      -2.063  -6.459   4.922  1.00  0.00     0.031 C 
ATOM     39  C   UNL     1      -0.536  -1.850   6.230  1.00  0.00     0.029 A 
ATOM     40  N   UNL     1      -2.603  -2.463   6.829  1.00  0.00    -0.354 N 
ATOM     41  C   UNL     1      -4.145  -6.375   5.864  1.00  0.00     0.074 A 
ATOM     42  C   UNL     1      -3.187  -7.138   5.096  1.00  0.00     0.031 C 
ATOM     43  C   UNL     1      -1.075  -0.835   6.926  1.00  0.00     0.029 A 
ATOM     44  C   UNL     1      -2.440  -1.188   7.313  1.00  0.00     0.049 A 
ATOM     45  H   UNL     1      -3.426  -2.987   6.959  1.00  0.00     0.167 HD
ATOM     46  C   UNL     1      -5.357  -6.841   6.249  1.00  0.00     0.037 A 
ATOM     47  C   UNL     1      -3.299  -0.390   7.978  1.00  0.00     0.037 A 
ATOM     48  C   UNL     1      -6.306  -6.090   7.028  1.00  0.00     0.049 A 
ATOM     49  C   UNL     1      -4.668  -0.910   8.334  1.00  0.00     0.074 A 
ATOM     50  C   UNL     1      -7.547  -6.491   7.492  1.00  0.00     0.029 A 
ATOM     51  N   UNL     1      -6.124  -4.783   7.450  1.00  0.00    -0.354 N 
ATOM     52  N   UNL     1      -5.186  -2.096   8.121  1.00  0.00    -0.248 NA
ATOM     53  C   UNL     1      -5.570   0.019   9.031  1.00  0.00     0.031 C 
ATOM     54  C   UNL     1      -8.143  -5.404   8.140  1.00  0.00     0.029 A 
ATOM     55  C   UNL     1      -7.246  -4.348   8.137  1.00  0.00     0.049 A 
ATOM     56  H   UNL     1      -5.317  -4.243   7.286  1.00  0.00     0.167 HD
ATOM     57  C   UNL     1      -6.458  -2.064   8.680  1.00  0.00     0.074 A 
ATOM     58  C   UNL     1      -6.628  -0.747   9.257  1.00  0.00     0.031 C 
ATOM     59  C   UNL     1      -7.402  -3.037   8.713  1.00  0.00     0.037 A 
BRANCH  46  60
ATOM     60  C   UNL     1      -5.747  -8.222   5.804  1.00  0.00     0.057 A 
ATOM     61  C   UNL     1      -5.160  -9.374   6.342  1.00  0.00     0.134 A 
ATOM     62  C   UNL     1      -6.763  -8.398   4.855  1.00  0.00     0.134 A 
ATOM     63  F   UNL     1      -4.172  -9.277   7.244  1.00  0.00    -0.206 F 
ATOM     64  C   UNL     1      -5.556 -10.651   5.938  1.00  0.00     0.040 A 
ATOM     65  C   UNL     1      -7.186  -9.669   4.464  1.00  0.00     0.040 A 
ATOM     66  F   UNL     1      -7.370  -7.337   4.303  1.00  0.00    -0.206 F 
ATOM     67  C   UNL     1      -6.579 -10.801   5.003  1.00  0.00     0.006 A 
ENDBRANCH  46  60
BRANCH  47  68
ATOM     68  C   UNL     1      -2.908   1.000   8.327  1.00  0.00     0.057 A 
ATOM     69  C   UNL     1      -2.754   1.409   9.656  1.00  0.00     0.134 A 
ATOM     70  C   UNL     1      -2.717   1.967   7.331  1.00  0.00     0.134 A 
ATOM     71  F   UNL     1      -2.947   0.538  10.658  1.00  0.00    -0.206 F 
ATOM     72  C   UNL     1      -2.449   2.732   9.984  1.00  0.00     0.040 A 
ATOM     73  C   UNL     1      -2.383   3.285   7.643  1.00  0.00     0.040 A 
ATOM     74  F   UNL     1      -2.850   1.641   6.036  1.00  0.00    -0.206 F 
ATOM     75  C   UNL     1      -2.258   3.673   8.974  1.00  0.00     0.006 A 
ENDBRANCH  47  68
BRANCH  59  76
ATOM     76  C   UNL     1      -8.688  -2.731   9.426  1.00  0.00     0.057 A 
ATOM     77  C   UNL     1      -9.632  -1.836   8.906  1.00  0.00     0.134 A 
ATOM     78  C   UNL     1      -9.004  -3.373  10.631  1.00  0.00     0.134 A 
ATOM     79  F   UNL     1      -9.388  -1.180   7.762  1.00  0.00    -0.206 F 
ATOM     80  C   UNL     1     -10.830  -1.570   9.572  1.00  0.00     0.040 A 
ATOM     81  C   UNL     1     -10.212  -3.139  11.290  1.00  0.00     0.040 A 
ATOM     82  F   UNL     1      -8.151  -4.252  11.180  1.00  0.00    -0.206 F 
ATOM     83  C   UNL     1     -11.126  -2.229  10.764  1.00  0.00     0.006 A 
ENDBRANCH  59  76
ENDBRANCH  33  34
ENDBRANCH  26  28
ENDBRANCH  25  26
ENDBRANCH  24  25
ENDBRANCH  23  24
ENDBRANCH  22  23
ENDBRANCH   1  22
TORSDOF 17
