REMARK SMILES CN(CC(N)=O)c1ccc(S(N)(=O)=O)cc1C(=O)OCCOCCOC(=O)c1ccc(-c2c3nc(c(-c4c(F)cccc4F)c4ccc([nH]4)c(-c4c(F)cccc4F)c4nc(c(-c5c(F)cccc5F)c5ccc2[nH]5)C=C4)C=C3)cc1
REMARK SMILES IDX 21 1 20 2 19 3 17 4 18 5 16 6 7 7 8 8 9 9 15 10 10 11 2 12
REMARK SMILES IDX 1 13 3 14 4 15 5 16 6 17 11 20 13 21 14 22 12 23 22 26 23 27
REMARK SMILES IDX 24 28 25 29 26 30 27 31 28 32 29 33 81 34 30 35 80 36 31 37
REMARK SMILES IDX 32 38 33 39 74 40 34 41 79 42 73 43 75 44 35 45 78 46 72 47
REMARK SMILES IDX 71 48 36 50 62 51 45 52 61 53 46 54 49 55 60 56 76 57 47 58
REMARK SMILES IDX 48 59 59 61 77 62 50 63 37 64 38 65 43 66 39 67 40 68 42 69
REMARK SMILES IDX 44 70 41 71 63 72 64 73 69 74 65 75 66 76 68 77 70 78 67 79
REMARK SMILES IDX 51 80 52 81 57 82 53 83 54 84 56 85 58 86 55 87
REMARK H PARENT 5 18 5 19 12 24 12 25 75 49 49 60
REMARK Flexibility Score: inf
ROOT
ATOM      1  C   UNL     1       5.152  -0.928   0.115  1.00  0.00     0.202 C 
ENDROOT
BRANCH   1   2
ATOM      2  C   UNL     1       4.139   0.204   0.303  1.00  0.00     0.261 C 
BRANCH   2   3
ATOM      3  O   UNL     1       3.060   0.116  -0.641  1.00  0.00    -0.460 OA
BRANCH   3   4
ATOM      4  C   UNL     1       2.752   1.281  -1.262  1.00  0.00     0.340 C 
ATOM      5  O   UNL     1       3.225   2.381  -1.013  1.00  0.00    -0.246 OA
BRANCH   4   6
ATOM      6  C   UNL     1       1.875   1.065  -2.435  1.00  0.00     0.084 A 
ATOM      7  C   UNL     1       0.665   0.335  -2.408  1.00  0.00     0.052 A 
ATOM      8  C   UNL     1      -0.079   0.313  -3.608  1.00  0.00     0.028 A 
ATOM      9  C   UNL     1       0.366   0.924  -4.785  1.00  0.00     0.024 A 
ATOM     10  C   UNL     1       2.341   1.665  -3.624  1.00  0.00     0.039 A 
ATOM     11  C   UNL     1       1.589   1.580  -4.792  1.00  0.00     0.083 A 
BRANCH   7  12
ATOM     12  N   UNL     1       0.187  -0.328  -1.283  1.00  0.00    -0.365 N 
ATOM     13  C   UNL     1      -0.186   0.466  -0.115  1.00  0.00     0.144 C 
BRANCH  12  14
ATOM     14  C   UNL     1      -0.405  -1.674  -1.398  1.00  0.00     0.215 C 
BRANCH  14  15
ATOM     15  C   UNL     1      -1.908  -1.660  -1.711  1.00  0.00     0.236 C 
ATOM     16  N   UNL     1      -2.292  -2.371  -2.818  1.00  0.00    -0.368 N 
ATOM     17  O   UNL     1      -2.748  -1.059  -1.047  1.00  0.00    -0.273 OA
ATOM     18  H   UNL     1      -1.619  -2.853  -3.351  1.00  0.00     0.159 HD
ATOM     19  H   UNL     1      -3.241  -2.399  -3.080  1.00  0.00     0.159 HD
ENDBRANCH  14  15
ENDBRANCH  12  14
ENDBRANCH   7  12
BRANCH  11  20
ATOM     20  S   UNL     1       2.197   2.293  -6.288  1.00  0.00     0.238 S 
ATOM     21  O   UNL     1       1.334   3.394  -6.656  1.00  0.00    -0.207 OA
ATOM     22  O   UNL     1       3.630   2.403  -6.212  1.00  0.00    -0.207 OA
BRANCH  20  23
ATOM     23  N   UNL     1       1.915   1.082  -7.423  1.00  0.00    -0.225 NA
ATOM     24  H   UNL     1       0.910   0.945  -7.532  1.00  0.00     0.137 HD
ATOM     25  H   UNL     1       2.344   0.212  -7.106  1.00  0.00     0.137 HD
ENDBRANCH  20  23
ENDBRANCH  11  20
ENDBRANCH   4   6
ENDBRANCH   3   4
ENDBRANCH   2   3
ENDBRANCH   1   2
BRANCH   1  26
ATOM     26  O   UNL     1       5.802  -1.018  -1.151  1.00  0.00    -0.374 OA
BRANCH  26  27
ATOM     27  C   UNL     1       5.011  -1.349  -2.290  1.00  0.00     0.202 C 
BRANCH  27  28
ATOM     28  C   UNL     1       4.469  -2.782  -2.387  1.00  0.00     0.261 C 
BRANCH  28  29
ATOM     29  O   UNL     1       3.623  -3.172  -1.289  1.00  0.00    -0.460 OA
BRANCH  29  30
ATOM     30  C   UNL     1       4.148  -4.138  -0.497  1.00  0.00     0.338 C 
ATOM     31  O   UNL     1       5.215  -4.713  -0.636  1.00  0.00    -0.246 OA
BRANCH  30  32
ATOM     32  C   UNL     1       3.304  -4.367   0.690  1.00  0.00     0.060 A 
ATOM     33  C   UNL     1       3.889  -4.181   1.948  1.00  0.00     0.016 A 
ATOM     34  C   UNL     1       2.032  -4.930   0.573  1.00  0.00     0.016 A 
ATOM     35  C   UNL     1       3.229  -4.620   3.094  1.00  0.00     0.010 A 
ATOM     36  C   UNL     1       1.372  -5.375   1.726  1.00  0.00     0.010 A 
ATOM     37  C   UNL     1       1.990  -5.266   2.986  1.00  0.00    -0.014 A 
BRANCH  37  38
ATOM     38  C   UNL     1       1.449  -5.985   4.167  1.00  0.00     0.031 A 
ATOM     39  C   UNL     1       1.667  -7.471   4.282  1.00  0.00     0.074 A 
ATOM     40  C   UNL     1       0.839  -5.317   5.163  1.00  0.00     0.049 A 
ATOM     41  N   UNL     1       1.308  -8.294   5.236  1.00  0.00    -0.248 NA
ATOM     42  C   UNL     1       2.389  -8.117   3.174  1.00  0.00     0.031 C 
ATOM     43  C   UNL     1       0.605  -3.875   5.195  1.00  0.00     0.029 A 
ATOM     44  N   UNL     1       0.313  -5.771   6.346  1.00  0.00    -0.354 N 
ATOM     45  C   UNL     1       1.770  -9.546   4.849  1.00  0.00     0.074 A 
ATOM     46  C   UNL     1       2.394  -9.386   3.554  1.00  0.00     0.031 C 
ATOM     47  C   UNL     1      -0.018  -3.561   6.344  1.00  0.00     0.029 A 
ATOM     48  C   UNL     1      -0.242  -4.780   7.118  1.00  0.00     0.049 A 
ATOM     49  H   UNL     1       0.333  -6.717   6.617  1.00  0.00     0.167 HD
ATOM     50  C   UNL     1       1.699 -10.722   5.518  1.00  0.00     0.037 A 
ATOM     51  C   UNL     1      -0.865  -4.853   8.310  1.00  0.00     0.037 A 
ATOM     52  C   UNL     1       1.074 -10.891   6.804  1.00  0.00     0.049 A 
ATOM     53  C   UNL     1      -0.990  -6.186   9.001  1.00  0.00     0.074 A 
ATOM     54  C   UNL     1       0.924 -12.049   7.548  1.00  0.00     0.029 A 
ATOM     55  N   UNL     1       0.500  -9.866   7.540  1.00  0.00    -0.354 N 
ATOM     56  N   UNL     1      -0.548  -7.361   8.625  1.00  0.00    -0.248 NA
ATOM     57  C   UNL     1      -1.693  -6.196  10.293  1.00  0.00     0.031 C 
ATOM     58  C   UNL     1       0.234 -11.729   8.723  1.00  0.00     0.029 A 
ATOM     59  C   UNL     1      -0.008 -10.366   8.728  1.00  0.00     0.049 A 
ATOM     60  H   UNL     1       0.459  -8.924   7.260  1.00  0.00     0.167 HD
ATOM     61  C   UNL     1      -0.883  -8.239   9.649  1.00  0.00     0.074 A 
ATOM     62  C   UNL     1      -1.556  -7.459  10.666  1.00  0.00     0.031 C 
ATOM     63  C   UNL     1      -0.653  -9.572   9.741  1.00  0.00     0.037 A 
BRANCH  50  64
ATOM     64  C   UNL     1       2.311 -11.925   4.862  1.00  0.00     0.057 A 
ATOM     65  C   UNL     1       3.701 -12.087   4.779  1.00  0.00     0.134 A 
ATOM     66  C   UNL     1       1.509 -12.944   4.335  1.00  0.00     0.134 A 
ATOM     67  F   UNL     1       4.525 -11.139   5.251  1.00  0.00    -0.206 F 
ATOM     68  C   UNL     1       4.270 -13.211   4.178  1.00  0.00     0.040 A 
ATOM     69  C   UNL     1       2.066 -14.084   3.753  1.00  0.00     0.040 A 
ATOM     70  F   UNL     1       0.171 -12.852   4.385  1.00  0.00    -0.206 F 
ATOM     71  C   UNL     1       3.451 -14.217   3.669  1.00  0.00     0.006 A 
ENDBRANCH  50  64
BRANCH  51  72
ATOM     72  C   UNL     1      -1.421  -3.631   8.942  1.00  0.00     0.057 A 
ATOM     73  C   UNL     1      -0.870  -3.106  10.117  1.00  0.00     0.134 A 
ATOM     74  C   UNL     1      -2.550  -2.991   8.417  1.00  0.00     0.134 A 
ATOM     75  F   UNL     1       0.197  -3.690  10.681  1.00  0.00    -0.206 F 
ATOM     76  C   UNL     1      -1.438  -2.006  10.763  1.00  0.00     0.040 A 
ATOM     77  C   UNL     1      -3.113  -1.875   9.038  1.00  0.00     0.040 A 
ATOM     78  F   UNL     1      -3.125  -3.446   7.294  1.00  0.00    -0.206 F 
ATOM     79  C   UNL     1      -2.562  -1.387  10.222  1.00  0.00     0.006 A 
ENDBRANCH  51  72
BRANCH  63  80
ATOM     80  C   UNL     1      -1.078 -10.254  11.009  1.00  0.00     0.057 A 
ATOM     81  C   UNL     1      -2.425 -10.485  11.314  1.00  0.00     0.134 A 
ATOM     82  C   UNL     1      -0.121 -10.696  11.932  1.00  0.00     0.134 A 
ATOM     83  F   UNL     1      -3.392 -10.076  10.478  1.00  0.00    -0.206 F 
ATOM     84  C   UNL     1      -2.807 -11.101  12.508  1.00  0.00     0.040 A 
ATOM     85  C   UNL     1      -0.489 -11.336  13.116  1.00  0.00     0.040 A 
ATOM     86  F   UNL     1       1.187 -10.515  11.696  1.00  0.00    -0.206 F 
ATOM     87  C   UNL     1      -1.837 -11.531  13.411  1.00  0.00     0.006 A 
ENDBRANCH  63  80
ENDBRANCH  37  38
ENDBRANCH  30  32
ENDBRANCH  29  30
ENDBRANCH  28  29
ENDBRANCH  27  28
ENDBRANCH  26  27
ENDBRANCH   1  26
TORSDOF 19
