REMARK SMILES CC(C)(C)N(CC(=O)OCCOCCOC(=O)c1ccc(-c2c3nc(c(-c4c(F)cccc4F)c4ccc([nH]4)c(-c4c(F)cccc4F)c4nc(c(-c5c(F)cccc5F)c5ccc2[nH]5)C=C4)C=C3)cc1)C(=O)N(CCO)C1CC1
REMARK SMILES IDX 10 1 9 2 7 3 8 4 6 5 5 6 2 7 1 8 3 9 4 10 72 11 73 12 74 13
REMARK SMILES IDX 75 14 76 15 77 16 78 18 79 19 80 20 11 21 12 22 13 23 14 24
REMARK SMILES IDX 15 25 16 26 17 27 18 28 19 29 71 30 20 31 70 32 21 33 22 34
REMARK SMILES IDX 23 35 64 36 24 37 69 38 63 39 65 40 25 41 68 42 62 43 61 44
REMARK SMILES IDX 26 46 52 47 35 48 51 49 36 50 39 51 50 52 66 53 37 54 38 55
REMARK SMILES IDX 49 57 67 58 40 59 27 60 28 61 33 62 29 63 30 64 32 65 34 66
REMARK SMILES IDX 31 67 53 68 54 69 59 70 55 71 56 72 58 73 60 74 57 75 41 76
REMARK SMILES IDX 42 77 47 78 43 79 44 80 46 81 48 82 45 83
REMARK H PARENT 77 17 65 45 39 56
REMARK Flexibility Score: inf
ROOT
ATOM      1  C   UNL     1       5.237   0.873  -1.892  1.00  0.00     0.261 C 
ENDROOT
BRANCH   1   2
ATOM      2  O   UNL     1       3.790   0.885  -1.788  1.00  0.00    -0.462 OA
BRANCH   2   3
ATOM      3  C   UNL     1       3.179   2.097  -1.863  1.00  0.00     0.325 C 
ATOM      4  O   UNL     1       3.765   3.165  -1.707  1.00  0.00    -0.250 OA
BRANCH   3   5
ATOM      5  C   UNL     1       1.646   2.039  -2.070  1.00  0.00     0.244 C 
BRANCH   5   6
ATOM      6  N   UNL     1       0.910   0.867  -2.617  1.00  0.00    -0.309 N 
BRANCH   6   7
ATOM      7  C   UNL     1       0.527  -0.211  -1.577  1.00  0.00     0.037 C 
ATOM      8  C   UNL     1       1.060   0.042  -0.135  1.00  0.00     0.034 C 
ATOM      9  C   UNL     1       1.088  -1.605  -1.962  1.00  0.00     0.034 C 
ATOM     10  C   UNL     1      -1.017  -0.278  -1.408  1.00  0.00     0.034 C 
ENDBRANCH   6   7
BRANCH   6  11
ATOM     11  C   UNL     1       0.395   0.662  -3.914  1.00  0.00     0.321 C 
ATOM     12  O   UNL     1      -0.297  -0.352  -4.097  1.00  0.00    -0.248 OA
BRANCH  11  13
ATOM     13  N   UNL     1       0.599   1.465  -5.044  1.00  0.00    -0.319 N 
BRANCH  13  14
ATOM     14  C   UNL     1       1.071   2.869  -5.193  1.00  0.00     0.150 C 
BRANCH  14  15
ATOM     15  C   UNL     1       2.213   3.107  -6.195  1.00  0.00     0.177 C 
BRANCH  15  16
ATOM     16  O   UNL     1       1.722   3.616  -7.431  1.00  0.00    -0.395 OA
ATOM     17  H   UNL     1       1.111   2.975  -7.826  1.00  0.00     0.210 HD
ENDBRANCH  15  16
ENDBRANCH  14  15
ENDBRANCH  13  14
BRANCH  13  18
ATOM     18  C   UNL     1      -0.115   1.019  -6.287  1.00  0.00     0.087 C 
ATOM     19  C   UNL     1       0.596   0.677  -7.584  1.00  0.00     0.027 C 
ATOM     20  C   UNL     1      -0.126  -0.395  -6.841  1.00  0.00     0.027 C 
ENDBRANCH  13  18
ENDBRANCH  11  13
ENDBRANCH   6  11
ENDBRANCH   5   6
ENDBRANCH   3   5
ENDBRANCH   2   3
ENDBRANCH   1   2
BRANCH   1  21
ATOM     21  C   UNL     1       5.709   0.106  -3.144  1.00  0.00     0.202 C 
BRANCH  21  22
ATOM     22  O   UNL     1       5.125   0.551  -4.371  1.00  0.00    -0.374 OA
BRANCH  22  23
ATOM     23  C   UNL     1       3.723   0.309  -4.424  1.00  0.00     0.202 C 
BRANCH  23  24
ATOM     24  C   UNL     1       3.295  -0.424  -5.669  1.00  0.00     0.261 C 
BRANCH  24  25
ATOM     25  O   UNL     1       3.568  -1.800  -5.465  1.00  0.00    -0.460 OA
BRANCH  25  26
ATOM     26  C   UNL     1       4.547  -2.288  -6.239  1.00  0.00     0.338 C 
ATOM     27  O   UNL     1       4.995  -1.840  -7.274  1.00  0.00    -0.246 OA
BRANCH  26  28
ATOM     28  C   UNL     1       5.154  -3.345  -5.431  1.00  0.00     0.060 A 
ATOM     29  C   UNL     1       6.545  -3.338  -5.345  1.00  0.00     0.016 A 
ATOM     30  C   UNL     1       4.369  -4.260  -4.715  1.00  0.00     0.016 A 
ATOM     31  C   UNL     1       7.171  -4.308  -4.587  1.00  0.00     0.010 A 
ATOM     32  C   UNL     1       4.997  -5.221  -3.939  1.00  0.00     0.010 A 
ATOM     33  C   UNL     1       6.397  -5.269  -3.921  1.00  0.00    -0.014 A 
BRANCH  33  34
ATOM     34  C   UNL     1       7.085  -6.433  -3.351  1.00  0.00     0.031 A 
ATOM     35  C   UNL     1       7.112  -7.692  -4.163  1.00  0.00     0.074 A 
ATOM     36  C   UNL     1       7.720  -6.308  -2.177  1.00  0.00     0.049 A 
ATOM     37  N   UNL     1       7.726  -8.816  -3.917  1.00  0.00    -0.248 NA
ATOM     38  C   UNL     1       6.345  -7.687  -5.423  1.00  0.00     0.031 C 
ATOM     39  C   UNL     1       7.730  -5.102  -1.346  1.00  0.00     0.029 A 
ATOM     40  N   UNL     1       8.490  -7.200  -1.488  1.00  0.00    -0.354 N 
ATOM     41  C   UNL     1       7.420  -9.647  -4.987  1.00  0.00     0.074 A 
ATOM     42  C   UNL     1       6.537  -8.919  -5.866  1.00  0.00     0.031 C 
ATOM     43  C   UNL     1       8.482  -5.331  -0.257  1.00  0.00     0.029 A 
ATOM     44  C   UNL     1       8.985  -6.699  -0.311  1.00  0.00     0.049 A 
ATOM     45  H   UNL     1       8.672  -8.115  -1.805  1.00  0.00     0.167 HD
ATOM     46  C   UNL     1       7.860 -10.904  -5.212  1.00  0.00     0.037 A 
ATOM     47  C   UNL     1       9.757  -7.300   0.612  1.00  0.00     0.037 A 
ATOM     48  C   UNL     1       8.751 -11.594  -4.320  1.00  0.00     0.049 A 
ATOM     49  C   UNL     1      10.213  -8.708   0.340  1.00  0.00     0.074 A 
ATOM     50  C   UNL     1       9.295 -12.856  -4.448  1.00  0.00     0.029 A 
ATOM     51  N   UNL     1       9.222 -11.066  -3.125  1.00  0.00    -0.354 N 
ATOM     52  N   UNL     1       9.967  -9.470  -0.701  1.00  0.00    -0.248 NA
ATOM     53  C   UNL     1      11.059  -9.336   1.360  1.00  0.00     0.031 C 
ATOM     54  C   UNL     1      10.059 -13.112  -3.305  1.00  0.00     0.029 A 
ATOM     55  C   UNL     1      10.031 -11.989  -2.490  1.00  0.00     0.049 A 
ATOM     56  H   UNL     1       9.011 -10.168  -2.781  1.00  0.00     0.167 HD
ATOM     57  C   UNL     1      10.644 -10.659  -0.472  1.00  0.00     0.074 A 
ATOM     58  C   UNL     1      11.332 -10.503   0.795  1.00  0.00     0.031 C 
ATOM     59  C   UNL     1      10.694 -11.784  -1.228  1.00  0.00     0.037 A 
BRANCH  46  60
ATOM     60  C   UNL     1       7.374 -11.607  -6.442  1.00  0.00     0.057 A 
ATOM     61  C   UNL     1       7.820 -11.257  -7.723  1.00  0.00     0.134 A 
ATOM     62  C   UNL     1       6.471 -12.673  -6.340  1.00  0.00     0.134 A 
ATOM     63  F   UNL     1       8.665 -10.229  -7.892  1.00  0.00    -0.206 F 
ATOM     64  C   UNL     1       7.381 -11.940  -8.860  1.00  0.00     0.040 A 
ATOM     65  C   UNL     1       6.043 -13.377  -7.467  1.00  0.00     0.040 A 
ATOM     66  F   UNL     1       5.998 -13.052  -5.144  1.00  0.00    -0.206 F 
ATOM     67  C   UNL     1       6.498 -13.010  -8.732  1.00  0.00     0.006 A 
ENDBRANCH  46  60
BRANCH  47  68
ATOM     68  C   UNL     1      10.136  -6.586   1.857  1.00  0.00     0.057 A 
ATOM     69  C   UNL     1      11.465  -6.238   2.126  1.00  0.00     0.134 A 
ATOM     70  C   UNL     1       9.177  -6.256   2.823  1.00  0.00     0.134 A 
ATOM     71  F   UNL     1      12.432  -6.534   1.246  1.00  0.00    -0.206 F 
ATOM     72  C   UNL     1      11.831  -5.617   3.322  1.00  0.00     0.040 A 
ATOM     73  C   UNL     1       9.524  -5.612   4.011  1.00  0.00     0.040 A 
ATOM     74  F   UNL     1       7.884  -6.551   2.623  1.00  0.00    -0.206 F 
ATOM     75  C   UNL     1      10.858  -5.301   4.269  1.00  0.00     0.006 A 
ENDBRANCH  47  68
BRANCH  59  76
ATOM     76  C   UNL     1      11.534 -12.907  -0.703  1.00  0.00     0.057 A 
ATOM     77  C   UNL     1      11.132 -13.672   0.397  1.00  0.00     0.134 A 
ATOM     78  C   UNL     1      12.742 -13.243  -1.327  1.00  0.00     0.134 A 
ATOM     79  F   UNL     1       9.990 -13.389   1.042  1.00  0.00    -0.206 F 
ATOM     80  C   UNL     1      11.919 -14.717   0.881  1.00  0.00     0.040 A 
ATOM     81  C   UNL     1      13.522 -14.305  -0.871  1.00  0.00     0.040 A 
ATOM     82  F   UNL     1      13.174 -12.555  -2.394  1.00  0.00    -0.206 F 
ATOM     83  C   UNL     1      13.115 -15.039   0.241  1.00  0.00     0.006 A 
ENDBRANCH  59  76
ENDBRANCH  33  34
ENDBRANCH  26  28
ENDBRANCH  25  26
ENDBRANCH  24  25
ENDBRANCH  23  24
ENDBRANCH  22  23
ENDBRANCH  21  22
ENDBRANCH   1  21
TORSDOF 22
