REMARK SMILES CCCCCCNC(=O)Oc1cccc(-c2ccc([C@@H](C)C(=O)OCCOCCOC(=O)c3ccc(-c4c5nc(c(-c6c(F)cccc6F)c6ccc([nH]6)c(-c6c(F)cccc6F)c6nc(c(-c7c(F)cccc7F)c7ccc4[nH]7)C=C6)C=C5)cc3)cc2F)c1
REMARK SMILES IDX 22 1 23 2 20 3 21 4 19 5 16 6 17 7 88 8 18 9 87 10 89 11
REMARK SMILES IDX 15 12 11 13 12 14 90 15 13 16 14 17 10 18 8 19 7 20 9 22
REMARK SMILES IDX 6 23 5 24 4 25 3 26 2 27 1 28 24 29 25 30 26 31 27 32 28 33
REMARK SMILES IDX 29 34 30 35 31 36 32 37 33 38 34 39 86 40 35 41 85 42 36 43
REMARK SMILES IDX 37 44 38 45 79 46 39 47 84 48 78 49 80 50 40 51 83 52 77 53
REMARK SMILES IDX 76 54 41 56 67 57 50 58 66 59 51 60 54 61 65 62 81 63 52 64
REMARK SMILES IDX 53 65 64 67 82 68 55 69 42 70 43 71 48 72 44 73 45 74 47 75
REMARK SMILES IDX 49 76 46 77 68 78 69 79 74 80 70 81 71 82 73 83 75 84 72 85
REMARK SMILES IDX 56 86 57 87 62 88 58 89 59 90 61 91 63 92 60 93
REMARK H PARENT 7 21 80 55 54 66
REMARK Flexibility Score: inf
ROOT
ATOM      1  C   UNL     1      -3.979  11.396  -9.580  1.00  0.00     0.313 C 
ATOM      2  O   UNL     1      -3.700  11.450 -10.774  1.00  0.00    -0.252 OA
ENDROOT
BRANCH   1   3
ATOM      3  C   UNL     1      -5.136  10.553  -9.066  1.00  0.00     0.126 C 
ATOM      4  C   UNL     1      -6.444  11.300  -9.310  1.00  0.00     0.025 C 
BRANCH   3   5
ATOM      5  C   UNL     1      -5.049  10.003  -7.646  1.00  0.00    -0.031 A 
ATOM      6  C   UNL     1      -5.082   8.872  -5.020  1.00  0.00     0.018 A 
ATOM      7  C   UNL     1      -5.121  10.262  -5.218  1.00  0.00     0.012 A 
ATOM      8  C   UNL     1      -4.993   8.069  -6.163  1.00  0.00     0.131 A 
ATOM      9  C   UNL     1      -5.105  10.820  -6.508  1.00  0.00     0.005 A 
ATOM     10  C   UNL     1      -4.977   8.615  -7.449  1.00  0.00     0.044 A 
ATOM     11  F   UNL     1      -4.958   6.732  -6.050  1.00  0.00    -0.206 F 
BRANCH   6  12
ATOM     12  C   UNL     1      -5.173   8.286  -3.671  1.00  0.00    -0.012 A 
ATOM     13  C   UNL     1      -4.335   6.816  -1.926  1.00  0.00     0.133 A 
ATOM     14  C   UNL     1      -5.423   7.113  -1.110  1.00  0.00     0.047 A 
ATOM     15  C   UNL     1      -4.211   7.377  -3.200  1.00  0.00     0.056 A 
ATOM     16  C   UNL     1      -6.385   8.012  -1.561  1.00  0.00     0.004 A 
ATOM     17  C   UNL     1      -6.258   8.594  -2.827  1.00  0.00     0.009 A 
BRANCH  13  18
ATOM     18  O   UNL     1      -3.436   5.845  -1.455  1.00  0.00    -0.410 OA
BRANCH  18  19
ATOM     19  C   UNL     1      -2.093   6.186  -1.403  1.00  0.00     0.412 C 
ATOM     20  N   UNL     1      -1.296   5.185  -0.919  1.00  0.00    -0.321 N 
ATOM     21  H   UNL     1      -0.330   5.372  -0.885  1.00  0.00     0.167 HD
ATOM     22  O   UNL     1      -1.610   7.266  -1.731  1.00  0.00    -0.224 OA
BRANCH  20  23
ATOM     23  C   UNL     1      -1.717   3.878  -0.452  1.00  0.00     0.119 C 
BRANCH  23  24
ATOM     24  C   UNL     1      -1.103   2.744  -1.274  1.00  0.00     0.021 C 
BRANCH  24  25
ATOM     25  C   UNL     1       0.426   2.645  -1.201  1.00  0.00     0.002 C 
BRANCH  25  26
ATOM     26  C   UNL     1       1.011   2.414   0.197  1.00  0.00    -0.000 C 
BRANCH  26  27
ATOM     27  C   UNL     1       0.541   1.143   0.908  1.00  0.00    -0.003 C 
ATOM     28  C   UNL     1       0.934  -0.135   0.185  1.00  0.00     0.004 C 
ENDBRANCH  26  27
ENDBRANCH  25  26
ENDBRANCH  24  25
ENDBRANCH  23  24
ENDBRANCH  20  23
ENDBRANCH  18  19
ENDBRANCH  13  18
ENDBRANCH   6  12
ENDBRANCH   3   5
ENDBRANCH   1   3
BRANCH   1  29
ATOM     29  O   UNL     1      -3.330  12.091  -8.609  1.00  0.00    -0.463 OA
BRANCH  29  30
ATOM     30  C   UNL     1      -2.147  12.796  -9.026  1.00  0.00     0.261 C 
BRANCH  30  31
ATOM     31  C   UNL     1      -0.903  12.259  -8.314  1.00  0.00     0.202 C 
BRANCH  31  32
ATOM     32  O   UNL     1      -0.510  10.929  -8.648  1.00  0.00    -0.374 OA
BRANCH  32  33
ATOM     33  C   UNL     1      -1.269   9.855  -8.093  1.00  0.00     0.202 C 
BRANCH  33  34
ATOM     34  C   UNL     1      -1.012   9.515  -6.620  1.00  0.00     0.261 C 
BRANCH  34  35
ATOM     35  O   UNL     1      -1.401  10.579  -5.734  1.00  0.00    -0.460 OA
BRANCH  35  36
ATOM     36  C   UNL     1      -0.365  11.213  -5.130  1.00  0.00     0.338 C 
ATOM     37  O   UNL     1       0.819  10.946  -5.221  1.00  0.00    -0.246 OA
BRANCH  36  38
ATOM     38  C   UNL     1      -0.841  12.441  -4.461  1.00  0.00     0.060 A 
ATOM     39  C   UNL     1      -0.134  13.621  -4.725  1.00  0.00     0.016 A 
ATOM     40  C   UNL     1      -1.883  12.430  -3.532  1.00  0.00     0.016 A 
ATOM     41  C   UNL     1      -0.419  14.780  -4.009  1.00  0.00     0.010 A 
ATOM     42  C   UNL     1      -2.168  13.597  -2.812  1.00  0.00     0.010 A 
ATOM     43  C   UNL     1      -1.405  14.763  -3.015  1.00  0.00    -0.014 A 
BRANCH  43  44
ATOM     44  C   UNL     1      -1.502  15.914  -2.083  1.00  0.00     0.031 A 
ATOM     45  C   UNL     1      -0.859  15.810  -0.726  1.00  0.00     0.074 A 
ATOM     46  C   UNL     1      -2.083  17.065  -2.463  1.00  0.00     0.049 A 
ATOM     47  N   UNL     1      -0.776  16.705   0.226  1.00  0.00    -0.248 NA
ATOM     48  C   UNL     1      -0.220  14.525  -0.402  1.00  0.00     0.031 C 
ATOM     49  C   UNL     1      -2.696  17.310  -3.767  1.00  0.00     0.029 A 
ATOM     50  N   UNL     1      -2.238  18.249  -1.788  1.00  0.00    -0.354 N 
ATOM     51  C   UNL     1      -0.077  16.093   1.259  1.00  0.00     0.074 A 
ATOM     52  C   UNL     1       0.204  14.738   0.835  1.00  0.00     0.031 C 
ATOM     53  C   UNL     1      -3.153  18.573  -3.801  1.00  0.00     0.029 A 
ATOM     54  C   UNL     1      -2.888  19.215  -2.514  1.00  0.00     0.049 A 
ATOM     55  H   UNL     1      -1.914  18.392  -0.869  1.00  0.00     0.167 HD
ATOM     56  C   UNL     1       0.311  16.614   2.448  1.00  0.00     0.037 A 
ATOM     57  C   UNL     1      -3.232  20.473  -2.177  1.00  0.00     0.037 A 
ATOM     58  C   UNL     1       0.029  17.959   2.875  1.00  0.00     0.049 A 
ATOM     59  C   UNL     1      -2.869  21.003  -0.816  1.00  0.00     0.074 A 
ATOM     60  C   UNL     1       0.388  18.584   4.057  1.00  0.00     0.029 A 
ATOM     61  N   UNL     1      -0.692  18.885   2.136  1.00  0.00    -0.354 N 
ATOM     62  N   UNL     1      -2.190  20.423   0.144  1.00  0.00    -0.248 NA
ATOM     63  C   UNL     1      -3.320  22.365  -0.494  1.00  0.00     0.031 C 
ATOM     64  C   UNL     1      -0.159  19.872   4.053  1.00  0.00     0.029 A 
ATOM     65  C   UNL     1      -0.814  20.067   2.848  1.00  0.00     0.049 A 
ATOM     66  H   UNL     1      -1.062  18.726   1.238  1.00  0.00     0.167 HD
ATOM     67  C   UNL     1      -2.106  21.357   1.170  1.00  0.00     0.074 A 
ATOM     68  C   UNL     1      -2.798  22.544   0.711  1.00  0.00     0.031 C 
ATOM     69  C   UNL     1      -1.504  21.243   2.380  1.00  0.00     0.037 A 
BRANCH  56  70
ATOM     70  C   UNL     1       1.061  15.705   3.379  1.00  0.00     0.057 A 
ATOM     71  C   UNL     1       2.375  15.295   3.116  1.00  0.00     0.134 A 
ATOM     72  C   UNL     1       0.460  15.232   4.553  1.00  0.00     0.134 A 
ATOM     73  F   UNL     1       3.004  15.700   2.003  1.00  0.00    -0.206 F 
ATOM     74  C   UNL     1       3.051  14.419   3.968  1.00  0.00     0.040 A 
ATOM     75  C   UNL     1       1.135  14.379   5.426  1.00  0.00     0.040 A 
ATOM     76  F   UNL     1      -0.794  15.591   4.868  1.00  0.00    -0.206 F 
ATOM     77  C   UNL     1       2.431  13.961   5.130  1.00  0.00     0.006 A 
ENDBRANCH  56  70
BRANCH  57  78
ATOM     78  C   UNL     1      -3.952  21.328  -3.153  1.00  0.00     0.057 A 
ATOM     79  C   UNL     1      -3.324  22.424  -3.755  1.00  0.00     0.134 A 
ATOM     80  C   UNL     1      -5.282  21.072  -3.506  1.00  0.00     0.134 A 
ATOM     81  F   UNL     1      -2.058  22.733  -3.440  1.00  0.00    -0.206 F 
ATOM     82  C   UNL     1      -3.995  23.239  -4.668  1.00  0.00     0.040 A 
ATOM     83  C   UNL     1      -5.958  21.865  -4.434  1.00  0.00     0.040 A 
ATOM     84  F   UNL     1      -5.940  20.036  -2.962  1.00  0.00    -0.206 F 
ATOM     85  C   UNL     1      -5.315  22.956  -5.014  1.00  0.00     0.006 A 
ENDBRANCH  57  78
BRANCH  69  86
ATOM     86  C   UNL     1      -1.538  22.442   3.283  1.00  0.00     0.057 A 
ATOM     87  C   UNL     1      -2.709  22.845   3.937  1.00  0.00     0.134 A 
ATOM     88  C   UNL     1      -0.373  23.180   3.531  1.00  0.00     0.134 A 
ATOM     89  F   UNL     1      -3.862  22.189   3.732  1.00  0.00    -0.206 F 
ATOM     90  C   UNL     1      -2.725  23.952   4.788  1.00  0.00     0.040 A 
ATOM     91  C   UNL     1      -0.371  24.272   4.400  1.00  0.00     0.040 A 
ATOM     92  F   UNL     1       0.785  22.843   2.943  1.00  0.00    -0.206 F 
ATOM     93  C   UNL     1      -1.552  24.664   5.027  1.00  0.00     0.006 A 
ENDBRANCH  69  86
ENDBRANCH  43  44
ENDBRANCH  36  38
ENDBRANCH  35  36
ENDBRANCH  34  35
ENDBRANCH  33  34
ENDBRANCH  32  33
ENDBRANCH  31  32
ENDBRANCH  30  31
ENDBRANCH  29  30
ENDBRANCH   1  29
TORSDOF 23
