REMARK SMILES C/C(=N\Nc1nc(-c2ccc(Cl)cc2)cs1)c1nnn(-c2ccc(C(=O)OCCOCCOC(=O)c3ccc(-c4c5nc(c(-c6c(F)cccc6F)c6ccc([nH]6)c(-c6c(F)cccc6F)c6nc(c(-c7c(F)cccc7F)c7ccc4[nH]7)C=C6)C=C5)cc3)cc2)c1C
REMARK SMILES IDX 28 1 27 2 25 3 26 4 24 5 21 6 22 7 91 8 23 9 90 10 20 11
REMARK SMILES IDX 17 12 18 13 92 14 19 15 93 16 2 17 1 18 3 19 4 20 5 22 6 23
REMARK SMILES IDX 16 24 7 25 15 26 8 27 9 28 14 29 10 30 13 31 11 32 12 33
REMARK SMILES IDX 29 34 30 35 31 36 32 37 33 38 34 39 35 40 36 41 37 42 89 43
REMARK SMILES IDX 38 44 88 45 39 46 40 47 41 48 82 49 42 50 87 51 81 52 83 53
REMARK SMILES IDX 43 54 86 55 80 56 79 57 44 59 70 60 53 61 69 62 54 63 57 64
REMARK SMILES IDX 68 65 84 66 55 67 56 68 67 70 85 71 58 72 45 73 46 74 51 75
REMARK SMILES IDX 47 76 48 77 50 78 52 79 49 80 71 81 72 82 77 83 73 84 74 85
REMARK SMILES IDX 76 86 78 87 75 88 59 89 60 90 65 91 61 92 62 93 64 94 66 95
REMARK SMILES IDX 63 96
REMARK H PARENT 4 21 83 58 57 69
REMARK Flexibility Score: inf
ROOT
ATOM      1  C   UNL     1       9.085   6.274   4.495  1.00  0.00     0.261 C 
ENDROOT
BRANCH   1   2
ATOM      2  O   UNL     1       7.870   6.025   3.772  1.00  0.00    -0.460 OA
BRANCH   2   3
ATOM      3  C   UNL     1       7.077   5.065   4.309  1.00  0.00     0.338 C 
ATOM      4  O   UNL     1       7.320   4.364   5.274  1.00  0.00    -0.246 OA
BRANCH   3   5
ATOM      5  C   UNL     1       5.762   5.062   3.631  1.00  0.00     0.060 A 
ATOM      6  C   UNL     1       3.332   4.639   2.373  1.00  0.00     0.067 A 
ATOM      7  C   UNL     1       3.394   4.539   3.765  1.00  0.00     0.029 A 
ATOM      8  C   UNL     1       4.430   5.097   1.631  1.00  0.00     0.029 A 
ATOM      9  C   UNL     1       4.627   4.730   4.389  1.00  0.00     0.018 A 
ATOM     10  C   UNL     1       5.651   5.314   2.262  1.00  0.00     0.018 A 
BRANCH   6  11
ATOM     11  N   UNL     1       2.259   4.021   1.695  1.00  0.00    -0.217 N 
ATOM     12  C   UNL     1       1.084   2.531   0.622  1.00  0.00     0.132 A 
ATOM     13  N   UNL     1       0.237   3.294   1.376  1.00  0.00    -0.128 NA
ATOM     14  C   UNL     1       2.384   2.982   0.789  1.00  0.00     0.071 A 
ATOM     15  N   UNL     1       0.972   4.141   2.090  1.00  0.00    -0.061 NA
ATOM     16  C   UNL     1       3.675   2.384   0.351  1.00  0.00     0.069 C 
BRANCH  12  17
ATOM     17  C   UNL     1       0.712   1.298  -0.056  1.00  0.00     0.087 C 
ATOM     18  C   UNL     1       1.411   0.064   0.469  1.00  0.00     0.071 C 
ATOM     19  N   UNL     1      -0.097   1.410  -1.074  1.00  0.00    -0.176 NA
BRANCH  19  20
ATOM     20  N   UNL     1      -0.405   0.361  -1.912  1.00  0.00    -0.252 N 
ATOM     21  H   UNL     1      -0.744   0.625  -2.798  1.00  0.00     0.193 HD
BRANCH  20  22
ATOM     22  C   UNL     1      -0.316  -0.979  -1.713  1.00  0.00     0.203 A 
ATOM     23  N   UNL     1      -0.536  -1.603  -0.580  1.00  0.00    -0.219 NA
ATOM     24  S   UNL     1       0.261  -2.014  -2.973  1.00  0.00    -0.103 S 
ATOM     25  C   UNL     1       0.072  -2.841  -0.586  1.00  0.00     0.084 A 
ATOM     26  C   UNL     1       0.576  -3.239  -1.804  1.00  0.00     0.097 A 
BRANCH  25  27
ATOM     27  C   UNL     1       0.236  -3.553   0.667  1.00  0.00     0.001 A 
ATOM     28  C   UNL     1      -0.882  -3.770   1.482  1.00  0.00     0.012 A 
ATOM     29  C   UNL     1       1.511  -3.892   1.142  1.00  0.00     0.012 A 
ATOM     30  C   UNL     1      -0.733  -4.341   2.748  1.00  0.00     0.021 A 
ATOM     31  C   UNL     1       1.661  -4.453   2.414  1.00  0.00     0.021 A 
ATOM     32  C   UNL     1       0.537  -4.678   3.209  1.00  0.00     0.041 A 
ATOM     33  Cl  UNL     1       0.724  -5.357   4.779  1.00  0.00    -0.084 Cl
ENDBRANCH  25  27
ENDBRANCH  20  22
ENDBRANCH  19  20
ENDBRANCH  12  17
ENDBRANCH   6  11
ENDBRANCH   3   5
ENDBRANCH   2   3
ENDBRANCH   1   2
BRANCH   1  34
ATOM     34  C   UNL     1       9.062   7.623   5.216  1.00  0.00     0.202 C 
BRANCH  34  35
ATOM     35  O   UNL     1       8.101   7.809   6.254  1.00  0.00    -0.374 OA
BRANCH  35  36
ATOM     36  C   UNL     1       6.721   7.909   5.926  1.00  0.00     0.202 C 
BRANCH  36  37
ATOM     37  C   UNL     1       6.236   9.146   5.186  1.00  0.00     0.261 C 
BRANCH  37  38
ATOM     38  O   UNL     1       6.866   9.345   3.927  1.00  0.00    -0.460 OA
BRANCH  38  39
ATOM     39  C   UNL     1       7.774  10.351   3.949  1.00  0.00     0.338 C 
ATOM     40  O   UNL     1       8.403  10.750   4.909  1.00  0.00    -0.246 OA
BRANCH  39  41
ATOM     41  C   UNL     1       7.730  11.057   2.663  1.00  0.00     0.060 A 
ATOM     42  C   UNL     1       8.539  12.188   2.555  1.00  0.00     0.016 A 
ATOM     43  C   UNL     1       6.734  10.768   1.716  1.00  0.00     0.016 A 
ATOM     44  C   UNL     1       8.228  13.123   1.594  1.00  0.00     0.010 A 
ATOM     45  C   UNL     1       6.423  11.707   0.756  1.00  0.00     0.010 A 
ATOM     46  C   UNL     1       7.129  12.904   0.748  1.00  0.00    -0.014 A 
BRANCH  46  47
ATOM     47  C   UNL     1       6.894  13.881  -0.295  1.00  0.00     0.031 A 
ATOM     48  C   UNL     1       7.990  13.861  -1.284  1.00  0.00     0.074 A 
ATOM     49  C   UNL     1       5.818  14.685  -0.382  1.00  0.00     0.049 A 
ATOM     50  N   UNL     1       8.977  14.689  -1.335  1.00  0.00    -0.248 NA
ATOM     51  C   UNL     1       8.153  12.675  -2.138  1.00  0.00     0.031 C 
ATOM     52  C   UNL     1       4.580  14.625   0.396  1.00  0.00     0.029 A 
ATOM     53  N   UNL     1       5.585  15.710  -1.252  1.00  0.00    -0.354 N 
ATOM     54  C   UNL     1       9.746  14.275  -2.413  1.00  0.00     0.074 A 
ATOM     55  C   UNL     1       9.331  12.932  -2.713  1.00  0.00     0.031 C 
ATOM     56  C   UNL     1       3.649  15.422  -0.183  1.00  0.00     0.029 A 
ATOM     57  C   UNL     1       4.266  16.154  -1.277  1.00  0.00     0.049 A 
ATOM     58  H   UNL     1       6.291  16.103  -1.815  1.00  0.00     0.167 HD
ATOM     59  C   UNL     1      10.384  15.209  -3.166  1.00  0.00     0.037 A 
ATOM     60  C   UNL     1       3.732  17.040  -2.158  1.00  0.00     0.037 A 
ATOM     61  C   UNL     1      10.471  16.462  -2.448  1.00  0.00     0.049 A 
ATOM     62  C   UNL     1       4.851  17.849  -2.689  1.00  0.00     0.074 A 
ATOM     63  C   UNL     1      11.071  16.918  -1.293  1.00  0.00     0.029 A 
ATOM     64  N   UNL     1       9.479  17.354  -2.759  1.00  0.00    -0.354 N 
ATOM     65  N   UNL     1       5.514  18.718  -1.982  1.00  0.00    -0.248 NA
ATOM     66  C   UNL     1       5.495  17.431  -3.927  1.00  0.00     0.031 C 
ATOM     67  C   UNL     1      10.208  17.937  -0.783  1.00  0.00     0.029 A 
ATOM     68  C   UNL     1       9.147  18.110  -1.672  1.00  0.00     0.049 A 
ATOM     69  H   UNL     1       9.062  17.438  -3.646  1.00  0.00     0.167 HD
ATOM     70  C   UNL     1       6.818  18.594  -2.422  1.00  0.00     0.074 A 
ATOM     71  C   UNL     1       6.714  17.934  -3.721  1.00  0.00     0.031 C 
ATOM     72  C   UNL     1       7.855  18.750  -1.546  1.00  0.00     0.037 A 
BRANCH  59  73
ATOM     73  C   UNL     1      10.384  15.182  -4.685  1.00  0.00     0.057 A 
ATOM     74  C   UNL     1      11.074  16.200  -5.370  1.00  0.00     0.134 A 
ATOM     75  C   UNL     1       9.480  14.443  -5.479  1.00  0.00     0.134 A 
ATOM     76  F   UNL     1      11.946  16.992  -4.726  1.00  0.00    -0.206 F 
ATOM     77  C   UNL     1      10.817  16.513  -6.710  1.00  0.00     0.040 A 
ATOM     78  C   UNL     1       9.254  14.716  -6.830  1.00  0.00     0.040 A 
ATOM     79  F   UNL     1       8.686  13.489  -4.983  1.00  0.00    -0.206 F 
ATOM     80  C   UNL     1       9.897  15.775  -7.443  1.00  0.00     0.006 A 
ENDBRANCH  59  73
BRANCH  60  81
ATOM     81  C   UNL     1       2.389  17.080  -2.786  1.00  0.00     0.057 A 
ATOM     82  C   UNL     1       1.984  18.185  -3.556  1.00  0.00     0.134 A 
ATOM     83  C   UNL     1       1.605  15.923  -2.920  1.00  0.00     0.134 A 
ATOM     84  F   UNL     1       2.680  19.331  -3.525  1.00  0.00    -0.206 F 
ATOM     85  C   UNL     1       0.904  18.124  -4.447  1.00  0.00     0.040 A 
ATOM     86  C   UNL     1       0.520  15.851  -3.802  1.00  0.00     0.040 A 
ATOM     87  F   UNL     1       1.923  14.792  -2.274  1.00  0.00    -0.206 F 
ATOM     88  C   UNL     1       0.179  16.947  -4.586  1.00  0.00     0.006 A 
ENDBRANCH  60  81
BRANCH  72  89
ATOM     89  C   UNL     1       7.578  19.508  -0.279  1.00  0.00     0.057 A 
ATOM     90  C   UNL     1       6.695  19.098   0.731  1.00  0.00     0.134 A 
ATOM     91  C   UNL     1       8.314  20.675  -0.043  1.00  0.00     0.134 A 
ATOM     92  F   UNL     1       6.009  17.951   0.633  1.00  0.00    -0.206 F 
ATOM     93  C   UNL     1       6.523  19.845   1.901  1.00  0.00     0.040 A 
ATOM     94  C   UNL     1       8.179  21.408   1.136  1.00  0.00     0.040 A 
ATOM     95  F   UNL     1       9.207  21.105  -0.949  1.00  0.00    -0.206 F 
ATOM     96  C   UNL     1       7.271  21.001   2.108  1.00  0.00     0.006 A 
ENDBRANCH  72  89
ENDBRANCH  46  47
ENDBRANCH  39  41
ENDBRANCH  38  39
ENDBRANCH  37  38
ENDBRANCH  36  37
ENDBRANCH  35  36
ENDBRANCH  34  35
ENDBRANCH   1  34
TORSDOF 19
