REMARK SMILES CCCCNC(=O)c1c(Cl)c(Cl)c(Cl)c(Cl)c1C(=O)OCCOCCOC(=O)c1ccc(-c2c3nc(c(-c4c(F)cccc4F)c4ccc([nH]4)c(-c4c(F)cccc4F)c4nc(c(-c5c(F)cccc5F)c5ccc2[nH]5)C=C4)C=C3)cc1
REMARK SMILES IDX 22 1 21 2 20 3 18 4 19 5 17 6 8 7 9 8 10 9 11 10 15 11 12 12
REMARK SMILES IDX 13 13 16 14 14 15 6 16 5 17 7 19 4 20 3 21 2 22 1 23 23 24
REMARK SMILES IDX 24 25 25 26 26 27 27 28 28 29 29 30 30 31 82 32 31 33 81 34
REMARK SMILES IDX 32 35 33 36 34 37 75 38 35 39 80 40 74 41 76 42 36 43 79 44
REMARK SMILES IDX 73 45 72 46 37 48 63 49 46 50 62 51 47 52 50 53 61 54 77 55
REMARK SMILES IDX 48 56 49 57 60 59 78 60 51 61 38 62 39 63 44 64 40 65 41 66
REMARK SMILES IDX 43 67 45 68 42 69 64 70 65 71 70 72 66 73 67 74 69 75 71 76
REMARK SMILES IDX 68 77 52 78 53 79 58 80 54 81 55 82 57 83 59 84 56 85
REMARK H PARENT 5 18 76 47 50 58
REMARK Flexibility Score: inf
ROOT
ATOM      1  C   UNL     1      -4.498   6.189  -1.815  1.00  0.00     0.202 C 
ENDROOT
BRANCH   1   2
ATOM      2  C   UNL     1      -4.587   5.268  -3.031  1.00  0.00     0.261 C 
BRANCH   2   3
ATOM      3  O   UNL     1      -3.288   4.742  -3.355  1.00  0.00    -0.460 OA
BRANCH   3   4
ATOM      4  C   UNL     1      -3.161   4.385  -4.646  1.00  0.00     0.340 C 
ATOM      5  O   UNL     1      -4.042   4.325  -5.497  1.00  0.00    -0.246 OA
BRANCH   4   6
ATOM      6  C   UNL     1      -1.742   4.237  -4.995  1.00  0.00     0.094 A 
ATOM      7  C   UNL     1      -1.047   3.061  -4.677  1.00  0.00     0.076 A 
ATOM      8  C   UNL     1       0.154   2.773  -5.341  1.00  0.00     0.074 A 
ATOM      9  Cl  UNL     1       0.838   1.175  -5.248  1.00  0.00    -0.082 Cl
ATOM     10  C   UNL     1       0.759   3.752  -6.152  1.00  0.00     0.080 A 
ATOM     11  C   UNL     1      -1.147   5.221  -5.802  1.00  0.00     0.076 A 
ATOM     12  Cl  UNL     1       2.301   3.432  -6.895  1.00  0.00    -0.081 Cl
ATOM     13  C   UNL     1       0.128   4.995  -6.347  1.00  0.00     0.080 A 
ATOM     14  Cl  UNL     1      -1.964   6.734  -6.077  1.00  0.00    -0.082 Cl
ATOM     15  Cl  UNL     1       0.912   6.238  -7.280  1.00  0.00    -0.081 Cl
BRANCH   7  16
ATOM     16  C   UNL     1      -1.607   2.160  -3.649  1.00  0.00     0.253 C 
ATOM     17  N   UNL     1      -0.903   1.907  -2.493  1.00  0.00    -0.352 N 
ATOM     18  H   UNL     1      -1.409   1.431  -1.794  1.00  0.00     0.163 HD
ATOM     19  O   UNL     1      -2.730   1.697  -3.808  1.00  0.00    -0.269 OA
BRANCH  17  20
ATOM     20  C   UNL     1       0.473   2.234  -2.141  1.00  0.00     0.116 C 
BRANCH  20  21
ATOM     21  C   UNL     1       0.690   2.536  -0.661  1.00  0.00     0.021 C 
BRANCH  21  22
ATOM     22  C   UNL     1       0.306   1.423   0.316  1.00  0.00    -0.002 C 
ATOM     23  C   UNL     1       1.006   0.097   0.058  1.00  0.00     0.004 C 
ENDBRANCH  21  22
ENDBRANCH  20  21
ENDBRANCH  17  20
ENDBRANCH   7  16
ENDBRANCH   4   6
ENDBRANCH   3   4
ENDBRANCH   2   3
ENDBRANCH   1   2
BRANCH   1  24
ATOM     24  O   UNL     1      -3.789   7.414  -2.019  1.00  0.00    -0.374 OA
BRANCH  24  25
ATOM     25  C   UNL     1      -2.382   7.338  -2.234  1.00  0.00     0.202 C 
BRANCH  25  26
ATOM     26  C   UNL     1      -1.514   7.139  -0.986  1.00  0.00     0.261 C 
BRANCH  26  27
ATOM     27  O   UNL     1      -1.851   5.952  -0.249  1.00  0.00    -0.460 OA
BRANCH  27  28
ATOM     28  C   UNL     1      -2.466   6.193   0.934  1.00  0.00     0.338 C 
ATOM     29  O   UNL     1      -2.669   7.281   1.455  1.00  0.00    -0.246 OA
BRANCH  28  30
ATOM     30  C   UNL     1      -3.007   4.949   1.511  1.00  0.00     0.060 A 
ATOM     31  C   UNL     1      -4.348   4.957   1.911  1.00  0.00     0.016 A 
ATOM     32  C   UNL     1      -2.193   3.847   1.780  1.00  0.00     0.016 A 
ATOM     33  C   UNL     1      -4.860   3.893   2.647  1.00  0.00     0.010 A 
ATOM     34  C   UNL     1      -2.710   2.774   2.516  1.00  0.00     0.010 A 
ATOM     35  C   UNL     1      -4.029   2.821   3.000  1.00  0.00    -0.014 A 
BRANCH  35  36
ATOM     36  C   UNL     1      -4.496   1.875   4.043  1.00  0.00     0.031 A 
ATOM     37  C   UNL     1      -4.061   2.094   5.467  1.00  0.00     0.074 A 
ATOM     38  C   UNL     1      -5.349   0.882   3.744  1.00  0.00     0.049 A 
ATOM     39  N   UNL     1      -4.420   1.457   6.553  1.00  0.00    -0.248 NA
ATOM     40  C   UNL     1      -3.090   3.176   5.698  1.00  0.00     0.031 C 
ATOM     41  C   UNL     1      -5.848   0.568   2.408  1.00  0.00     0.029 A 
ATOM     42  N   UNL     1      -5.953  -0.042   4.559  1.00  0.00    -0.354 N 
ATOM     43  C   UNL     1      -3.721   2.060   7.591  1.00  0.00     0.074 A 
ATOM     44  C   UNL     1      -2.888   3.086   7.003  1.00  0.00     0.031 C 
ATOM     45  C   UNL     1      -6.687  -0.479   2.493  1.00  0.00     0.029 A 
ATOM     46  C   UNL     1      -6.780  -0.908   3.888  1.00  0.00     0.049 A 
ATOM     47  H   UNL     1      -5.808  -0.080   5.532  1.00  0.00     0.167 HD
ATOM     48  C   UNL     1      -3.778   1.796   8.918  1.00  0.00     0.037 A 
ATOM     49  C   UNL     1      -7.530  -1.926   4.350  1.00  0.00     0.037 A 
ATOM     50  C   UNL     1      -4.612   0.785   9.510  1.00  0.00     0.049 A 
ATOM     51  C   UNL     1      -7.578  -2.205   5.828  1.00  0.00     0.074 A 
ATOM     52  C   UNL     1      -4.764   0.463  10.847  1.00  0.00     0.029 A 
ATOM     53  N   UNL     1      -5.433  -0.073   8.795  1.00  0.00    -0.354 N 
ATOM     54  N   UNL     1      -6.954  -1.593   6.806  1.00  0.00    -0.248 NA
ATOM     55  C   UNL     1      -8.450  -3.304   6.267  1.00  0.00     0.031 C 
ATOM     56  C   UNL     1      -5.652  -0.616  10.939  1.00  0.00     0.029 A 
ATOM     57  C   UNL     1      -6.082  -0.938   9.661  1.00  0.00     0.049 A 
ATOM     58  H   UNL     1      -5.540  -0.069   7.816  1.00  0.00     0.167 HD
ATOM     59  C   UNL     1      -7.375  -2.216   7.975  1.00  0.00     0.074 A 
ATOM     60  C   UNL     1      -8.316  -3.245   7.585  1.00  0.00     0.031 C 
ATOM     61  C   UNL     1      -7.017  -1.956   9.257  1.00  0.00     0.037 A 
BRANCH  48  62
ATOM     62  C   UNL     1      -2.894   2.612   9.813  1.00  0.00     0.057 A 
ATOM     63  C   UNL     1      -3.165   3.957  10.094  1.00  0.00     0.134 A 
ATOM     64  C   UNL     1      -1.755   2.045  10.399  1.00  0.00     0.134 A 
ATOM     65  F   UNL     1      -4.230   4.564   9.549  1.00  0.00    -0.206 F 
ATOM     66  C   UNL     1      -2.320   4.718  10.904  1.00  0.00     0.040 A 
ATOM     67  C   UNL     1      -0.915   2.789  11.228  1.00  0.00     0.040 A 
ATOM     68  F   UNL     1      -1.439   0.761  10.170  1.00  0.00    -0.206 F 
ATOM     69  C   UNL     1      -1.192   4.132  11.477  1.00  0.00     0.006 A 
ENDBRANCH  48  62
BRANCH  49  70
ATOM     70  C   UNL     1      -8.320  -2.744   3.399  1.00  0.00     0.057 A 
ATOM     71  C   UNL     1      -9.712  -2.631   3.322  1.00  0.00     0.134 A 
ATOM     72  C   UNL     1      -7.695  -3.656   2.540  1.00  0.00     0.134 A 
ATOM     73  F   UNL     1     -10.366  -1.790   4.136  1.00  0.00    -0.206 F 
ATOM     74  C   UNL     1     -10.458  -3.404   2.431  1.00  0.00     0.040 A 
ATOM     75  C   UNL     1      -8.427  -4.421   1.631  1.00  0.00     0.040 A 
ATOM     76  F   UNL     1      -6.363  -3.807   2.567  1.00  0.00    -0.206 F 
ATOM     77  C   UNL     1      -9.814  -4.298   1.578  1.00  0.00     0.006 A 
ENDBRANCH  49  70
BRANCH  61  78
ATOM     78  C   UNL     1      -7.664  -2.781  10.329  1.00  0.00     0.057 A 
ATOM     79  C   UNL     1      -7.308  -4.118  10.547  1.00  0.00     0.134 A 
ATOM     80  C   UNL     1      -8.633  -2.222  11.172  1.00  0.00     0.134 A 
ATOM     81  F   UNL     1      -6.394  -4.714   9.767  1.00  0.00    -0.206 F 
ATOM     82  C   UNL     1      -7.912  -4.878  11.551  1.00  0.00     0.040 A 
ATOM     83  C   UNL     1      -9.227  -2.965  12.193  1.00  0.00     0.040 A 
ATOM     84  F   UNL     1      -9.011  -0.944  11.021  1.00  0.00    -0.206 F 
ATOM     85  C   UNL     1      -8.871  -4.299  12.380  1.00  0.00     0.006 A 
ENDBRANCH  61  78
ENDBRANCH  35  36
ENDBRANCH  28  30
ENDBRANCH  27  28
ENDBRANCH  26  27
ENDBRANCH  25  26
ENDBRANCH  24  25
ENDBRANCH   1  24
TORSDOF 18
