REMARK SMILES O=C(Cc1cccc(-c2ccn(C(F)F)c(=O)c2)c1)OCCOCCOC(=O)c1ccc(-c2c3nc(c(-c4c(F)cccc4F)c4ccc([nH]4)c(-c4c(F)cccc4F)c4nc(c(-c5c(F)cccc5F)c5ccc2[nH]5)C=C4)C=C3)cc1
REMARK SMILES IDX 22 1 21 2 20 3 2 4 1 5 3 6 4 7 5 8 19 9 6 10 8 11 7 12 9 13
REMARK SMILES IDX 10 14 18 15 11 16 16 17 12 18 17 19 13 20 14 21 15 22 23 23
REMARK SMILES IDX 24 24 25 25 26 26 27 27 28 28 29 29 30 30 82 31 31 32 81 33
REMARK SMILES IDX 32 34 33 35 34 36 75 37 35 38 80 39 74 40 76 41 36 42 79 43
REMARK SMILES IDX 73 44 72 45 37 47 63 48 46 49 62 50 47 51 50 52 61 53 77 54
REMARK SMILES IDX 48 55 49 56 60 58 78 59 51 60 38 61 39 62 44 63 40 64 41 65
REMARK SMILES IDX 43 66 45 67 42 68 64 69 65 70 70 71 66 72 67 73 69 74 71 75
REMARK SMILES IDX 68 76 52 77 53 78 58 79 54 80 55 81 57 82 59 83 56 84
REMARK H PARENT 76 46 50 57
REMARK Flexibility Score: inf
ROOT
ATOM      1  C   UNL     1       4.651  -0.670   0.943  1.00  0.00     0.202 C 
ENDROOT
BRANCH   1   2
ATOM      2  C   UNL     1       4.112   0.652   0.412  1.00  0.00     0.261 C 
BRANCH   2   3
ATOM      3  O   UNL     1       2.679   0.717   0.315  1.00  0.00    -0.463 OA
BRANCH   3   4
ATOM      4  C   UNL     1       1.919   0.278  -0.719  1.00  0.00     0.310 C 
ATOM      5  O   UNL     1       0.692   0.314  -0.610  1.00  0.00    -0.252 OA
BRANCH   4   6
ATOM      6  C   UNL     1       2.562  -0.289  -1.974  1.00  0.00     0.158 C 
BRANCH   6   7
ATOM      7  C   UNL     1       3.589   0.607  -2.611  1.00  0.00    -0.036 A 
ATOM      8  C   UNL     1       4.832   0.115  -3.027  1.00  0.00     0.004 A 
ATOM      9  C   UNL     1       3.352   1.982  -2.647  1.00  0.00     0.013 A 
ATOM     10  C   UNL     1       5.849   1.004  -3.385  1.00  0.00     0.001 A 
ATOM     11  C   UNL     1       4.387   2.875  -2.936  1.00  0.00    -0.018 A 
ATOM     12  C   UNL     1       5.638   2.386  -3.313  1.00  0.00     0.009 A 
BRANCH  11  13
ATOM     13  C   UNL     1       4.095   4.291  -2.686  1.00  0.00    -0.011 A 
ATOM     14  C   UNL     1       4.060   4.833  -1.340  1.00  0.00     0.027 A 
ATOM     15  C   UNL     1       3.622   5.019  -3.709  1.00  0.00     0.080 A 
ATOM     16  C   UNL     1       3.475   6.012  -1.104  1.00  0.00     0.095 A 
ATOM     17  C   UNL     1       3.012   6.354  -3.464  1.00  0.00     0.255 A 
ATOM     18  N   UNL     1       2.943   6.757  -2.139  1.00  0.00    -0.258 N 
ATOM     19  O   UNL     1       2.577   6.980  -4.425  1.00  0.00    -0.269 OA
BRANCH  18  20
ATOM     20  C   UNL     1       2.242   7.984  -1.867  1.00  0.00     0.451 C 
ATOM     21  F   UNL     1       2.796   9.025  -2.534  1.00  0.00    -0.185 F 
ATOM     22  F   UNL     1       0.942   7.888  -2.239  1.00  0.00    -0.185 F 
ENDBRANCH  18  20
ENDBRANCH  11  13
ENDBRANCH   6   7
ENDBRANCH   4   6
ENDBRANCH   3   4
ENDBRANCH   2   3
ENDBRANCH   1   2
BRANCH   1  23
ATOM     23  O   UNL     1       4.120  -1.860   0.373  1.00  0.00    -0.374 OA
BRANCH  23  24
ATOM     24  C   UNL     1       2.880  -2.330   0.917  1.00  0.00     0.202 C 
BRANCH  24  25
ATOM     25  C   UNL     1       2.951  -3.085   2.248  1.00  0.00     0.261 C 
BRANCH  25  26
ATOM     26  O   UNL     1       3.314  -2.213   3.331  1.00  0.00    -0.460 OA
BRANCH  26  27
ATOM     27  C   UNL     1       4.599  -2.323   3.734  1.00  0.00     0.338 C 
ATOM     28  O   UNL     1       5.428  -3.136   3.345  1.00  0.00    -0.246 OA
BRANCH  27  29
ATOM     29  C   UNL     1       4.960  -1.174   4.587  1.00  0.00     0.060 A 
ATOM     30  C   UNL     1       6.215  -0.589   4.371  1.00  0.00     0.016 A 
ATOM     31  C   UNL     1       4.128  -0.720   5.613  1.00  0.00     0.016 A 
ATOM     32  C   UNL     1       6.695   0.369   5.254  1.00  0.00     0.010 A 
ATOM     33  C   UNL     1       4.611   0.244   6.501  1.00  0.00     0.010 A 
ATOM     34  C   UNL     1       5.922   0.734   6.363  1.00  0.00    -0.014 A 
BRANCH  34  35
ATOM     35  C   UNL     1       6.589   1.419   7.492  1.00  0.00     0.031 A 
ATOM     36  C   UNL     1       7.031   0.586   8.666  1.00  0.00     0.074 A 
ATOM     37  C   UNL     1       6.864   2.732   7.439  1.00  0.00     0.049 A 
ATOM     38  N   UNL     1       7.658   0.948   9.755  1.00  0.00    -0.248 NA
ATOM     39  C   UNL     1       6.721  -0.853   8.604  1.00  0.00     0.031 C 
ATOM     40  C   UNL     1       6.524   3.623   6.331  1.00  0.00     0.029 A 
ATOM     41  N   UNL     1       7.502   3.541   8.342  1.00  0.00    -0.354 N 
ATOM     42  C   UNL     1       7.803  -0.211  10.509  1.00  0.00     0.074 A 
ATOM     43  C   UNL     1       7.168  -1.281   9.773  1.00  0.00     0.031 C 
ATOM     44  C   UNL     1       6.963   4.860   6.619  1.00  0.00     0.029 A 
ATOM     45  C   UNL     1       7.588   4.851   7.940  1.00  0.00     0.049 A 
ATOM     46  H   UNL     1       7.865   3.215   9.197  1.00  0.00     0.167 HD
ATOM     47  C   UNL     1       8.420  -0.371  11.703  1.00  0.00     0.037 A 
ATOM     48  C   UNL     1       8.107   5.917   8.577  1.00  0.00     0.037 A 
ATOM     49  C   UNL     1       9.059   0.698  12.422  1.00  0.00     0.049 A 
ATOM     50  C   UNL     1       8.741   5.723   9.929  1.00  0.00     0.074 A 
ATOM     51  C   UNL     1       9.734   0.645  13.628  1.00  0.00     0.029 A 
ATOM     52  N   UNL     1       9.093   2.019  12.000  1.00  0.00    -0.354 N 
ATOM     53  N   UNL     1       8.899   4.619  10.621  1.00  0.00    -0.248 NA
ATOM     54  C   UNL     1       9.279   6.923  10.583  1.00  0.00     0.031 C 
ATOM     55  C   UNL     1      10.130   1.945  13.962  1.00  0.00     0.029 A 
ATOM     56  C   UNL     1       9.757   2.796  12.934  1.00  0.00     0.049 A 
ATOM     57  H   UNL     1       8.704   2.354  11.160  1.00  0.00     0.167 HD
ATOM     58  C   UNL     1       9.586   4.985  11.772  1.00  0.00     0.074 A 
ATOM     59  C   UNL     1       9.824   6.411  11.677  1.00  0.00     0.031 C 
ATOM     60  C   UNL     1       9.990   4.213  12.812  1.00  0.00     0.037 A 
BRANCH  47  61
ATOM     61  C   UNL     1       8.399  -1.742  12.316  1.00  0.00     0.057 A 
ATOM     62  C   UNL     1       9.129  -2.812  11.781  1.00  0.00     0.134 A 
ATOM     63  C   UNL     1       7.645  -1.992  13.470  1.00  0.00     0.134 A 
ATOM     64  F   UNL     1       9.857  -2.649  10.666  1.00  0.00    -0.206 F 
ATOM     65  C   UNL     1       9.088  -4.085  12.355  1.00  0.00     0.040 A 
ATOM     66  C   UNL     1       7.619  -3.252  14.070  1.00  0.00     0.040 A 
ATOM     67  F   UNL     1       6.922  -1.013  14.036  1.00  0.00    -0.206 F 
ATOM     68  C   UNL     1       8.337  -4.305  13.508  1.00  0.00     0.006 A 
ENDBRANCH  47  61
BRANCH  48  69
ATOM     69  C   UNL     1       8.062   7.259   7.943  1.00  0.00     0.057 A 
ATOM     70  C   UNL     1       9.231   7.899   7.516  1.00  0.00     0.134 A 
ATOM     71  C   UNL     1       6.853   7.941   7.766  1.00  0.00     0.134 A 
ATOM     72  F   UNL     1      10.423   7.305   7.676  1.00  0.00    -0.206 F 
ATOM     73  C   UNL     1       9.203   9.178   6.956  1.00  0.00     0.040 A 
ATOM     74  C   UNL     1       6.806   9.208   7.183  1.00  0.00     0.040 A 
ATOM     75  F   UNL     1       5.696   7.380   8.148  1.00  0.00    -0.206 F 
ATOM     76  C   UNL     1       7.985   9.834   6.784  1.00  0.00     0.006 A 
ENDBRANCH  48  69
BRANCH  60  77
ATOM     77  C   UNL     1      10.777   4.887  13.900  1.00  0.00     0.057 A 
ATOM     78  C   UNL     1      10.192   5.796  14.791  1.00  0.00     0.134 A 
ATOM     79  C   UNL     1      12.138   4.601  14.070  1.00  0.00     0.134 A 
ATOM     80  F   UNL     1       8.895   6.122  14.676  1.00  0.00    -0.206 F 
ATOM     81  C   UNL     1      10.940   6.423  15.789  1.00  0.00     0.040 A 
ATOM     82  C   UNL     1      12.889   5.196  15.085  1.00  0.00     0.040 A 
ATOM     83  F   UNL     1      12.758   3.729  13.260  1.00  0.00    -0.206 F 
ATOM     84  C   UNL     1      12.292   6.118  15.941  1.00  0.00     0.006 A 
ENDBRANCH  60  77
ENDBRANCH  34  35
ENDBRANCH  27  29
ENDBRANCH  26  27
ENDBRANCH  25  26
ENDBRANCH  24  25
ENDBRANCH  23  24
ENDBRANCH   1  23
TORSDOF 17
