REMARK SMILES CC[C@H](Oc1ccccc1/C=C1\SC(N)=[NH+]C1=O)C(=O)OCCOCCOC(=O)c1ccc(-c2c3nc(c(-c4c(F)cccc4F)c4ccc([nH]4)c(-c4c(F)cccc4F)c4nc(c(-c5c(F)cccc5F)c5ccc2[nH]5)C=C4)C=C3)cc1
REMARK SMILES IDX 23 1 22 2 21 3 19 4 20 5 3 6 2 7 1 8 4 9 5 10 6 11 10 12
REMARK SMILES IDX 7 13 9 14 8 15 11 16 12 17 13 18 17 19 14 20 16 21 18 22
REMARK SMILES IDX 15 23 24 27 25 28 26 29 27 30 28 31 29 32 30 33 31 34 83 35
REMARK SMILES IDX 32 36 82 37 33 38 34 39 35 40 76 41 36 42 81 43 75 44 77 45
REMARK SMILES IDX 37 46 80 47 74 48 73 49 38 51 64 52 47 53 63 54 48 55 51 56
REMARK SMILES IDX 62 57 78 58 49 59 50 60 61 62 79 63 52 64 39 65 40 66 45 67
REMARK SMILES IDX 41 68 42 69 44 70 46 71 43 72 65 73 66 74 71 75 67 76 68 77
REMARK SMILES IDX 70 78 72 79 69 80 53 81 54 82 59 83 55 84 56 85 58 86 60 87
REMARK SMILES IDX 57 88
REMARK H PARENT 16 24 15 25 15 26 77 50 51 61
REMARK Flexibility Score: inf
ROOT
ATOM      1  C   UNL     1      -0.111  -6.332   0.280  1.00  0.00     0.202 C 
ENDROOT
BRANCH   1   2
ATOM      2  C   UNL     1      -0.444  -5.270   1.334  1.00  0.00     0.261 C 
BRANCH   2   3
ATOM      3  O   UNL     1      -0.163  -3.906   0.994  1.00  0.00    -0.461 OA
BRANCH   3   4
ATOM      4  C   UNL     1       0.992  -3.399   1.534  1.00  0.00     0.347 C 
ATOM      5  O   UNL     1       1.878  -4.082   2.038  1.00  0.00    -0.248 OA
BRANCH   4   6
ATOM      6  C   UNL     1       0.946  -1.862   1.643  1.00  0.00     0.282 C 
BRANCH   6   7
ATOM      7  C   UNL     1       0.059  -1.722   2.917  1.00  0.00     0.054 C 
ATOM      8  C   UNL     1      -0.252  -0.375   3.534  1.00  0.00     0.008 C 
ENDBRANCH   6   7
BRANCH   6   9
ATOM      9  O   UNL     1       0.526  -1.318   0.378  1.00  0.00    -0.478 OA
BRANCH   9  10
ATOM     10  C   UNL     1       0.453   0.039   0.188  1.00  0.00     0.127 A 
ATOM     11  C   UNL     1       0.835   0.980   1.136  1.00  0.00     0.047 A 
ATOM     12  C   UNL     1      -0.119   0.524  -1.004  1.00  0.00     0.018 A 
ATOM     13  C   UNL     1       0.315   2.276   1.100  1.00  0.00     0.004 A 
ATOM     14  C   UNL     1      -0.677   1.813  -1.032  1.00  0.00     0.012 A 
ATOM     15  C   UNL     1      -0.515   2.665   0.057  1.00  0.00     0.001 A 
BRANCH  12  16
ATOM     16  C   UNL     1       0.309  -0.013  -2.310  1.00  0.00     0.036 C 
ATOM     17  C   UNL     1      -0.354  -0.668  -3.264  1.00  0.00     0.110 C 
ATOM     18  S   UNL     1      -1.942  -1.286  -3.266  1.00  0.00     0.006 SA
ATOM     19  C   UNL     1       0.329  -1.072  -4.535  1.00  0.00     0.346 C 
ATOM     20  C   UNL     1      -1.485  -2.334  -4.591  1.00  0.00     0.314 C 
ATOM     21  N   UNL     1      -0.346  -2.108  -5.145  1.00  0.00    -0.200 N 
ATOM     22  O   UNL     1       1.353  -0.559  -4.946  1.00  0.00    -0.240 OA
ATOM     23  N   UNL     1      -2.306  -3.347  -4.929  1.00  0.00    -0.281 N 
ATOM     24  H   UNL     1       0.003  -2.614  -5.913  1.00  0.00     0.316 HD
ATOM     25  H   UNL     1      -3.165  -3.462  -4.463  1.00  0.00     0.302 HD
ATOM     26  H   UNL     1      -2.046  -3.973  -5.644  1.00  0.00     0.302 HD
ENDBRANCH  12  16
ENDBRANCH   9  10
ENDBRANCH   6   9
ENDBRANCH   4   6
ENDBRANCH   3   4
ENDBRANCH   2   3
ENDBRANCH   1   2
BRANCH   1  27
ATOM     27  O   UNL     1       1.074  -6.232  -0.490  1.00  0.00    -0.374 OA
BRANCH  27  28
ATOM     28  C   UNL     1       1.331  -5.056  -1.244  1.00  0.00     0.202 C 
BRANCH  28  29
ATOM     29  C   UNL     1       0.308  -4.553  -2.269  1.00  0.00     0.261 C 
BRANCH  29  30
ATOM     30  O   UNL     1      -1.054  -4.497  -1.817  1.00  0.00    -0.460 OA
BRANCH  30  31
ATOM     31  C   UNL     1      -1.839  -5.470  -2.336  1.00  0.00     0.338 C 
ATOM     32  O   UNL     1      -1.491  -6.377  -3.076  1.00  0.00    -0.246 OA
BRANCH  31  33
ATOM     33  C   UNL     1      -3.241  -5.358  -1.894  1.00  0.00     0.060 A 
ATOM     34  C   UNL     1      -3.934  -6.544  -1.633  1.00  0.00     0.016 A 
ATOM     35  C   UNL     1      -3.922  -4.144  -1.958  1.00  0.00     0.016 A 
ATOM     36  C   UNL     1      -5.323  -6.530  -1.559  1.00  0.00     0.010 A 
ATOM     37  C   UNL     1      -5.311  -4.132  -1.933  1.00  0.00     0.010 A 
ATOM     38  C   UNL     1      -6.014  -5.332  -1.776  1.00  0.00    -0.014 A 
BRANCH  38  39
ATOM     39  C   UNL     1      -7.486  -5.307  -1.800  1.00  0.00     0.031 A 
ATOM     40  C   UNL     1      -8.229  -5.370  -3.100  1.00  0.00     0.074 A 
ATOM     41  C   UNL     1      -8.120  -5.136  -0.630  1.00  0.00     0.049 A 
ATOM     42  N   UNL     1      -9.519  -5.356  -3.311  1.00  0.00    -0.248 NA
ATOM     43  C   UNL     1      -7.418  -5.436  -4.326  1.00  0.00     0.031 C 
ATOM     44  C   UNL     1      -7.455  -5.001   0.667  1.00  0.00     0.029 A 
ATOM     45  N   UNL     1      -9.450  -5.014  -0.346  1.00  0.00    -0.354 N 
ATOM     46  C   UNL     1      -9.680  -5.424  -4.690  1.00  0.00     0.074 A 
ATOM     47  C   UNL     1      -8.353  -5.433  -5.269  1.00  0.00     0.031 C 
ATOM     48  C   UNL     1      -8.383  -4.794   1.611  1.00  0.00     0.029 A 
ATOM     49  C   UNL     1      -9.699  -4.778   0.982  1.00  0.00     0.049 A 
ATOM     50  H   UNL     1     -10.159  -5.088  -1.025  1.00  0.00     0.167 HD
ATOM     51  C   UNL     1     -10.836  -5.484  -5.394  1.00  0.00     0.037 A 
ATOM     52  C   UNL     1     -10.867  -4.572   1.613  1.00  0.00     0.037 A 
ATOM     53  C   UNL     1     -12.141  -5.440  -4.781  1.00  0.00     0.049 A 
ATOM     54  C   UNL     1     -12.132  -4.642   0.809  1.00  0.00     0.074 A 
ATOM     55  C   UNL     1     -13.384  -5.556  -5.378  1.00  0.00     0.029 A 
ATOM     56  N   UNL     1     -12.367  -5.241  -3.424  1.00  0.00    -0.354 N 
ATOM     57  N   UNL     1     -12.282  -4.830  -0.481  1.00  0.00    -0.248 NA
ATOM     58  C   UNL     1     -13.390  -4.498   1.549  1.00  0.00     0.031 C 
ATOM     59  C   UNL     1     -14.360  -5.367  -4.393  1.00  0.00     0.029 A 
ATOM     60  C   UNL     1     -13.727  -5.200  -3.170  1.00  0.00     0.049 A 
ATOM     61  H   UNL     1     -11.662  -5.143  -2.744  1.00  0.00     0.167 HD
ATOM     62  C   UNL     1     -13.651  -4.861  -0.705  1.00  0.00     0.074 A 
ATOM     63  C   UNL     1     -14.284  -4.689   0.589  1.00  0.00     0.031 C 
ATOM     64  C   UNL     1     -14.327  -5.021  -1.870  1.00  0.00     0.037 A 
BRANCH  51  65
ATOM     65  C   UNL     1     -10.750  -5.599  -6.893  1.00  0.00     0.057 A 
ATOM     66  C   UNL     1     -10.256  -6.752  -7.519  1.00  0.00     0.134 A 
ATOM     67  C   UNL     1     -11.223  -4.574  -7.724  1.00  0.00     0.134 A 
ATOM     68  F   UNL     1      -9.784  -7.773  -6.788  1.00  0.00    -0.206 F 
ATOM     69  C   UNL     1     -10.216  -6.872  -8.911  1.00  0.00     0.040 A 
ATOM     70  C   UNL     1     -11.214  -4.694  -9.116  1.00  0.00     0.040 A 
ATOM     71  F   UNL     1     -11.719  -3.444  -7.198  1.00  0.00    -0.206 F 
ATOM     72  C   UNL     1     -10.703  -5.844  -9.714  1.00  0.00     0.006 A 
ENDBRANCH  51  65
BRANCH  52  73
ATOM     73  C   UNL     1     -10.879  -4.344   3.077  1.00  0.00     0.057 A 
ATOM     74  C   UNL     1     -11.374  -5.317   3.951  1.00  0.00     0.134 A 
ATOM     75  C   UNL     1     -10.366  -3.170   3.641  1.00  0.00     0.134 A 
ATOM     76  F   UNL     1     -11.879  -6.463   3.469  1.00  0.00    -0.206 F 
ATOM     77  C   UNL     1     -11.383  -5.122   5.332  1.00  0.00     0.040 A 
ATOM     78  C   UNL     1     -10.343  -2.973   5.022  1.00  0.00     0.040 A 
ATOM     79  F   UNL     1      -9.852  -2.209   2.858  1.00  0.00    -0.206 F 
ATOM     80  C   UNL     1     -10.861  -3.948   5.871  1.00  0.00     0.006 A 
ENDBRANCH  52  73
BRANCH  64  81
ATOM     81  C   UNL     1     -15.825  -5.046  -1.783  1.00  0.00     0.057 A 
ATOM     82  C   UNL     1     -16.570  -3.898  -1.484  1.00  0.00     0.134 A 
ATOM     83  C   UNL     1     -16.531  -6.232  -2.025  1.00  0.00     0.134 A 
ATOM     84  F   UNL     1     -15.953  -2.734  -1.228  1.00  0.00    -0.206 F 
ATOM     85  C   UNL     1     -17.962  -3.936  -1.397  1.00  0.00     0.040 A 
ATOM     86  C   UNL     1     -17.924  -6.274  -1.974  1.00  0.00     0.040 A 
ATOM     87  F   UNL     1     -15.878  -7.365  -2.325  1.00  0.00    -0.206 F 
ATOM     88  C   UNL     1     -18.643  -5.126  -1.650  1.00  0.00     0.006 A 
ENDBRANCH  64  81
ENDBRANCH  38  39
ENDBRANCH  31  33
ENDBRANCH  30  31
ENDBRANCH  29  30
ENDBRANCH  28  29
ENDBRANCH  27  28
ENDBRANCH   1  27
TORSDOF 18
