REMARK SMILES CC[C@@H](C)[C@@H](NC(N)=O)C(=O)N1CCC[C@H](C(=O)OCCOCCOC(=O)c2ccc(-c3c4nc(c(-c5c(F)cccc5F)c5ccc([nH]5)c(-c5c(F)cccc5F)c5nc(c(-c6c(F)cccc6F)c6ccc3[nH]6)C=C5)C=C4)cc2)C1
REMARK SMILES IDX 21 1 20 2 19 3 17 4 18 5 16 6 12 7 13 8 82 9 14 10 15 11
REMARK SMILES IDX 10 12 11 13 5 14 3 15 4 16 2 17 1 18 6 19 7 20 8 22 9 23
REMARK SMILES IDX 22 26 23 27 24 28 25 29 26 30 27 31 28 32 29 33 81 34 30 35
REMARK SMILES IDX 80 36 31 37 32 38 33 39 74 40 34 41 79 42 73 43 75 44 35 45
REMARK SMILES IDX 78 46 72 47 71 48 36 50 62 51 45 52 61 53 46 54 49 55 60 56
REMARK SMILES IDX 76 57 47 58 48 59 59 61 77 62 50 63 37 64 38 65 43 66 39 67
REMARK SMILES IDX 40 68 42 69 44 70 41 71 63 72 64 73 69 74 65 75 66 76 68 77
REMARK SMILES IDX 70 78 67 79 51 80 52 81 57 82 53 83 54 84 56 85 58 86 55 87
REMARK H PARENT 6 21 8 24 8 25 75 49 49 60
REMARK Flexibility Score: inf
ROOT
ATOM      1  C   UNL     1       1.646   1.207   7.274  1.00  0.00     0.202 C 
ENDROOT
BRANCH   1   2
ATOM      2  C   UNL     1       1.436   0.511   5.930  1.00  0.00     0.261 C 
BRANCH   2   3
ATOM      3  O   UNL     1       2.443  -0.488   5.694  1.00  0.00    -0.463 OA
BRANCH   3   4
ATOM      4  C   UNL     1       3.178  -0.388   4.559  1.00  0.00     0.310 C 
ATOM      5  O   UNL     1       3.038   0.480   3.705  1.00  0.00    -0.252 OA
BRANCH   4   6
ATOM      6  C   UNL     1       4.198  -1.508   4.414  1.00  0.00     0.119 C 
ATOM      7  N   UNL     1       2.570  -3.290   4.140  1.00  0.00    -0.340 N 
ATOM      8  C   UNL     1       2.975  -4.017   5.334  1.00  0.00     0.119 C 
ATOM      9  C   UNL     1       3.643  -2.573   3.469  1.00  0.00     0.134 C 
ATOM     10  C   UNL     1       3.662  -3.116   6.356  1.00  0.00     0.022 C 
ATOM     11  C   UNL     1       4.682  -2.165   5.718  1.00  0.00     0.019 C 
BRANCH   7  12
ATOM     12  C   UNL     1       1.213  -3.089   3.895  1.00  0.00     0.245 C 
ATOM     13  O   UNL     1       0.418  -2.946   4.830  1.00  0.00    -0.272 OA
BRANCH  12  14
ATOM     14  C   UNL     1       0.714  -2.985   2.411  1.00  0.00     0.176 C 
BRANCH  14  15
ATOM     15  C   UNL     1       0.783  -1.548   1.810  1.00  0.00     0.018 C 
ATOM     16  C   UNL     1       0.035  -0.525   2.675  1.00  0.00     0.010 C 
BRANCH  15  17
ATOM     17  C   UNL     1       0.250  -1.470   0.358  1.00  0.00     0.002 C 
ATOM     18  C   UNL     1       0.701  -0.196  -0.355  1.00  0.00     0.004 C 
ENDBRANCH  15  17
ENDBRANCH  14  15
BRANCH  14  19
ATOM     19  N   UNL     1       1.459  -3.966   1.604  1.00  0.00    -0.326 N 
ATOM     20  C   UNL     1       1.458  -5.290   1.934  1.00  0.00     0.312 C 
ATOM     21  H   UNL     1       1.965  -3.663   0.816  1.00  0.00     0.166 HD
ATOM     22  N   UNL     1       2.148  -6.057   1.061  1.00  0.00    -0.352 N 
ATOM     23  O   UNL     1       0.946  -5.780   2.930  1.00  0.00    -0.249 OA
ATOM     24  H   UNL     1       2.555  -5.649   0.263  1.00  0.00     0.161 HD
ATOM     25  H   UNL     1       2.244  -7.023   1.223  1.00  0.00     0.161 HD
ENDBRANCH  14  19
ENDBRANCH  12  14
ENDBRANCH   7  12
ENDBRANCH   4   6
ENDBRANCH   3   4
ENDBRANCH   2   3
ENDBRANCH   1   2
BRANCH   1  26
ATOM     26  O   UNL     1       2.832   1.987   7.412  1.00  0.00    -0.374 OA
BRANCH  26  27
ATOM     27  C   UNL     1       4.079   1.298   7.470  1.00  0.00     0.202 C 
BRANCH  27  28
ATOM     28  C   UNL     1       4.411   0.554   8.771  1.00  0.00     0.261 C 
BRANCH  28  29
ATOM     29  O   UNL     1       3.482  -0.499   9.086  1.00  0.00    -0.460 OA
BRANCH  29  30
ATOM     30  C   UNL     1       2.686  -0.234  10.151  1.00  0.00     0.338 C 
ATOM     31  O   UNL     1       2.719   0.753  10.868  1.00  0.00    -0.246 OA
BRANCH  30  32
ATOM     32  C   UNL     1       1.621  -1.245  10.287  1.00  0.00     0.060 A 
ATOM     33  C   UNL     1       0.303  -0.777  10.360  1.00  0.00     0.016 A 
ATOM     34  C   UNL     1       1.908  -2.595  10.498  1.00  0.00     0.016 A 
ATOM     35  C   UNL     1      -0.725  -1.640  10.728  1.00  0.00     0.010 A 
ATOM     36  C   UNL     1       0.873  -3.461  10.871  1.00  0.00     0.010 A 
ATOM     37  C   UNL     1      -0.437  -2.974  11.043  1.00  0.00    -0.014 A 
BRANCH  37  38
ATOM     38  C   UNL     1      -1.469  -3.788  11.734  1.00  0.00     0.031 A 
ATOM     39  C   UNL     1      -1.365  -3.983  13.224  1.00  0.00     0.074 A 
ATOM     40  C   UNL     1      -2.520  -4.291  11.063  1.00  0.00     0.049 A 
ATOM     41  N   UNL     1      -2.146  -4.652  14.034  1.00  0.00    -0.248 NA
ATOM     42  C   UNL     1      -0.225  -3.334  13.891  1.00  0.00     0.031 C 
ATOM     43  C   UNL     1      -2.761  -4.134   9.631  1.00  0.00     0.029 A 
ATOM     44  N   UNL     1      -3.583  -5.037  11.507  1.00  0.00    -0.354 N 
ATOM     45  C   UNL     1      -1.586  -4.516  15.299  1.00  0.00     0.074 A 
ATOM     46  C   UNL     1      -0.382  -3.729  15.145  1.00  0.00     0.031 C 
ATOM     47  C   UNL     1      -3.901  -4.770   9.311  1.00  0.00     0.029 A 
ATOM     48  C   UNL     1      -4.451  -5.403  10.508  1.00  0.00     0.049 A 
ATOM     49  H   UNL     1      -3.711  -5.286  12.451  1.00  0.00     0.167 HD
ATOM     50  C   UNL     1      -2.039  -4.993  16.483  1.00  0.00     0.037 A 
ATOM     51  C   UNL     1      -5.553  -6.176  10.554  1.00  0.00     0.037 A 
ATOM     52  C   UNL     1      -3.241  -5.769  16.637  1.00  0.00     0.049 A 
ATOM     53  C   UNL     1      -6.003  -6.748  11.873  1.00  0.00     0.074 A 
ATOM     54  C   UNL     1      -3.792  -6.286  17.797  1.00  0.00     0.029 A 
ATOM     55  N   UNL     1      -4.077  -6.145  15.596  1.00  0.00    -0.354 N 
ATOM     56  N   UNL     1      -5.477  -6.600  13.065  1.00  0.00    -0.248 NA
ATOM     57  C   UNL     1      -7.208  -7.590  11.852  1.00  0.00     0.031 C 
ATOM     58  C   UNL     1      -4.932  -7.019  17.451  1.00  0.00     0.029 A 
ATOM     59  C   UNL     1      -5.127  -6.906  16.084  1.00  0.00     0.049 A 
ATOM     60  H   UNL     1      -3.944  -5.905  14.650  1.00  0.00     0.167 HD
ATOM     61  C   UNL     1      -6.304  -7.297  13.938  1.00  0.00     0.074 A 
ATOM     62  C   UNL     1      -7.372  -7.860  13.139  1.00  0.00     0.031 C 
ATOM     63  C   UNL     1      -6.192  -7.452  15.280  1.00  0.00     0.037 A 
BRANCH  50  64
ATOM     64  C   UNL     1      -1.209  -4.711  17.704  1.00  0.00     0.057 A 
ATOM     65  C   UNL     1      -1.101  -3.426  18.252  1.00  0.00     0.134 A 
ATOM     66  C   UNL     1      -0.524  -5.747  18.353  1.00  0.00     0.134 A 
ATOM     67  F   UNL     1      -1.719  -2.386  17.673  1.00  0.00    -0.206 F 
ATOM     68  C   UNL     1      -0.319  -3.177  19.382  1.00  0.00     0.040 A 
ATOM     69  C   UNL     1       0.236  -5.516  19.500  1.00  0.00     0.040 A 
ATOM     70  F   UNL     1      -0.589  -7.004  17.886  1.00  0.00    -0.206 F 
ATOM     71  C   UNL     1       0.346  -4.226  20.014  1.00  0.00     0.006 A 
ENDBRANCH  50  64
BRANCH  51  72
ATOM     72  C   UNL     1      -6.309  -6.463   9.309  1.00  0.00     0.057 A 
ATOM     73  C   UNL     1      -7.595  -5.950   9.103  1.00  0.00     0.134 A 
ATOM     74  C   UNL     1      -5.769  -7.273   8.302  1.00  0.00     0.134 A 
ATOM     75  F   UNL     1      -8.177  -5.189  10.042  1.00  0.00    -0.206 F 
ATOM     76  C   UNL     1      -8.324  -6.246   7.949  1.00  0.00     0.040 A 
ATOM     77  C   UNL     1      -6.475  -7.553   7.131  1.00  0.00     0.040 A 
ATOM     78  F   UNL     1      -4.543  -7.798   8.440  1.00  0.00    -0.206 F 
ATOM     79  C   UNL     1      -7.761  -7.045   6.956  1.00  0.00     0.006 A 
ENDBRANCH  51  72
BRANCH  63  80
ATOM     80  C   UNL     1      -7.281  -8.213  15.982  1.00  0.00     0.057 A 
ATOM     81  C   UNL     1      -7.434  -9.598  15.840  1.00  0.00     0.134 A 
ATOM     82  C   UNL     1      -8.170  -7.551  16.839  1.00  0.00     0.134 A 
ATOM     83  F   UNL     1      -6.624 -10.293  15.027  1.00  0.00    -0.206 F 
ATOM     84  C   UNL     1      -8.450 -10.292  16.502  1.00  0.00     0.040 A 
ATOM     85  C   UNL     1      -9.169  -8.237  17.530  1.00  0.00     0.040 A 
ATOM     86  F   UNL     1      -8.073  -6.226  17.031  1.00  0.00    -0.206 F 
ATOM     87  C   UNL     1      -9.317  -9.611  17.355  1.00  0.00     0.006 A 
ENDBRANCH  63  80
ENDBRANCH  37  38
ENDBRANCH  30  32
ENDBRANCH  29  30
ENDBRANCH  28  29
ENDBRANCH  27  28
ENDBRANCH  26  27
ENDBRANCH   1  26
TORSDOF 19
