REMARK SMILES Cc1ccccc1[C@H]1[NH2+][C@@H](C(=O)OCCOCCOC(=O)c2ccc(-c3c4nc(c(-c5c(F)cccc5F)c5ccc([nH]5)c(-c5c(F)cccc5F)c5nc(c(-c6c(F)cccc6F)c6ccc3[nH]6)C=C5)C=C4)cc2)CC2=c3ccccc3=N[C@@H]21
REMARK SMILES IDX 17 1 16 2 15 3 14 4 13 5 11 6 12 7 10 8 8 9 9 10 85 11 77 14
REMARK SMILES IDX 84 15 76 16 78 17 83 18 79 19 82 20 80 21 81 22 7 23 1 24
REMARK SMILES IDX 2 25 3 26 4 27 6 28 5 29 18 30 19 31 20 32 21 33 22 34 23 35
REMARK SMILES IDX 75 36 24 37 74 38 25 39 26 40 27 41 68 42 28 43 73 44 67 45
REMARK SMILES IDX 69 46 29 47 72 48 66 49 65 50 30 52 56 53 39 54 55 55 40 56
REMARK SMILES IDX 43 57 54 58 70 59 41 60 42 61 53 63 71 64 44 65 31 66 32 67
REMARK SMILES IDX 37 68 33 69 34 70 36 71 38 72 35 73 57 74 58 75 63 76 59 77
REMARK SMILES IDX 60 78 62 79 64 80 61 81 45 82 46 83 51 84 47 85 48 86 50 87
REMARK SMILES IDX 52 88 49 89
REMARK H PARENT 9 12 9 13 69 51 43 62
REMARK Flexibility Score: inf
ROOT
ATOM      1  C   UNL     1      -1.519   2.475   2.188  1.00  0.00     0.202 C 
ENDROOT
BRANCH   1   2
ATOM      2  O   UNL     1      -1.695   3.886   1.913  1.00  0.00    -0.374 OA
BRANCH   2   3
ATOM      3  C   UNL     1      -1.436   4.360   0.629  1.00  0.00     0.202 C 
BRANCH   3   4
ATOM      4  C   UNL     1      -0.876   5.746   0.385  1.00  0.00     0.261 C 
BRANCH   4   5
ATOM      5  O   UNL     1      -0.256   6.424   1.451  1.00  0.00    -0.459 OA
BRANCH   5   6
ATOM      6  C   UNL     1       0.417   5.691   2.347  1.00  0.00     0.365 C 
ATOM      7  O   UNL     1       0.224   5.887   3.546  1.00  0.00    -0.245 OA
BRANCH   6   8
ATOM      8  C   UNL     1       1.579   4.826   1.860  1.00  0.00     0.298 C 
ATOM      9  C   UNL     1       1.484   2.802   0.243  1.00  0.00     0.243 C 
ATOM     10  N   UNL     1       1.592   4.309   0.428  1.00  0.00    -0.326 N 
ATOM     11  C   UNL     1       2.529   1.974   1.261  1.00  0.00     0.196 C 
ATOM     12  H   UNL     1       0.806   4.737  -0.062  1.00  0.00     0.347 HD
ATOM     13  H   UNL     1       2.510   4.558   0.061  1.00  0.00     0.347 HD
ATOM     14  C   UNL     1       2.936   2.921   2.380  1.00  0.00    -0.024 C 
ATOM     15  N   UNL     1       3.847   1.696   0.581  1.00  0.00    -0.270 NA
ATOM     16  C   UNL     1       1.888   3.793   2.951  1.00  0.00     0.111 C 
ATOM     17  C   UNL     1       4.221   3.271   2.317  1.00  0.00     0.002 A 
ATOM     18  C   UNL     1       4.703   2.452   1.203  1.00  0.00     0.066 A 
ATOM     19  C   UNL     1       4.912   4.458   2.739  1.00  0.00     0.010 A 
ATOM     20  C   UNL     1       6.106   2.694   0.799  1.00  0.00     0.028 A 
ATOM     21  C   UNL     1       6.082   4.751   2.150  1.00  0.00     0.001 A 
ATOM     22  C   UNL     1       6.709   3.817   1.229  1.00  0.00     0.002 A 
BRANCH   9  23
ATOM     23  C   UNL     1       0.260   2.251  -0.819  1.00  0.00     0.015 A 
ATOM     24  C   UNL     1      -2.865   1.694   0.025  1.00  0.00     0.045 C 
ATOM     25  C   UNL     1      -1.639   1.974  -0.903  1.00  0.00    -0.042 A 
ATOM     26  C   UNL     1      -2.337   1.168  -2.421  1.00  0.00     0.004 A 
ATOM     27  C   UNL     1      -1.302   0.685  -3.752  1.00  0.00     0.000 A 
ATOM     28  C   UNL     1       1.237   1.540  -2.191  1.00  0.00     0.010 A 
ATOM     29  C   UNL     1       0.452   0.804  -3.621  1.00  0.00     0.001 A 
ENDBRANCH   9  23
ENDBRANCH   6   8
ENDBRANCH   5   6
ENDBRANCH   4   5
ENDBRANCH   3   4
ENDBRANCH   2   3
ENDBRANCH   1   2
BRANCH   1  30
ATOM     30  C   UNL     1      -0.625   1.225   1.475  1.00  0.00     0.261 C 
BRANCH  30  31
ATOM     31  O   UNL     1      -0.554   0.409  -0.005  1.00  0.00    -0.460 OA
BRANCH  31  32
ATOM     32  C   UNL     1      -0.507   0.624  -1.692  1.00  0.00     0.338 C 
ATOM     33  O   UNL     1      -0.383  -0.574  -2.040  1.00  0.00    -0.246 OA
BRANCH  32  34
ATOM     34  C   UNL     1      -0.670   2.531  -2.686  1.00  0.00     0.060 A 
ATOM     35  C   UNL     1       0.196   3.306  -3.639  1.00  0.00     0.016 A 
ATOM     36  C   UNL     1      -1.765   3.556  -2.552  1.00  0.00     0.016 A 
ATOM     37  C   UNL     1       0.242   4.741  -3.833  1.00  0.00     0.010 A 
ATOM     38  C   UNL     1      -1.657   4.947  -2.595  1.00  0.00     0.010 A 
ATOM     39  C   UNL     1      -0.544   5.567  -3.081  1.00  0.00    -0.014 A 
BRANCH  39  40
ATOM     40  C   UNL     1      -0.266   6.950  -2.651  1.00  0.00     0.031 A 
ATOM     41  C   UNL     1      -1.326   7.992  -2.788  1.00  0.00     0.074 A 
ATOM     42  C   UNL     1       0.834   7.185  -1.872  1.00  0.00     0.049 A 
ATOM     43  N   UNL     1      -1.060   9.252  -2.885  1.00  0.00    -0.248 NA
ATOM     44  C   UNL     1      -2.769   7.741  -2.955  1.00  0.00     0.031 C 
ATOM     45  C   UNL     1       1.026   8.219  -0.840  1.00  0.00     0.029 A 
ATOM     46  N   UNL     1       1.998   6.407  -1.730  1.00  0.00    -0.354 N 
ATOM     47  C   UNL     1      -2.259   9.907  -2.688  1.00  0.00     0.074 A 
ATOM     48  C   UNL     1      -3.263   8.973  -3.080  1.00  0.00     0.031 C 
ATOM     49  C   UNL     1       2.276   8.145  -0.338  1.00  0.00     0.029 A 
ATOM     50  C   UNL     1       3.015   7.204  -1.150  1.00  0.00     0.049 A 
ATOM     51  H   UNL     1       2.091   5.463  -1.991  1.00  0.00     0.167 HD
ATOM     52  C   UNL     1      -2.299  11.041  -1.935  1.00  0.00     0.037 A 
ATOM     53  C   UNL     1       4.162   7.502  -1.841  1.00  0.00     0.037 A 
ATOM     54  C   UNL     1      -0.941  11.406  -1.502  1.00  0.00     0.049 A 
ATOM     55  C   UNL     1       4.201   8.927  -2.298  1.00  0.00     0.074 A 
ATOM     56  C   UNL     1      -0.298  11.476  -0.279  1.00  0.00     0.029 A 
ATOM     57  N   UNL     1       0.076  11.461  -2.449  1.00  0.00    -0.354 N 
ATOM     58  N   UNL     1       3.293   9.805  -1.997  1.00  0.00    -0.248 NA
ATOM     59  C   UNL     1       5.177   9.421  -3.255  1.00  0.00     0.031 C 
ATOM     60  C   UNL     1       1.109  11.614  -0.523  1.00  0.00     0.029 A 
ATOM     61  C   UNL     1       1.320  11.680  -1.891  1.00  0.00     0.049 A 
ATOM     62  H   UNL     1      -0.076  11.355  -3.416  1.00  0.00     0.167 HD
ATOM     63  C   UNL     1       3.409  10.886  -2.816  1.00  0.00     0.074 A 
ATOM     64  C   UNL     1       4.603  10.584  -3.601  1.00  0.00     0.031 C 
ATOM     65  C   UNL     1       2.461  11.876  -2.799  1.00  0.00     0.037 A 
BRANCH  52  66
ATOM     66  C   UNL     1      -3.561  11.738  -1.433  1.00  0.00     0.057 A 
ATOM     67  C   UNL     1      -3.451  13.028  -0.878  1.00  0.00     0.134 A 
ATOM     68  C   UNL     1      -4.886  11.241  -1.436  1.00  0.00     0.134 A 
ATOM     69  F   UNL     1      -2.262  13.638  -0.772  1.00  0.00    -0.206 F 
ATOM     70  C   UNL     1      -4.551  13.767  -0.410  1.00  0.00     0.040 A 
ATOM     71  C   UNL     1      -6.002  11.990  -1.019  1.00  0.00     0.040 A 
ATOM     72  F   UNL     1      -5.193   9.988  -1.785  1.00  0.00    -0.206 F 
ATOM     73  C   UNL     1      -5.838  13.261  -0.501  1.00  0.00     0.006 A 
ENDBRANCH  52  66
BRANCH  53  74
ATOM     74  C   UNL     1       4.633   6.365  -2.680  1.00  0.00     0.057 A 
ATOM     75  C   UNL     1       5.079   5.262  -1.950  1.00  0.00     0.134 A 
ATOM     76  C   UNL     1       3.990   6.137  -3.899  1.00  0.00     0.134 A 
ATOM     77  F   UNL     1       5.840   5.451  -0.866  1.00  0.00    -0.206 F 
ATOM     78  C   UNL     1       4.540   4.008  -2.193  1.00  0.00     0.040 A 
ATOM     79  C   UNL     1       3.523   4.866  -4.199  1.00  0.00     0.040 A 
ATOM     80  F   UNL     1       3.593   7.157  -4.671  1.00  0.00    -0.206 F 
ATOM     81  C   UNL     1       3.702   3.834  -3.285  1.00  0.00     0.006 A 
ENDBRANCH  53  74
BRANCH  65  82
ATOM     82  C   UNL     1       2.449  13.062  -3.741  1.00  0.00     0.057 A 
ATOM     83  C   UNL     1       3.558  13.502  -4.468  1.00  0.00     0.134 A 
ATOM     84  C   UNL     1       1.286  13.839  -3.949  1.00  0.00     0.134 A 
ATOM     85  F   UNL     1       4.802  13.133  -4.147  1.00  0.00    -0.206 F 
ATOM     86  C   UNL     1       3.462  14.440  -5.500  1.00  0.00     0.040 A 
ATOM     87  C   UNL     1       1.185  14.819  -4.934  1.00  0.00     0.040 A 
ATOM     88  F   UNL     1       0.190  13.730  -3.189  1.00  0.00    -0.206 F 
ATOM     89  C   UNL     1       2.263  15.086  -5.753  1.00  0.00     0.006 A 
ENDBRANCH  65  82
ENDBRANCH  39  40
ENDBRANCH  32  34
ENDBRANCH  31  32
ENDBRANCH  30  31
ENDBRANCH   1  30
TORSDOF 15
