REMARK SMILES CC(=O)N1CC2(CC[NH+](C(=O)COCc3ccccc3)CC2)C[C@H]1C(=O)OCCOCCOC(=O)c1ccc(-c2c3nc(c(-c4c(F)cccc4F)c4ccc([nH]4)c(-c4c(F)cccc4F)c4nc(c(-c5c(F)cccc5F)c5ccc2[nH]5)C=C4)C=C3)cc1
REMARK SMILES IDX 28 1 27 2 25 3 26 4 24 5 4 6 5 7 6 8 23 9 7 10 22 11 8 12
REMARK SMILES IDX 21 13 9 14 2 16 1 17 3 18 10 19 11 20 12 21 13 22 14 23
REMARK SMILES IDX 15 24 16 25 20 26 17 27 19 28 18 29 29 30 30 31 31 32 32 33
REMARK SMILES IDX 33 34 34 35 35 36 36 37 37 38 89 39 38 40 88 41 39 42 40 43
REMARK SMILES IDX 41 44 82 45 42 46 87 47 81 48 83 49 43 50 86 51 80 52 79 53
REMARK SMILES IDX 44 55 70 56 53 57 69 58 54 59 57 60 68 61 84 62 55 63 56 64
REMARK SMILES IDX 67 66 85 67 58 68 45 69 46 70 51 71 47 72 48 73 50 74 52 75
REMARK SMILES IDX 49 76 71 77 72 78 77 79 73 80 74 81 76 82 78 83 75 84 59 85
REMARK SMILES IDX 60 86 65 87 61 88 62 89 64 90 66 91 63 92
REMARK H PARENT 9 15 83 54 57 65
REMARK Flexibility Score: inf
ROOT
ATOM      1  C   UNL     1       0.407  -3.640   5.647  1.00  0.00     0.261 C 
ENDROOT
BRANCH   1   2
ATOM      2  O   UNL     1       0.551  -3.359   4.245  1.00  0.00    -0.462 OA
BRANCH   2   3
ATOM      3  C   UNL     1      -0.420  -3.888   3.450  1.00  0.00     0.328 C 
ATOM      4  O   UNL     1      -1.256  -4.705   3.827  1.00  0.00    -0.250 OA
BRANCH   3   5
ATOM      5  C   UNL     1      -0.310  -3.457   1.981  1.00  0.00     0.195 C 
ATOM      6  N   UNL     1       0.586  -2.373   1.588  1.00  0.00    -0.329 N 
ATOM      7  C   UNL     1       1.924  -2.865   1.351  1.00  0.00     0.128 C 
ATOM      8  C   UNL     1       1.742  -4.345   0.959  1.00  0.00     0.001 C 
ATOM      9  C   UNL     1       0.231  -4.634   1.173  1.00  0.00     0.046 C 
ATOM     10  C   UNL     1       2.622  -5.260   1.844  1.00  0.00     0.071 C 
ATOM     11  C   UNL     1       2.089  -4.555  -0.536  1.00  0.00     0.071 C 
ATOM     12  C   UNL     1       4.109  -5.123   1.503  1.00  0.00     0.270 C 
ATOM     13  C   UNL     1       3.588  -4.441  -0.802  1.00  0.00     0.270 C 
ATOM     14  N   UNL     1       4.297  -5.360   0.075  1.00  0.00    -0.270 N 
ATOM     15  H   UNL     1       5.035  -4.763   0.336  1.00  0.00     0.356 HD
BRANCH   6  16
ATOM     16  C   UNL     1       0.119  -1.103   1.334  1.00  0.00     0.220 C 
ATOM     17  C   UNL     1       1.048  -0.171   0.595  1.00  0.00     0.114 C 
ATOM     18  O   UNL     1      -1.017  -0.746   1.640  1.00  0.00    -0.275 OA
ENDBRANCH   6  16
BRANCH  14  19
ATOM     19  C   UNL     1       4.905  -6.476  -0.482  1.00  0.00     0.337 C 
ATOM     20  O   UNL     1       4.925  -6.672  -1.699  1.00  0.00    -0.228 OA
BRANCH  19  21
ATOM     21  C   UNL     1       5.546  -7.496   0.467  1.00  0.00     0.305 C 
BRANCH  21  22
ATOM     22  O   UNL     1       6.646  -7.075   1.260  1.00  0.00    -0.363 OA
BRANCH  22  23
ATOM     23  C   UNL     1       7.721  -6.492   0.516  1.00  0.00     0.196 C 
BRANCH  23  24
ATOM     24  C   UNL     1       8.513  -7.459  -0.334  1.00  0.00    -0.022 A 
ATOM     25  C   UNL     1       8.506  -8.841  -0.103  1.00  0.00     0.006 A 
ATOM     26  C   UNL     1       9.319  -6.956  -1.367  1.00  0.00     0.006 A 
ATOM     27  C   UNL     1       9.227  -9.705  -0.928  1.00  0.00     0.000 A 
ATOM     28  C   UNL     1      10.059  -7.819  -2.177  1.00  0.00     0.000 A 
ATOM     29  C   UNL     1      10.001  -9.194  -1.966  1.00  0.00     0.000 A 
ENDBRANCH  23  24
ENDBRANCH  22  23
ENDBRANCH  21  22
ENDBRANCH  19  21
ENDBRANCH  14  19
ENDBRANCH   3   5
ENDBRANCH   2   3
ENDBRANCH   1   2
BRANCH   1  30
ATOM     30  C   UNL     1       0.354  -2.360   6.485  1.00  0.00     0.202 C 
BRANCH  30  31
ATOM     31  O   UNL     1      -0.682  -1.431   6.180  1.00  0.00    -0.374 OA
BRANCH  31  32
ATOM     32  C   UNL     1      -0.580  -0.697   4.958  1.00  0.00     0.202 C 
BRANCH  32  33
ATOM     33  C   UNL     1       0.475   0.416   4.898  1.00  0.00     0.261 C 
BRANCH  33  34
ATOM     34  O   UNL     1       1.823  -0.067   5.067  1.00  0.00    -0.460 OA
BRANCH  34  35
ATOM     35  C   UNL     1       2.428   0.346   6.208  1.00  0.00     0.338 C 
ATOM     36  O   UNL     1       1.984   1.115   7.049  1.00  0.00    -0.246 OA
BRANCH  35  37
ATOM     37  C   UNL     1       3.689  -0.387   6.423  1.00  0.00     0.060 A 
ATOM     38  C   UNL     1       3.851  -1.047   7.649  1.00  0.00     0.016 A 
ATOM     39  C   UNL     1       4.737  -0.336   5.502  1.00  0.00     0.016 A 
ATOM     40  C   UNL     1       5.080  -1.612   7.981  1.00  0.00     0.010 A 
ATOM     41  C   UNL     1       5.974  -0.896   5.841  1.00  0.00     0.010 A 
ATOM     42  C   UNL     1       6.162  -1.501   7.098  1.00  0.00    -0.014 A 
BRANCH  42  43
ATOM     43  C   UNL     1       7.518  -1.883   7.560  1.00  0.00     0.031 A 
ATOM     44  C   UNL     1       8.449  -0.812   8.060  1.00  0.00     0.074 A 
ATOM     45  C   UNL     1       7.905  -3.170   7.571  1.00  0.00     0.049 A 
ATOM     46  N   UNL     1       9.675  -0.919   8.506  1.00  0.00    -0.248 NA
ATOM     47  C   UNL     1       7.928   0.564   8.055  1.00  0.00     0.031 C 
ATOM     48  C   UNL     1       7.085  -4.301   7.140  1.00  0.00     0.029 A 
ATOM     49  N   UNL     1       9.092  -3.739   7.956  1.00  0.00    -0.354 N 
ATOM     50  C   UNL     1      10.072   0.372   8.832  1.00  0.00     0.074 A 
ATOM     51  C   UNL     1       8.970   1.249   8.503  1.00  0.00     0.031 C 
ATOM     52  C   UNL     1       7.801  -5.431   7.271  1.00  0.00     0.029 A 
ATOM     53  C   UNL     1       9.133  -5.099   7.774  1.00  0.00     0.049 A 
ATOM     54  H   UNL     1       9.843  -3.222   8.327  1.00  0.00     0.167 HD
ATOM     55  C   UNL     1      11.245   0.788   9.367  1.00  0.00     0.037 A 
ATOM     56  C   UNL     1      10.137  -5.974   7.975  1.00  0.00     0.037 A 
ATOM     57  C   UNL     1      12.341  -0.084   9.696  1.00  0.00     0.049 A 
ATOM     58  C   UNL     1      11.451  -5.482   8.521  1.00  0.00     0.074 A 
ATOM     59  C   UNL     1      13.561   0.239  10.266  1.00  0.00     0.029 A 
ATOM     60  N   UNL     1      12.352  -1.453   9.477  1.00  0.00    -0.354 N 
ATOM     61  N   UNL     1      11.803  -4.265   8.858  1.00  0.00    -0.248 NA
ATOM     62  C   UNL     1      12.505  -6.487   8.720  1.00  0.00     0.031 C 
ATOM     63  C   UNL     1      14.327  -0.929  10.351  1.00  0.00     0.029 A 
ATOM     64  C   UNL     1      13.567  -1.986   9.876  1.00  0.00     0.049 A 
ATOM     65  H   UNL     1      11.607  -1.970   9.095  1.00  0.00     0.167 HD
ATOM     66  C   UNL     1      13.107  -4.360   9.327  1.00  0.00     0.074 A 
ATOM     67  C   UNL     1      13.480  -5.757   9.244  1.00  0.00     0.031 C 
ATOM     68  C   UNL     1      13.923  -3.379   9.786  1.00  0.00     0.037 A 
BRANCH  55  69
ATOM     69  C   UNL     1      11.407   2.260   9.606  1.00  0.00     0.057 A 
ATOM     70  C   UNL     1      10.729   2.920  10.639  1.00  0.00     0.134 A 
ATOM     71  C   UNL     1      12.266   3.022   8.805  1.00  0.00     0.134 A 
ATOM     72  F   UNL     1       9.880   2.249  11.433  1.00  0.00    -0.206 F 
ATOM     73  C   UNL     1      10.880   4.292  10.851  1.00  0.00     0.040 A 
ATOM     74  C   UNL     1      12.444   4.390   9.022  1.00  0.00     0.040 A 
ATOM     75  F   UNL     1      12.948   2.451   7.801  1.00  0.00    -0.206 F 
ATOM     76  C   UNL     1      11.745   5.029  10.043  1.00  0.00     0.006 A 
ENDBRANCH  55  69
BRANCH  56  77
ATOM     77  C   UNL     1       9.943  -7.407   7.645  1.00  0.00     0.057 A 
ATOM     78  C   UNL     1       9.854  -8.380   8.646  1.00  0.00     0.134 A 
ATOM     79  C   UNL     1       9.850  -7.837   6.316  1.00  0.00     0.134 A 
ATOM     80  F   UNL     1       9.959  -8.032   9.937  1.00  0.00    -0.206 F 
ATOM     81  C   UNL     1       9.690  -9.732   8.338  1.00  0.00     0.040 A 
ATOM     82  C   UNL     1       9.663  -9.181   5.994  1.00  0.00     0.040 A 
ATOM     83  F   UNL     1       9.927  -6.951   5.312  1.00  0.00    -0.206 F 
ATOM     84  C   UNL     1       9.588 -10.134   7.007  1.00  0.00     0.006 A 
ENDBRANCH  56  77
BRANCH  68  85
ATOM     85  C   UNL     1      15.289  -3.785  10.255  1.00  0.00     0.057 A 
ATOM     86  C   UNL     1      16.301  -4.144   9.356  1.00  0.00     0.134 A 
ATOM     87  C   UNL     1      15.607  -3.778  11.619  1.00  0.00     0.134 A 
ATOM     88  F   UNL     1      16.057  -4.182   8.037  1.00  0.00    -0.206 F 
ATOM     89  C   UNL     1      17.576  -4.500   9.799  1.00  0.00     0.040 A 
ATOM     90  C   UNL     1      16.884  -4.110  12.072  1.00  0.00     0.040 A 
ATOM     91  F   UNL     1      14.685  -3.436  12.532  1.00  0.00    -0.206 F 
ATOM     92  C   UNL     1      17.872  -4.478  11.161  1.00  0.00     0.006 A 
ENDBRANCH  68  85
ENDBRANCH  42  43
ENDBRANCH  35  37
ENDBRANCH  34  35
ENDBRANCH  33  34
ENDBRANCH  32  33
ENDBRANCH  31  32
ENDBRANCH  30  31
ENDBRANCH   1  30
TORSDOF 20
