REMARK SMILES Cc1c(Br)c(C)c2c(c1Br)O[C@H](C(F)(F)F)C(C(=O)OCCOCCOC(=O)c1ccc(-c3c4nc(c(-c5c(F)cccc5F)c5ccc([nH]5)c(-c5c(F)cccc5F)c5nc(c(-c6c(F)cccc6F)c6ccc3[nH]6)C=C5)C=C4)cc1)=C2
REMARK SMILES IDX 24 1 23 2 22 3 21 4 20 5 18 6 19 7 17 8 1 9 2 10 3 11 9 12
REMARK SMILES IDX 4 13 5 14 8 15 10 16 6 17 7 18 11 19 83 20 12 21 13 22 14 23
REMARK SMILES IDX 15 24 16 25 25 26 26 27 27 28 28 29 29 30 30 31 82 32 31 33
REMARK SMILES IDX 81 34 32 35 33 36 34 37 75 38 35 39 80 40 74 41 76 42 36 43
REMARK SMILES IDX 79 44 73 45 72 46 37 48 63 49 46 50 62 51 47 52 50 53 61 54
REMARK SMILES IDX 77 55 48 56 49 57 60 59 78 60 51 61 38 62 39 63 44 64 40 65
REMARK SMILES IDX 41 66 43 67 45 68 42 69 64 70 65 71 70 72 66 73 67 74 69 75
REMARK SMILES IDX 71 76 68 77 52 78 53 79 58 80 54 81 55 82 57 83 59 84 56 85
REMARK H PARENT 76 47 50 58
REMARK Flexibility Score: inf
ROOT
ATOM      1  C   UNL     1       0.066  -1.159   8.822  1.00  0.00     0.202 C 
ENDROOT
BRANCH   1   2
ATOM      2  O   UNL     1      -1.024  -1.244   9.742  1.00  0.00    -0.374 OA
BRANCH   2   3
ATOM      3  C   UNL     1      -1.644  -2.515   9.921  1.00  0.00     0.202 C 
BRANCH   3   4
ATOM      4  C   UNL     1      -2.649  -2.937   8.846  1.00  0.00     0.261 C 
BRANCH   4   5
ATOM      5  O   UNL     1      -2.040  -2.974   7.545  1.00  0.00    -0.460 OA
BRANCH   5   6
ATOM      6  C   UNL     1      -2.523  -2.062   6.672  1.00  0.00     0.338 C 
ATOM      7  O   UNL     1      -3.494  -1.336   6.832  1.00  0.00    -0.246 OA
BRANCH   6   8
ATOM      8  C   UNL     1      -1.628  -1.959   5.506  1.00  0.00     0.087 C 
ATOM      9  C   UNL     1       1.147  -0.169  -0.106  1.00  0.00     0.047 C 
ATOM     10  C   UNL     1       0.588  -0.278   1.294  1.00  0.00    -0.019 A 
ATOM     11  C   UNL     1       0.222   0.873   2.035  1.00  0.00     0.025 A 
ATOM     12  C   UNL     1       0.460  -1.537   1.917  1.00  0.00     0.064 A 
ATOM     13  Br  UNL     1       0.558   2.608   1.285  1.00  0.00    -0.050 Br
ATOM     14  C   UNL     1      -0.373   0.766   3.316  1.00  0.00    -0.026 A 
ATOM     15  C   UNL     1      -0.144  -1.664   3.180  1.00  0.00     0.142 A 
ATOM     16  Br  UNL     1       1.104  -3.127   1.060  1.00  0.00    -0.046 Br
ATOM     17  C   UNL     1      -0.773   1.977   4.132  1.00  0.00     0.046 C 
ATOM     18  C   UNL     1      -0.606  -0.526   3.853  1.00  0.00     0.022 A 
ATOM     19  O   UNL     1      -0.230  -2.926   3.711  1.00  0.00    -0.474 OA
ATOM     20  C   UNL     1      -1.370  -0.717   5.083  1.00  0.00     0.027 C 
ATOM     21  C   UNL     1      -1.088  -3.189   4.849  1.00  0.00     0.316 C 
BRANCH  21  22
ATOM     22  C   UNL     1      -2.189  -4.170   4.419  1.00  0.00     0.430 C 
ATOM     23  F   UNL     1      -1.665  -5.255   3.801  1.00  0.00    -0.167 F 
ATOM     24  F   UNL     1      -2.890  -4.631   5.481  1.00  0.00    -0.167 F 
ATOM     25  F   UNL     1      -3.070  -3.601   3.566  1.00  0.00    -0.167 F 
ENDBRANCH  21  22
ENDBRANCH   6   8
ENDBRANCH   5   6
ENDBRANCH   4   5
ENDBRANCH   3   4
ENDBRANCH   2   3
ENDBRANCH   1   2
BRANCH   1  26
ATOM     26  C   UNL     1       1.397  -1.774   9.268  1.00  0.00     0.261 C 
BRANCH  26  27
ATOM     27  O   UNL     1       1.331  -3.212   9.324  1.00  0.00    -0.460 OA
BRANCH  27  28
ATOM     28  C   UNL     1       1.519  -3.743  10.554  1.00  0.00     0.338 C 
ATOM     29  O   UNL     1       1.814  -3.148  11.584  1.00  0.00    -0.246 OA
BRANCH  28  30
ATOM     30  C   UNL     1       1.134  -5.163  10.555  1.00  0.00     0.060 A 
ATOM     31  C   UNL     1       0.136  -5.563  11.453  1.00  0.00     0.016 A 
ATOM     32  C   UNL     1       1.800  -6.103   9.766  1.00  0.00     0.016 A 
ATOM     33  C   UNL     1      -0.168  -6.914  11.600  1.00  0.00     0.010 A 
ATOM     34  C   UNL     1       1.502  -7.461   9.924  1.00  0.00     0.010 A 
ATOM     35  C   UNL     1       0.544  -7.873  10.868  1.00  0.00    -0.014 A 
BRANCH  35  36
ATOM     36  C   UNL     1       0.389  -9.305  11.217  1.00  0.00     0.031 A 
ATOM     37  C   UNL     1       1.377  -9.935  12.159  1.00  0.00     0.074 A 
ATOM     38  C   UNL     1      -0.653 -10.017  10.753  1.00  0.00     0.049 A 
ATOM     39  N   UNL     1       1.417 -11.159  12.620  1.00  0.00    -0.248 NA
ATOM     40  C   UNL     1       2.459  -9.069  12.654  1.00  0.00     0.031 C 
ATOM     41  C   UNL     1      -1.702  -9.502   9.876  1.00  0.00     0.029 A 
ATOM     42  N   UNL     1      -1.002 -11.326  10.967  1.00  0.00    -0.354 N 
ATOM     43  C   UNL     1       2.519 -11.206  13.465  1.00  0.00     0.074 A 
ATOM     44  C   UNL     1       3.143  -9.902  13.425  1.00  0.00     0.031 C 
ATOM     45  C   UNL     1      -2.584 -10.487   9.629  1.00  0.00     0.029 A 
ATOM     46  C   UNL     1      -2.146 -11.705  10.310  1.00  0.00     0.049 A 
ATOM     47  H   UNL     1      -0.481 -11.936  11.538  1.00  0.00     0.167 HD
ATOM     48  C   UNL     1       2.960 -12.240  14.219  1.00  0.00     0.037 A 
ATOM     49  C   UNL     1      -2.764 -12.901  10.257  1.00  0.00     0.037 A 
ATOM     50  C   UNL     1       2.343 -13.538  14.256  1.00  0.00     0.049 A 
ATOM     51  C   UNL     1      -2.195 -14.063  11.027  1.00  0.00     0.074 A 
ATOM     52  C   UNL     1       2.714 -14.646  14.996  1.00  0.00     0.029 A 
ATOM     53  N   UNL     1       1.228 -13.902  13.518  1.00  0.00    -0.354 N 
ATOM     54  N   UNL     1      -1.163 -14.093  11.834  1.00  0.00    -0.248 NA
ATOM     55  C   UNL     1      -2.874 -15.359  10.874  1.00  0.00     0.031 C 
ATOM     56  C   UNL     1       1.851 -15.697  14.671  1.00  0.00     0.029 A 
ATOM     57  C   UNL     1       0.915 -15.229  13.762  1.00  0.00     0.049 A 
ATOM     58  H   UNL     1       0.733 -13.307  12.910  1.00  0.00     0.167 HD
ATOM     59  C   UNL     1      -1.079 -15.400  12.299  1.00  0.00     0.074 A 
ATOM     60  C   UNL     1      -2.172 -16.131  11.694  1.00  0.00     0.031 C 
ATOM     61  C   UNL     1      -0.177 -15.943  13.152  1.00  0.00     0.037 A 
BRANCH  48  62
ATOM     62  C   UNL     1       4.177 -12.012  15.064  1.00  0.00     0.057 A 
ATOM     63  C   UNL     1       4.124 -11.245  16.235  1.00  0.00     0.134 A 
ATOM     64  C   UNL     1       5.400 -12.608  14.734  1.00  0.00     0.134 A 
ATOM     65  F   UNL     1       2.985 -10.636  16.598  1.00  0.00    -0.206 F 
ATOM     66  C   UNL     1       5.249 -11.070  17.042  1.00  0.00     0.040 A 
ATOM     67  C   UNL     1       6.526 -12.459  15.545  1.00  0.00     0.040 A 
ATOM     68  F   UNL     1       5.516 -13.358  13.627  1.00  0.00    -0.206 F 
ATOM     69  C   UNL     1       6.453 -11.686  16.702  1.00  0.00     0.006 A 
ENDBRANCH  48  62
BRANCH  49  70
ATOM     70  C   UNL     1      -3.995 -13.061   9.445  1.00  0.00     0.057 A 
ATOM     71  C   UNL     1      -5.242 -13.248  10.051  1.00  0.00     0.134 A 
ATOM     72  C   UNL     1      -3.955 -13.029   8.045  1.00  0.00     0.134 A 
ATOM     73  F   UNL     1      -5.340 -13.311  11.387  1.00  0.00    -0.206 F 
ATOM     74  C   UNL     1      -6.406 -13.401   9.295  1.00  0.00     0.040 A 
ATOM     75  C   UNL     1      -5.113 -13.159   7.278  1.00  0.00     0.040 A 
ATOM     76  F   UNL     1      -2.789 -12.855   7.405  1.00  0.00    -0.206 F 
ATOM     77  C   UNL     1      -6.343 -13.350   7.904  1.00  0.00     0.006 A 
ENDBRANCH  49  70
BRANCH  61  78
ATOM     78  C   UNL     1      -0.328 -17.395  13.496  1.00  0.00     0.057 A 
ATOM     79  C   UNL     1       0.033 -18.402  12.594  1.00  0.00     0.134 A 
ATOM     80  C   UNL     1      -0.752 -17.788  14.772  1.00  0.00     0.134 A 
ATOM     81  F   UNL     1       0.438 -18.091  11.354  1.00  0.00    -0.206 F 
ATOM     82  C   UNL     1      -0.027 -19.751  12.947  1.00  0.00     0.040 A 
ATOM     83  C   UNL     1      -0.794 -19.132  15.145  1.00  0.00     0.040 A 
ATOM     84  F   UNL     1      -1.101 -16.870  15.687  1.00  0.00    -0.206 F 
ATOM     85  C   UNL     1      -0.431 -20.118  14.230  1.00  0.00     0.006 A 
ENDBRANCH  61  78
ENDBRANCH  35  36
ENDBRANCH  28  30
ENDBRANCH  27  28
ENDBRANCH  26  27
ENDBRANCH   1  26
TORSDOF 15
