REMARK SMILES C[C@]1(C(=O)OCCOCCOC(=O)c2ccc(-c3c4nc(c(-c5c(F)cccc5F)c5ccc([nH]5)c(-c5c(F)cccc5F)c5nc(c(-c6c(F)cccc6F)c6ccc3[nH]6)C=C5)C=C4)cc2)[NH2+]C2(C(=O)c3ccccc3C2=O)[C@@H]2C(=O)N(c3ccccc3)C(=O)[C@H]21
REMARK SMILES IDX 9 1 8 2 7 3 6 4 5 5 3 6 4 7 2 8 1 9 68 10 92 11 69 12 80 15
REMARK SMILES IDX 90 16 70 17 78 18 81 19 83 20 91 21 71 22 72 23 77 24 79 25
REMARK SMILES IDX 82 26 73 27 76 28 74 29 75 30 84 31 85 32 89 33 86 34 88 35
REMARK SMILES IDX 87 36 10 37 11 38 12 39 13 40 14 41 15 42 67 43 16 44 66 45
REMARK SMILES IDX 17 46 18 47 19 48 60 49 20 50 65 51 59 52 61 53 21 54 64 55
REMARK SMILES IDX 58 56 57 57 22 59 48 60 31 61 47 62 32 63 35 64 46 65 62 66
REMARK SMILES IDX 33 67 34 68 45 70 63 71 36 72 23 73 24 74 29 75 25 76 26 77
REMARK SMILES IDX 28 78 30 79 27 80 49 81 50 82 55 83 51 84 52 85 54 86 56 87
REMARK SMILES IDX 53 88 37 89 38 90 43 91 39 92 40 93 42 94 44 95 41 96
REMARK H PARENT 68 13 68 14 61 58 35 69
REMARK Flexibility Score: inf
ROOT
ATOM      1  C   UNL     1      -0.079  -1.121   3.380  1.00  0.00     0.202 C 
ENDROOT
BRANCH   1   2
ATOM      2  O   UNL     1       0.915  -0.968   4.391  1.00  0.00    -0.374 OA
BRANCH   2   3
ATOM      3  C   UNL     1       1.128   0.331   4.936  1.00  0.00     0.202 C 
BRANCH   3   4
ATOM      4  C   UNL     1       1.887   1.348   4.082  1.00  0.00     0.261 C 
BRANCH   4   5
ATOM      5  O   UNL     1       1.206   1.634   2.853  1.00  0.00    -0.459 OA
BRANCH   5   6
ATOM      6  C   UNL     1       1.721   1.043   1.740  1.00  0.00     0.368 C 
ATOM      7  O   UNL     1       2.729   0.348   1.738  1.00  0.00    -0.245 OA
BRANCH   6   8
ATOM      8  C   UNL     1       0.888   1.360   0.465  1.00  0.00     0.205 C 
ATOM      9  C   UNL     1       1.219   0.287  -0.575  1.00  0.00     0.093 C 
ATOM     10  N   UNL     1      -0.627   1.380   0.689  1.00  0.00    -0.313 N 
ATOM     11  C   UNL     1       1.157   2.761  -0.008  1.00  0.00     0.172 C 
ATOM     12  C   UNL     1      -1.097   2.825   0.559  1.00  0.00     0.237 C 
ATOM     13  H   UNL     1      -0.846   1.025   1.620  1.00  0.00     0.348 HD
ATOM     14  H   UNL     1      -1.097   0.789   0.003  1.00  0.00     0.348 HD
ATOM     15  C   UNL     1       0.169   3.561   0.824  1.00  0.00     0.177 C 
ATOM     16  C   UNL     1       2.405   3.526   0.247  1.00  0.00     0.244 C 
ATOM     17  C   UNL     1      -1.777   3.074  -0.787  1.00  0.00     0.232 C 
ATOM     18  C   UNL     1      -2.211   3.122   1.559  1.00  0.00     0.232 C 
ATOM     19  C   UNL     1       0.603   4.943   0.502  1.00  0.00     0.245 C 
ATOM     20  N   UNL     1       1.993   4.842   0.436  1.00  0.00    -0.250 N 
ATOM     21  O   UNL     1       3.522   3.041   0.241  1.00  0.00    -0.273 OA
ATOM     22  O   UNL     1      -1.296   2.914  -1.898  1.00  0.00    -0.286 OA
ATOM     23  C   UNL     1      -3.168   3.453  -0.548  1.00  0.00     0.036 A 
ATOM     24  C   UNL     1      -3.428   3.460   0.816  1.00  0.00     0.036 A 
ATOM     25  O   UNL     1      -2.149   3.116   2.778  1.00  0.00    -0.286 OA
ATOM     26  O   UNL     1      -0.134   5.911   0.457  1.00  0.00    -0.273 OA
ATOM     27  C   UNL     1      -4.150   3.742  -1.479  1.00  0.00     0.013 A 
ATOM     28  C   UNL     1      -4.688   3.753   1.309  1.00  0.00     0.013 A 
ATOM     29  C   UNL     1      -5.427   4.046  -0.999  1.00  0.00     0.001 A 
ATOM     30  C   UNL     1      -5.695   4.048   0.384  1.00  0.00     0.001 A 
BRANCH  20  31
ATOM     31  C   UNL     1       2.907   5.875   0.730  1.00  0.00     0.052 A 
ATOM     32  C   UNL     1       4.168   5.898   0.119  1.00  0.00     0.027 A 
ATOM     33  C   UNL     1       2.629   6.794   1.749  1.00  0.00     0.027 A 
ATOM     34  C   UNL     1       5.142   6.807   0.529  1.00  0.00     0.002 A 
ATOM     35  C   UNL     1       3.622   7.675   2.188  1.00  0.00     0.002 A 
ATOM     36  C   UNL     1       4.875   7.681   1.578  1.00  0.00     0.000 A 
ENDBRANCH  20  31
ENDBRANCH   6   8
ENDBRANCH   5   6
ENDBRANCH   4   5
ENDBRANCH   3   4
ENDBRANCH   2   3
ENDBRANCH   1   2
BRANCH   1  37
ATOM     37  C   UNL     1      -1.553  -1.068   3.798  1.00  0.00     0.261 C 
BRANCH  37  38
ATOM     38  O   UNL     1      -1.931   0.199   4.358  1.00  0.00    -0.460 OA
BRANCH  38  39
ATOM     39  C   UNL     1      -2.121   0.196   5.699  1.00  0.00     0.338 C 
ATOM     40  O   UNL     1      -2.081  -0.765   6.448  1.00  0.00    -0.246 OA
BRANCH  39  41
ATOM     41  C   UNL     1      -2.208   1.584   6.197  1.00  0.00     0.060 A 
ATOM     42  C   UNL     1      -3.091   2.507   5.642  1.00  0.00     0.016 A 
ATOM     43  C   UNL     1      -1.405   1.940   7.290  1.00  0.00     0.016 A 
ATOM     44  C   UNL     1      -3.198   3.780   6.208  1.00  0.00     0.010 A 
ATOM     45  C   UNL     1      -1.521   3.206   7.863  1.00  0.00     0.010 A 
ATOM     46  C   UNL     1      -2.443   4.125   7.346  1.00  0.00    -0.014 A 
BRANCH  46  47
ATOM     47  C   UNL     1      -2.758   5.371   8.087  1.00  0.00     0.031 A 
ATOM     48  C   UNL     1      -1.833   6.549   8.105  1.00  0.00     0.074 A 
ATOM     49  C   UNL     1      -3.911   5.411   8.783  1.00  0.00     0.049 A 
ATOM     50  N   UNL     1      -2.025   7.737   8.624  1.00  0.00    -0.248 NA
ATOM     51  C   UNL     1      -0.517   6.371   7.476  1.00  0.00     0.031 C 
ATOM     52  C   UNL     1      -4.858   4.299   8.903  1.00  0.00     0.029 A 
ATOM     53  N   UNL     1      -4.488   6.420   9.509  1.00  0.00    -0.354 N 
ATOM     54  C   UNL     1      -0.868   8.458   8.366  1.00  0.00     0.074 A 
ATOM     55  C   UNL     1       0.046   7.552   7.697  1.00  0.00     0.031 C 
ATOM     56  C   UNL     1      -5.919   4.702   9.618  1.00  0.00     0.029 A 
ATOM     57  C   UNL     1      -5.714   6.086  10.030  1.00  0.00     0.049 A 
ATOM     58  H   UNL     1      -4.065   7.299   9.643  1.00  0.00     0.167 HD
ATOM     59  C   UNL     1      -0.602   9.758   8.645  1.00  0.00     0.037 A 
ATOM     60  C   UNL     1      -6.582   6.816  10.753  1.00  0.00     0.037 A 
ATOM     61  C   UNL     1      -1.503  10.644   9.344  1.00  0.00     0.049 A 
ATOM     62  C   UNL     1      -6.247   8.245  11.071  1.00  0.00     0.074 A 
ATOM     63  C   UNL     1      -1.342  11.988   9.637  1.00  0.00     0.029 A 
ATOM     64  N   UNL     1      -2.727  10.268   9.880  1.00  0.00    -0.354 N 
ATOM     65  N   UNL     1      -5.196   8.949  10.728  1.00  0.00    -0.248 NA
ATOM     66  C   UNL     1      -7.233   8.986  11.868  1.00  0.00     0.031 C 
ATOM     67  C   UNL     1      -2.439  12.409  10.399  1.00  0.00     0.029 A 
ATOM     68  C   UNL     1      -3.317  11.345  10.527  1.00  0.00     0.049 A 
ATOM     69  H   UNL     1      -3.120   9.367   9.812  1.00  0.00     0.167 HD
ATOM     70  C   UNL     1      -5.405  10.221  11.243  1.00  0.00     0.074 A 
ATOM     71  C   UNL     1      -6.699  10.197  11.894  1.00  0.00     0.031 C 
ATOM     72  C   UNL     1      -4.599  11.310  11.186  1.00  0.00     0.037 A 
BRANCH  59  73
ATOM     73  C   UNL     1       0.725  10.304   8.193  1.00  0.00     0.057 A 
ATOM     74  C   UNL     1       1.700  10.691   9.120  1.00  0.00     0.134 A 
ATOM     75  C   UNL     1       1.022  10.483   6.834  1.00  0.00     0.134 A 
ATOM     76  F   UNL     1       1.480  10.561  10.437  1.00  0.00    -0.206 F 
ATOM     77  C   UNL     1       2.922  11.233   8.714  1.00  0.00     0.040 A 
ATOM     78  C   UNL     1       2.251  10.998   6.415  1.00  0.00     0.040 A 
ATOM     79  F   UNL     1       0.136  10.130   5.891  1.00  0.00    -0.206 F 
ATOM     80  C   UNL     1       3.204  11.379   7.357  1.00  0.00     0.006 A 
ENDBRANCH  59  73
BRANCH  60  81
ATOM     81  C   UNL     1      -7.867   6.224  11.201  1.00  0.00     0.057 A 
ATOM     82  C   UNL     1      -7.907   5.218  12.173  1.00  0.00     0.134 A 
ATOM     83  C   UNL     1      -9.089   6.677  10.690  1.00  0.00     0.134 A 
ATOM     84  F   UNL     1      -6.771   4.732  12.693  1.00  0.00    -0.206 F 
ATOM     85  C   UNL     1      -9.116   4.688  12.625  1.00  0.00     0.040 A 
ATOM     86  C   UNL     1     -10.306   6.179  11.156  1.00  0.00     0.040 A 
ATOM     87  F   UNL     1      -9.115   7.650   9.766  1.00  0.00    -0.206 F 
ATOM     88  C   UNL     1     -10.320   5.179  12.126  1.00  0.00     0.006 A 
ENDBRANCH  60  81
BRANCH  72  89
ATOM     89  C   UNL     1      -5.122  12.569  11.822  1.00  0.00     0.057 A 
ATOM     90  C   UNL     1      -5.489  13.668  11.034  1.00  0.00     0.134 A 
ATOM     91  C   UNL     1      -5.293  12.687  13.209  1.00  0.00     0.134 A 
ATOM     92  F   UNL     1      -5.343  13.630   9.701  1.00  0.00    -0.206 F 
ATOM     93  C   UNL     1      -6.021  14.828  11.598  1.00  0.00     0.040 A 
ATOM     94  C   UNL     1      -5.858  13.829  13.782  1.00  0.00     0.040 A 
ATOM     95  F   UNL     1      -4.977  11.668  14.023  1.00  0.00    -0.206 F 
ATOM     96  C   UNL     1      -6.222  14.905  12.975  1.00  0.00     0.006 A 
ENDBRANCH  72  89
ENDBRANCH  46  47
ENDBRANCH  39  41
ENDBRANCH  38  39
ENDBRANCH  37  38
ENDBRANCH   1  37
TORSDOF 15
