REMARK SMILES COc1ccccc1N1CC[NH+]([C@@H](C(=O)OCCOCCOC(=O)c2ccc(-c3c4nc(c(-c5c(F)cccc5F)c5ccc([nH]5)c(-c5c(F)cccc5F)c5nc(c(-c6c(F)cccc6F)c6ccc3[nH]6)C=C5)C=C4)cc2)c2c[nH]c3ccc(OCC#N)cc23)CC1
REMARK SMILES IDX 18 1 17 2 16 3 14 4 15 5 13 6 12 7 9 8 10 9 93 10 11 11
REMARK SMILES IDX 92 12 8 14 3 15 4 16 5 17 7 18 6 19 2 20 1 21 79 22 80 23
REMARK SMILES IDX 91 24 81 25 82 26 90 27 83 29 85 30 84 31 86 32 87 33 88 34
REMARK SMILES IDX 89 35 19 36 20 37 21 38 22 39 23 40 24 41 25 42 26 43 78 44
REMARK SMILES IDX 27 45 77 46 28 47 29 48 30 49 71 50 31 51 76 52 70 53 72 54
REMARK SMILES IDX 32 55 75 56 69 57 68 58 33 60 59 61 42 62 58 63 43 64 46 65
REMARK SMILES IDX 57 66 73 67 44 68 45 69 56 71 74 72 47 73 34 74 35 75 40 76
REMARK SMILES IDX 36 77 37 78 39 79 41 80 38 81 60 82 61 83 66 84 62 85 63 86
REMARK SMILES IDX 65 87 67 88 64 89 48 90 49 91 54 92 50 93 51 94 53 95 55 96
REMARK SMILES IDX 52 97
REMARK H PARENT 12 13 81 28 72 59 46 70
REMARK Flexibility Score: inf
ROOT
ATOM      1  C   UNL     1       6.504  -3.624   1.428  1.00  0.00     0.202 C 
ENDROOT
BRANCH   1   2
ATOM      2  C   UNL     1       6.805  -2.142   1.657  1.00  0.00     0.261 C 
BRANCH   2   3
ATOM      3  O   UNL     1       6.084  -1.326   0.716  1.00  0.00    -0.459 OA
BRANCH   3   4
ATOM      4  C   UNL     1       6.815  -0.671  -0.232  1.00  0.00     0.370 C 
ATOM      5  O   UNL     1       8.042  -0.702  -0.271  1.00  0.00    -0.245 OA
BRANCH   4   6
ATOM      6  C   UNL     1       5.966   0.125  -1.231  1.00  0.00     0.328 C 
BRANCH   6   7
ATOM      7  N   UNL     1       4.614   0.701  -0.839  1.00  0.00    -0.316 N 
ATOM      8  N   UNL     1       2.148  -0.898  -0.741  1.00  0.00    -0.357 N 
ATOM      9  C   UNL     1       2.846  -0.604  -1.996  1.00  0.00     0.178 C 
ATOM     10  C   UNL     1       2.986  -0.813   0.483  1.00  0.00     0.178 C 
ATOM     11  C   UNL     1       3.551   0.745  -1.846  1.00  0.00     0.284 C 
ATOM     12  C   UNL     1       3.971   0.402   0.457  1.00  0.00     0.284 C 
ATOM     13  H   UNL     1       5.064   1.610  -0.728  1.00  0.00     0.349 HD
BRANCH   8  14
ATOM     14  C   UNL     1       1.138  -1.864  -0.775  1.00  0.00     0.080 A 
ATOM     15  C   UNL     1      -0.056  -1.747  -0.032  1.00  0.00     0.142 A 
ATOM     16  C   UNL     1      -0.984  -2.800   0.016  1.00  0.00     0.048 A 
ATOM     17  C   UNL     1      -0.760  -3.976  -0.695  1.00  0.00     0.004 A 
ATOM     18  C   UNL     1       1.308  -3.047  -1.520  1.00  0.00     0.030 A 
ATOM     19  C   UNL     1       0.385  -4.097  -1.471  1.00  0.00     0.002 A 
BRANCH  15  20
ATOM     20  O   UNL     1      -0.400  -0.653   0.725  1.00  0.00    -0.495 OA
ATOM     21  C   UNL     1      -0.284   0.580   0.017  1.00  0.00     0.278 C 
ENDBRANCH  15  20
ENDBRANCH   8  14
ENDBRANCH   6   7
BRANCH   6  22
ATOM     22  C   UNL     1       6.242  -0.023  -2.794  1.00  0.00     0.046 A 
ATOM     23  C   UNL     1       6.493   1.168  -3.479  1.00  0.00     0.094 A 
ATOM     24  C   UNL     1       5.923  -0.936  -3.927  1.00  0.00     0.013 A 
ATOM     25  N   UNL     1       5.598   1.172  -4.518  1.00  0.00    -0.361 N 
ATOM     26  C   UNL     1       5.203  -0.113  -4.798  1.00  0.00     0.046 A 
ATOM     27  C   UNL     1       6.293  -2.202  -4.542  1.00  0.00     0.057 A 
ATOM     28  H   UNL     1       5.285   1.976  -4.992  1.00  0.00     0.166 HD
ATOM     29  C   UNL     1       4.393  -0.581  -5.833  1.00  0.00     0.030 A 
ATOM     30  C   UNL     1       5.769  -2.558  -5.849  1.00  0.00     0.121 A 
ATOM     31  C   UNL     1       4.698  -1.836  -6.354  1.00  0.00     0.048 A 
BRANCH  30  32
ATOM     32  O   UNL     1       6.319  -3.592  -6.622  1.00  0.00    -0.479 OA
BRANCH  32  33
ATOM     33  C   UNL     1       6.493  -3.366  -8.136  1.00  0.00     0.349 C 
BRANCH  33  34
ATOM     34  C   UNL     1       7.336  -2.114  -8.312  1.00  0.00     0.104 C 
ATOM     35  N   UNL     1       8.036  -1.075  -8.458  1.00  0.00    -0.195 NA
ENDBRANCH  33  34
ENDBRANCH  32  33
ENDBRANCH  30  32
ENDBRANCH   6  22
ENDBRANCH   4   6
ENDBRANCH   3   4
ENDBRANCH   2   3
ENDBRANCH   1   2
BRANCH   1  36
ATOM     36  O   UNL     1       6.945  -4.161   0.180  1.00  0.00    -0.374 OA
BRANCH  36  37
ATOM     37  C   UNL     1       6.251  -3.766  -0.999  1.00  0.00     0.202 C 
BRANCH  37  38
ATOM     38  C   UNL     1       4.901  -4.422  -1.263  1.00  0.00     0.261 C 
BRANCH  38  39
ATOM     39  O   UNL     1       3.993  -4.283  -0.158  1.00  0.00    -0.460 OA
BRANCH  39  40
ATOM     40  C   UNL     1       3.698  -5.437   0.474  1.00  0.00     0.338 C 
ATOM     41  O   UNL     1       4.106  -6.559   0.150  1.00  0.00    -0.246 OA
BRANCH  40  42
ATOM     42  C   UNL     1       2.828  -5.255   1.657  1.00  0.00     0.060 A 
ATOM     43  C   UNL     1       2.774  -6.303   2.577  1.00  0.00     0.016 A 
ATOM     44  C   UNL     1       2.004  -4.143   1.845  1.00  0.00     0.016 A 
ATOM     45  C   UNL     1       1.830  -6.291   3.598  1.00  0.00     0.010 A 
ATOM     46  C   UNL     1       1.046  -4.125   2.863  1.00  0.00     0.010 A 
ATOM     47  C   UNL     1       0.924  -5.228   3.710  1.00  0.00    -0.014 A 
BRANCH  47  48
ATOM     48  C   UNL     1      -0.153  -5.328   4.712  1.00  0.00     0.031 A 
ATOM     49  C   UNL     1      -1.472  -5.934   4.337  1.00  0.00     0.074 A 
ATOM     50  C   UNL     1       0.101  -4.951   5.975  1.00  0.00     0.049 A 
ATOM     51  N   UNL     1      -2.419  -6.390   5.114  1.00  0.00    -0.248 NA
ATOM     52  C   UNL     1      -1.767  -6.040   2.899  1.00  0.00     0.031 C 
ATOM     53  C   UNL     1       1.326  -4.290   6.422  1.00  0.00     0.029 A 
ATOM     54  N   UNL     1      -0.647  -5.092   7.112  1.00  0.00    -0.354 N 
ATOM     55  C   UNL     1      -3.406  -6.873   4.264  1.00  0.00     0.074 A 
ATOM     56  C   UNL     1      -2.970  -6.601   2.911  1.00  0.00     0.031 C 
ATOM     57  C   UNL     1       1.254  -4.096   7.748  1.00  0.00     0.029 A 
ATOM     58  C   UNL     1      -0.009  -4.640   8.239  1.00  0.00     0.049 A 
ATOM     59  H   UNL     1      -1.552  -5.479   7.120  1.00  0.00     0.167 HD
ATOM     60  C   UNL     1      -4.558  -7.503   4.597  1.00  0.00     0.037 A 
ATOM     61  C   UNL     1      -0.391  -4.697   9.527  1.00  0.00     0.037 A 
ATOM     62  C   UNL     1      -4.976  -7.736   5.957  1.00  0.00     0.049 A 
ATOM     63  C   UNL     1      -1.656  -5.430   9.874  1.00  0.00     0.074 A 
ATOM     64  C   UNL     1      -6.087  -8.421   6.418  1.00  0.00     0.029 A 
ATOM     65  N   UNL     1      -4.304  -7.266   7.078  1.00  0.00    -0.354 N 
ATOM     66  N   UNL     1      -2.514  -6.020   9.076  1.00  0.00    -0.248 NA
ATOM     67  C   UNL     1      -1.985  -5.540  11.300  1.00  0.00     0.031 C 
ATOM     68  C   UNL     1      -6.114  -8.321   7.813  1.00  0.00     0.029 A 
ATOM     69  C   UNL     1      -4.992  -7.621   8.226  1.00  0.00     0.049 A 
ATOM     70  H   UNL     1      -3.462  -6.756   7.058  1.00  0.00     0.167 HD
ATOM     71  C   UNL     1      -3.470  -6.595   9.903  1.00  0.00     0.074 A 
ATOM     72  C   UNL     1      -3.071  -6.298  11.265  1.00  0.00     0.031 C 
ATOM     73  C   UNL     1      -4.576  -7.306   9.570  1.00  0.00     0.037 A 
BRANCH  60  74
ATOM     74  C   UNL     1      -5.444  -7.994   3.488  1.00  0.00     0.057 A 
ATOM     75  C   UNL     1      -5.083  -9.085   2.685  1.00  0.00     0.134 A 
ATOM     76  C   UNL     1      -6.708  -7.430   3.273  1.00  0.00     0.134 A 
ATOM     77  F   UNL     1      -3.885  -9.671   2.834  1.00  0.00    -0.206 F 
ATOM     78  C   UNL     1      -5.940  -9.589   1.704  1.00  0.00     0.040 A 
ATOM     79  C   UNL     1      -7.583  -7.939   2.310  1.00  0.00     0.040 A 
ATOM     80  F   UNL     1      -7.124  -6.389   4.009  1.00  0.00    -0.206 F 
ATOM     81  C   UNL     1      -7.199  -9.021   1.521  1.00  0.00     0.006 A 
ENDBRANCH  60  74
BRANCH  61  82
ATOM     82  C   UNL     1       0.476  -4.103  10.573  1.00  0.00     0.057 A 
ATOM     83  C   UNL     1       1.192  -4.902  11.471  1.00  0.00     0.134 A 
ATOM     84  C   UNL     1       0.630  -2.715  10.677  1.00  0.00     0.134 A 
ATOM     85  F   UNL     1       1.081  -6.237  11.424  1.00  0.00    -0.206 F 
ATOM     86  C   UNL     1       2.013  -4.342  12.451  1.00  0.00     0.040 A 
ATOM     87  C   UNL     1       1.467  -2.143  11.635  1.00  0.00     0.040 A 
ATOM     88  F   UNL     1      -0.016  -1.897   9.833  1.00  0.00    -0.206 F 
ATOM     89  C   UNL     1       2.156  -2.958  12.531  1.00  0.00     0.006 A 
ENDBRANCH  61  82
BRANCH  73  90
ATOM     90  C   UNL     1      -5.416  -7.820  10.702  1.00  0.00     0.057 A 
ATOM     91  C   UNL     1      -6.193  -6.964  11.493  1.00  0.00     0.134 A 
ATOM     92  C   UNL     1      -5.461  -9.190  10.992  1.00  0.00     0.134 A 
ATOM     93  F   UNL     1      -6.185  -5.641  11.273  1.00  0.00    -0.206 F 
ATOM     94  C   UNL     1      -6.958  -7.448  12.555  1.00  0.00     0.040 A 
ATOM     95  C   UNL     1      -6.244  -9.688  12.033  1.00  0.00     0.040 A 
ATOM     96  F   UNL     1      -4.749 -10.065  10.266  1.00  0.00    -0.206 F 
ATOM     97  C   UNL     1      -6.988  -8.815  12.824  1.00  0.00     0.006 A 
ENDBRANCH  73  90
ENDBRANCH  47  48
ENDBRANCH  40  42
ENDBRANCH  39  40
ENDBRANCH  38  39
ENDBRANCH  37  38
ENDBRANCH  36  37
ENDBRANCH   1  36
TORSDOF 21
