REMARK SMILES O=C(OCCOCCOC(=O)c1ccc(-c2c3nc(c(-c4c(F)cccc4F)c4ccc([nH]4)c(-c4c(F)cccc4F)c4nc(c(-c5c(F)cccc5F)c5ccc2[nH]5)C=C4)C=C3)cc1)C1=Cc2cc(Cl)cc(Cl)c2O[C@@H]1C(F)(F)F
REMARK SMILES IDX 7 1 6 2 5 3 4 4 3 5 2 6 1 7 66 8 67 9 77 10 68 11 76 12
REMARK SMILES IDX 69 13 75 14 70 15 73 16 71 17 72 18 74 19 78 20 79 21 80 22
REMARK SMILES IDX 81 23 8 24 9 25 10 26 11 27 12 28 13 29 65 30 14 31 64 32
REMARK SMILES IDX 15 33 16 34 17 35 58 36 18 37 63 38 57 39 59 40 19 41 62 42
REMARK SMILES IDX 56 43 55 44 20 46 46 47 29 48 45 49 30 50 33 51 44 52 60 53
REMARK SMILES IDX 31 54 32 55 43 57 61 58 34 59 21 60 22 61 27 62 23 63 24 64
REMARK SMILES IDX 26 65 28 66 25 67 47 68 48 69 53 70 49 71 50 72 52 73 54 74
REMARK SMILES IDX 51 75 35 76 36 77 41 78 37 79 38 80 40 81 42 82 39 83
REMARK H PARENT 59 45 33 56
REMARK Flexibility Score: inf
ROOT
ATOM      1  C   UNL     1       2.830   1.123   2.829  1.00  0.00     0.202 C 
ENDROOT
BRANCH   1   2
ATOM      2  O   UNL     1       3.880   0.210   2.491  1.00  0.00    -0.374 OA
BRANCH   2   3
ATOM      3  C   UNL     1       4.393  -0.462   1.167  1.00  0.00     0.202 C 
BRANCH   3   4
ATOM      4  C   UNL     1       3.500  -0.782  -0.796  1.00  0.00     0.261 C 
BRANCH   4   5
ATOM      5  O   UNL     1       2.650  -1.991  -1.239  1.00  0.00    -0.460 OA
BRANCH   5   6
ATOM      6  C   UNL     1       2.901  -3.096  -0.532  1.00  0.00     0.338 C 
ATOM      7  O   UNL     1       2.377  -4.178  -0.569  1.00  0.00    -0.246 OA
BRANCH   6   8
ATOM      8  C   UNL     1       3.738  -2.443   0.445  1.00  0.00     0.087 C 
ATOM      9  C   UNL     1       5.103  -2.193  -0.124  1.00  0.00     0.027 C 
ATOM     10  C   UNL     1       2.480  -1.050   0.934  1.00  0.00     0.316 C 
ATOM     11  C   UNL     1       5.707  -0.534  -0.588  1.00  0.00     0.020 A 
ATOM     12  O   UNL     1       3.087   0.694   0.393  1.00  0.00    -0.474 OA
ATOM     13  C   UNL     1       6.879  -0.418  -1.288  1.00  0.00     0.032 A 
ATOM     14  C   UNL     1       4.690   0.869  -0.451  1.00  0.00     0.146 A 
ATOM     15  C   UNL     1       7.096   0.840  -1.883  1.00  0.00     0.043 A 
ATOM     16  C   UNL     1       4.920   1.985  -1.204  1.00  0.00     0.085 A 
ATOM     17  Cl  UNL     1       8.575   1.040  -2.769  1.00  0.00    -0.084 Cl
ATOM     18  C   UNL     1       6.159   1.954  -1.885  1.00  0.00     0.045 A 
ATOM     19  Cl  UNL     1       3.716   3.127  -1.580  1.00  0.00    -0.080 Cl
BRANCH  10  20
ATOM     20  C   UNL     1       1.980  -1.560   2.337  1.00  0.00     0.430 C 
ATOM     21  F   UNL     1       1.085  -0.764   2.949  1.00  0.00    -0.167 F 
ATOM     22  F   UNL     1       1.318  -2.737   2.122  1.00  0.00    -0.167 F 
ATOM     23  F   UNL     1       2.964  -1.880   3.206  1.00  0.00    -0.167 F 
ENDBRANCH  10  20
ENDBRANCH   6   8
ENDBRANCH   5   6
ENDBRANCH   4   5
ENDBRANCH   3   4
ENDBRANCH   2   3
ENDBRANCH   1   2
BRANCH   1  24
ATOM     24  C   UNL     1       3.139   2.566   3.177  1.00  0.00     0.261 C 
BRANCH  24  25
ATOM     25  O   UNL     1       3.643   3.291   2.074  1.00  0.00    -0.460 OA
BRANCH  25  26
ATOM     26  C   UNL     1       4.965   3.555   2.129  1.00  0.00     0.338 C 
ATOM     27  O   UNL     1       5.800   3.077   2.872  1.00  0.00    -0.246 OA
BRANCH  26  28
ATOM     28  C   UNL     1       5.241   4.544   1.078  1.00  0.00     0.060 A 
ATOM     29  C   UNL     1       6.460   4.473   0.398  1.00  0.00     0.016 A 
ATOM     30  C   UNL     1       4.267   5.491   0.729  1.00  0.00     0.016 A 
ATOM     31  C   UNL     1       6.690   5.324  -0.678  1.00  0.00     0.010 A 
ATOM     32  C   UNL     1       4.495   6.337  -0.343  1.00  0.00     0.010 A 
ATOM     33  C   UNL     1       5.710   6.258  -1.040  1.00  0.00    -0.014 A 
BRANCH  33  34
ATOM     34  C   UNL     1       6.024   7.349  -1.974  1.00  0.00     0.031 A 
ATOM     35  C   UNL     1       6.501   8.629  -1.367  1.00  0.00     0.074 A 
ATOM     36  C   UNL     1       5.796   7.232  -3.291  1.00  0.00     0.049 A 
ATOM     37  N   UNL     1       6.719   9.785  -1.929  1.00  0.00    -0.248 NA
ATOM     38  C   UNL     1       6.739   8.603   0.088  1.00  0.00     0.031 C 
ATOM     39  C   UNL     1       5.331   6.024  -3.968  1.00  0.00     0.029 A 
ATOM     40  N   UNL     1       5.894   8.166  -4.287  1.00  0.00    -0.354 N 
ATOM     41  C   UNL     1       7.114  10.623  -0.898  1.00  0.00     0.074 A 
ATOM     42  C   UNL     1       7.061   9.861   0.328  1.00  0.00     0.031 C 
ATOM     43  C   UNL     1       5.158   6.299  -5.273  1.00  0.00     0.029 A 
ATOM     44  C   UNL     1       5.466   7.708  -5.508  1.00  0.00     0.049 A 
ATOM     45  H   UNL     1       6.239   9.077  -4.143  1.00  0.00     0.167 HD
ATOM     46  C   UNL     1       7.491  11.918  -0.971  1.00  0.00     0.037 A 
ATOM     47  C   UNL     1       5.312   8.373  -6.670  1.00  0.00     0.037 A 
ATOM     48  C   UNL     1       7.485  12.671  -2.194  1.00  0.00     0.049 A 
ATOM     49  C   UNL     1       5.668   9.836  -6.722  1.00  0.00     0.074 A 
ATOM     50  C   UNL     1       7.853  13.986  -2.398  1.00  0.00     0.029 A 
ATOM     51  N   UNL     1       7.057  12.173  -3.418  1.00  0.00    -0.354 N 
ATOM     52  N   UNL     1       6.099  10.617  -5.758  1.00  0.00    -0.248 NA
ATOM     53  C   UNL     1       5.523  10.511  -8.018  1.00  0.00     0.031 C 
ATOM     54  C   UNL     1       7.579  14.306  -3.731  1.00  0.00     0.029 A 
ATOM     55  C   UNL     1       7.120  13.167  -4.377  1.00  0.00     0.049 A 
ATOM     56  H   UNL     1       6.753  11.251  -3.579  1.00  0.00     0.167 HD
ATOM     57  C   UNL     1       6.313  11.862  -6.338  1.00  0.00     0.074 A 
ATOM     58  C   UNL     1       5.960  11.731  -7.738  1.00  0.00     0.031 C 
ATOM     59  C   UNL     1       6.772  13.005  -5.769  1.00  0.00     0.037 A 
BRANCH  46  60
ATOM     60  C   UNL     1       7.867  12.584   0.319  1.00  0.00     0.057 A 
ATOM     61  C   UNL     1       8.996  12.196   1.056  1.00  0.00     0.134 A 
ATOM     62  C   UNL     1       7.053  13.583   0.864  1.00  0.00     0.134 A 
ATOM     63  F   UNL     1       9.804  11.224   0.604  1.00  0.00    -0.206 F 
ATOM     64  C   UNL     1       9.271  12.741   2.311  1.00  0.00     0.040 A 
ATOM     65  C   UNL     1       7.339  14.163   2.100  1.00  0.00     0.040 A 
ATOM     66  F   UNL     1       5.955  13.999   0.215  1.00  0.00    -0.206 F 
ATOM     67  C   UNL     1       8.442  13.730   2.835  1.00  0.00     0.006 A 
ENDBRANCH  46  60
BRANCH  47  68
ATOM     68  C   UNL     1       4.800   7.658  -7.866  1.00  0.00     0.057 A 
ATOM     69  C   UNL     1       5.630   7.386  -8.959  1.00  0.00     0.134 A 
ATOM     70  C   UNL     1       3.475   7.211  -7.938  1.00  0.00     0.134 A 
ATOM     71  F   UNL     1       6.905   7.803  -8.959  1.00  0.00    -0.206 F 
ATOM     72  C   UNL     1       5.160   6.704 -10.084  1.00  0.00     0.040 A 
ATOM     73  C   UNL     1       2.998   6.507  -9.046  1.00  0.00     0.040 A 
ATOM     74  F   UNL     1       2.628   7.435  -6.922  1.00  0.00    -0.206 F 
ATOM     75  C   UNL     1       3.841   6.256 -10.125  1.00  0.00     0.006 A 
ENDBRANCH  47  68
BRANCH  59  76
ATOM     76  C   UNL     1       6.980  14.195  -6.661  1.00  0.00     0.057 A 
ATOM     77  C   UNL     1       5.914  14.933  -7.187  1.00  0.00     0.134 A 
ATOM     78  C   UNL     1       8.278  14.661  -6.914  1.00  0.00     0.134 A 
ATOM     79  F   UNL     1       4.648  14.536  -6.989  1.00  0.00    -0.206 F 
ATOM     80  C   UNL     1       6.131  16.087  -7.941  1.00  0.00     0.040 A 
ATOM     81  C   UNL     1       8.507  15.831  -7.638  1.00  0.00     0.040 A 
ATOM     82  F   UNL     1       9.344  14.007  -6.428  1.00  0.00    -0.206 F 
ATOM     83  C   UNL     1       7.430  16.546  -8.157  1.00  0.00     0.006 A 
ENDBRANCH  59  76
ENDBRANCH  33  34
ENDBRANCH  26  28
ENDBRANCH  25  26
ENDBRANCH  24  25
ENDBRANCH   1  24
TORSDOF 15
