REMARK SMILES CN1C(=O)C[C@H](C(=O)OCCOCCOC(=O)c2ccc(-c3c4nc(c(-c5c(F)cccc5F)c5ccc([nH]5)c(-c5c(F)cccc5F)c5nc(c(-c6c(F)cccc6F)c6ccc3[nH]6)C=C5)C=C4)cc2)C12CC[NH+](Cc1ccc(Cl)c(F)c1)CC2
REMARK SMILES IDX 12 1 11 2 10 3 9 4 7 5 8 6 6 7 1 8 2 9 3 10 72 11 4 12 5 13
REMARK SMILES IDX 73 14 86 15 74 16 85 17 75 18 76 20 77 21 78 22 84 23 79 24
REMARK SMILES IDX 82 25 80 26 83 27 81 28 13 29 14 30 15 31 16 32 17 33 18 34
REMARK SMILES IDX 19 35 71 36 20 37 70 38 21 39 22 40 23 41 64 42 24 43 69 44
REMARK SMILES IDX 63 45 65 46 25 47 68 48 62 49 61 50 26 52 52 53 35 54 51 55
REMARK SMILES IDX 36 56 39 57 50 58 66 59 37 60 38 61 49 63 67 64 40 65 27 66
REMARK SMILES IDX 28 67 33 68 29 69 30 70 32 71 34 72 31 73 53 74 54 75 59 76
REMARK SMILES IDX 55 77 56 78 58 79 60 80 57 81 41 82 42 83 47 84 43 85 44 86
REMARK SMILES IDX 46 87 48 88 45 89
REMARK H PARENT 75 19 65 51 39 62
REMARK Flexibility Score: inf
ROOT
ATOM      1  O   UNL     1       0.523  -6.985  -2.586  1.00  0.00    -0.374 OA
ENDROOT
BRANCH   1   2
ATOM      2  C   UNL     1      -0.783  -7.035  -3.148  1.00  0.00     0.202 C 
BRANCH   2   3
ATOM      3  C   UNL     1      -1.744  -5.901  -2.786  1.00  0.00     0.261 C 
BRANCH   3   4
ATOM      4  O   UNL     1      -1.196  -4.611  -3.097  1.00  0.00    -0.463 OA
BRANCH   4   5
ATOM      5  C   UNL     1      -0.947  -3.812  -2.020  1.00  0.00     0.311 C 
ATOM      6  O   UNL     1      -1.244  -4.093  -0.869  1.00  0.00    -0.252 OA
BRANCH   5   7
ATOM      7  C   UNL     1      -0.339  -2.497  -2.474  1.00  0.00     0.134 C 
ATOM      8  C   UNL     1       0.644   0.481  -0.336  1.00  0.00     0.147 C 
ATOM      9  N   UNL     1       0.088  -0.502  -1.253  1.00  0.00    -0.339 N 
ATOM     10  C   UNL     1      -1.153  -0.317  -1.821  1.00  0.00     0.223 C 
ATOM     11  C   UNL     1       0.716  -1.807  -1.548  1.00  0.00     0.067 C 
ATOM     12  O   UNL     1      -1.866   0.669  -1.710  1.00  0.00    -0.275 OA
ATOM     13  C   UNL     1      -1.522  -1.530  -2.607  1.00  0.00     0.118 C 
ATOM     14  C   UNL     1       2.054  -1.552  -2.304  1.00  0.00     0.091 C 
ATOM     15  C   UNL     1       1.052  -2.548  -0.243  1.00  0.00     0.091 C 
ATOM     16  C   UNL     1       2.981  -2.765  -2.405  1.00  0.00     0.265 C 
ATOM     17  C   UNL     1       1.922  -3.789  -0.448  1.00  0.00     0.265 C 
ATOM     18  N   UNL     1       3.159  -3.532  -1.180  1.00  0.00    -0.331 N 
ATOM     19  H   UNL     1       3.429  -4.448  -1.537  1.00  0.00     0.348 HD
BRANCH  18  20
ATOM     20  C   UNL     1       4.348  -3.234  -0.363  1.00  0.00     0.299 C 
BRANCH  20  21
ATOM     21  C   UNL     1       4.230  -2.059   0.585  1.00  0.00     0.009 A 
ATOM     22  C   UNL     1       4.643  -0.776   0.201  1.00  0.00     0.011 A 
ATOM     23  C   UNL     1       3.606  -2.221   1.835  1.00  0.00     0.050 A 
ATOM     24  C   UNL     1       4.337   0.334   0.995  1.00  0.00     0.024 A 
ATOM     25  C   UNL     1       3.264  -1.109   2.598  1.00  0.00     0.142 A 
ATOM     26  C   UNL     1       3.608   0.169   2.173  1.00  0.00     0.076 A 
ATOM     27  F   UNL     1       2.531  -1.293   3.707  1.00  0.00    -0.205 F 
ATOM     28  Cl  UNL     1       3.094   1.555   3.053  1.00  0.00    -0.081 Cl
ENDBRANCH  20  21
ENDBRANCH  18  20
ENDBRANCH   5   7
ENDBRANCH   4   5
ENDBRANCH   3   4
ENDBRANCH   2   3
ENDBRANCH   1   2
BRANCH   1  29
ATOM     29  C   UNL     1       1.467  -6.089  -3.175  1.00  0.00     0.202 C 
BRANCH  29  30
ATOM     30  C   UNL     1       2.046  -6.455  -4.543  1.00  0.00     0.261 C 
BRANCH  30  31
ATOM     31  O   UNL     1       1.076  -6.261  -5.586  1.00  0.00    -0.460 OA
BRANCH  31  32
ATOM     32  C   UNL     1       0.658  -7.394  -6.190  1.00  0.00     0.338 C 
ATOM     33  O   UNL     1       1.078  -8.531  -6.018  1.00  0.00    -0.246 OA
BRANCH  32  34
ATOM     34  C   UNL     1      -0.569  -7.110  -6.948  1.00  0.00     0.060 A 
ATOM     35  C   UNL     1      -1.701  -7.884  -6.658  1.00  0.00     0.016 A 
ATOM     36  C   UNL     1      -0.596  -6.147  -7.957  1.00  0.00     0.016 A 
ATOM     37  C   UNL     1      -2.855  -7.736  -7.416  1.00  0.00     0.010 A 
ATOM     38  C   UNL     1      -1.749  -6.012  -8.731  1.00  0.00     0.010 A 
ATOM     39  C   UNL     1      -2.862  -6.837  -8.488  1.00  0.00    -0.014 A 
BRANCH  39  40
ATOM     40  C   UNL     1      -3.957  -6.912  -9.477  1.00  0.00     0.031 A 
ATOM     41  C   UNL     1      -3.723  -7.696 -10.737  1.00  0.00     0.074 A 
ATOM     42  C   UNL     1      -5.141  -6.327  -9.236  1.00  0.00     0.049 A 
ATOM     43  N   UNL     1      -4.506  -7.862 -11.770  1.00  0.00    -0.248 NA
ATOM     44  C   UNL     1      -2.426  -8.385 -10.847  1.00  0.00     0.031 C 
ATOM     45  C   UNL     1      -5.488  -5.591  -8.021  1.00  0.00     0.029 A 
ATOM     46  N   UNL     1      -6.269  -6.257 -10.010  1.00  0.00    -0.354 N 
ATOM     47  C   UNL     1      -3.795  -8.662 -12.655  1.00  0.00     0.074 A 
ATOM     48  C   UNL     1      -2.507  -8.926 -12.053  1.00  0.00     0.031 C 
ATOM     49  C   UNL     1      -6.744  -5.128  -8.139  1.00  0.00     0.029 A 
ATOM     50  C   UNL     1      -7.272  -5.506  -9.448  1.00  0.00     0.049 A 
ATOM     51  H   UNL     1      -6.353  -6.702 -10.884  1.00  0.00     0.167 HD
ATOM     52  C   UNL     1      -4.187  -9.140 -13.859  1.00  0.00     0.037 A 
ATOM     53  C   UNL     1      -8.466  -5.146  -9.954  1.00  0.00     0.037 A 
ATOM     54  C   UNL     1      -5.473  -8.868 -14.445  1.00  0.00     0.049 A 
ATOM     55  C   UNL     1      -8.850  -5.626 -11.329  1.00  0.00     0.074 A 
ATOM     56  C   UNL     1      -5.980  -9.308 -15.654  1.00  0.00     0.029 A 
ATOM     57  N   UNL     1      -6.451  -8.076 -13.861  1.00  0.00    -0.354 N 
ATOM     58  N   UNL     1      -8.179  -6.393 -12.155  1.00  0.00    -0.248 NA
ATOM     59  C   UNL     1     -10.156  -5.191 -11.840  1.00  0.00     0.031 C 
ATOM     60  C   UNL     1      -7.246  -8.739 -15.826  1.00  0.00     0.029 A 
ATOM     61  C   UNL     1      -7.551  -7.992 -14.698  1.00  0.00     0.049 A 
ATOM     62  H   UNL     1      -6.375  -7.639 -12.983  1.00  0.00     0.167 HD
ATOM     63  C   UNL     1      -8.992  -6.557 -13.270  1.00  0.00     0.074 A 
ATOM     64  C   UNL     1     -10.211  -5.819 -13.007  1.00  0.00     0.031 C 
ATOM     65  C   UNL     1      -8.755  -7.255 -14.409  1.00  0.00     0.037 A 
BRANCH  52  66
ATOM     66  C   UNL     1      -3.203  -9.970 -14.629  1.00  0.00     0.057 A 
ATOM     67  C   UNL     1      -2.846 -11.264 -14.228  1.00  0.00     0.134 A 
ATOM     68  C   UNL     1      -2.615  -9.472 -15.799  1.00  0.00     0.134 A 
ATOM     69  F   UNL     1      -3.357 -11.794 -13.106  1.00  0.00    -0.206 F 
ATOM     70  C   UNL     1      -1.923 -12.024 -14.950  1.00  0.00     0.040 A 
ATOM     71  C   UNL     1      -1.712 -10.233 -16.544  1.00  0.00     0.040 A 
ATOM     72  F   UNL     1      -2.910  -8.240 -16.239  1.00  0.00    -0.206 F 
ATOM     73  C   UNL     1      -1.359 -11.511 -16.117  1.00  0.00     0.006 A 
ENDBRANCH  52  66
BRANCH  53  74
ATOM     74  C   UNL     1      -9.375  -4.275  -9.167  1.00  0.00     0.057 A 
ATOM     75  C   UNL     1     -10.589  -4.755  -8.665  1.00  0.00     0.134 A 
ATOM     76  C   UNL     1      -9.056  -2.935  -8.909  1.00  0.00     0.134 A 
ATOM     77  F   UNL     1     -10.960  -6.023  -8.896  1.00  0.00    -0.206 F 
ATOM     78  C   UNL     1     -11.462  -3.933  -7.951  1.00  0.00     0.040 A 
ATOM     79  C   UNL     1      -9.907  -2.109  -8.174  1.00  0.00     0.040 A 
ATOM     80  F   UNL     1      -7.906  -2.414  -9.360  1.00  0.00    -0.206 F 
ATOM     81  C   UNL     1     -11.118  -2.606  -7.699  1.00  0.00     0.006 A 
ENDBRANCH  53  74
BRANCH  65  82
ATOM     82  C   UNL     1      -9.850  -7.284 -15.435  1.00  0.00     0.057 A 
ATOM     83  C   UNL     1     -10.173  -6.161 -16.207  1.00  0.00     0.134 A 
ATOM     84  C   UNL     1     -10.562  -8.465 -15.681  1.00  0.00     0.134 A 
ATOM     85  F   UNL     1      -9.536  -4.996 -16.013  1.00  0.00    -0.206 F 
ATOM     86  C   UNL     1     -11.182  -6.205 -17.171  1.00  0.00     0.040 A 
ATOM     87  C   UNL     1     -11.552  -8.530 -16.661  1.00  0.00     0.040 A 
ATOM     88  F   UNL     1     -10.294  -9.580 -14.984  1.00  0.00    -0.206 F 
ATOM     89  C   UNL     1     -11.869  -7.395 -17.405  1.00  0.00     0.006 A 
ENDBRANCH  65  82
ENDBRANCH  39  40
ENDBRANCH  32  34
ENDBRANCH  31  32
ENDBRANCH  30  31
ENDBRANCH  29  30
ENDBRANCH   1  29
TORSDOF 16
