REMARK SMILES O=C(CSc1ccc(Cl)cc1)Nc1cccc(C(=O)Nc2ccc(C(=O)OCCOCCOC(=O)c3ccc(-c4c5nc(c(-c6c(F)cccc6F)c6ccc([nH]6)c(-c6c(F)cccc6F)c6nc(c(-c7c(F)cccc7F)c7ccc4[nH]7)C=C6)C=C5)cc3)cc2)c1
REMARK SMILES IDX 28 1 27 2 25 3 26 4 24 5 21 6 22 7 91 8 23 9 90 10 20 11
REMARK SMILES IDX 18 12 19 13 17 15 13 16 14 17 92 18 15 19 16 20 12 21 1 22
REMARK SMILES IDX 2 23 3 25 4 26 5 27 6 28 11 29 7 30 10 31 8 32 9 33 29 34
REMARK SMILES IDX 30 35 31 36 32 37 33 38 34 39 35 40 36 41 37 42 89 43 38 44
REMARK SMILES IDX 88 45 39 46 40 47 41 48 82 49 42 50 87 51 81 52 83 53 43 54
REMARK SMILES IDX 86 55 80 56 79 57 44 59 70 60 53 61 69 62 54 63 57 64 68 65
REMARK SMILES IDX 84 66 55 67 56 68 67 70 85 71 58 72 45 73 46 74 51 75 47 76
REMARK SMILES IDX 48 77 50 78 52 79 49 80 71 81 72 82 77 83 73 84 74 85 76 86
REMARK SMILES IDX 78 87 75 88 59 89 60 90 65 91 61 92 62 93 64 94 66 95 63 96
REMARK H PARENT 20 14 12 24 83 58 57 69
REMARK Flexibility Score: inf
ROOT
ATOM      1  C   UNL     1       2.794  -2.278  -3.513  1.00  0.00     0.261 C 
ENDROOT
BRANCH   1   2
ATOM      2  O   UNL     1       2.372  -2.519  -2.161  1.00  0.00    -0.460 OA
BRANCH   2   3
ATOM      3  C   UNL     1       1.071  -2.204  -1.926  1.00  0.00     0.338 C 
ATOM      4  O   UNL     1       0.293  -1.733  -2.744  1.00  0.00    -0.246 OA
BRANCH   3   5
ATOM      5  C   UNL     1       0.653  -2.560  -0.546  1.00  0.00     0.060 A 
ATOM      6  C   UNL     1      -0.298  -2.585   2.069  1.00  0.00     0.041 A 
ATOM      7  C   UNL     1      -1.201  -2.652   1.009  1.00  0.00     0.027 A 
ATOM      8  C   UNL     1       1.073  -2.732   1.827  1.00  0.00     0.027 A 
ATOM      9  C   UNL     1      -0.724  -2.605  -0.297  1.00  0.00     0.018 A 
ATOM     10  C   UNL     1       1.555  -2.720   0.512  1.00  0.00     0.018 A 
BRANCH   6  11
ATOM     11  N   UNL     1      -0.829  -2.237   3.318  1.00  0.00    -0.322 N 
ATOM     12  C   UNL     1      -0.391  -1.331   4.267  1.00  0.00     0.255 C 
ATOM     13  O   UNL     1      -0.995  -1.282   5.341  1.00  0.00    -0.269 OA
ATOM     14  H   UNL     1      -1.652  -2.720   3.562  1.00  0.00     0.170 HD
BRANCH  12  15
ATOM     15  C   UNL     1       0.722  -0.358   4.036  1.00  0.00     0.042 A 
ATOM     16  C   UNL     1       2.263   0.856   2.590  1.00  0.00     0.041 A 
ATOM     17  C   UNL     1       2.953   1.307   3.717  1.00  0.00     0.026 A 
ATOM     18  C   UNL     1       1.092   0.112   2.770  1.00  0.00     0.040 A 
ATOM     19  C   UNL     1       2.503   0.978   4.997  1.00  0.00     0.003 A 
ATOM     20  C   UNL     1       1.409   0.126   5.155  1.00  0.00     0.014 A 
BRANCH  16  21
ATOM     21  N   UNL     1       2.856   1.069   1.327  1.00  0.00    -0.325 N 
ATOM     22  O   UNL     1       1.142   0.485  -0.126  1.00  0.00    -0.274 OA
ATOM     23  C   UNL     1       2.325   0.727   0.097  1.00  0.00     0.234 C 
ATOM     24  H   UNL     1       3.739   1.506   1.321  1.00  0.00     0.169 HD
BRANCH  23  25
ATOM     25  C   UNL     1       3.357   0.553  -1.006  1.00  0.00     0.175 C 
BRANCH  25  26
ATOM     26  S   UNL     1       4.374   2.029  -1.279  1.00  0.00    -0.116 SA
BRANCH  26  27
ATOM     27  C   UNL     1       3.170   3.284  -1.692  1.00  0.00     0.008 A 
ATOM     28  C   UNL     1       3.603   4.614  -1.592  1.00  0.00     0.016 A 
ATOM     29  C   UNL     1       1.849   3.037  -2.081  1.00  0.00     0.016 A 
ATOM     30  C   UNL     1       2.721   5.672  -1.822  1.00  0.00     0.021 A 
ATOM     31  C   UNL     1       0.959   4.095  -2.295  1.00  0.00     0.021 A 
ATOM     32  C   UNL     1       1.396   5.408  -2.155  1.00  0.00     0.041 A 
ATOM     33  Cl  UNL     1       0.297   6.708  -2.394  1.00  0.00    -0.084 Cl
ENDBRANCH  26  27
ENDBRANCH  25  26
ENDBRANCH  23  25
ENDBRANCH  16  21
ENDBRANCH  12  15
ENDBRANCH   6  11
ENDBRANCH   3   5
ENDBRANCH   2   3
ENDBRANCH   1   2
BRANCH   1  34
ATOM     34  C   UNL     1       2.967  -3.552  -4.346  1.00  0.00     0.202 C 
BRANCH  34  35
ATOM     35  O   UNL     1       1.864  -4.439  -4.483  1.00  0.00    -0.374 OA
BRANCH  35  36
ATOM     36  C   UNL     1       1.400  -5.150  -3.340  1.00  0.00     0.202 C 
BRANCH  36  37
ATOM     37  C   UNL     1       2.306  -6.214  -2.708  1.00  0.00     0.261 C 
BRANCH  37  38
ATOM     38  O   UNL     1       3.613  -5.739  -2.345  1.00  0.00    -0.460 OA
BRANCH  38  39
ATOM     39  C   UNL     1       4.617  -6.253  -3.098  1.00  0.00     0.338 C 
ATOM     40  O   UNL     1       4.523  -7.062  -4.009  1.00  0.00    -0.246 OA
BRANCH  39  41
ATOM     41  C   UNL     1       5.895  -5.597  -2.778  1.00  0.00     0.060 A 
ATOM     42  C   UNL     1       6.588  -4.976  -3.826  1.00  0.00     0.016 A 
ATOM     43  C   UNL     1       6.471  -5.711  -1.512  1.00  0.00     0.016 A 
ATOM     44  C   UNL     1       7.885  -4.512  -3.624  1.00  0.00     0.010 A 
ATOM     45  C   UNL     1       7.779  -5.255  -1.315  1.00  0.00     0.010 A 
ATOM     46  C   UNL     1       8.504  -4.690  -2.379  1.00  0.00    -0.014 A 
BRANCH  46  47
ATOM     47  C   UNL     1       9.955  -4.425  -2.243  1.00  0.00     0.031 A 
ATOM     48  C   UNL     1      10.923  -5.570  -2.362  1.00  0.00     0.074 A 
ATOM     49  C   UNL     1      10.409  -3.174  -2.050  1.00  0.00     0.049 A 
ATOM     50  N   UNL     1      12.226  -5.570  -2.252  1.00  0.00    -0.248 NA
ATOM     51  C   UNL     1      10.342  -6.893  -2.643  1.00  0.00     0.031 C 
ATOM     52  C   UNL     1       9.575  -1.977  -1.961  1.00  0.00     0.029 A 
ATOM     53  N   UNL     1      11.689  -2.709  -1.890  1.00  0.00    -0.354 N 
ATOM     54  C   UNL     1      12.622  -6.886  -2.451  1.00  0.00     0.074 A 
ATOM     55  C   UNL     1      11.419  -7.664  -2.659  1.00  0.00     0.031 C 
ATOM     56  C   UNL     1      10.367  -0.912  -1.750  1.00  0.00     0.029 A 
ATOM     57  C   UNL     1      11.757  -1.357  -1.664  1.00  0.00     0.049 A 
ATOM     58  H   UNL     1      12.483  -3.289  -1.933  1.00  0.00     0.167 HD
ATOM     59  C   UNL     1      13.875  -7.400  -2.470  1.00  0.00     0.037 A 
ATOM     60  C   UNL     1      12.820  -0.573  -1.401  1.00  0.00     0.037 A 
ATOM     61  C   UNL     1      15.072  -6.630  -2.261  1.00  0.00     0.049 A 
ATOM     62  C   UNL     1      14.196  -1.180  -1.354  1.00  0.00     0.074 A 
ATOM     63  C   UNL     1      16.388  -7.059  -2.268  1.00  0.00     0.029 A 
ATOM     64  N   UNL     1      15.097  -5.268  -2.002  1.00  0.00    -0.354 N 
ATOM     65  N   UNL     1      14.560  -2.422  -1.560  1.00  0.00    -0.248 NA
ATOM     66  C   UNL     1      15.310  -0.273  -1.040  1.00  0.00     0.031 C 
ATOM     67  C   UNL     1      17.207  -5.963  -1.976  1.00  0.00     0.029 A 
ATOM     68  C   UNL     1      16.403  -4.845  -1.827  1.00  0.00     0.049 A 
ATOM     69  H   UNL     1      14.303  -4.688  -1.950  1.00  0.00     0.167 HD
ATOM     70  C   UNL     1      15.942  -2.442  -1.426  1.00  0.00     0.074 A 
ATOM     71  C   UNL     1      16.354  -1.085  -1.131  1.00  0.00     0.031 C 
ATOM     72  C   UNL     1      16.796  -3.489  -1.540  1.00  0.00     0.037 A 
BRANCH  59  73
ATOM     73  C   UNL     1      14.010  -8.874  -2.708  1.00  0.00     0.057 A 
ATOM     74  C   UNL     1      13.811  -9.437  -3.975  1.00  0.00     0.134 A 
ATOM     75  C   UNL     1      14.372  -9.736  -1.665  1.00  0.00     0.134 A 
ATOM     76  F   UNL     1      13.449  -8.666  -5.011  1.00  0.00    -0.206 F 
ATOM     77  C   UNL     1      13.949 -10.809  -4.193  1.00  0.00     0.040 A 
ATOM     78  C   UNL     1      14.533 -11.107  -1.875  1.00  0.00     0.040 A 
ATOM     79  F   UNL     1      14.580  -9.260  -0.429  1.00  0.00    -0.206 F 
ATOM     80  C   UNL     1      14.316 -11.647  -3.141  1.00  0.00     0.006 A 
ENDBRANCH  59  73
BRANCH  60  81
ATOM     81  C   UNL     1      12.627   0.876  -1.146  1.00  0.00     0.057 A 
ATOM     82  C   UNL     1      13.058   1.837  -2.067  1.00  0.00     0.134 A 
ATOM     83  C   UNL     1      12.027   1.332   0.033  1.00  0.00     0.134 A 
ATOM     84  F   UNL     1      13.661   1.460  -3.204  1.00  0.00    -0.206 F 
ATOM     85  C   UNL     1      12.914   3.203  -1.817  1.00  0.00     0.040 A 
ATOM     86  C   UNL     1      11.857   2.694   0.287  1.00  0.00     0.040 A 
ATOM     87  F   UNL     1      11.591   0.460   0.954  1.00  0.00    -0.206 F 
ATOM     88  C   UNL     1      12.307   3.634  -0.638  1.00  0.00     0.006 A 
ENDBRANCH  60  81
BRANCH  72  89
ATOM     89  C   UNL     1      18.259  -3.204  -1.375  1.00  0.00     0.057 A 
ATOM     90  C   UNL     1      18.825  -2.955  -0.119  1.00  0.00     0.134 A 
ATOM     91  C   UNL     1      19.116  -3.217  -2.483  1.00  0.00     0.134 A 
ATOM     92  F   UNL     1      18.054  -2.916   0.978  1.00  0.00    -0.206 F 
ATOM     93  C   UNL     1      20.192  -2.712   0.028  1.00  0.00     0.040 A 
ATOM     94  C   UNL     1      20.487  -2.997  -2.346  1.00  0.00     0.040 A 
ATOM     95  F   UNL     1      18.637  -3.457  -3.713  1.00  0.00    -0.206 F 
ATOM     96  C   UNL     1      21.028  -2.739  -1.088  1.00  0.00     0.006 A 
ENDBRANCH  72  89
ENDBRANCH  46  47
ENDBRANCH  39  41
ENDBRANCH  38  39
ENDBRANCH  37  38
ENDBRANCH  36  37
ENDBRANCH  35  36
ENDBRANCH  34  35
ENDBRANCH   1  34
TORSDOF 20
