REMARK SMILES C[C@@](NC(=O)CCOC1CC[NH2+]CC1)(C(=O)OCCOCCOC(=O)c1ccc(-c2c3nc(c(-c4c(F)cccc4F)c4ccc([nH]4)c(-c4c(F)cccc4F)c4nc(c(-c5c(F)cccc5F)c5ccc2[nH]5)C=C4)C=C3)cc1)C(F)(F)F
REMARK SMILES IDX 18 1 17 2 15 3 16 4 2 5 1 6 3 7 4 8 5 10 6 11 7 12 8 13 9 14
REMARK SMILES IDX 10 15 14 16 11 17 13 18 12 19 80 22 81 23 82 24 83 25 19 26
REMARK SMILES IDX 20 27 21 28 22 29 23 30 24 31 25 32 26 33 27 34 79 35 28 36
REMARK SMILES IDX 78 37 29 38 30 39 31 40 72 41 32 42 77 43 71 44 73 45 33 46
REMARK SMILES IDX 76 47 70 48 69 49 34 51 60 52 43 53 59 54 44 55 47 56 58 57
REMARK SMILES IDX 74 58 45 59 46 60 57 62 75 63 48 64 35 65 36 66 41 67 37 68
REMARK SMILES IDX 38 69 40 70 42 71 39 72 61 73 62 74 67 75 63 76 64 77 66 78
REMARK SMILES IDX 68 79 65 80 49 81 50 82 55 83 51 84 52 85 54 86 56 87 53 88
REMARK H PARENT 3 9 12 20 12 21 73 50 47 61
REMARK Flexibility Score: inf
ROOT
ATOM      1  C   UNL     1      -4.332  -2.175   0.001  1.00  0.00     0.261 C 
ENDROOT
BRANCH   1   2
ATOM      2  O   UNL     1      -2.902  -2.149   0.104  1.00  0.00    -0.461 OA
BRANCH   2   3
ATOM      3  C   UNL     1      -2.205  -3.311  -0.005  1.00  0.00     0.341 C 
ATOM      4  O   UNL     1      -2.717  -4.418   0.035  1.00  0.00    -0.249 OA
BRANCH   3   5
ATOM      5  C   UNL     1      -0.706  -3.016  -0.091  1.00  0.00     0.231 C 
ATOM      6  C   UNL     1      -0.406  -1.558  -0.452  1.00  0.00     0.058 C 
BRANCH   5   7
ATOM      7  N   UNL     1       0.013  -3.445   1.155  1.00  0.00    -0.333 N 
ATOM      8  C   UNL     1       0.040  -2.958   2.423  1.00  0.00     0.223 C 
ATOM      9  H   UNL     1       0.579  -4.240   1.027  1.00  0.00     0.164 HD
ATOM     10  O   UNL     1       0.865  -3.436   3.205  1.00  0.00    -0.275 OA
BRANCH   8  11
ATOM     11  C   UNL     1      -0.899  -1.867   2.872  1.00  0.00     0.128 C 
BRANCH  11  12
ATOM     12  C   UNL     1      -0.161  -0.543   3.023  1.00  0.00     0.170 C 
BRANCH  12  13
ATOM     13  O   UNL     1       0.543  -0.260   1.817  1.00  0.00    -0.377 OA
BRANCH  13  14
ATOM     14  C   UNL     1       1.858   0.280   1.976  1.00  0.00     0.129 C 
ATOM     15  C   UNL     1       1.816   1.752   1.592  1.00  0.00     0.093 C 
ATOM     16  C   UNL     1       2.854  -0.505   1.104  1.00  0.00     0.093 C 
ATOM     17  C   UNL     1       1.662   1.917   0.085  1.00  0.00     0.263 C 
ATOM     18  C   UNL     1       2.943  -0.081  -0.369  1.00  0.00     0.263 C 
ATOM     19  N   UNL     1       2.825   1.356  -0.596  1.00  0.00    -0.346 N 
ATOM     20  H   UNL     1       3.666   1.815  -0.247  1.00  0.00     0.346 HD
ATOM     21  H   UNL     1       2.713   1.511  -1.598  1.00  0.00     0.346 HD
ENDBRANCH  13  14
ENDBRANCH  12  13
ENDBRANCH  11  12
ENDBRANCH   8  11
ENDBRANCH   5   7
BRANCH   5  22
ATOM     22  C   UNL     1      -0.230  -3.837  -1.308  1.00  0.00     0.422 C 
ATOM     23  F   UNL     1      -0.917  -3.533  -2.433  1.00  0.00    -0.168 F 
ATOM     24  F   UNL     1       1.078  -3.561  -1.567  1.00  0.00    -0.168 F 
ATOM     25  F   UNL     1      -0.302  -5.168  -1.110  1.00  0.00    -0.168 F 
ENDBRANCH   5  22
ENDBRANCH   3   5
ENDBRANCH   2   3
ENDBRANCH   1   2
BRANCH   1  26
ATOM     26  C   UNL     1      -4.770  -0.806  -0.531  1.00  0.00     0.202 C 
BRANCH  26  27
ATOM     27  O   UNL     1      -4.573  -0.608  -1.937  1.00  0.00    -0.374 OA
BRANCH  27  28
ATOM     28  C   UNL     1      -3.229  -0.446  -2.385  1.00  0.00     0.202 C 
BRANCH  28  29
ATOM     29  C   UNL     1      -2.644   0.971  -2.289  1.00  0.00     0.261 C 
BRANCH  29  30
ATOM     30  O   UNL     1      -2.790   1.556  -0.984  1.00  0.00    -0.460 OA
BRANCH  30  31
ATOM     31  C   UNL     1      -3.747   2.514  -0.926  1.00  0.00     0.338 C 
ATOM     32  O   UNL     1      -4.408   2.962  -1.846  1.00  0.00    -0.246 OA
BRANCH  31  33
ATOM     33  C   UNL     1      -4.020   2.902   0.466  1.00  0.00     0.060 A 
ATOM     34  C   UNL     1      -5.273   2.558   0.981  1.00  0.00     0.016 A 
ATOM     35  C   UNL     1      -3.168   3.756   1.171  1.00  0.00     0.016 A 
ATOM     36  C   UNL     1      -5.710   3.124   2.173  1.00  0.00     0.010 A 
ATOM     37  C   UNL     1      -3.610   4.324   2.374  1.00  0.00     0.010 A 
ATOM     38  C   UNL     1      -4.904   4.050   2.853  1.00  0.00    -0.014 A 
BRANCH  38  39
ATOM     39  C   UNL     1      -5.518   4.818   3.967  1.00  0.00     0.031 A 
ATOM     40  C   UNL     1      -6.007   6.222   3.723  1.00  0.00     0.074 A 
ATOM     41  C   UNL     1      -5.758   4.220   5.147  1.00  0.00     0.049 A 
ATOM     42  N   UNL     1      -6.687   7.012   4.516  1.00  0.00    -0.248 NA
ATOM     43  C   UNL     1      -5.698   6.812   2.411  1.00  0.00     0.031 C 
ATOM     44  C   UNL     1      -5.361   2.857   5.496  1.00  0.00     0.029 A 
ATOM     45  N   UNL     1      -6.416   4.676   6.261  1.00  0.00    -0.354 N 
ATOM     46  C   UNL     1      -6.901   8.182   3.796  1.00  0.00     0.074 A 
ATOM     47  C   UNL     1      -6.237   8.018   2.521  1.00  0.00     0.031 C 
ATOM     48  C   UNL     1      -5.796   2.581   6.737  1.00  0.00     0.029 A 
ATOM     49  C   UNL     1      -6.483   3.753   7.276  1.00  0.00     0.049 A 
ATOM     50  H   UNL     1      -6.803   5.579   6.327  1.00  0.00     0.167 HD
ATOM     51  C   UNL     1      -7.603   9.284   4.154  1.00  0.00     0.037 A 
ATOM     52  C   UNL     1      -7.035   3.843   8.501  1.00  0.00     0.037 A 
ATOM     53  C   UNL     1      -8.261   9.454   5.424  1.00  0.00     0.049 A 
ATOM     54  C   UNL     1      -7.766   5.099   8.894  1.00  0.00     0.074 A 
ATOM     55  C   UNL     1      -8.992  10.537   5.880  1.00  0.00     0.029 A 
ATOM     56  N   UNL     1      -8.265   8.514   6.443  1.00  0.00    -0.354 N 
ATOM     57  N   UNL     1      -7.978   6.187   8.194  1.00  0.00    -0.248 NA
ATOM     58  C   UNL     1      -8.346   5.131  10.244  1.00  0.00     0.031 C 
ATOM     59  C   UNL     1      -9.401  10.271   7.192  1.00  0.00     0.029 A 
ATOM     60  C   UNL     1      -8.969   9.000   7.534  1.00  0.00     0.049 A 
ATOM     61  H   UNL     1      -7.831   7.631   6.399  1.00  0.00     0.167 HD
ATOM     62  C   UNL     1      -8.729   7.024   9.009  1.00  0.00     0.074 A 
ATOM     63  C   UNL     1      -8.960   6.305  10.245  1.00  0.00     0.031 C 
ATOM     64  C   UNL     1      -9.184   8.277   8.761  1.00  0.00     0.037 A 
BRANCH  51  65
ATOM     65  C   UNL     1      -7.690  10.403   3.156  1.00  0.00     0.057 A 
ATOM     66  C   UNL     1      -8.472  10.299   1.997  1.00  0.00     0.134 A 
ATOM     67  C   UNL     1      -7.022  11.614   3.376  1.00  0.00     0.134 A 
ATOM     68  F   UNL     1      -9.128   9.162   1.720  1.00  0.00    -0.206 F 
ATOM     69  C   UNL     1      -8.570  11.352   1.085  1.00  0.00     0.040 A 
ATOM     70  C   UNL     1      -7.132  12.683   2.484  1.00  0.00     0.040 A 
ATOM     71  F   UNL     1      -6.261  11.783   4.468  1.00  0.00    -0.206 F 
ATOM     72  C   UNL     1      -7.904  12.551   1.332  1.00  0.00     0.006 A 
ENDBRANCH  51  65
BRANCH  52  73
ATOM     73  C   UNL     1      -6.909   2.711   9.454  1.00  0.00     0.057 A 
ATOM     74  C   UNL     1      -8.020   1.959   9.853  1.00  0.00     0.134 A 
ATOM     75  C   UNL     1      -5.668   2.374  10.010  1.00  0.00     0.134 A 
ATOM     76  F   UNL     1      -9.238   2.247   9.373  1.00  0.00    -0.206 F 
ATOM     77  C   UNL     1      -7.906   0.926  10.786  1.00  0.00     0.040 A 
ATOM     78  C   UNL     1      -5.535   1.326  10.922  1.00  0.00     0.040 A 
ATOM     79  F   UNL     1      -4.565   3.054   9.666  1.00  0.00    -0.206 F 
ATOM     80  C   UNL     1      -6.659   0.605  11.319  1.00  0.00     0.006 A 
ENDBRANCH  52  73
BRANCH  64  81
ATOM     81  C   UNL     1      -9.990   8.937   9.844  1.00  0.00     0.057 A 
ATOM     82  C   UNL     1      -9.406   9.367  11.043  1.00  0.00     0.134 A 
ATOM     83  C   UNL     1     -11.366   9.150   9.684  1.00  0.00     0.134 A 
ATOM     84  F   UNL     1      -8.096   9.182  11.265  1.00  0.00    -0.206 F 
ATOM     85  C   UNL     1     -10.167   9.949  12.059  1.00  0.00     0.040 A 
ATOM     86  C   UNL     1     -12.131   9.757  10.680  1.00  0.00     0.040 A 
ATOM     87  F   UNL     1     -11.987   8.774   8.556  1.00  0.00    -0.206 F 
ATOM     88  C   UNL     1     -11.534  10.149  11.877  1.00  0.00     0.006 A 
ENDBRANCH  64  81
ENDBRANCH  38  39
ENDBRANCH  31  33
ENDBRANCH  30  31
ENDBRANCH  29  30
ENDBRANCH  28  29
ENDBRANCH  27  28
ENDBRANCH  26  27
ENDBRANCH   1  26
TORSDOF 20
