REMARK SMILES CC[NH2+][C@@]1(C(=O)OCCOCCOC(=O)c2ccc(-c3c4nc(c(-c5c(F)cccc5F)c5ccc([nH]5)c(-c5c(F)cccc5F)c5nc(c(-c6c(F)cccc6F)c6ccc3[nH]6)C=C5)C=C4)cc2)CC[C@@H]([N@@H+](C)Cc2nccn2C)C1
REMARK SMILES IDX 9 1 8 2 7 3 5 4 6 5 4 6 70 7 82 8 71 9 72 10 3 11 2 14 1 15
REMARK SMILES IDX 73 16 74 17 75 19 76 20 77 21 80 22 78 23 79 24 81 25 10 26
REMARK SMILES IDX 11 27 12 28 13 29 14 30 15 31 16 32 17 33 69 34 18 35 68 36
REMARK SMILES IDX 19 37 20 38 21 39 62 40 22 41 67 42 61 43 63 44 23 45 66 46
REMARK SMILES IDX 60 47 59 48 24 50 50 51 33 52 49 53 34 54 37 55 48 56 64 57
REMARK SMILES IDX 35 58 36 59 47 61 65 62 38 63 25 64 26 65 31 66 27 67 28 68
REMARK SMILES IDX 30 69 32 70 29 71 51 72 52 73 57 74 53 75 54 76 56 77 58 78
REMARK SMILES IDX 55 79 39 80 40 81 45 82 41 83 42 84 44 85 46 86 43 87
REMARK H PARENT 3 12 3 13 73 18 63 49 37 60
REMARK Flexibility Score: inf
ROOT
ATOM      1  C   UNL     1       0.253   2.655   5.294  1.00  0.00     0.202 C 
ENDROOT
BRANCH   1   2
ATOM      2  C   UNL     1       1.264   3.597   4.641  1.00  0.00     0.261 C 
BRANCH   2   3
ATOM      3  O   UNL     1       0.837   3.983   3.324  1.00  0.00    -0.459 OA
BRANCH   3   4
ATOM      4  C   UNL     1       1.649   3.565   2.320  1.00  0.00     0.368 C 
ATOM      5  O   UNL     1       2.731   3.004   2.484  1.00  0.00    -0.245 OA
BRANCH   4   6
ATOM      6  C   UNL     1       1.103   3.901   0.909  1.00  0.00     0.200 C 
ATOM      7  C   UNL     1       1.738   5.254   0.567  1.00  0.00     0.087 C 
ATOM      8  C   UNL     1      -0.411   4.143   0.734  1.00  0.00     0.146 C 
ATOM      9  C   UNL     1       0.723   6.291   1.031  1.00  0.00     0.072 C 
ATOM     10  C   UNL     1      -0.660   5.662   0.823  1.00  0.00     0.191 C 
BRANCH   6  11
ATOM     11  N   UNL     1       1.569   2.833  -0.041  1.00  0.00    -0.332 N 
ATOM     12  H   UNL     1       1.295   3.096  -0.988  1.00  0.00     0.347 HD
ATOM     13  H   UNL     1       2.582   2.758   0.050  1.00  0.00     0.347 HD
BRANCH  11  14
ATOM     14  C   UNL     1       0.993   1.514   0.269  1.00  0.00     0.257 C 
ATOM     15  C   UNL     1       1.445   0.468  -0.737  1.00  0.00     0.071 C 
ENDBRANCH  11  14
ENDBRANCH   6  11
BRANCH  10  16
ATOM     16  N   UNL     1      -1.538   6.198  -0.233  1.00  0.00    -0.328 N 
ATOM     17  C   UNL     1      -1.988   7.561   0.055  1.00  0.00     0.333 C 
ATOM     18  H   UNL     1      -2.320   5.546  -0.168  1.00  0.00     0.348 HD
BRANCH  16  19
ATOM     19  C   UNL     1      -1.146   6.043  -1.650  1.00  0.00     0.338 C 
BRANCH  19  20
ATOM     20  C   UNL     1       0.120   6.721  -2.095  1.00  0.00     0.164 A 
ATOM     21  N   UNL     1       0.388   8.011  -1.955  1.00  0.00    -0.236 NA
ATOM     22  N   UNL     1       1.178   6.092  -2.721  1.00  0.00    -0.333 N 
ATOM     23  C   UNL     1       1.670   8.191  -2.392  1.00  0.00     0.131 A 
ATOM     24  C   UNL     1       2.187   7.011  -2.863  1.00  0.00     0.107 A 
ATOM     25  C   UNL     1       1.322   4.700  -3.082  1.00  0.00     0.151 C 
ENDBRANCH  19  20
ENDBRANCH  16  19
ENDBRANCH  10  16
ENDBRANCH   4   6
ENDBRANCH   3   4
ENDBRANCH   2   3
ENDBRANCH   1   2
BRANCH   1  26
ATOM     26  O   UNL     1       0.086   1.370   4.694  1.00  0.00    -0.374 OA
BRANCH  26  27
ATOM     27  C   UNL     1      -0.648   1.299   3.474  1.00  0.00     0.202 C 
BRANCH  27  28
ATOM     28  C   UNL     1      -2.175   1.391   3.564  1.00  0.00     0.261 C 
BRANCH  28  29
ATOM     29  O   UNL     1      -2.605   2.650   4.105  1.00  0.00    -0.460 OA
BRANCH  29  30
ATOM     30  C   UNL     1      -3.166   2.562   5.332  1.00  0.00     0.338 C 
ATOM     31  O   UNL     1      -3.453   1.541   5.945  1.00  0.00    -0.246 OA
BRANCH  30  32
ATOM     32  C   UNL     1      -3.213   3.888   5.968  1.00  0.00     0.060 A 
ATOM     33  C   UNL     1      -2.628   3.996   7.235  1.00  0.00     0.016 A 
ATOM     34  C   UNL     1      -3.872   4.976   5.389  1.00  0.00     0.016 A 
ATOM     35  C   UNL     1      -2.764   5.170   7.963  1.00  0.00     0.010 A 
ATOM     36  C   UNL     1      -4.019   6.155   6.129  1.00  0.00     0.010 A 
ATOM     37  C   UNL     1      -3.508   6.235   7.437  1.00  0.00    -0.014 A 
BRANCH  37  38
ATOM     38  C   UNL     1      -3.881   7.332   8.359  1.00  0.00     0.031 A 
ATOM     39  C   UNL     1      -5.216   7.274   9.050  1.00  0.00     0.074 A 
ATOM     40  C   UNL     1      -2.991   8.288   8.674  1.00  0.00     0.049 A 
ATOM     41  N   UNL     1      -5.689   8.030  10.006  1.00  0.00    -0.248 NA
ATOM     42  C   UNL     1      -6.138   6.213   8.610  1.00  0.00     0.031 C 
ATOM     43  C   UNL     1      -1.656   8.422   8.093  1.00  0.00     0.029 A 
ATOM     44  N   UNL     1      -3.070   9.311   9.584  1.00  0.00    -0.354 N 
ATOM     45  C   UNL     1      -6.954   7.531  10.290  1.00  0.00     0.074 A 
ATOM     46  C   UNL     1      -7.193   6.433   9.379  1.00  0.00     0.031 C 
ATOM     47  C   UNL     1      -1.033   9.462   8.673  1.00  0.00     0.029 A 
ATOM     48  C   UNL     1      -1.929  10.069   9.655  1.00  0.00     0.049 A 
ATOM     49  H   UNL     1      -3.869   9.484  10.132  1.00  0.00     0.167 HD
ATOM     50  C   UNL     1      -7.832   7.940  11.237  1.00  0.00     0.037 A 
ATOM     51  C   UNL     1      -1.640  11.129  10.434  1.00  0.00     0.037 A 
ATOM     52  C   UNL     1      -7.594   9.037  12.138  1.00  0.00     0.049 A 
ATOM     53  C   UNL     1      -2.650  11.591  11.449  1.00  0.00     0.074 A 
ATOM     54  C   UNL     1      -8.418   9.532  13.133  1.00  0.00     0.029 A 
ATOM     55  N   UNL     1      -6.444   9.812  12.147  1.00  0.00    -0.354 N 
ATOM     56  N   UNL     1      -3.830  11.093  11.730  1.00  0.00    -0.248 NA
ATOM     57  C   UNL     1      -2.279  12.754  12.267  1.00  0.00     0.031 C 
ATOM     58  C   UNL     1      -7.784  10.635  13.717  1.00  0.00     0.029 A 
ATOM     59  C   UNL     1      -6.544  10.795  13.118  1.00  0.00     0.049 A 
ATOM     60  H   UNL     1      -5.671   9.683  11.552  1.00  0.00     0.167 HD
ATOM     61  C   UNL     1      -4.332  11.865  12.771  1.00  0.00     0.074 A 
ATOM     62  C   UNL     1      -3.318  12.851  13.084  1.00  0.00     0.031 C 
ATOM     63  C   UNL     1      -5.524  11.769  13.411  1.00  0.00     0.037 A 
BRANCH  50  64
ATOM     64  C   UNL     1      -9.139   7.208  11.325  1.00  0.00     0.057 A 
ATOM     65  C   UNL     1      -9.225   5.907  11.838  1.00  0.00     0.134 A 
ATOM     66  C   UNL     1     -10.329   7.820  10.911  1.00  0.00     0.134 A 
ATOM     67  F   UNL     1      -8.121   5.258  12.236  1.00  0.00    -0.206 F 
ATOM     68  C   UNL     1     -10.446   5.233  11.915  1.00  0.00     0.040 A 
ATOM     69  C   UNL     1     -11.558   7.164  11.005  1.00  0.00     0.040 A 
ATOM     70  F   UNL     1     -10.316   9.064  10.411  1.00  0.00    -0.206 F 
ATOM     71  C   UNL     1     -11.617   5.865  11.504  1.00  0.00     0.006 A 
ENDBRANCH  50  64
BRANCH  51  72
ATOM     72  C   UNL     1      -0.332  11.816  10.296  1.00  0.00     0.057 A 
ATOM     73  C   UNL     1       0.640  11.747  11.301  1.00  0.00     0.134 A 
ATOM     74  C   UNL     1      -0.029  12.571   9.156  1.00  0.00     0.134 A 
ATOM     75  F   UNL     1       0.400  11.057  12.425  1.00  0.00    -0.206 F 
ATOM     76  C   UNL     1       1.858  12.418  11.187  1.00  0.00     0.040 A 
ATOM     77  C   UNL     1       1.195  13.227   9.018  1.00  0.00     0.040 A 
ATOM     78  F   UNL     1      -0.917  12.675   8.157  1.00  0.00    -0.206 F 
ATOM     79  C   UNL     1       2.140  13.157  10.039  1.00  0.00     0.006 A 
ENDBRANCH  51  72
BRANCH  63  80
ATOM     80  C   UNL     1      -5.775  12.740  14.528  1.00  0.00     0.057 A 
ATOM     81  C   UNL     1      -6.016  14.098  14.287  1.00  0.00     0.134 A 
ATOM     82  C   UNL     1      -5.785  12.307  15.860  1.00  0.00     0.134 A 
ATOM     83  F   UNL     1      -6.008  14.578  13.034  1.00  0.00    -0.206 F 
ATOM     84  C   UNL     1      -6.221  14.999  15.333  1.00  0.00     0.040 A 
ATOM     85  C   UNL     1      -6.017  13.193  16.913  1.00  0.00     0.040 A 
ATOM     86  F   UNL     1      -5.574  11.017  16.160  1.00  0.00    -0.206 F 
ATOM     87  C   UNL     1      -6.226  14.546  16.651  1.00  0.00     0.006 A 
ENDBRANCH  63  80
ENDBRANCH  37  38
ENDBRANCH  30  32
ENDBRANCH  29  30
ENDBRANCH  28  29
ENDBRANCH  27  28
ENDBRANCH  26  27
ENDBRANCH   1  26
TORSDOF 19
