REMARK SMILES Cc1cccc(-c2cc(C(=O)OCCOCCOC(=O)c3ccc(-c4c5nc(c(-c6c(F)cccc6F)c6ccc([nH]6)c(-c6c(F)cccc6F)c6nc(c(-c7c(F)cccc7F)c7ccc4[nH]7)C=C6)C=C5)cc3)ccn2)c1
REMARK SMILES IDX 16 1 15 2 14 3 13 4 12 5 10 6 11 7 9 8 7 9 8 10 77 11 76 12
REMARK SMILES IDX 75 13 6 14 1 15 2 16 3 17 78 18 4 19 5 20 17 21 18 22 19 23
REMARK SMILES IDX 20 24 21 25 22 26 74 27 23 28 73 29 24 30 25 31 26 32 67 33
REMARK SMILES IDX 27 34 72 35 66 36 68 37 28 38 71 39 65 40 64 41 29 43 55 44
REMARK SMILES IDX 38 45 54 46 39 47 42 48 53 49 69 50 40 51 41 52 52 54 70 55
REMARK SMILES IDX 43 56 30 57 31 58 36 59 32 60 33 61 35 62 37 63 34 64 56 65
REMARK SMILES IDX 57 66 62 67 58 68 59 69 61 70 63 71 60 72 44 73 45 74 50 75
REMARK SMILES IDX 46 76 47 77 49 78 51 79 48 80
REMARK H PARENT 68 42 42 53
REMARK Flexibility Score: inf
ROOT
ATOM      1  C   UNL     1      -5.153   5.130  -3.807  1.00  0.00     0.202 C 
ENDROOT
BRANCH   1   2
ATOM      2  O   UNL     1      -3.757   5.292  -3.711  1.00  0.00    -0.374 OA
BRANCH   2   3
ATOM      3  C   UNL     1      -2.977   4.214  -4.185  1.00  0.00     0.202 C 
BRANCH   3   4
ATOM      4  C   UNL     1      -1.583   4.498  -3.727  1.00  0.00     0.261 C 
BRANCH   4   5
ATOM      5  O   UNL     1      -1.468   4.409  -2.292  1.00  0.00    -0.460 OA
BRANCH   5   6
ATOM      6  C   UNL     1      -2.149   5.162  -1.379  1.00  0.00     0.338 C 
ATOM      7  O   UNL     1      -2.637   6.260  -1.489  1.00  0.00    -0.246 OA
BRANCH   6   8
ATOM      8  C   UNL     1      -2.302   4.281  -0.198  1.00  0.00     0.063 A 
ATOM      9  C   UNL     1      -1.884   2.125   0.760  1.00  0.00     0.071 A 
ATOM     10  C   UNL     1      -1.563   3.107  -0.153  1.00  0.00     0.044 A 
ATOM     11  N   UNL     1      -2.875   2.288   1.662  1.00  0.00    -0.256 NA
ATOM     12  C   UNL     1      -3.518   3.488   1.665  1.00  0.00     0.112 A 
ATOM     13  C   UNL     1      -3.273   4.513   0.763  1.00  0.00     0.036 A 
BRANCH   9  14
ATOM     14  C   UNL     1      -1.163   0.853   0.657  1.00  0.00     0.000 A 
ATOM     15  C   UNL     1       2.456  -0.190   0.028  1.00  0.00     0.044 C 
ATOM     16  C   UNL     1       0.969  -0.272   0.199  1.00  0.00    -0.050 A 
ATOM     17  C   UNL     1       0.282  -1.475   0.031  1.00  0.00     0.003 A 
ATOM     18  C   UNL     1       0.242   0.871   0.534  1.00  0.00     0.013 A 
ATOM     19  C   UNL     1      -1.108  -1.522   0.173  1.00  0.00     0.001 A 
ATOM     20  C   UNL     1      -1.829  -0.364   0.479  1.00  0.00     0.010 A 
ENDBRANCH   9  14
ENDBRANCH   6   8
ENDBRANCH   5   6
ENDBRANCH   4   5
ENDBRANCH   3   4
ENDBRANCH   2   3
ENDBRANCH   1   2
BRANCH   1  21
ATOM     21  C   UNL     1      -5.602   5.013  -5.266  1.00  0.00     0.261 C 
BRANCH  21  22
ATOM     22  O   UNL     1      -5.275   6.224  -5.987  1.00  0.00    -0.460 OA
BRANCH  22  23
ATOM     23  C   UNL     1      -4.101   6.215  -6.684  1.00  0.00     0.338 C 
ATOM     24  O   UNL     1      -3.776   5.370  -7.503  1.00  0.00    -0.246 OA
BRANCH  23  25
ATOM     25  C   UNL     1      -3.150   7.209  -6.100  1.00  0.00     0.060 A 
ATOM     26  C   UNL     1      -1.779   7.162  -6.431  1.00  0.00     0.016 A 
ATOM     27  C   UNL     1      -3.564   7.903  -4.970  1.00  0.00     0.016 A 
ATOM     28  C   UNL     1      -0.815   7.649  -5.531  1.00  0.00     0.010 A 
ATOM     29  C   UNL     1      -2.616   8.232  -4.030  1.00  0.00     0.010 A 
ATOM     30  C   UNL     1      -1.239   8.093  -4.283  1.00  0.00    -0.014 A 
BRANCH  30  31
ATOM     31  C   UNL     1      -0.407   8.429  -3.120  1.00  0.00     0.031 A 
ATOM     32  C   UNL     1      -0.560   9.799  -2.575  1.00  0.00     0.074 A 
ATOM     33  C   UNL     1       0.155   7.459  -2.356  1.00  0.00     0.049 A 
ATOM     34  N   UNL     1       0.039  10.233  -1.528  1.00  0.00    -0.248 NA
ATOM     35  C   UNL     1      -1.412  10.820  -3.183  1.00  0.00     0.031 C 
ATOM     36  C   UNL     1       0.407   7.479  -0.911  1.00  0.00     0.029 A 
ATOM     37  N   UNL     1       0.629   6.196  -2.722  1.00  0.00    -0.354 N 
ATOM     38  C   UNL     1      -0.577  11.396  -1.127  1.00  0.00     0.074 A 
ATOM     39  C   UNL     1      -1.401  11.770  -2.245  1.00  0.00     0.031 C 
ATOM     40  C   UNL     1       1.221   6.462  -0.575  1.00  0.00     0.029 A 
ATOM     41  C   UNL     1       1.628   5.820  -1.810  1.00  0.00     0.049 A 
ATOM     42  H   UNL     1       0.316   5.663  -3.488  1.00  0.00     0.167 HD
ATOM     43  C   UNL     1      -0.376  11.797   0.161  1.00  0.00     0.037 A 
ATOM     44  C   UNL     1       2.894   5.577  -2.239  1.00  0.00     0.037 A 
ATOM     45  C   UNL     1       0.677  10.965   0.775  1.00  0.00     0.049 A 
ATOM     46  C   UNL     1       3.783   6.631  -1.652  1.00  0.00     0.074 A 
ATOM     47  C   UNL     1       0.667   9.935   1.702  1.00  0.00     0.029 A 
ATOM     48  N   UNL     1       1.933  10.920   0.164  1.00  0.00    -0.354 N 
ATOM     49  N   UNL     1       3.333   7.809  -1.303  1.00  0.00    -0.248 NA
ATOM     50  C   UNL     1       5.168   6.413  -1.253  1.00  0.00     0.031 C 
ATOM     51  C   UNL     1       1.899   9.225   1.578  1.00  0.00     0.029 A 
ATOM     52  C   UNL     1       2.669   9.834   0.596  1.00  0.00     0.049 A 
ATOM     53  H   UNL     1       2.253  11.580  -0.493  1.00  0.00     0.167 HD
ATOM     54  C   UNL     1       4.271   8.438  -0.545  1.00  0.00     0.074 A 
ATOM     55  C   UNL     1       5.425   7.554  -0.588  1.00  0.00     0.031 C 
ATOM     56  C   UNL     1       4.029   9.608   0.111  1.00  0.00     0.037 A 
BRANCH  43  57
ATOM     57  C   UNL     1      -1.225  12.791   0.941  1.00  0.00     0.057 A 
ATOM     58  C   UNL     1      -1.053  12.930   2.335  1.00  0.00     0.134 A 
ATOM     59  C   UNL     1      -2.260  13.598   0.425  1.00  0.00     0.134 A 
ATOM     60  F   UNL     1      -0.103  12.256   2.997  1.00  0.00    -0.206 F 
ATOM     61  C   UNL     1      -1.852  13.764   3.136  1.00  0.00     0.040 A 
ATOM     62  C   UNL     1      -3.064  14.438   1.213  1.00  0.00     0.040 A 
ATOM     63  F   UNL     1      -2.568  13.642  -0.870  1.00  0.00    -0.206 F 
ATOM     64  C   UNL     1      -2.867  14.521   2.577  1.00  0.00     0.006 A 
ENDBRANCH  43  57
BRANCH  44  65
ATOM     65  C   UNL     1       2.896   4.942  -3.592  1.00  0.00     0.057 A 
ATOM     66  C   UNL     1       2.467   3.598  -3.656  1.00  0.00     0.134 A 
ATOM     67  C   UNL     1       2.751   5.700  -4.761  1.00  0.00     0.134 A 
ATOM     68  F   UNL     1       2.551   2.813  -2.569  1.00  0.00    -0.206 F 
ATOM     69  C   UNL     1       1.799   3.078  -4.773  1.00  0.00     0.040 A 
ATOM     70  C   UNL     1       2.070   5.191  -5.880  1.00  0.00     0.040 A 
ATOM     71  F   UNL     1       3.112   6.990  -4.786  1.00  0.00    -0.206 F 
ATOM     72  C   UNL     1       1.556   3.894  -5.872  1.00  0.00     0.006 A 
ENDBRANCH  44  65
BRANCH  56  73
ATOM     73  C   UNL     1       5.110  10.609   0.412  1.00  0.00     0.057 A 
ATOM     74  C   UNL     1       6.340  10.641  -0.265  1.00  0.00     0.134 A 
ATOM     75  C   UNL     1       4.865  11.706   1.264  1.00  0.00     0.134 A 
ATOM     76  F   UNL     1       6.656   9.743  -1.208  1.00  0.00    -0.206 F 
ATOM     77  C   UNL     1       7.289  11.642  -0.050  1.00  0.00     0.040 A 
ATOM     78  C   UNL     1       5.776  12.749   1.429  1.00  0.00     0.040 A 
ATOM     79  F   UNL     1       3.717  11.841   1.943  1.00  0.00    -0.206 F 
ATOM     80  C   UNL     1       7.004  12.708   0.789  1.00  0.00     0.006 A 
ENDBRANCH  56  73
ENDBRANCH  30  31
ENDBRANCH  23  25
ENDBRANCH  22  23
ENDBRANCH  21  22
ENDBRANCH   1  21
TORSDOF 15
