REMARK SMILES CCOC(=O)c1cc(CC)sc1NC(=O)[C@H]1[C@@H]2CC[C@@H](C2)[C@@H]1C(=O)OCCOCCOC(=O)c1ccc(-c2c3nc(c(-c4c(F)cccc4F)c4ccc([nH]4)c(-c4c(F)cccc4F)c4nc(c(-c5c(F)cccc5F)c5ccc2[nH]5)C=C4)C=C3)cc1
REMARK SMILES IDX 26 1 25 2 23 3 24 4 22 5 16 6 17 7 18 8 21 9 20 10 19 11
REMARK SMILES IDX 14 12 13 13 15 15 12 16 6 17 7 18 8 19 11 20 4 21 5 22 3 23
REMARK SMILES IDX 2 24 1 25 9 26 10 27 27 28 28 29 29 30 30 31 31 32 32 33
REMARK SMILES IDX 33 34 34 35 35 36 87 37 36 38 86 39 37 40 38 41 39 42 80 43
REMARK SMILES IDX 40 44 85 45 79 46 81 47 41 48 84 49 78 50 77 51 42 53 68 54
REMARK SMILES IDX 51 55 67 56 52 57 55 58 66 59 82 60 53 61 54 62 65 64 83 65
REMARK SMILES IDX 56 66 43 67 44 68 49 69 45 70 46 71 48 72 50 73 47 74 69 75
REMARK SMILES IDX 70 76 75 77 71 78 72 79 74 80 76 81 73 82 57 83 58 84 63 85
REMARK SMILES IDX 59 86 60 87 62 88 64 89 61 90
REMARK H PARENT 13 14 81 52 55 63
REMARK Flexibility Score: inf
ROOT
ATOM      1  C   UNL     1       8.760   0.331  -7.054  1.00  0.00     0.261 C 
ENDROOT
BRANCH   1   2
ATOM      2  O   UNL     1       7.595  -0.332  -6.527  1.00  0.00    -0.463 OA
BRANCH   2   3
ATOM      3  C   UNL     1       7.068  -1.329  -7.294  1.00  0.00     0.310 C 
ATOM      4  O   UNL     1       7.471  -1.655  -8.399  1.00  0.00    -0.252 OA
BRANCH   3   5
ATOM      5  C   UNL     1       5.830  -1.889  -6.625  1.00  0.00     0.115 C 
ATOM      6  C   UNL     1       6.035  -2.519  -5.246  1.00  0.00     0.096 C 
ATOM      7  C   UNL     1       5.196  -3.827  -5.352  1.00  0.00     0.003 C 
ATOM      8  C   UNL     1       6.000  -4.843  -6.200  1.00  0.00     0.005 C 
ATOM      9  C   UNL     1       4.091  -3.454  -6.338  1.00  0.00     0.009 C 
ATOM     10  C   UNL     1       5.080  -2.984  -7.411  1.00  0.00     0.004 C 
ATOM     11  C   UNL     1       5.943  -4.237  -7.609  1.00  0.00     0.005 C 
BRANCH   6  12
ATOM     12  C   UNL     1       5.859  -1.797  -3.890  1.00  0.00     0.229 C 
ATOM     13  N   UNL     1       4.876  -0.954  -3.478  1.00  0.00    -0.317 N 
ATOM     14  H   UNL     1       4.874  -0.794  -2.506  1.00  0.00     0.170 HD
ATOM     15  O   UNL     1       6.636  -2.157  -2.985  1.00  0.00    -0.274 OA
BRANCH  13  16
ATOM     16  C   UNL     1       3.889  -0.285  -4.149  1.00  0.00     0.110 A 
ATOM     17  C   UNL     1       2.623   0.102  -3.734  1.00  0.00     0.095 A 
ATOM     18  C   UNL     1       1.849   0.406  -4.917  1.00  0.00     0.033 A 
ATOM     19  C   UNL     1       2.661   0.531  -6.037  1.00  0.00     0.007 A 
ATOM     20  S   UNL     1       4.271   0.722  -5.466  1.00  0.00    -0.122 S 
BRANCH  17  21
ATOM     21  C   UNL     1       2.195   0.091  -2.344  1.00  0.00     0.341 C 
ATOM     22  O   UNL     1       2.989  -0.058  -1.421  1.00  0.00    -0.246 OA
BRANCH  21  23
ATOM     23  O   UNL     1       0.874   0.385  -2.194  1.00  0.00    -0.462 OA
BRANCH  23  24
ATOM     24  C   UNL     1       0.457   0.869  -0.906  1.00  0.00     0.230 C 
ATOM     25  C   UNL     1       0.577  -0.145   0.218  1.00  0.00     0.049 C 
ENDBRANCH  23  24
ENDBRANCH  21  23
ENDBRANCH  17  21
BRANCH  19  26
ATOM     26  C   UNL     1       2.292   0.573  -7.491  1.00  0.00     0.043 C 
ATOM     27  C   UNL     1       3.406   0.966  -8.455  1.00  0.00     0.010 C 
ENDBRANCH  19  26
ENDBRANCH  13  16
ENDBRANCH   6  12
ENDBRANCH   3   5
ENDBRANCH   2   3
ENDBRANCH   1   2
BRANCH   1  28
ATOM     28  C   UNL     1      10.006   0.023  -6.219  1.00  0.00     0.202 C 
BRANCH  28  29
ATOM     29  O   UNL     1      10.392  -1.354  -6.210  1.00  0.00    -0.374 OA
BRANCH  29  30
ATOM     30  C   UNL     1       9.691  -2.161  -5.261  1.00  0.00     0.202 C 
BRANCH  30  31
ATOM     31  C   UNL     1      10.387  -2.321  -3.911  1.00  0.00     0.261 C 
BRANCH  31  32
ATOM     32  O   UNL     1      10.328  -1.078  -3.189  1.00  0.00    -0.460 OA
BRANCH  32  33
ATOM     33  C   UNL     1      11.466  -0.354  -3.217  1.00  0.00     0.338 C 
ATOM     34  O   UNL     1      12.556  -0.705  -3.637  1.00  0.00    -0.246 OA
BRANCH  33  35
ATOM     35  C   UNL     1      11.181   1.036  -2.811  1.00  0.00     0.060 A 
ATOM     36  C   UNL     1      11.828   2.048  -3.530  1.00  0.00     0.016 A 
ATOM     37  C   UNL     1      10.353   1.352  -1.729  1.00  0.00     0.016 A 
ATOM     38  C   UNL     1      11.723   3.371  -3.118  1.00  0.00     0.010 A 
ATOM     39  C   UNL     1      10.251   2.683  -1.312  1.00  0.00     0.010 A 
ATOM     40  C   UNL     1      10.980   3.687  -1.974  1.00  0.00    -0.014 A 
BRANCH  40  41
ATOM     41  C   UNL     1      11.147   5.028  -1.368  1.00  0.00     0.031 A 
ATOM     42  C   UNL     1      12.117   5.183  -0.229  1.00  0.00     0.074 A 
ATOM     43  C   UNL     1      10.505   6.098  -1.867  1.00  0.00     0.049 A 
ATOM     44  N   UNL     1      12.449   6.258   0.440  1.00  0.00    -0.248 NA
ATOM     45  C   UNL     1      12.809   3.961   0.214  1.00  0.00     0.031 C 
ATOM     46  C   UNL     1       9.577   6.076  -2.996  1.00  0.00     0.029 A 
ATOM     47  N   UNL     1      10.547   7.415  -1.487  1.00  0.00    -0.354 N 
ATOM     48  C   UNL     1      13.383   5.841   1.380  1.00  0.00     0.074 A 
ATOM     49  C   UNL     1      13.542   4.413   1.220  1.00  0.00     0.031 C 
ATOM     50  C   UNL     1       9.131   7.325  -3.215  1.00  0.00     0.029 A 
ATOM     51  C   UNL     1       9.725   8.226  -2.228  1.00  0.00     0.049 A 
ATOM     52  H   UNL     1      11.112   7.746  -0.752  1.00  0.00     0.167 HD
ATOM     53  C   UNL     1      14.058   6.585   2.288  1.00  0.00     0.037 A 
ATOM     54  C   UNL     1       9.474   9.544  -2.111  1.00  0.00     0.037 A 
ATOM     55  C   UNL     1      13.901   8.006   2.443  1.00  0.00     0.049 A 
ATOM     56  C   UNL     1      10.190  10.339  -1.052  1.00  0.00     0.074 A 
ATOM     57  C   UNL     1      14.546   8.854   3.325  1.00  0.00     0.029 A 
ATOM     58  N   UNL     1      13.031   8.786   1.697  1.00  0.00    -0.354 N 
ATOM     59  N   UNL     1      11.087   9.940  -0.182  1.00  0.00    -0.248 NA
ATOM     60  C   UNL     1       9.863  11.769  -0.962  1.00  0.00     0.031 C 
ATOM     61  C   UNL     1      14.033  10.143   3.142  1.00  0.00     0.029 A 
ATOM     62  C   UNL     1      13.104  10.104   2.114  1.00  0.00     0.049 A 
ATOM     63  H   UNL     1      12.447   8.453   0.978  1.00  0.00     0.167 HD
ATOM     64  C   UNL     1      11.450  11.072   0.538  1.00  0.00     0.074 A 
ATOM     65  C   UNL     1      10.684  12.175  -0.005  1.00  0.00     0.031 C 
ATOM     66  C   UNL     1      12.339  11.189   1.555  1.00  0.00     0.037 A 
BRANCH  53  67
ATOM     67  C   UNL     1      15.009   5.865   3.198  1.00  0.00     0.057 A 
ATOM     68  C   UNL     1      16.231   5.356   2.739  1.00  0.00     0.134 A 
ATOM     69  C   UNL     1      14.707   5.695   4.554  1.00  0.00     0.134 A 
ATOM     70  F   UNL     1      16.573   5.470   1.446  1.00  0.00    -0.206 F 
ATOM     71  C   UNL     1      17.108   4.684   3.593  1.00  0.00     0.040 A 
ATOM     72  C   UNL     1      15.586   5.047   5.423  1.00  0.00     0.040 A 
ATOM     73  F   UNL     1      13.553   6.160   5.058  1.00  0.00    -0.206 F 
ATOM     74  C   UNL     1      16.789   4.534   4.941  1.00  0.00     0.006 A 
ENDBRANCH  53  67
BRANCH  54  75
ATOM     75  C   UNL     1       8.496  10.196  -3.018  1.00  0.00     0.057 A 
ATOM     76  C   UNL     1       8.906  11.112  -3.993  1.00  0.00     0.134 A 
ATOM     77  C   UNL     1       7.125   9.930  -2.917  1.00  0.00     0.134 A 
ATOM     78  F   UNL     1      10.204  11.425  -4.122  1.00  0.00    -0.206 F 
ATOM     79  C   UNL     1       7.987  11.752  -4.827  1.00  0.00     0.040 A 
ATOM     80  C   UNL     1       6.197  10.544  -3.760  1.00  0.00     0.040 A 
ATOM     81  F   UNL     1       6.668   9.062  -2.002  1.00  0.00    -0.206 F 
ATOM     82  C   UNL     1       6.628  11.464  -4.714  1.00  0.00     0.006 A 
ENDBRANCH  54  75
BRANCH  66  83
ATOM     83  C   UNL     1      12.557  12.560   2.123  1.00  0.00     0.057 A 
ATOM     84  C   UNL     1      11.603  13.184   2.937  1.00  0.00     0.134 A 
ATOM     85  C   UNL     1      13.755  13.246   1.886  1.00  0.00     0.134 A 
ATOM     86  F   UNL     1      10.431  12.584   3.192  1.00  0.00    -0.206 F 
ATOM     87  C   UNL     1      11.825  14.451   3.478  1.00  0.00     0.040 A 
ATOM     88  C   UNL     1      13.998  14.503   2.441  1.00  0.00     0.040 A 
ATOM     89  F   UNL     1      14.713  12.700   1.123  1.00  0.00    -0.206 F 
ATOM     90  C   UNL     1      13.028  15.111   3.235  1.00  0.00     0.006 A 
ENDBRANCH  66  83
ENDBRANCH  40  41
ENDBRANCH  33  35
ENDBRANCH  32  33
ENDBRANCH  31  32
ENDBRANCH  30  31
ENDBRANCH  29  30
ENDBRANCH  28  29
ENDBRANCH   1  28
TORSDOF 20
