REMARK SMILES CC1=C2C(CSc3c(Cl)cccc3Cl)=CC(=O)N=C2S[C@H]1C(=O)OCCOCCOC(=O)c1ccc(-c2c3nc(c(-c4c(F)cccc4F)c4ccc([nH]4)c(-c4c(F)cccc4F)c4nc(c(-c5c(F)cccc5F)c5ccc2[nH]5)C=C4)C=C3)cc1
REMARK SMILES IDX 26 1 25 2 24 3 22 4 23 5 21 6 1 7 2 8 3 9 4 10 19 11 20 12
REMARK SMILES IDX 15 13 18 14 16 15 17 16 5 17 6 18 7 19 8 20 13 21 9 22 10 23
REMARK SMILES IDX 12 24 14 25 11 26 27 27 28 28 29 29 30 30 31 31 32 32 33 33
REMARK SMILES IDX 34 34 86 35 35 36 85 37 36 38 37 39 38 40 79 41 39 42 84 43
REMARK SMILES IDX 78 44 80 45 40 46 83 47 77 48 76 49 41 51 67 52 50 53 66 54
REMARK SMILES IDX 51 55 54 56 65 57 81 58 52 59 53 60 64 62 82 63 55 64 42 65
REMARK SMILES IDX 43 66 48 67 44 68 45 69 47 70 49 71 46 72 68 73 69 74 74 75
REMARK SMILES IDX 70 76 71 77 73 78 75 79 72 80 56 81 57 82 62 83 58 84 59 85
REMARK SMILES IDX 61 86 63 87 60 88
REMARK H PARENT 80 50 54 61
REMARK Flexibility Score: inf
ROOT
ATOM      1  C   UNL     1       1.575   6.022  -1.203  1.00  0.00     0.202 C 
ENDROOT
BRANCH   1   2
ATOM      2  C   UNL     1       0.145   5.764  -0.721  1.00  0.00     0.261 C 
BRANCH   2   3
ATOM      3  O   UNL     1       0.024   4.545   0.042  1.00  0.00    -0.462 OA
BRANCH   3   4
ATOM      4  C   UNL     1      -0.916   3.650  -0.386  1.00  0.00     0.323 C 
ATOM      5  O   UNL     1      -1.518   3.731  -1.452  1.00  0.00    -0.251 OA
BRANCH   4   6
ATOM      6  C   UNL     1      -1.115   2.480   0.581  1.00  0.00     0.189 C 
ATOM      7  C   UNL     1       0.427   0.695  -0.398  1.00  0.00     0.042 C 
ATOM      8  C   UNL     1       0.092   1.578   0.765  1.00  0.00    -0.039 C 
ATOM      9  C   UNL     1       0.704   1.632   1.963  1.00  0.00     0.012 C 
ATOM     10  C   UNL     1       1.782   0.895   2.600  1.00  0.00    -0.022 C 
ATOM     11  C   UNL     1       0.047   2.638   2.840  1.00  0.00     0.109 C 
ATOM     12  S   UNL     1      -1.506   3.121   2.233  1.00  0.00    -0.086 SA
ATOM     13  C   UNL     1       2.248   1.411   3.757  1.00  0.00     0.079 C 
ATOM     14  N   UNL     1       0.503   3.112   3.940  1.00  0.00    -0.202 NA
ATOM     15  C   UNL     1       1.730   2.672   4.359  1.00  0.00     0.271 C 
ATOM     16  O   UNL     1       2.382   3.212   5.245  1.00  0.00    -0.267 OA
BRANCH  10  17
ATOM     17  C   UNL     1       2.180  -0.496   2.162  1.00  0.00     0.111 C 
BRANCH  17  18
ATOM     18  S   UNL     1       3.968  -0.859   2.266  1.00  0.00    -0.118 SA
BRANCH  18  19
ATOM     19  C   UNL     1       4.583  -0.234   0.692  1.00  0.00     0.045 A 
ATOM     20  C   UNL     1       4.276  -0.857  -0.536  1.00  0.00     0.056 A 
ATOM     21  C   UNL     1       5.478   0.856   0.662  1.00  0.00     0.056 A 
ATOM     22  Cl  UNL     1       3.291  -2.279  -0.652  1.00  0.00    -0.083 Cl
ATOM     23  C   UNL     1       4.788  -0.364  -1.745  1.00  0.00     0.022 A 
ATOM     24  C   UNL     1       5.994   1.336  -0.550  1.00  0.00     0.022 A 
ATOM     25  Cl  UNL     1       6.011   1.669   2.096  1.00  0.00    -0.083 Cl
ATOM     26  C   UNL     1       5.640   0.734  -1.754  1.00  0.00     0.003 A 
ENDBRANCH  18  19
ENDBRANCH  17  18
ENDBRANCH  10  17
ENDBRANCH   4   6
ENDBRANCH   3   4
ENDBRANCH   2   3
ENDBRANCH   1   2
BRANCH   1  27
ATOM     27  O   UNL     1       2.047   5.191  -2.263  1.00  0.00    -0.374 OA
BRANCH  27  28
ATOM     28  C   UNL     1       2.134   3.796  -2.012  1.00  0.00     0.202 C 
BRANCH  28  29
ATOM     29  C   UNL     1       3.259   3.335  -1.083  1.00  0.00     0.261 C 
BRANCH  29  30
ATOM     30  O   UNL     1       3.272   3.972   0.205  1.00  0.00    -0.460 OA
BRANCH  30  31
ATOM     31  C   UNL     1       4.402   4.685   0.455  1.00  0.00     0.338 C 
ATOM     32  O   UNL     1       5.385   4.780  -0.264  1.00  0.00    -0.246 OA
BRANCH  31  33
ATOM     33  C   UNL     1       4.291   5.457   1.705  1.00  0.00     0.060 A 
ATOM     34  C   UNL     1       4.432   6.846   1.628  1.00  0.00     0.016 A 
ATOM     35  C   UNL     1       4.224   4.825   2.946  1.00  0.00     0.016 A 
ATOM     36  C   UNL     1       4.560   7.598   2.796  1.00  0.00     0.010 A 
ATOM     37  C   UNL     1       4.346   5.582   4.117  1.00  0.00     0.010 A 
ATOM     38  C   UNL     1       4.557   6.968   4.049  1.00  0.00    -0.014 A 
BRANCH  38  39
ATOM     39  C   UNL     1       4.872   7.760   5.265  1.00  0.00     0.031 A 
ATOM     40  C   UNL     1       6.246   7.690   5.875  1.00  0.00     0.074 A 
ATOM     41  C   UNL     1       3.946   8.580   5.793  1.00  0.00     0.049 A 
ATOM     42  N   UNL     1       6.755   8.393   6.857  1.00  0.00    -0.248 NA
ATOM     43  C   UNL     1       7.170   6.696   5.308  1.00  0.00     0.031 C 
ATOM     44  C   UNL     1       2.572   8.716   5.315  1.00  0.00     0.029 A 
ATOM     45  N   UNL     1       4.028   9.458   6.844  1.00  0.00    -0.354 N 
ATOM     46  C   UNL     1       8.055   7.931   7.021  1.00  0.00     0.074 A 
ATOM     47  C   UNL     1       8.246   6.861   6.066  1.00  0.00     0.031 C 
ATOM     48  C   UNL     1       1.940   9.637   6.062  1.00  0.00     0.029 A 
ATOM     49  C   UNL     1       2.864  10.148   7.074  1.00  0.00     0.049 A 
ATOM     50  H   UNL     1       4.843   9.582   7.382  1.00  0.00     0.167 HD
ATOM     51  C   UNL     1       9.010   8.369   7.879  1.00  0.00     0.037 A 
ATOM     52  C   UNL     1       2.578  11.092   7.989  1.00  0.00     0.037 A 
ATOM     53  C   UNL     1       8.819   9.428   8.837  1.00  0.00     0.049 A 
ATOM     54  C   UNL     1       3.654  11.565   8.928  1.00  0.00     0.074 A 
ATOM     55  C   UNL     1       9.734   9.963   9.729  1.00  0.00     0.029 A 
ATOM     56  N   UNL     1       7.627  10.107   9.034  1.00  0.00    -0.354 N 
ATOM     57  N   UNL     1       4.902  11.176   9.021  1.00  0.00    -0.248 NA
ATOM     58  C   UNL     1       3.285  12.627   9.875  1.00  0.00     0.031 C 
ATOM     59  C   UNL     1       9.084  10.942  10.489  1.00  0.00     0.029 A 
ATOM     60  C   UNL     1       7.778  11.048  10.040  1.00  0.00     0.049 A 
ATOM     61  H   UNL     1       6.795   9.945   8.533  1.00  0.00     0.167 HD
ATOM     62  C   UNL     1       5.474  11.962  10.013  1.00  0.00     0.074 A 
ATOM     63  C   UNL     1       4.440  12.862  10.480  1.00  0.00     0.031 C 
ATOM     64  C   UNL     1       6.742  11.942  10.492  1.00  0.00     0.037 A 
BRANCH  51  65
ATOM     65  C   UNL     1      10.351   7.696   7.821  1.00  0.00     0.057 A 
ATOM     66  C   UNL     1      11.231   7.902   6.750  1.00  0.00     0.134 A 
ATOM     67  C   UNL     1      10.781   6.860   8.859  1.00  0.00     0.134 A 
ATOM     68  F   UNL     1      10.877   8.684   5.719  1.00  0.00    -0.206 F 
ATOM     69  C   UNL     1      12.481   7.282   6.702  1.00  0.00     0.040 A 
ATOM     70  C   UNL     1      12.039   6.253   8.833  1.00  0.00     0.040 A 
ATOM     71  F   UNL     1       9.993   6.627   9.918  1.00  0.00    -0.206 F 
ATOM     72  C   UNL     1      12.890   6.458   7.750  1.00  0.00     0.006 A 
ENDBRANCH  51  65
BRANCH  52  73
ATOM     73  C   UNL     1       1.220  11.687   8.037  1.00  0.00     0.057 A 
ATOM     74  C   UNL     1       0.989  13.002   7.617  1.00  0.00     0.134 A 
ATOM     75  C   UNL     1       0.123  10.957   8.509  1.00  0.00     0.134 A 
ATOM     76  F   UNL     1       2.005  13.757   7.174  1.00  0.00    -0.206 F 
ATOM     77  C   UNL     1      -0.281  13.577   7.682  1.00  0.00     0.040 A 
ATOM     78  C   UNL     1      -1.156  11.511   8.557  1.00  0.00     0.040 A 
ATOM     79  F   UNL     1       0.280   9.691   8.923  1.00  0.00    -0.206 F 
ATOM     80  C   UNL     1      -1.359  12.828   8.149  1.00  0.00     0.006 A 
ENDBRANCH  52  73
BRANCH  64  81
ATOM     81  C   UNL     1       7.088  12.951  11.548  1.00  0.00     0.057 A 
ATOM     82  C   UNL     1       6.608  12.845  12.860  1.00  0.00     0.134 A 
ATOM     83  C   UNL     1       7.922  14.036  11.249  1.00  0.00     0.134 A 
ATOM     84  F   UNL     1       5.796  11.836  13.208  1.00  0.00    -0.206 F 
ATOM     85  C   UNL     1       6.919  13.802  13.829  1.00  0.00     0.040 A 
ATOM     86  C   UNL     1       8.260  14.985  12.216  1.00  0.00     0.040 A 
ATOM     87  F   UNL     1       8.423  14.191  10.015  1.00  0.00    -0.206 F 
ATOM     88  C   UNL     1       7.750  14.873  13.508  1.00  0.00     0.006 A 
ENDBRANCH  64  81
ENDBRANCH  38  39
ENDBRANCH  31  33
ENDBRANCH  30  31
ENDBRANCH  29  30
ENDBRANCH  28  29
ENDBRANCH  27  28
ENDBRANCH   1  27
TORSDOF 17
