REMARK SMILES C[C@@H]1Cc2ccccc2N1S(=O)(=O)c1cccc(C(=O)OCCOCCOC(=O)c2ccc(-c3c4nc(c(-c5c(F)cccc5F)c5ccc([nH]5)c(-c5c(F)cccc5F)c5nc(c(-c6c(F)cccc6F)c6ccc3[nH]6)C=C5)C=C4)cc2)c1
REMARK SMILES IDX 24 1 23 2 22 3 21 4 19 5 20 6 18 7 14 8 15 9 84 10 16 11
REMARK SMILES IDX 17 12 11 13 12 14 13 15 10 16 1 17 2 18 3 19 4 20 9 21 5 22
REMARK SMILES IDX 8 23 6 24 7 25 25 26 26 27 27 28 28 29 29 30 30 31 31 32
REMARK SMILES IDX 83 33 32 34 82 35 33 36 34 37 35 38 76 39 36 40 81 41 75 42
REMARK SMILES IDX 77 43 37 44 80 45 74 46 73 47 38 49 64 50 47 51 63 52 48 53
REMARK SMILES IDX 51 54 62 55 78 56 49 57 50 58 61 60 79 61 52 62 39 63 40 64
REMARK SMILES IDX 45 65 41 66 42 67 44 68 46 69 43 70 65 71 66 72 71 73 67 74
REMARK SMILES IDX 68 75 70 76 72 77 69 78 53 79 54 80 59 81 55 82 56 83 58 84
REMARK SMILES IDX 60 85 57 86
REMARK H PARENT 77 48 51 59
REMARK Flexibility Score: inf
ROOT
ATOM      1  O   UNL     1       1.486  -7.077   7.920  1.00  0.00    -0.374 OA
ENDROOT
BRANCH   1   2
ATOM      2  C   UNL     1       0.933  -6.009   8.685  1.00  0.00     0.202 C 
BRANCH   2   3
ATOM      3  C   UNL     1       1.769  -4.735   8.840  1.00  0.00     0.261 C 
BRANCH   3   4
ATOM      4  O   UNL     1       2.101  -4.144   7.572  1.00  0.00    -0.460 OA
BRANCH   4   5
ATOM      5  C   UNL     1       3.411  -4.246   7.239  1.00  0.00     0.338 C 
ATOM      6  O   UNL     1       4.308  -4.679   7.946  1.00  0.00    -0.246 OA
BRANCH   5   7
ATOM      7  C   UNL     1       3.627  -3.915   5.809  1.00  0.00     0.061 A 
ATOM      8  C   UNL     1       3.161  -2.758   3.747  1.00  0.00     0.088 A 
ATOM      9  C   UNL     1       4.275  -3.372   3.149  1.00  0.00     0.022 A 
ATOM     10  C   UNL     1       2.839  -3.005   5.089  1.00  0.00     0.038 A 
ATOM     11  C   UNL     1       5.018  -4.310   3.853  1.00  0.00     0.002 A 
ATOM     12  C   UNL     1       4.692  -4.582   5.177  1.00  0.00     0.016 A 
BRANCH   8  13
ATOM     13  S   UNL     1       2.271  -1.562   2.782  1.00  0.00     0.264 S 
ATOM     14  O   UNL     1       3.223  -1.018   1.831  1.00  0.00    -0.201 OA
ATOM     15  O   UNL     1       1.602  -0.674   3.712  1.00  0.00    -0.201 OA
BRANCH  13  16
ATOM     16  N   UNL     1       1.042  -2.382   1.899  1.00  0.00    -0.263 N 
ATOM     17  C   UNL     1      -0.767  -0.715   1.371  1.00  0.00     0.032 C 
ATOM     18  C   UNL     1       0.444  -1.463   0.827  1.00  0.00     0.101 C 
ATOM     19  C   UNL     1       0.127  -2.350  -0.396  1.00  0.00     0.063 C 
ATOM     20  C   UNL     1       0.811  -3.633  -0.063  1.00  0.00    -0.021 A 
ATOM     21  C   UNL     1       1.306  -3.631   1.238  1.00  0.00     0.055 A 
ATOM     22  C   UNL     1       0.879  -4.764  -0.869  1.00  0.00     0.006 A 
ATOM     23  C   UNL     1       1.766  -4.814   1.793  1.00  0.00     0.027 A 
ATOM     24  C   UNL     1       1.433  -5.928  -0.340  1.00  0.00     0.000 A 
ATOM     25  C   UNL     1       1.864  -5.956   0.990  1.00  0.00     0.002 A 
ENDBRANCH  13  16
ENDBRANCH   8  13
ENDBRANCH   5   7
ENDBRANCH   4   5
ENDBRANCH   3   4
ENDBRANCH   2   3
ENDBRANCH   1   2
BRANCH   1  26
ATOM     26  C   UNL     1       1.472  -6.962   6.497  1.00  0.00     0.202 C 
BRANCH  26  27
ATOM     27  C   UNL     1       0.125  -7.123   5.779  1.00  0.00     0.261 C 
BRANCH  27  28
ATOM     28  O   UNL     1      -0.793  -6.060   6.083  1.00  0.00    -0.460 OA
BRANCH  28  29
ATOM     29  C   UNL     1      -1.849  -6.414   6.857  1.00  0.00     0.338 C 
ATOM     30  O   UNL     1      -2.130  -7.530   7.263  1.00  0.00    -0.246 OA
BRANCH  29  31
ATOM     31  C   UNL     1      -2.529  -5.193   7.330  1.00  0.00     0.060 A 
ATOM     32  C   UNL     1      -2.974  -4.220   6.434  1.00  0.00     0.016 A 
ATOM     33  C   UNL     1      -2.742  -5.044   8.708  1.00  0.00     0.016 A 
ATOM     34  C   UNL     1      -3.662  -3.108   6.923  1.00  0.00     0.010 A 
ATOM     35  C   UNL     1      -3.430  -3.933   9.193  1.00  0.00     0.010 A 
ATOM     36  C   UNL     1      -3.916  -2.967   8.301  1.00  0.00    -0.014 A 
BRANCH  36  37
ATOM     37  C   UNL     1      -4.815  -1.888   8.777  1.00  0.00     0.031 A 
ATOM     38  C   UNL     1      -4.297  -0.693   9.518  1.00  0.00     0.074 A 
ATOM     39  C   UNL     1      -6.134  -2.010   8.536  1.00  0.00     0.049 A 
ATOM     40  N   UNL     1      -4.945   0.376   9.910  1.00  0.00    -0.248 NA
ATOM     41  C   UNL     1      -2.873  -0.702   9.877  1.00  0.00     0.031 C 
ATOM     42  C   UNL     1      -6.763  -3.155   7.874  1.00  0.00     0.029 A 
ATOM     43  N   UNL     1      -7.178  -1.164   8.806  1.00  0.00    -0.354 N 
ATOM     44  C   UNL     1      -4.007   1.180  10.541  1.00  0.00     0.074 A 
ATOM     45  C   UNL     1      -2.756   0.447  10.530  1.00  0.00     0.031 C 
ATOM     46  C   UNL     1      -8.079  -2.922   7.755  1.00  0.00     0.029 A 
ATOM     47  C   UNL     1      -8.390  -1.631   8.360  1.00  0.00     0.049 A 
ATOM     48  H   UNL     1      -7.070  -0.305   9.275  1.00  0.00     0.167 HD
ATOM     49  C   UNL     1      -4.171   2.421  11.065  1.00  0.00     0.037 A 
ATOM     50  C   UNL     1      -9.615  -1.079   8.426  1.00  0.00     0.037 A 
ATOM     51  C   UNL     1      -5.428   3.130  11.101  1.00  0.00     0.049 A 
ATOM     52  C   UNL     1      -9.776   0.276   9.054  1.00  0.00     0.074 A 
ATOM     53  C   UNL     1      -5.686   4.408  11.568  1.00  0.00     0.029 A 
ATOM     54  N   UNL     1      -6.643   2.612  10.674  1.00  0.00    -0.354 N 
ATOM     55  N   UNL     1      -8.863   1.071   9.556  1.00  0.00    -0.248 NA
ATOM     56  C   UNL     1     -11.142   0.814   9.115  1.00  0.00     0.031 C 
ATOM     57  C   UNL     1      -7.065   4.638  11.485  1.00  0.00     0.029 A 
ATOM     58  C   UNL     1      -7.659   3.529  10.905  1.00  0.00     0.049 A 
ATOM     59  H   UNL     1      -6.767   1.724  10.268  1.00  0.00     0.167 HD
ATOM     60  C   UNL     1      -9.539   2.210   9.974  1.00  0.00     0.074 A 
ATOM     61  C   UNL     1     -10.934   2.013   9.638  1.00  0.00     0.031 C 
ATOM     62  C   UNL     1      -9.049   3.318  10.583  1.00  0.00     0.037 A 
BRANCH  49  63
ATOM     63  C   UNL     1      -2.959   3.087  11.655  1.00  0.00     0.057 A 
ATOM     64  C   UNL     1      -2.872   3.334  13.031  1.00  0.00     0.134 A 
ATOM     65  C   UNL     1      -1.889   3.513  10.856  1.00  0.00     0.134 A 
ATOM     66  F   UNL     1      -3.865   2.966  13.854  1.00  0.00    -0.206 F 
ATOM     67  C   UNL     1      -1.764   3.973  13.591  1.00  0.00     0.040 A 
ATOM     68  C   UNL     1      -0.762   4.126  11.408  1.00  0.00     0.040 A 
ATOM     69  F   UNL     1      -1.905   3.306   9.530  1.00  0.00    -0.206 F 
ATOM     70  C   UNL     1      -0.700   4.362  12.779  1.00  0.00     0.006 A 
ENDBRANCH  49  63
BRANCH  50  71
ATOM     71  C   UNL     1     -10.787  -1.802   7.871  1.00  0.00     0.057 A 
ATOM     72  C   UNL     1     -11.268  -2.974   8.466  1.00  0.00     0.134 A 
ATOM     73  C   UNL     1     -11.469  -1.322   6.747  1.00  0.00     0.134 A 
ATOM     74  F   UNL     1     -10.653  -3.490   9.540  1.00  0.00    -0.206 F 
ATOM     75  C   UNL     1     -12.383  -3.645   7.962  1.00  0.00     0.040 A 
ATOM     76  C   UNL     1     -12.603  -1.965   6.251  1.00  0.00     0.040 A 
ATOM     77  F   UNL     1     -11.066  -0.194   6.143  1.00  0.00    -0.206 F 
ATOM     78  C   UNL     1     -13.061  -3.134   6.858  1.00  0.00     0.006 A 
ENDBRANCH  50  71
BRANCH  62  79
ATOM     79  C   UNL     1     -10.034   4.408  10.905  1.00  0.00     0.057 A 
ATOM     80  C   UNL     1     -10.000   5.630  10.221  1.00  0.00     0.134 A 
ATOM     81  C   UNL     1     -11.023   4.249  11.887  1.00  0.00     0.134 A 
ATOM     82  F   UNL     1      -9.077   5.855   9.274  1.00  0.00    -0.206 F 
ATOM     83  C   UNL     1     -10.913   6.649  10.497  1.00  0.00     0.040 A 
ATOM     84  C   UNL     1     -11.962   5.248  12.148  1.00  0.00     0.040 A 
ATOM     85  F   UNL     1     -11.124   3.098  12.570  1.00  0.00    -0.206 F 
ATOM     86  C   UNL     1     -11.906   6.455  11.454  1.00  0.00     0.006 A 
ENDBRANCH  62  79
ENDBRANCH  36  37
ENDBRANCH  29  31
ENDBRANCH  28  29
ENDBRANCH  27  28
ENDBRANCH  26  27
ENDBRANCH   1  26
TORSDOF 16
