REMARK SMILES C[C@@H]1CCC[C@H]1NC(=O)c1csc(/C=C/C(=O)OCCOCCOC(=O)c2ccc(-c3c4nc(c(-c5c(F)cccc5F)c5ccc([nH]5)c(-c5c(F)cccc5F)c5nc(c(-c6c(F)cccc6F)c6ccc3[nH]6)C=C5)C=C4)cc2)c1
REMARK SMILES IDX 20 1 19 2 18 3 16 4 17 5 15 6 14 7 13 8 10 9 11 10 81 11
REMARK SMILES IDX 12 12 8 13 7 14 9 16 6 17 1 18 2 19 3 20 4 21 5 22 21 23
REMARK SMILES IDX 22 24 23 25 24 26 25 27 26 28 27 29 28 30 80 31 29 32 79 33
REMARK SMILES IDX 30 34 31 35 32 36 73 37 33 38 78 39 72 40 74 41 34 42 77 43
REMARK SMILES IDX 71 44 70 45 35 47 61 48 44 49 60 50 45 51 48 52 59 53 75 54
REMARK SMILES IDX 46 55 47 56 58 58 76 59 49 60 36 61 37 62 42 63 38 64 39 65
REMARK SMILES IDX 41 66 43 67 40 68 62 69 63 70 68 71 64 72 65 73 67 74 69 75
REMARK SMILES IDX 66 76 50 77 51 78 56 79 52 80 53 81 55 82 57 83 54 84
REMARK H PARENT 7 15 74 46 48 57
REMARK Flexibility Score: inf
ROOT
ATOM      1  C   UNL     1       6.077  10.038   2.901  1.00  0.00     0.202 C 
ENDROOT
BRANCH   1   2
ATOM      2  C   UNL     1       4.645  10.366   3.327  1.00  0.00     0.261 C 
BRANCH   2   3
ATOM      3  O   UNL     1       3.770   9.252   3.073  1.00  0.00    -0.460 OA
BRANCH   3   4
ATOM      4  C   UNL     1       2.808   9.474   2.148  1.00  0.00     0.330 C 
ATOM      5  O   UNL     1       2.553  10.539   1.605  1.00  0.00    -0.247 OA
BRANCH   4   6
ATOM      6  C   UNL     1       2.085   8.242   1.776  1.00  0.00     0.095 C 
ATOM      7  C   UNL     1       2.213   7.035   2.350  1.00  0.00     0.026 C 
BRANCH   7   8
ATOM      8  C   UNL     1       1.448   5.901   1.924  1.00  0.00     0.028 A 
ATOM      9  C   UNL     1       0.299   3.817   1.958  1.00  0.00     0.051 A 
ATOM     10  C   UNL     1      -0.025   4.311   0.711  1.00  0.00     0.079 A 
ATOM     11  C   UNL     1       1.144   4.760   2.651  1.00  0.00     0.033 A 
ATOM     12  S   UNL     1       0.770   5.770   0.344  1.00  0.00    -0.144 S 
BRANCH   9  13
ATOM     13  C   UNL     1      -0.230   2.595   2.556  1.00  0.00     0.252 C 
ATOM     14  N   UNL     1      -0.459   1.476   1.795  1.00  0.00    -0.349 N 
ATOM     15  H   UNL     1      -1.014   0.791   2.233  1.00  0.00     0.164 HD
ATOM     16  O   UNL     1      -0.477   2.534   3.760  1.00  0.00    -0.269 OA
BRANCH  14  17
ATOM     17  C   UNL     1      -0.020   1.130   0.445  1.00  0.00     0.085 C 
ATOM     18  C   UNL     1       1.802  -0.167  -0.751  1.00  0.00     0.010 C 
ATOM     19  C   UNL     1       0.883  -0.113   0.471  1.00  0.00     0.008 C 
ATOM     20  C   UNL     1      -0.113  -1.272   0.484  1.00  0.00     0.005 C 
ATOM     21  C   UNL     1      -1.281  -0.809  -0.379  1.00  0.00     0.002 C 
ATOM     22  C   UNL     1      -1.216   0.719  -0.420  1.00  0.00     0.025 C 
ENDBRANCH  14  17
ENDBRANCH   9  13
ENDBRANCH   7   8
ENDBRANCH   4   6
ENDBRANCH   3   4
ENDBRANCH   2   3
ENDBRANCH   1   2
BRANCH   1  23
ATOM     23  O   UNL     1       6.258   9.860   1.496  1.00  0.00    -0.374 OA
BRANCH  23  24
ATOM     24  C   UNL     1       5.976   8.558   0.979  1.00  0.00     0.202 C 
BRANCH  24  25
ATOM     25  C   UNL     1       7.118   7.546   1.124  1.00  0.00     0.261 C 
BRANCH  25  26
ATOM     26  O   UNL     1       7.316   7.174   2.503  1.00  0.00    -0.460 OA
BRANCH  26  27
ATOM     27  C   UNL     1       8.467   7.615   3.056  1.00  0.00     0.338 C 
ATOM     28  O   UNL     1       9.390   8.187   2.491  1.00  0.00    -0.246 OA
BRANCH  27  29
ATOM     29  C   UNL     1       8.416   7.467   4.523  1.00  0.00     0.060 A 
ATOM     30  C   UNL     1       8.788   8.575   5.295  1.00  0.00     0.016 A 
ATOM     31  C   UNL     1       8.076   6.259   5.138  1.00  0.00     0.016 A 
ATOM     32  C   UNL     1       8.876   8.464   6.680  1.00  0.00     0.010 A 
ATOM     33  C   UNL     1       8.172   6.147   6.531  1.00  0.00     0.010 A 
ATOM     34  C   UNL     1       8.608   7.238   7.304  1.00  0.00    -0.014 A 
BRANCH  34  35
ATOM     35  C   UNL     1       8.930   7.071   8.742  1.00  0.00     0.031 A 
ATOM     36  C   UNL     1      10.235   6.430   9.129  1.00  0.00     0.074 A 
ATOM     37  C   UNL     1       8.098   7.530   9.693  1.00  0.00     0.049 A 
ATOM     38  N   UNL     1      10.728   6.204  10.321  1.00  0.00    -0.248 NA
ATOM     39  C   UNL     1      11.100   5.984   8.025  1.00  0.00     0.031 C 
ATOM     40  C   UNL     1       6.821   8.198   9.448  1.00  0.00     0.029 A 
ATOM     41  N   UNL     1       8.209   7.503  11.060  1.00  0.00    -0.354 N 
ATOM     42  C   UNL     1      11.959   5.596  10.111  1.00  0.00     0.074 A 
ATOM     43  C   UNL     1      12.123   5.455   8.680  1.00  0.00     0.031 C 
ATOM     44  C   UNL     1       6.263   8.516  10.629  1.00  0.00     0.029 A 
ATOM     45  C   UNL     1       7.133   8.056  11.710  1.00  0.00     0.049 A 
ATOM     46  H   UNL     1       8.986   7.124  11.531  1.00  0.00     0.167 HD
ATOM     47  C   UNL     1      12.876   5.201  11.025  1.00  0.00     0.037 A 
ATOM     48  C   UNL     1       6.877   8.168  13.028  1.00  0.00     0.037 A 
ATOM     49  C   UNL     1      12.717   5.338  12.449  1.00  0.00     0.049 A 
ATOM     50  C   UNL     1       7.885   7.665  14.026  1.00  0.00     0.074 A 
ATOM     51  C   UNL     1      13.598   4.981  13.454  1.00  0.00     0.029 A 
ATOM     52  N   UNL     1      11.597   5.872  13.068  1.00  0.00    -0.354 N 
ATOM     53  N   UNL     1       9.057   7.118  13.815  1.00  0.00    -0.248 NA
ATOM     54  C   UNL     1       7.533   7.799  15.448  1.00  0.00     0.031 C 
ATOM     55  C   UNL     1      12.995   5.263  14.685  1.00  0.00     0.029 A 
ATOM     56  C   UNL     1      11.756   5.834  14.444  1.00  0.00     0.049 A 
ATOM     57  H   UNL     1      10.807   6.225  12.600  1.00  0.00     0.167 HD
ATOM     58  C   UNL     1       9.594   6.869  15.072  1.00  0.00     0.074 A 
ATOM     59  C   UNL     1       8.624   7.334  16.041  1.00  0.00     0.031 C 
ATOM     60  C   UNL     1      10.784   6.307  15.395  1.00  0.00     0.037 A 
BRANCH  47  61
ATOM     61  C   UNL     1      14.132   4.566  10.509  1.00  0.00     0.057 A 
ATOM     62  C   UNL     1      15.135   5.318   9.884  1.00  0.00     0.134 A 
ATOM     63  C   UNL     1      14.355   3.192  10.665  1.00  0.00     0.134 A 
ATOM     64  F   UNL     1      14.975   6.636   9.691  1.00  0.00    -0.206 F 
ATOM     65  C   UNL     1      16.307   4.723   9.414  1.00  0.00     0.040 A 
ATOM     66  C   UNL     1      15.532   2.589  10.219  1.00  0.00     0.040 A 
ATOM     67  F   UNL     1      13.435   2.416  11.258  1.00  0.00    -0.206 F 
ATOM     68  C   UNL     1      16.510   3.355   9.587  1.00  0.00     0.006 A 
ENDBRANCH  47  61
BRANCH  48  69
ATOM     69  C   UNL     1       5.608   8.784  13.488  1.00  0.00     0.057 A 
ATOM     70  C   UNL     1       5.593  10.034  14.117  1.00  0.00     0.134 A 
ATOM     71  C   UNL     1       4.383   8.125  13.331  1.00  0.00     0.134 A 
ATOM     72  F   UNL     1       6.739  10.702  14.316  1.00  0.00    -0.206 F 
ATOM     73  C   UNL     1       4.408  10.601  14.588  1.00  0.00     0.040 A 
ATOM     74  C   UNL     1       3.187   8.690  13.778  1.00  0.00     0.040 A 
ATOM     75  F   UNL     1       4.331   6.924  12.738  1.00  0.00    -0.206 F 
ATOM     76  C   UNL     1       3.199   9.929  14.415  1.00  0.00     0.006 A 
ENDBRANCH  48  69
BRANCH  60  77
ATOM     77  C   UNL     1      11.118   6.195  16.854  1.00  0.00     0.057 A 
ATOM     78  C   UNL     1      10.500   5.250  17.682  1.00  0.00     0.134 A 
ATOM     79  C   UNL     1      12.097   7.018  17.427  1.00  0.00     0.134 A 
ATOM     80  F   UNL     1       9.546   4.441  17.197  1.00  0.00    -0.206 F 
ATOM     81  C   UNL     1      10.827   5.143  19.035  1.00  0.00     0.040 A 
ATOM     82  C   UNL     1      12.449   6.904  18.772  1.00  0.00     0.040 A 
ATOM     83  F   UNL     1      12.733   7.937  16.685  1.00  0.00    -0.206 F 
ATOM     84  C   UNL     1      11.809   5.968  19.582  1.00  0.00     0.006 A 
ENDBRANCH  60  77
ENDBRANCH  34  35
ENDBRANCH  27  29
ENDBRANCH  26  27
ENDBRANCH  25  26
ENDBRANCH  24  25
ENDBRANCH  23  24
ENDBRANCH   1  23
TORSDOF 17
