REMARK SMILES CC1=C(C)C[C@@H](C(=O)OCCOCCOC(=O)c2ccc(-c3c4nc(c(-c5c(F)cccc5F)c5ccc([nH]5)c(-c5c(F)cccc5F)c5nc(c(-c6c(F)cccc6F)c6ccc3[nH]6)C=C5)C=C4)cc2)[C@@H](C(=O)N2CCN(c3cccc(C(F)(F)F)c3)CC2)C1
REMARK SMILES IDX 11 1 10 2 9 3 7 4 8 5 6 6 1 7 2 8 3 9 91 10 4 11 5 12 72 13
REMARK SMILES IDX 73 14 74 15 75 16 76 17 90 18 77 19 89 20 78 21 79 22 80 23
REMARK SMILES IDX 88 24 81 25 83 26 82 27 84 28 85 29 86 30 87 31 12 32 13 33
REMARK SMILES IDX 14 34 15 35 16 36 17 37 18 38 19 39 71 40 20 41 70 42 21 43
REMARK SMILES IDX 22 44 23 45 64 46 24 47 69 48 63 49 65 50 25 51 68 52 62 53
REMARK SMILES IDX 61 54 26 56 52 57 35 58 51 59 36 60 39 61 50 62 66 63 37 64
REMARK SMILES IDX 38 65 49 67 67 68 40 69 27 70 28 71 33 72 29 73 30 74 32 75
REMARK SMILES IDX 34 76 31 77 53 78 54 79 59 80 55 81 56 82 58 83 60 84 57 85
REMARK SMILES IDX 41 86 42 87 47 88 43 89 44 90 46 91 48 92 45 93
REMARK H PARENT 65 55 39 66
REMARK Flexibility Score: inf
ROOT
ATOM      1  C   UNL     1      -2.604   4.596   2.932  1.00  0.00     0.202 C 
ENDROOT
BRANCH   1   2
ATOM      2  C   UNL     1      -3.117   3.330   2.089  1.00  0.00     0.261 C 
BRANCH   2   3
ATOM      3  O   UNL     1      -2.081   2.700   1.208  1.00  0.00    -0.463 OA
BRANCH   3   4
ATOM      4  C   UNL     1      -2.419   2.318  -0.086  1.00  0.00     0.310 C 
ATOM      5  O   UNL     1      -3.556   1.952  -0.377  1.00  0.00    -0.252 OA
BRANCH   4   6
ATOM      6  C   UNL     1      -1.354   2.681  -1.242  1.00  0.00     0.116 C 
ATOM      7  C   UNL     1       1.036  -0.501   0.269  1.00  0.00     0.039 C 
ATOM      8  C   UNL     1       0.381   0.611  -0.513  1.00  0.00    -0.074 C 
ATOM      9  C   UNL     1      -0.540   0.369  -1.480  1.00  0.00    -0.073 C 
ATOM     10  C   UNL     1       0.808   2.062  -0.108  1.00  0.00     0.045 C 
ATOM     11  C   UNL     1      -1.128  -0.948  -1.918  1.00  0.00     0.039 C 
ATOM     12  C   UNL     1      -1.181   1.514  -2.203  1.00  0.00     0.046 C 
ATOM     13  C   UNL     1       0.084   3.178  -0.918  1.00  0.00     0.097 C 
BRANCH  13  14
ATOM     14  C   UNL     1       0.305   4.756  -0.633  1.00  0.00     0.227 C 
ATOM     15  O   UNL     1       1.375   5.199  -0.224  1.00  0.00    -0.275 OA
ATOM     16  N   UNL     1      -0.811   5.593  -0.910  1.00  0.00    -0.339 N 
ATOM     17  C   UNL     1      -0.926   7.079  -0.994  1.00  0.00     0.141 C 
ATOM     18  C   UNL     1      -1.863   5.202  -0.081  1.00  0.00     0.141 C 
ATOM     19  C   UNL     1      -2.479   7.636  -1.118  1.00  0.00     0.138 C 
ATOM     20  C   UNL     1      -3.244   5.363  -0.645  1.00  0.00     0.138 C 
ATOM     21  N   UNL     1      -3.522   6.771  -0.466  1.00  0.00    -0.368 N 
BRANCH  21  22
ATOM     22  C   UNL     1      -4.829   7.067  -0.100  1.00  0.00     0.037 A 
ATOM     23  C   UNL     1      -5.622   7.932  -0.842  1.00  0.00     0.026 A 
ATOM     24  C   UNL     1      -5.467   6.447   1.016  1.00  0.00     0.039 A 
ATOM     25  C   UNL     1      -6.970   8.155  -0.514  1.00  0.00     0.003 A 
ATOM     26  C   UNL     1      -6.809   6.683   1.391  1.00  0.00     0.058 A 
ATOM     27  C   UNL     1      -7.560   7.544   0.595  1.00  0.00     0.013 A 
BRANCH  26  28
ATOM     28  C   UNL     1      -7.440   6.054   2.616  1.00  0.00     0.416 C 
ATOM     29  F   UNL     1      -7.871   6.984   3.517  1.00  0.00    -0.166 F 
ATOM     30  F   UNL     1      -8.541   5.304   2.319  1.00  0.00    -0.166 F 
ATOM     31  F   UNL     1      -6.610   5.226   3.313  1.00  0.00    -0.166 F 
ENDBRANCH  26  28
ENDBRANCH  21  22
ENDBRANCH  13  14
ENDBRANCH   4   6
ENDBRANCH   3   4
ENDBRANCH   2   3
ENDBRANCH   1   2
BRANCH   1  32
ATOM     32  O   UNL     1      -2.724   5.904   2.361  1.00  0.00    -0.374 OA
BRANCH  32  33
ATOM     33  C   UNL     1      -1.936   7.050   2.797  1.00  0.00     0.202 C 
BRANCH  33  34
ATOM     34  C   UNL     1      -0.381   6.949   2.842  1.00  0.00     0.261 C 
BRANCH  34  35
ATOM     35  O   UNL     1       0.052   5.993   3.804  1.00  0.00    -0.460 OA
BRANCH  35  36
ATOM     36  C   UNL     1      -0.308   6.337   5.056  1.00  0.00     0.338 C 
ATOM     37  O   UNL     1      -0.480   7.465   5.500  1.00  0.00    -0.246 OA
BRANCH  36  38
ATOM     38  C   UNL     1      -0.894   5.128   5.631  1.00  0.00     0.060 A 
ATOM     39  C   UNL     1      -2.226   5.230   6.047  1.00  0.00     0.016 A 
ATOM     40  C   UNL     1      -0.211   3.906   5.640  1.00  0.00     0.016 A 
ATOM     41  C   UNL     1      -2.851   4.126   6.587  1.00  0.00     0.010 A 
ATOM     42  C   UNL     1      -0.823   2.804   6.229  1.00  0.00     0.010 A 
ATOM     43  C   UNL     1      -2.105   2.958   6.784  1.00  0.00    -0.014 A 
BRANCH  43  44
ATOM     44  C   UNL     1      -2.526   2.151   7.941  1.00  0.00     0.031 A 
ATOM     45  C   UNL     1      -1.935   2.527   9.274  1.00  0.00     0.074 A 
ATOM     46  C   UNL     1      -3.550   1.293   7.843  1.00  0.00     0.049 A 
ATOM     47  N   UNL     1      -2.256   2.116  10.471  1.00  0.00    -0.248 NA
ATOM     48  C   UNL     1      -0.850   3.526   9.255  1.00  0.00     0.031 C 
ATOM     49  C   UNL     1      -4.250   0.945   6.609  1.00  0.00     0.029 A 
ATOM     50  N   UNL     1      -4.200   0.594   8.820  1.00  0.00    -0.354 N 
ATOM     51  C   UNL     1      -1.414   2.804  11.336  1.00  0.00     0.074 A 
ATOM     52  C   UNL     1      -0.546   3.631  10.536  1.00  0.00     0.031 C 
ATOM     53  C   UNL     1      -5.245   0.093   6.907  1.00  0.00     0.029 A 
ATOM     54  C   UNL     1      -5.229  -0.174   8.345  1.00  0.00     0.049 A 
ATOM     55  H   UNL     1      -3.953   0.639   9.773  1.00  0.00     0.167 HD
ATOM     56  C   UNL     1      -1.376   2.760  12.686  1.00  0.00     0.037 A 
ATOM     57  C   UNL     1      -6.051  -1.006   9.008  1.00  0.00     0.037 A 
ATOM     58  C   UNL     1      -2.245   1.933  13.474  1.00  0.00     0.049 A 
ATOM     59  C   UNL     1      -5.931  -1.109  10.505  1.00  0.00     0.074 A 
ATOM     60  C   UNL     1      -2.290   1.796  14.848  1.00  0.00     0.029 A 
ATOM     61  N   UNL     1      -3.217   1.093  12.949  1.00  0.00    -0.354 N 
ATOM     62  N   UNL     1      -5.131  -0.463  11.321  1.00  0.00    -0.248 NA
ATOM     63  C   UNL     1      -6.841  -2.047  11.173  1.00  0.00     0.031 C 
ATOM     64  C   UNL     1      -3.243   0.819  15.151  1.00  0.00     0.029 A 
ATOM     65  C   UNL     1      -3.846   0.406  13.972  1.00  0.00     0.049 A 
ATOM     66  H   UNL     1      -3.427   1.000  11.992  1.00  0.00     0.167 HD
ATOM     67  C   UNL     1      -5.460  -0.895  12.600  1.00  0.00     0.074 A 
ATOM     68  C   UNL     1      -6.545  -1.844  12.448  1.00  0.00     0.031 C 
ATOM     69  C   UNL     1      -4.920  -0.539  13.794  1.00  0.00     0.037 A 
BRANCH  56  70
ATOM     70  C   UNL     1      -0.316   3.573  13.370  1.00  0.00     0.057 A 
ATOM     71  C   UNL     1      -0.342   4.974  13.401  1.00  0.00     0.134 A 
ATOM     72  C   UNL     1       0.763   2.934  13.992  1.00  0.00     0.134 A 
ATOM     73  F   UNL     1      -1.330   5.651  12.796  1.00  0.00    -0.206 F 
ATOM     74  C   UNL     1       0.682   5.709  14.003  1.00  0.00     0.040 A 
ATOM     75  C   UNL     1       1.775   3.656  14.625  1.00  0.00     0.040 A 
ATOM     76  F   UNL     1       0.856   1.596  13.989  1.00  0.00    -0.206 F 
ATOM     77  C   UNL     1       1.740   5.049  14.624  1.00  0.00     0.006 A 
ENDBRANCH  56  70
BRANCH  57  78
ATOM     78  C   UNL     1      -7.033  -1.821   8.253  1.00  0.00     0.057 A 
ATOM     79  C   UNL     1      -8.411  -1.624   8.384  1.00  0.00     0.134 A 
ATOM     80  C   UNL     1      -6.604  -2.831   7.381  1.00  0.00     0.134 A 
ATOM     81  F   UNL     1      -8.884  -0.685   9.216  1.00  0.00    -0.206 F 
ATOM     82  C   UNL     1      -9.329  -2.414   7.690  1.00  0.00     0.040 A 
ATOM     83  C   UNL     1      -7.509  -3.608   6.660  1.00  0.00     0.040 A 
ATOM     84  F   UNL     1      -5.295  -3.066   7.208  1.00  0.00    -0.206 F 
ATOM     85  C   UNL     1      -8.878  -3.406   6.820  1.00  0.00     0.006 A 
ENDBRANCH  57  78
BRANCH  69  86
ATOM     86  C   UNL     1      -5.525  -1.147  15.028  1.00  0.00     0.057 A 
ATOM     87  C   UNL     1      -5.392  -2.508  15.331  1.00  0.00     0.134 A 
ATOM     88  C   UNL     1      -6.234  -0.349  15.936  1.00  0.00     0.134 A 
ATOM     89  F   UNL     1      -4.731  -3.329  14.502  1.00  0.00    -0.206 F 
ATOM     90  C   UNL     1      -5.981  -3.062  16.470  1.00  0.00     0.040 A 
ATOM     91  C   UNL     1      -6.795  -0.884  17.096  1.00  0.00     0.040 A 
ATOM     92  F   UNL     1      -6.385   0.966  15.717  1.00  0.00    -0.206 F 
ATOM     93  C   UNL     1      -6.680  -2.247  17.359  1.00  0.00     0.006 A 
ENDBRANCH  69  86
ENDBRANCH  43  44
ENDBRANCH  36  38
ENDBRANCH  35  36
ENDBRANCH  34  35
ENDBRANCH  33  34
ENDBRANCH  32  33
ENDBRANCH   1  32
TORSDOF 17
