REMARK SMILES CCCn1ncc(C(=O)N2CCC(C(=O)OCCOCCOC(=O)c3ccc(-c4c5nc(c(-c6c(F)cccc6F)c6ccc([nH]6)c(-c6c(F)cccc6F)c6nc(c(-c7c(F)cccc7F)c7ccc4[nH]7)C=C6)C=C5)cc3)CC2)c1C
REMARK SMILES IDX 18 1 17 2 16 3 14 4 15 5 13 6 8 7 9 8 10 9 11 10 80 11 12 12
REMARK SMILES IDX 79 13 7 14 4 15 5 16 81 17 6 18 82 19 3 20 2 21 1 22 19 23
REMARK SMILES IDX 20 24 21 25 22 26 23 27 24 28 25 29 26 30 78 31 27 32 77 33
REMARK SMILES IDX 28 34 29 35 30 36 71 37 31 38 76 39 70 40 72 41 32 42 75 43
REMARK SMILES IDX 69 44 68 45 33 47 59 48 42 49 58 50 43 51 46 52 57 53 73 54
REMARK SMILES IDX 44 55 45 56 56 58 74 59 47 60 34 61 35 62 40 63 36 64 37 65
REMARK SMILES IDX 39 66 41 67 38 68 60 69 61 70 66 71 62 72 63 73 65 74 67 75
REMARK SMILES IDX 64 76 48 77 49 78 54 79 50 80 51 81 53 82 55 83 52 84
REMARK H PARENT 72 46 46 57
REMARK Flexibility Score: inf
ROOT
ATOM      1  C   UNL     1      -0.304  12.540   4.962  1.00  0.00     0.202 C 
ENDROOT
BRANCH   1   2
ATOM      2  C   UNL     1      -0.126  11.202   5.676  1.00  0.00     0.261 C 
BRANCH   2   3
ATOM      3  O   UNL     1      -0.086  10.096   4.766  1.00  0.00    -0.463 OA
BRANCH   3   4
ATOM      4  C   UNL     1      -1.208   9.334   4.762  1.00  0.00     0.309 C 
ATOM      5  O   UNL     1      -2.184   9.507   5.482  1.00  0.00    -0.252 OA
BRANCH   4   6
ATOM      6  C   UNL     1      -1.155   8.212   3.756  1.00  0.00     0.103 C 
ATOM      7  C   UNL     1       0.928   4.938   2.260  1.00  0.00     0.257 C 
ATOM      8  O   UNL     1       2.024   5.277   1.816  1.00  0.00    -0.269 OA
ATOM      9  N   UNL     1      -0.072   5.869   2.523  1.00  0.00    -0.338 N 
ATOM     10  C   UNL     1      -0.118   7.104   1.752  1.00  0.00     0.120 C 
ATOM     11  C   UNL     1      -1.047   5.727   3.601  1.00  0.00     0.120 C 
ATOM     12  C   UNL     1      -0.102   8.338   2.647  1.00  0.00     0.037 C 
ATOM     13  C   UNL     1      -0.964   6.917   4.538  1.00  0.00     0.037 C 
BRANCH   7  14
ATOM     14  C   UNL     1       0.579   3.534   2.442  1.00  0.00     0.080 A 
ATOM     15  N   UNL     1       0.659   1.336   2.601  1.00  0.00    -0.269 N 
ATOM     16  N   UNL     1      -0.658   1.614   2.541  1.00  0.00    -0.180 NA
ATOM     17  C   UNL     1       1.450   2.462   2.613  1.00  0.00     0.048 A 
ATOM     18  C   UNL     1      -0.695   2.930   2.370  1.00  0.00     0.149 A 
ATOM     19  C   UNL     1       2.932   2.472   2.741  1.00  0.00     0.067 C 
BRANCH  15  20
ATOM     20  C   UNL     1       1.046  -0.062   2.551  1.00  0.00     0.144 C 
BRANCH  20  21
ATOM     21  C   UNL     1       0.569  -0.774   1.280  1.00  0.00     0.020 C 
ATOM     22  C   UNL     1       1.112  -0.148   0.003  1.00  0.00     0.006 C 
ENDBRANCH  20  21
ENDBRANCH  15  20
ENDBRANCH   7  14
ENDBRANCH   4   6
ENDBRANCH   3   4
ENDBRANCH   2   3
ENDBRANCH   1   2
BRANCH   1  23
ATOM     23  O   UNL     1      -1.468  12.756   4.167  1.00  0.00    -0.374 OA
BRANCH  23  24
ATOM     24  C   UNL     1      -1.691  12.035   2.958  1.00  0.00     0.202 C 
BRANCH  24  25
ATOM     25  C   UNL     1      -0.809  12.337   1.754  1.00  0.00     0.261 C 
BRANCH  25  26
ATOM     26  O   UNL     1       0.534  11.970   2.026  1.00  0.00    -0.460 OA
BRANCH  26  27
ATOM     27  C   UNL     1       1.329  13.013   2.356  1.00  0.00     0.338 C 
ATOM     28  O   UNL     1       1.017  14.182   2.437  1.00  0.00    -0.246 OA
BRANCH  27  29
ATOM     29  C   UNL     1       2.703  12.514   2.538  1.00  0.00     0.060 A 
ATOM     30  C   UNL     1       3.660  13.525   2.586  1.00  0.00     0.016 A 
ATOM     31  C   UNL     1       3.005  11.202   2.150  1.00  0.00     0.016 A 
ATOM     32  C   UNL     1       4.778  13.347   1.816  1.00  0.00     0.010 A 
ATOM     33  C   UNL     1       4.137  11.015   1.405  1.00  0.00     0.010 A 
ATOM     34  C   UNL     1       4.903  12.140   1.123  1.00  0.00    -0.014 A 
BRANCH  34  35
ATOM     35  C   UNL     1       5.861  12.079   0.051  1.00  0.00     0.031 A 
ATOM     36  C   UNL     1       7.237  11.955   0.550  1.00  0.00     0.074 A 
ATOM     37  C   UNL     1       5.485  12.070  -1.240  1.00  0.00     0.049 A 
ATOM     38  N   UNL     1       8.147  12.869   0.556  1.00  0.00    -0.248 NA
ATOM     39  C   UNL     1       7.556  10.765   1.352  1.00  0.00     0.031 C 
ATOM     40  C   UNL     1       4.143  11.985  -1.825  1.00  0.00     0.029 A 
ATOM     41  N   UNL     1       6.297  12.048  -2.328  1.00  0.00    -0.354 N 
ATOM     42  C   UNL     1       9.236  12.284   1.182  1.00  0.00     0.074 A 
ATOM     43  C   UNL     1       8.746  11.105   1.846  1.00  0.00     0.031 C 
ATOM     44  C   UNL     1       4.250  11.680  -3.140  1.00  0.00     0.029 A 
ATOM     45  C   UNL     1       5.654  11.675  -3.504  1.00  0.00     0.049 A 
ATOM     46  H   UNL     1       7.254  12.276  -2.288  1.00  0.00     0.167 HD
ATOM     47  C   UNL     1      10.505  12.655   0.874  1.00  0.00     0.037 A 
ATOM     48  C   UNL     1       6.306  11.274  -4.626  1.00  0.00     0.037 A 
ATOM     49  C   UNL     1      10.535  13.911   0.170  1.00  0.00     0.049 A 
ATOM     50  C   UNL     1       7.688  11.835  -4.539  1.00  0.00     0.074 A 
ATOM     51  C   UNL     1      10.154  15.202   0.484  1.00  0.00     0.029 A 
ATOM     52  N   UNL     1      10.630  13.871  -1.201  1.00  0.00    -0.354 N 
ATOM     53  N   UNL     1       7.934  13.119  -4.582  1.00  0.00    -0.248 NA
ATOM     54  C   UNL     1       8.703  11.032  -3.864  1.00  0.00     0.031 C 
ATOM     55  C   UNL     1       9.572  15.716  -0.712  1.00  0.00     0.029 A 
ATOM     56  C   UNL     1       9.692  14.740  -1.702  1.00  0.00     0.049 A 
ATOM     57  H   UNL     1      11.255  13.320  -1.727  1.00  0.00     0.167 HD
ATOM     58  C   UNL     1       8.893  13.336  -3.599  1.00  0.00     0.074 A 
ATOM     59  C   UNL     1       9.364  12.003  -3.224  1.00  0.00     0.031 C 
ATOM     60  C   UNL     1       9.003  14.539  -2.957  1.00  0.00     0.037 A 
BRANCH  47  61
ATOM     61  C   UNL     1      11.656  11.692   0.866  1.00  0.00     0.057 A 
ATOM     62  C   UNL     1      12.963  12.192   0.781  1.00  0.00     0.134 A 
ATOM     63  C   UNL     1      11.522  10.302   0.658  1.00  0.00     0.134 A 
ATOM     64  F   UNL     1      13.210  13.500   0.943  1.00  0.00    -0.206 F 
ATOM     65  C   UNL     1      14.049  11.375   0.450  1.00  0.00     0.040 A 
ATOM     66  C   UNL     1      12.606   9.470   0.385  1.00  0.00     0.040 A 
ATOM     67  F   UNL     1      10.331   9.693   0.602  1.00  0.00    -0.206 F 
ATOM     68  C   UNL     1      13.872  10.011   0.245  1.00  0.00     0.006 A 
ENDBRANCH  47  61
BRANCH  48  69
ATOM     69  C   UNL     1       5.931  10.131  -5.494  1.00  0.00     0.057 A 
ATOM     70  C   UNL     1       6.491   9.950  -6.766  1.00  0.00     0.134 A 
ATOM     71  C   UNL     1       5.182   9.047  -4.997  1.00  0.00     0.134 A 
ATOM     72  F   UNL     1       7.268  10.899  -7.308  1.00  0.00    -0.206 F 
ATOM     73  C   UNL     1       6.313   8.764  -7.498  1.00  0.00     0.040 A 
ATOM     74  C   UNL     1       4.992   7.864  -5.717  1.00  0.00     0.040 A 
ATOM     75  F   UNL     1       4.675   9.063  -3.756  1.00  0.00    -0.206 F 
ATOM     76  C   UNL     1       5.565   7.715  -6.971  1.00  0.00     0.006 A 
ENDBRANCH  48  69
BRANCH  60  77
ATOM     77  C   UNL     1       8.147  15.678  -3.446  1.00  0.00     0.057 A 
ATOM     78  C   UNL     1       6.746  15.691  -3.349  1.00  0.00     0.134 A 
ATOM     79  C   UNL     1       8.758  16.864  -3.858  1.00  0.00     0.134 A 
ATOM     80  F   UNL     1       6.080  14.644  -2.851  1.00  0.00    -0.206 F 
ATOM     81  C   UNL     1       5.987  16.814  -3.692  1.00  0.00     0.040 A 
ATOM     82  C   UNL     1       8.014  18.005  -4.175  1.00  0.00     0.040 A 
ATOM     83  F   UNL     1      10.096  16.953  -3.905  1.00  0.00    -0.206 F 
ATOM     84  C   UNL     1       6.623  17.980  -4.103  1.00  0.00     0.006 A 
ENDBRANCH  60  77
ENDBRANCH  34  35
ENDBRANCH  27  29
ENDBRANCH  26  27
ENDBRANCH  25  26
ENDBRANCH  24  25
ENDBRANCH  23  24
ENDBRANCH   1  23
TORSDOF 17
