REMARK SMILES O=C(Cn1cc(NC(=O)N2CC[N@@H+]3CCC[C@@H]3C2)cn1)OCCOCCOC(=O)c1ccc(-c2c3nc(c(-c4c(F)cccc4F)c4ccc([nH]4)c(-c4c(F)cccc4F)c4nc(c(-c5c(F)cccc5F)c5ccc2[nH]5)C=C4)C=C3)cc1
REMARK SMILES IDX 23 1 22 2 21 3 2 4 1 5 3 6 4 7 5 8 20 9 6 10 19 11 7 12 8 13
REMARK SMILES IDX 9 15 10 16 11 17 18 18 12 19 17 20 13 21 16 22 14 23 15 25
REMARK SMILES IDX 24 26 25 27 26 28 27 29 28 30 29 31 30 32 31 33 83 34 32 35
REMARK SMILES IDX 82 36 33 37 34 38 35 39 76 40 36 41 81 42 75 43 77 44 37 45
REMARK SMILES IDX 80 46 74 47 73 48 38 50 64 51 47 52 63 53 48 54 51 55 62 56
REMARK SMILES IDX 78 57 49 58 50 59 61 61 79 62 52 63 39 64 40 65 45 66 41 67
REMARK SMILES IDX 42 68 44 69 46 70 43 71 65 72 66 73 71 74 67 75 68 76 70 77
REMARK SMILES IDX 72 78 69 79 53 80 54 81 59 82 55 83 56 84 58 85 60 86 57 87
REMARK H PARENT 7 14 13 24 77 49 51 60
REMARK Flexibility Score: inf
ROOT
ATOM      1  C   UNL     1       4.776  -0.106   0.947  1.00  0.00     0.202 C 
ENDROOT
BRANCH   1   2
ATOM      2  C   UNL     1       4.088   0.946   0.076  1.00  0.00     0.261 C 
BRANCH   2   3
ATOM      3  O   UNL     1       2.654   0.957   0.084  1.00  0.00    -0.462 OA
BRANCH   3   4
ATOM      4  C   UNL     1       1.866   0.264  -0.772  1.00  0.00     0.327 C 
ATOM      5  O   UNL     1       0.719   0.666  -0.979  1.00  0.00    -0.250 OA
BRANCH   4   6
ATOM      6  C   UNL     1       2.295  -1.066  -1.318  1.00  0.00     0.266 C 
BRANCH   6   7
ATOM      7  N   UNL     1       3.533  -1.067  -2.056  1.00  0.00    -0.259 N 
ATOM      8  C   UNL     1       3.896  -0.231  -3.076  1.00  0.00     0.135 A 
ATOM      9  N   UNL     1       4.452  -2.007  -1.775  1.00  0.00    -0.179 NA
ATOM     10  C   UNL     1       5.130  -0.668  -3.482  1.00  0.00     0.081 A 
ATOM     11  C   UNL     1       5.449  -1.735  -2.611  1.00  0.00     0.161 A 
BRANCH  10  12
ATOM     12  N   UNL     1       5.845  -0.176  -4.552  1.00  0.00    -0.305 N 
ATOM     13  C   UNL     1       6.836  -0.895  -5.170  1.00  0.00     0.322 C 
ATOM     14  H   UNL     1       5.637   0.727  -4.886  1.00  0.00     0.171 HD
ATOM     15  O   UNL     1       7.865  -0.340  -5.547  1.00  0.00    -0.248 OA
BRANCH  13  16
ATOM     16  N   UNL     1       6.587  -2.246  -5.346  1.00  0.00    -0.313 N 
ATOM     17  C   UNL     1       5.255  -2.761  -5.725  1.00  0.00     0.183 C 
ATOM     18  C   UNL     1       7.697  -3.188  -5.442  1.00  0.00     0.186 C 
ATOM     19  C   UNL     1       5.187  -4.291  -5.741  1.00  0.00     0.284 C 
ATOM     20  C   UNL     1       7.508  -4.221  -6.567  1.00  0.00     0.204 C 
ATOM     21  N   UNL     1       6.165  -4.843  -6.680  1.00  0.00    -0.330 N 
ATOM     22  C   UNL     1       8.482  -5.391  -6.447  1.00  0.00     0.073 C 
ATOM     23  C   UNL     1       6.300  -6.294  -6.570  1.00  0.00     0.262 C 
ATOM     24  H   UNL     1       5.782  -4.614  -7.597  1.00  0.00     0.348 HD
ATOM     25  C   UNL     1       7.715  -6.552  -7.051  1.00  0.00     0.068 C 
ENDBRANCH  13  16
ENDBRANCH  10  12
ENDBRANCH   6   7
ENDBRANCH   4   6
ENDBRANCH   3   4
ENDBRANCH   2   3
ENDBRANCH   1   2
BRANCH   1  26
ATOM     26  O   UNL     1       4.125  -1.342   1.190  1.00  0.00    -0.374 OA
BRANCH  26  27
ATOM     27  C   UNL     1       2.956  -1.410   1.999  1.00  0.00     0.202 C 
BRANCH  27  28
ATOM     28  C   UNL     1       3.116  -1.103   3.471  1.00  0.00     0.261 C 
BRANCH  28  29
ATOM     29  O   UNL     1       3.259   0.300   3.620  1.00  0.00    -0.460 OA
BRANCH  29  30
ATOM     30  C   UNL     1       4.476   0.730   4.006  1.00  0.00     0.338 C 
ATOM     31  O   UNL     1       5.490   0.075   4.146  1.00  0.00    -0.246 OA
BRANCH  30  32
ATOM     32  C   UNL     1       4.333   2.139   4.386  1.00  0.00     0.060 A 
ATOM     33  C   UNL     1       5.395   2.656   5.125  1.00  0.00     0.016 A 
ATOM     34  C   UNL     1       3.060   2.730   4.369  1.00  0.00     0.016 A 
ATOM     35  C   UNL     1       5.099   3.584   6.089  1.00  0.00     0.010 A 
ATOM     36  C   UNL     1       2.758   3.628   5.358  1.00  0.00     0.010 A 
ATOM     37  C   UNL     1       3.764   3.965   6.257  1.00  0.00    -0.014 A 
BRANCH  37  38
ATOM     38  C   UNL     1       3.459   4.792   7.395  1.00  0.00     0.031 A 
ATOM     39  C   UNL     1       3.762   6.214   7.173  1.00  0.00     0.074 A 
ATOM     40  C   UNL     1       2.868   4.312   8.501  1.00  0.00     0.049 A 
ATOM     41  N   UNL     1       4.660   6.931   7.756  1.00  0.00    -0.248 NA
ATOM     42  C   UNL     1       3.078   6.876   6.052  1.00  0.00     0.031 C 
ATOM     43  C   UNL     1       2.235   3.005   8.689  1.00  0.00     0.029 A 
ATOM     44  N   UNL     1       2.608   4.962   9.665  1.00  0.00    -0.354 N 
ATOM     45  C   UNL     1       4.504   8.203   7.221  1.00  0.00     0.074 A 
ATOM     46  C   UNL     1       3.676   8.065   6.053  1.00  0.00     0.031 C 
ATOM     47  C   UNL     1       1.482   3.045   9.811  1.00  0.00     0.029 A 
ATOM     48  C   UNL     1       1.667   4.333  10.462  1.00  0.00     0.049 A 
ATOM     49  H   UNL     1       3.050   5.804   9.919  1.00  0.00     0.167 HD
ATOM     50  C   UNL     1       4.807   9.303   7.955  1.00  0.00     0.037 A 
ATOM     51  C   UNL     1       1.025   4.888  11.519  1.00  0.00     0.037 A 
ATOM     52  C   UNL     1       5.725   8.991   9.024  1.00  0.00     0.049 A 
ATOM     53  C   UNL     1       1.794   6.088  11.942  1.00  0.00     0.074 A 
ATOM     54  C   UNL     1       6.969   8.390   9.094  1.00  0.00     0.029 A 
ATOM     55  N   UNL     1       5.249   9.001  10.311  1.00  0.00    -0.354 N 
ATOM     56  N   UNL     1       2.951   6.054  12.540  1.00  0.00    -0.248 NA
ATOM     57  C   UNL     1       1.444   7.370  11.345  1.00  0.00     0.031 C 
ATOM     58  C   UNL     1       6.972   7.668  10.323  1.00  0.00     0.029 A 
ATOM     59  C   UNL     1       5.742   7.891  10.943  1.00  0.00     0.049 A 
ATOM     60  H   UNL     1       4.660   9.683  10.708  1.00  0.00     0.167 HD
ATOM     61  C   UNL     1       3.643   7.148  12.037  1.00  0.00     0.074 A 
ATOM     62  C   UNL     1       2.627   7.984  11.409  1.00  0.00     0.031 C 
ATOM     63  C   UNL     1       5.004   7.131  11.925  1.00  0.00     0.037 A 
BRANCH  50  64
ATOM     64  C   UNL     1       3.935  10.535   7.959  1.00  0.00     0.057 A 
ATOM     65  C   UNL     1       4.382  11.672   8.651  1.00  0.00     0.134 A 
ATOM     66  C   UNL     1       2.572  10.556   7.588  1.00  0.00     0.134 A 
ATOM     67  F   UNL     1       5.654  11.768   9.065  1.00  0.00    -0.206 F 
ATOM     68  C   UNL     1       3.516  12.703   9.032  1.00  0.00     0.040 A 
ATOM     69  C   UNL     1       1.714  11.608   7.912  1.00  0.00     0.040 A 
ATOM     70  F   UNL     1       1.964   9.528   6.987  1.00  0.00    -0.206 F 
ATOM     71  C   UNL     1       2.175  12.668   8.672  1.00  0.00     0.006 A 
ENDBRANCH  50  64
BRANCH  51  72
ATOM     72  C   UNL     1      -0.336   4.604  12.026  1.00  0.00     0.057 A 
ATOM     73  C   UNL     1      -0.739   5.052  13.292  1.00  0.00     0.134 A 
ATOM     74  C   UNL     1      -1.357   4.103  11.199  1.00  0.00     0.134 A 
ATOM     75  F   UNL     1       0.150   5.591  14.139  1.00  0.00    -0.206 F 
ATOM     76  C   UNL     1      -2.077   5.019  13.704  1.00  0.00     0.040 A 
ATOM     77  C   UNL     1      -2.693   4.047  11.604  1.00  0.00     0.040 A 
ATOM     78  F   UNL     1      -1.111   3.730   9.935  1.00  0.00    -0.206 F 
ATOM     79  C   UNL     1      -3.060   4.519  12.857  1.00  0.00     0.006 A 
ENDBRANCH  51  72
BRANCH  63  80
ATOM     80  C   UNL     1       5.754   6.065  12.668  1.00  0.00     0.057 A 
ATOM     81  C   UNL     1       5.609   4.691  12.430  1.00  0.00     0.134 A 
ATOM     82  C   UNL     1       6.746   6.451  13.578  1.00  0.00     0.134 A 
ATOM     83  F   UNL     1       4.762   4.234  11.497  1.00  0.00    -0.206 F 
ATOM     84  C   UNL     1       6.375   3.743  13.113  1.00  0.00     0.040 A 
ATOM     85  C   UNL     1       7.543   5.515  14.240  1.00  0.00     0.040 A 
ATOM     86  F   UNL     1       6.983   7.752  13.810  1.00  0.00    -0.206 F 
ATOM     87  C   UNL     1       7.348   4.154  14.020  1.00  0.00     0.006 A 
ENDBRANCH  63  80
ENDBRANCH  37  38
ENDBRANCH  30  32
ENDBRANCH  29  30
ENDBRANCH  28  29
ENDBRANCH  27  28
ENDBRANCH  26  27
ENDBRANCH   1  26
TORSDOF 17
