REMARK SMILES CCCC(=O)Nc1cccc(C(=O)N[C@@H](C(=O)OCCOCCOC(=O)c2ccc(-c3c4nc(c(-c5c(F)cccc5F)c5ccc([nH]5)c(-c5c(F)cccc5F)c5nc(c(-c6c(F)cccc6F)c6ccc3[nH]6)C=C5)C=C4)cc2)C2=C(C)N=N[C@@H]2C)c1
REMARK SMILES IDX 19 1 18 2 16 3 17 4 15 5 14 6 12 7 13 8 11 10 7 11 8 12
REMARK SMILES IDX 88 13 9 14 10 15 6 16 4 17 5 18 3 20 2 21 1 22 81 23 82 24
REMARK SMILES IDX 86 25 83 26 84 27 85 28 87 29 20 30 21 31 22 32 23 33 24 34
REMARK SMILES IDX 25 35 26 36 27 37 28 38 80 39 29 40 79 41 30 42 31 43 32 44
REMARK SMILES IDX 73 45 33 46 78 47 72 48 74 49 34 50 77 51 71 52 70 53 35 55
REMARK SMILES IDX 61 56 44 57 60 58 45 59 48 60 59 61 75 62 46 63 47 64 58 66
REMARK SMILES IDX 76 67 49 68 36 69 37 70 42 71 38 72 39 73 41 74 43 75 40 76
REMARK SMILES IDX 62 77 63 78 68 79 64 80 65 81 67 82 69 83 66 84 50 85 51 86
REMARK SMILES IDX 56 87 52 88 53 89 55 90 57 91 54 92
REMARK H PARENT 14 9 6 19 74 54 48 65
REMARK Flexibility Score: inf
ROOT
ATOM      1  C   UNL     1      -3.629   0.692   0.626  1.00  0.00     0.261 C 
ENDROOT
BRANCH   1   2
ATOM      2  O   UNL     1      -2.236   0.974   0.448  1.00  0.00    -0.461 OA
BRANCH   2   3
ATOM      3  C   UNL     1      -1.672   0.431  -0.673  1.00  0.00     0.333 C 
ATOM      4  O   UNL     1      -2.235  -0.389  -1.384  1.00  0.00    -0.249 OA
BRANCH   3   5
ATOM      5  C   UNL     1      -0.238   0.985  -0.942  1.00  0.00     0.223 C 
BRANCH   5   6
ATOM      6  N   UNL     1       0.203   1.831   0.176  1.00  0.00    -0.335 N 
ATOM      7  C   UNL     1       0.859   1.554   1.357  1.00  0.00     0.252 C 
ATOM      8  O   UNL     1       1.006   2.476   2.159  1.00  0.00    -0.269 OA
ATOM      9  H   UNL     1      -0.013   2.784   0.059  1.00  0.00     0.165 HD
BRANCH   7  10
ATOM     10  C   UNL     1       1.456   0.229   1.679  1.00  0.00     0.041 A 
ATOM     11  C   UNL     1       1.674  -2.150   1.330  1.00  0.00     0.041 A 
ATOM     12  C   UNL     1       2.888  -2.173   2.008  1.00  0.00     0.026 A 
ATOM     13  C   UNL     1       0.913  -0.981   1.253  1.00  0.00     0.040 A 
ATOM     14  C   UNL     1       3.367  -0.993   2.575  1.00  0.00     0.003 A 
ATOM     15  C   UNL     1       2.667   0.206   2.393  1.00  0.00     0.014 A 
BRANCH  11  16
ATOM     16  N   UNL     1       1.201  -3.293   0.673  1.00  0.00    -0.326 N 
ATOM     17  C   UNL     1       1.174  -3.382  -0.701  1.00  0.00     0.224 C 
ATOM     18  O   UNL     1       0.180  -3.860  -1.249  1.00  0.00    -0.275 OA
ATOM     19  H   UNL     1       0.878  -4.054   1.208  1.00  0.00     0.169 HD
BRANCH  17  20
ATOM     20  C   UNL     1       2.387  -2.926  -1.506  1.00  0.00     0.100 C 
BRANCH  20  21
ATOM     21  C   UNL     1       2.228  -1.572  -2.188  1.00  0.00     0.006 C 
ATOM     22  C   UNL     1       3.047  -0.453  -1.558  1.00  0.00     0.004 C 
ENDBRANCH  20  21
ENDBRANCH  17  20
ENDBRANCH  11  16
ENDBRANCH   7  10
ENDBRANCH   5   6
BRANCH   5  23
ATOM     23  C   UNL     1      -0.144   1.668  -2.293  1.00  0.00     0.012 C 
ATOM     24  C   UNL     1       0.007   2.934  -2.725  1.00  0.00     0.064 C 
ATOM     25  C   UNL     1      -0.049   0.858  -3.577  1.00  0.00     0.156 C 
ATOM     26  C   UNL     1       0.185   4.238  -2.026  1.00  0.00     0.069 C 
ATOM     27  N   UNL     1       0.032   3.033  -4.097  1.00  0.00    -0.160 NA
ATOM     28  N   UNL     1      -0.035   1.903  -4.630  1.00  0.00    -0.181 NA
ATOM     29  C   UNL     1      -1.119  -0.154  -3.954  1.00  0.00     0.040 C 
ENDBRANCH   5  23
ENDBRANCH   3   5
ENDBRANCH   2   3
ENDBRANCH   1   2
BRANCH   1  30
ATOM     30  C   UNL     1      -4.514   1.916   0.362  1.00  0.00     0.202 C 
BRANCH  30  31
ATOM     31  O   UNL     1      -4.302   2.669  -0.826  1.00  0.00    -0.374 OA
BRANCH  31  32
ATOM     32  C   UNL     1      -3.124   3.463  -0.939  1.00  0.00     0.202 C 
BRANCH  32  33
ATOM     33  C   UNL     1      -2.915   4.648   0.010  1.00  0.00     0.261 C 
BRANCH  33  34
ATOM     34  O   UNL     1      -2.814   4.242   1.383  1.00  0.00    -0.460 OA
BRANCH  34  35
ATOM     35  C   UNL     1      -3.813   4.705   2.164  1.00  0.00     0.338 C 
ATOM     36  O   UNL     1      -4.724   5.462   1.839  1.00  0.00    -0.246 OA
BRANCH  35  37
ATOM     37  C   UNL     1      -3.816   4.006   3.453  1.00  0.00     0.060 A 
ATOM     38  C   UNL     1      -4.981   3.305   3.794  1.00  0.00     0.016 A 
ATOM     39  C   UNL     1      -2.759   4.130   4.355  1.00  0.00     0.016 A 
ATOM     40  C   UNL     1      -5.125   2.784   5.071  1.00  0.00     0.010 A 
ATOM     41  C   UNL     1      -2.913   3.621   5.646  1.00  0.00     0.010 A 
ATOM     42  C   UNL     1      -4.117   2.994   6.018  1.00  0.00    -0.014 A 
BRANCH  42  43
ATOM     43  C   UNL     1      -4.428   2.734   7.439  1.00  0.00     0.031 A 
ATOM     44  C   UNL     1      -4.833   3.890   8.309  1.00  0.00     0.074 A 
ATOM     45  C   UNL     1      -4.431   1.478   7.914  1.00  0.00     0.049 A 
ATOM     46  N   UNL     1      -5.165   3.901   9.574  1.00  0.00    -0.248 NA
ATOM     47  C   UNL     1      -4.873   5.214   7.665  1.00  0.00     0.031 C 
ATOM     48  C   UNL     1      -4.111   0.282   7.137  1.00  0.00     0.029 A 
ATOM     49  N   UNL     1      -4.720   1.003   9.166  1.00  0.00    -0.354 N 
ATOM     50  C   UNL     1      -5.444   5.229   9.877  1.00  0.00     0.074 A 
ATOM     51  C   UNL     1      -5.213   5.999   8.676  1.00  0.00     0.031 C 
ATOM     52  C   UNL     1      -4.217  -0.794   7.935  1.00  0.00     0.029 A 
ATOM     53  C   UNL     1      -4.579  -0.356   9.281  1.00  0.00     0.049 A 
ATOM     54  H   UNL     1      -5.003   1.582   9.911  1.00  0.00     0.167 HD
ATOM     55  C   UNL     1      -5.865   5.753  11.052  1.00  0.00     0.037 A 
ATOM     56  C   UNL     1      -4.707  -1.149  10.361  1.00  0.00     0.037 A 
ATOM     57  C   UNL     1      -6.093   4.973  12.240  1.00  0.00     0.049 A 
ATOM     58  C   UNL     1      -5.104  -0.531  11.675  1.00  0.00     0.074 A 
ATOM     59  C   UNL     1      -6.528   5.399  13.482  1.00  0.00     0.029 A 
ATOM     60  N   UNL     1      -5.895   3.603  12.332  1.00  0.00    -0.354 N 
ATOM     61  N   UNL     1      -5.379   0.722  11.952  1.00  0.00    -0.248 NA
ATOM     62  C   UNL     1      -5.213  -1.438  12.825  1.00  0.00     0.031 C 
ATOM     63  C   UNL     1      -6.538   4.295  14.341  1.00  0.00     0.029 A 
ATOM     64  C   UNL     1      -6.172   3.171  13.618  1.00  0.00     0.049 A 
ATOM     65  H   UNL     1      -5.601   3.023  11.593  1.00  0.00     0.167 HD
ATOM     66  C   UNL     1      -5.723   0.749  13.297  1.00  0.00     0.074 A 
ATOM     67  C   UNL     1      -5.636  -0.616  13.775  1.00  0.00     0.031 C 
ATOM     68  C   UNL     1      -6.081   1.805  14.070  1.00  0.00     0.037 A 
BRANCH  55  69
ATOM     69  C   UNL     1      -6.070   7.239  11.115  1.00  0.00     0.057 A 
ATOM     70  C   UNL     1      -7.125   7.876  10.447  1.00  0.00     0.134 A 
ATOM     71  C   UNL     1      -5.212   8.043  11.877  1.00  0.00     0.134 A 
ATOM     72  F   UNL     1      -7.974   7.168   9.686  1.00  0.00    -0.206 F 
ATOM     73  C   UNL     1      -7.303   9.259  10.514  1.00  0.00     0.040 A 
ATOM     74  C   UNL     1      -5.397   9.423  11.975  1.00  0.00     0.040 A 
ATOM     75  F   UNL     1      -4.183   7.499  12.543  1.00  0.00    -0.206 F 
ATOM     76  C   UNL     1      -6.441  10.036  11.287  1.00  0.00     0.006 A 
ENDBRANCH  55  69
BRANCH  56  77
ATOM     77  C   UNL     1      -4.446  -2.606  10.248  1.00  0.00     0.057 A 
ATOM     78  C   UNL     1      -5.474  -3.544  10.395  1.00  0.00     0.134 A 
ATOM     79  C   UNL     1      -3.157  -3.096  10.002  1.00  0.00     0.134 A 
ATOM     80  F   UNL     1      -6.726  -3.139  10.651  1.00  0.00    -0.206 F 
ATOM     81  C   UNL     1      -5.227  -4.916  10.322  1.00  0.00     0.040 A 
ATOM     82  C   UNL     1      -2.901  -4.464   9.899  1.00  0.00     0.040 A 
ATOM     83  F   UNL     1      -2.129  -2.250   9.846  1.00  0.00    -0.206 F 
ATOM     84  C   UNL     1      -3.937  -5.379  10.068  1.00  0.00     0.006 A 
ENDBRANCH  56  77
BRANCH  68  85
ATOM     85  C   UNL     1      -6.444   1.516  15.498  1.00  0.00     0.057 A 
ATOM     86  C   UNL     1      -5.485   1.142  16.448  1.00  0.00     0.134 A 
ATOM     87  C   UNL     1      -7.769   1.648  15.935  1.00  0.00     0.134 A 
ATOM     88  F   UNL     1      -4.200   0.988  16.093  1.00  0.00    -0.206 F 
ATOM     89  C   UNL     1      -5.835   0.879  17.773  1.00  0.00     0.040 A 
ATOM     90  C   UNL     1      -8.126   1.419  17.264  1.00  0.00     0.040 A 
ATOM     91  F   UNL     1      -8.736   2.015  15.080  1.00  0.00    -0.206 F 
ATOM     92  C   UNL     1      -7.159   1.024  18.185  1.00  0.00     0.006 A 
ENDBRANCH  68  85
ENDBRANCH  42  43
ENDBRANCH  35  37
ENDBRANCH  34  35
ENDBRANCH  33  34
ENDBRANCH  32  33
ENDBRANCH  31  32
ENDBRANCH  30  31
ENDBRANCH   1  30
TORSDOF 20
