REMARK SMILES O=C(N[C@@H](Cc1ccc(O)cc1)C(=O)N[C@@H](CO)C(=O)OCCOCCOC(=O)c1ccc(-c2c3nc(c(-c4c(F)cccc4F)c4ccc([nH]4)c(-c4c(F)cccc4F)c4nc(c(-c5c(F)cccc5F)c5ccc2[nH]5)C=C4)C=C3)cc1)c1ccc(F)cc1
REMARK SMILES IDX 22 1 21 2 19 3 20 4 16 5 15 6 13 7 14 8 4 10 3 11 1 12 2 13
REMARK SMILES IDX 84 15 85 16 90 17 86 18 89 19 87 20 88 21 5 22 6 23 7 24
REMARK SMILES IDX 12 25 8 26 11 27 9 28 10 29 17 31 18 32 23 34 24 35 25 36
REMARK SMILES IDX 26 37 27 38 28 39 29 40 30 41 31 42 83 43 32 44 82 45 33 46
REMARK SMILES IDX 34 47 35 48 76 49 36 50 81 51 75 52 77 53 37 54 80 55 74 56
REMARK SMILES IDX 73 57 38 59 64 60 47 61 63 62 48 63 51 64 62 65 78 66 49 67
REMARK SMILES IDX 50 68 61 70 79 71 52 72 39 73 40 74 45 75 41 76 42 77 44 78
REMARK SMILES IDX 46 79 43 80 65 81 66 82 71 83 67 84 68 85 70 86 72 87 69 88
REMARK SMILES IDX 53 89 54 90 59 91 55 92 56 93 58 94 60 95 57 96
REMARK H PARENT 15 9 3 14 10 30 18 33 77 58 51 69
REMARK Flexibility Score: inf
ROOT
ATOM      1  C   UNL     1       5.296   6.607  -3.002  1.00  0.00     0.261 C 
ENDROOT
BRANCH   1   2
ATOM      2  O   UNL     1       4.816   5.641  -2.051  1.00  0.00    -0.462 OA
BRANCH   2   3
ATOM      3  C   UNL     1       3.470   5.410  -2.062  1.00  0.00     0.331 C 
ATOM      4  O   UNL     1       2.673   6.021  -2.764  1.00  0.00    -0.250 OA
BRANCH   3   5
ATOM      5  C   UNL     1       3.088   4.260  -1.097  1.00  0.00     0.218 C 
BRANCH   5   6
ATOM      6  N   UNL     1       4.277   3.691  -0.432  1.00  0.00    -0.339 N 
ATOM      7  C   UNL     1       4.850   2.461  -0.475  1.00  0.00     0.243 C 
ATOM      8  O   UNL     1       6.064   2.425  -0.234  1.00  0.00    -0.273 OA
ATOM      9  H   UNL     1       4.745   4.327   0.156  1.00  0.00     0.164 HD
BRANCH   7  10
ATOM     10  C   UNL     1       4.123   1.157  -0.881  1.00  0.00     0.176 C 
BRANCH  10  11
ATOM     11  N   UNL     1       2.743   1.032  -0.415  1.00  0.00    -0.340 N 
ATOM     12  O   UNL     1       0.959  -0.064   0.417  1.00  0.00    -0.269 OA
ATOM     13  C   UNL     1       2.175  -0.022   0.264  1.00  0.00     0.251 C 
ATOM     14  H   UNL     1       2.149   1.792  -0.610  1.00  0.00     0.164 HD
BRANCH  13  15
ATOM     15  C   UNL     1       3.013  -1.139   0.764  1.00  0.00     0.040 A 
ATOM     16  C   UNL     1       4.074  -0.917   1.653  1.00  0.00     0.017 A 
ATOM     17  C   UNL     1       2.709  -2.441   0.344  1.00  0.00     0.017 A 
ATOM     18  C   UNL     1       4.872  -1.988   2.062  1.00  0.00     0.040 A 
ATOM     19  C   UNL     1       3.502  -3.510   0.768  1.00  0.00     0.040 A 
ATOM     20  C   UNL     1       4.582  -3.272   1.613  1.00  0.00     0.123 A 
ATOM     21  F   UNL     1       5.353  -4.296   2.002  1.00  0.00    -0.207 F 
ENDBRANCH  13  15
ENDBRANCH  10  11
BRANCH  10  22
ATOM     22  C   UNL     1       4.309   0.688  -2.339  1.00  0.00     0.070 C 
BRANCH  22  23
ATOM     23  C   UNL     1       3.764   1.570  -3.431  1.00  0.00    -0.045 A 
ATOM     24  C   UNL     1       4.466   2.727  -3.764  1.00  0.00     0.007 A 
ATOM     25  C   UNL     1       2.626   1.258  -4.175  1.00  0.00     0.007 A 
ATOM     26  C   UNL     1       4.051   3.586  -4.774  1.00  0.00     0.046 A 
ATOM     27  C   UNL     1       2.190   2.123  -5.188  1.00  0.00     0.046 A 
ATOM     28  C   UNL     1       2.889   3.293  -5.460  1.00  0.00     0.115 A 
BRANCH  28  29
ATOM     29  O   UNL     1       2.401   4.148  -6.400  1.00  0.00    -0.508 OA
ATOM     30  H   UNL     1       2.860   4.941  -6.595  1.00  0.00     0.293 HD
ENDBRANCH  28  29
ENDBRANCH  22  23
ENDBRANCH  10  22
ENDBRANCH   7  10
ENDBRANCH   5   6
BRANCH   5  31
ATOM     31  C   UNL     1       2.093   4.805  -0.071  1.00  0.00     0.193 C 
BRANCH  31  32
ATOM     32  O   UNL     1       2.705   5.780   0.774  1.00  0.00    -0.394 OA
ATOM     33  H   UNL     1       3.441   5.373   1.258  1.00  0.00     0.210 HD
ENDBRANCH  31  32
ENDBRANCH   5  31
ENDBRANCH   3   5
ENDBRANCH   2   3
ENDBRANCH   1   2
BRANCH   1  34
ATOM     34  C   UNL     1       6.825   6.533  -3.082  1.00  0.00     0.202 C 
BRANCH  34  35
ATOM     35  O   UNL     1       7.347   5.372  -3.744  1.00  0.00    -0.374 OA
BRANCH  35  36
ATOM     36  C   UNL     1       7.440   4.190  -2.942  1.00  0.00     0.202 C 
BRANCH  36  37
ATOM     37  C   UNL     1       8.787   3.909  -2.286  1.00  0.00     0.261 C 
BRANCH  37  38
ATOM     38  O   UNL     1       9.116   4.995  -1.426  1.00  0.00    -0.460 OA
BRANCH  38  39
ATOM     39  C   UNL     1      10.002   5.850  -1.982  1.00  0.00     0.338 C 
ATOM     40  O   UNL     1      10.770   5.638  -2.898  1.00  0.00    -0.246 OA
BRANCH  39  41
ATOM     41  C   UNL     1       9.737   7.191  -1.438  1.00  0.00     0.060 A 
ATOM     42  C   UNL     1       9.845   8.254  -2.340  1.00  0.00     0.016 A 
ATOM     43  C   UNL     1       9.374   7.407  -0.102  1.00  0.00     0.016 A 
ATOM     44  C   UNL     1       9.717   9.553  -1.882  1.00  0.00     0.010 A 
ATOM     45  C   UNL     1       9.248   8.713   0.362  1.00  0.00     0.010 A 
ATOM     46  C   UNL     1       9.507   9.778  -0.516  1.00  0.00    -0.014 A 
BRANCH  46  47
ATOM     47  C   UNL     1       9.935  11.086   0.013  1.00  0.00     0.031 A 
ATOM     48  C   UNL     1      11.363  11.198   0.475  1.00  0.00     0.074 A 
ATOM     49  C   UNL     1       9.125  12.153  -0.043  1.00  0.00     0.049 A 
ATOM     50  N   UNL     1      12.027  12.247   0.879  1.00  0.00    -0.248 NA
ATOM     51  C   UNL     1      12.156   9.954   0.467  1.00  0.00     0.031 C 
ATOM     52  C   UNL     1       7.747  12.147  -0.528  1.00  0.00     0.029 A 
ATOM     53  N   UNL     1       9.364  13.457   0.295  1.00  0.00    -0.354 N 
ATOM     54  C   UNL     1      13.309  11.790   1.161  1.00  0.00     0.074 A 
ATOM     55  C   UNL     1      13.325  10.367   0.926  1.00  0.00     0.031 C 
ATOM     56  C   UNL     1       7.260  13.399  -0.462  1.00  0.00     0.029 A 
ATOM     57  C   UNL     1       8.290  14.282   0.082  1.00  0.00     0.049 A 
ATOM     58  H   UNL     1      10.225  13.772   0.655  1.00  0.00     0.167 HD
ATOM     59  C   UNL     1      14.386  12.500   1.563  1.00  0.00     0.037 A 
ATOM     60  C   UNL     1       8.168  15.603   0.307  1.00  0.00     0.037 A 
ATOM     61  C   UNL     1      14.355  13.915   1.799  1.00  0.00     0.049 A 
ATOM     62  C   UNL     1       9.363  16.362   0.819  1.00  0.00     0.074 A 
ATOM     63  C   UNL     1      15.373  14.742   2.233  1.00  0.00     0.029 A 
ATOM     64  N   UNL     1      13.232  14.710   1.619  1.00  0.00    -0.354 N 
ATOM     65  N   UNL     1      10.574  15.926   1.077  1.00  0.00    -0.248 NA
ATOM     66  C   UNL     1       9.179  17.799   1.061  1.00  0.00     0.031 C 
ATOM     67  C   UNL     1      14.854  16.036   2.351  1.00  0.00     0.029 A 
ATOM     68  C   UNL     1      13.527  16.019   1.947  1.00  0.00     0.049 A 
ATOM     69  H   UNL     1      12.357  14.389   1.304  1.00  0.00     0.167 HD
ATOM     70  C   UNL     1      11.303  17.036   1.483  1.00  0.00     0.074 A 
ATOM     71  C   UNL     1      10.399  18.168   1.427  1.00  0.00     0.031 C 
ATOM     72  C   UNL     1      12.601  17.120   1.866  1.00  0.00     0.037 A 
BRANCH  59  73
ATOM     73  C   UNL     1      15.656  11.741   1.798  1.00  0.00     0.057 A 
ATOM     74  C   UNL     1      16.415  11.223   0.740  1.00  0.00     0.134 A 
ATOM     75  C   UNL     1      16.116  11.507   3.099  1.00  0.00     0.134 A 
ATOM     76  F   UNL     1      16.012  11.386  -0.530  1.00  0.00    -0.206 F 
ATOM     77  C   UNL     1      17.575  10.480   0.969  1.00  0.00     0.040 A 
ATOM     78  C   UNL     1      17.286  10.786   3.340  1.00  0.00     0.040 A 
ATOM     79  F   UNL     1      15.430  11.966   4.156  1.00  0.00    -0.206 F 
ATOM     80  C   UNL     1      18.016  10.265   2.273  1.00  0.00     0.006 A 
ENDBRANCH  59  73
BRANCH  60  81
ATOM     81  C   UNL     1       6.877  16.285   0.044  1.00  0.00     0.057 A 
ATOM     82  C   UNL     1       6.736  17.203  -1.002  1.00  0.00     0.134 A 
ATOM     83  C   UNL     1       5.753  16.039   0.842  1.00  0.00     0.134 A 
ATOM     84  F   UNL     1       7.780  17.494  -1.791  1.00  0.00    -0.206 F 
ATOM     85  C   UNL     1       5.528  17.865  -1.235  1.00  0.00     0.040 A 
ATOM     86  C   UNL     1       4.534  16.675   0.607  1.00  0.00     0.040 A 
ATOM     87  F   UNL     1       5.823  15.166   1.859  1.00  0.00    -0.206 F 
ATOM     88  C   UNL     1       4.421  17.597  -0.431  1.00  0.00     0.006 A 
ENDBRANCH  60  81
BRANCH  72  89
ATOM     89  C   UNL     1      13.123  18.480   2.213  1.00  0.00     0.057 A 
ATOM     90  C   UNL     1      12.781  19.118   3.411  1.00  0.00     0.134 A 
ATOM     91  C   UNL     1      14.020  19.134   1.359  1.00  0.00     0.134 A 
ATOM     92  F   UNL     1      11.920  18.544   4.265  1.00  0.00    -0.206 F 
ATOM     93  C   UNL     1      13.296  20.372   3.738  1.00  0.00     0.040 A 
ATOM     94  C   UNL     1      14.561  20.377   1.687  1.00  0.00     0.040 A 
ATOM     95  F   UNL     1      14.396  18.568   0.202  1.00  0.00    -0.206 F 
ATOM     96  C   UNL     1      14.194  21.001   2.877  1.00  0.00     0.006 A 
ENDBRANCH  72  89
ENDBRANCH  46  47
ENDBRANCH  39  41
ENDBRANCH  38  39
ENDBRANCH  37  38
ENDBRANCH  36  37
ENDBRANCH  35  36
ENDBRANCH  34  35
ENDBRANCH   1  34
TORSDOF 23
