REMARK SMILES CN1C(=O)CC[C@H]([NH2+]Cc2ccc(C(=O)OCCOCCOC(=O)c3ccc(-c4c5nc(c(-c6c(F)cccc6F)c6ccc([nH]6)c(-c6c(F)cccc6F)c6nc(c(-c7c(F)cccc7F)c7ccc4[nH]7)C=C6)C=C5)cc3)cn2)C1=O
REMARK SMILES IDX 18 1 17 2 16 3 14 4 15 5 13 6 10 7 11 8 80 9 12 10 79 11
REMARK SMILES IDX 9 12 8 13 7 16 1 17 2 18 3 19 81 20 4 21 5 22 82 23 6 24
REMARK SMILES IDX 19 25 20 26 21 27 22 28 23 29 24 30 25 31 26 32 78 33 27 34
REMARK SMILES IDX 77 35 28 36 29 37 30 38 71 39 31 40 76 41 70 42 72 43 32 44
REMARK SMILES IDX 75 45 69 46 68 47 33 49 59 50 42 51 58 52 43 53 46 54 57 55
REMARK SMILES IDX 73 56 44 57 45 58 56 60 74 61 47 62 34 63 35 64 40 65 36 66
REMARK SMILES IDX 37 67 39 68 41 69 38 70 60 71 61 72 66 73 62 74 63 75 65 76
REMARK SMILES IDX 67 77 64 78 48 79 49 80 54 81 50 82 51 83 53 84 55 85 52 86
REMARK H PARENT 8 14 8 15 72 48 46 59
REMARK Flexibility Score: inf
ROOT
ATOM      1  C   UNL     1       7.206 -10.441   5.251  1.00  0.00     0.202 C 
ENDROOT
BRANCH   1   2
ATOM      2  C   UNL     1       7.431 -10.276   3.745  1.00  0.00     0.261 C 
BRANCH   2   3
ATOM      3  O   UNL     1       6.871  -9.045   3.263  1.00  0.00    -0.460 OA
BRANCH   3   4
ATOM      4  C   UNL     1       5.753  -9.176   2.511  1.00  0.00     0.339 C 
ATOM      5  O   UNL     1       5.268 -10.219   2.092  1.00  0.00    -0.246 OA
BRANCH   4   6
ATOM      6  C   UNL     1       5.084  -7.872   2.367  1.00  0.00     0.078 A 
ATOM      7  C   UNL     1       3.642  -5.550   2.071  1.00  0.00     0.094 A 
ATOM      8  C   UNL     1       5.025  -5.478   2.268  1.00  0.00     0.031 A 
ATOM      9  N   UNL     1       2.968  -6.729   2.033  1.00  0.00    -0.254 NA
ATOM     10  C   UNL     1       5.754  -6.653   2.427  1.00  0.00     0.019 A 
ATOM     11  C   UNL     1       3.705  -7.859   2.185  1.00  0.00     0.127 A 
BRANCH   7  12
ATOM     12  C   UNL     1       2.888  -4.280   1.716  1.00  0.00     0.318 C 
BRANCH  12  13
ATOM     13  N   UNL     1       1.514  -4.218   2.238  1.00  0.00    -0.331 N 
ATOM     14  H   UNL     1       1.123  -5.160   2.233  1.00  0.00     0.347 HD
ATOM     15  H   UNL     1       1.564  -3.829   3.179  1.00  0.00     0.347 HD
BRANCH  13  16
ATOM     16  C   UNL     1       0.625  -3.333   1.441  1.00  0.00     0.274 C 
ATOM     17  C   UNL     1       0.820   0.327   0.306  1.00  0.00     0.156 C 
ATOM     18  N   UNL     1       0.303  -0.912   0.868  1.00  0.00    -0.281 N 
ATOM     19  C   UNL     1      -1.057  -0.945   1.151  1.00  0.00     0.229 C 
ATOM     20  C   UNL     1       1.217  -1.935   1.123  1.00  0.00     0.287 C 
ATOM     21  O   UNL     1      -1.785   0.044   1.069  1.00  0.00    -0.274 OA
ATOM     22  C   UNL     1      -1.648  -2.290   1.486  1.00  0.00     0.107 C 
ATOM     23  O   UNL     1       2.429  -1.741   0.995  1.00  0.00    -0.267 OA
ATOM     24  C   UNL     1      -0.680  -3.195   2.217  1.00  0.00     0.085 C 
ENDBRANCH  13  16
ENDBRANCH  12  13
ENDBRANCH   7  12
ENDBRANCH   4   6
ENDBRANCH   3   4
ENDBRANCH   2   3
ENDBRANCH   1   2
BRANCH   1  25
ATOM     25  O   UNL     1       5.851 -10.494   5.692  1.00  0.00    -0.374 OA
BRANCH  25  26
ATOM     26  C   UNL     1       5.159  -9.254   5.850  1.00  0.00     0.202 C 
BRANCH  26  27
ATOM     27  C   UNL     1       5.478  -8.437   7.108  1.00  0.00     0.261 C 
BRANCH  27  28
ATOM     28  O   UNL     1       6.824  -7.927   7.096  1.00  0.00    -0.460 OA
BRANCH  28  29
ATOM     29  C   UNL     1       7.659  -8.514   7.984  1.00  0.00     0.338 C 
ATOM     30  O   UNL     1       7.378  -9.357   8.823  1.00  0.00    -0.246 OA
BRANCH  29  31
ATOM     31  C   UNL     1       9.051  -8.128   7.695  1.00  0.00     0.060 A 
ATOM     32  C   UNL     1       9.986  -9.159   7.531  1.00  0.00     0.016 A 
ATOM     33  C   UNL     1       9.453  -6.792   7.668  1.00  0.00     0.016 A 
ATOM     34  C   UNL     1      11.339  -8.858   7.400  1.00  0.00     0.010 A 
ATOM     35  C   UNL     1      10.813  -6.492   7.543  1.00  0.00     0.010 A 
ATOM     36  C   UNL     1      11.765  -7.524   7.451  1.00  0.00    -0.014 A 
BRANCH  36  37
ATOM     37  C   UNL     1      13.211  -7.224   7.579  1.00  0.00     0.031 A 
ATOM     38  C   UNL     1      13.766  -6.884   8.935  1.00  0.00     0.074 A 
ATOM     39  C   UNL     1      14.026  -7.285   6.511  1.00  0.00     0.049 A 
ATOM     40  N   UNL     1      14.984  -6.552   9.276  1.00  0.00    -0.248 NA
ATOM     41  C   UNL     1      12.815  -6.921  10.058  1.00  0.00     0.031 C 
ATOM     42  C   UNL     1      13.617  -7.643   5.155  1.00  0.00     0.029 A 
ATOM     43  N   UNL     1      15.372  -7.038   6.405  1.00  0.00    -0.354 N 
ATOM     44  C   UNL     1      14.944  -6.330  10.648  1.00  0.00     0.074 A 
ATOM     45  C   UNL     1      13.576  -6.534  11.070  1.00  0.00     0.031 C 
ATOM     46  C   UNL     1      14.691  -7.583   4.348  1.00  0.00     0.029 A 
ATOM     47  C   UNL     1      15.851  -7.152   5.124  1.00  0.00     0.049 A 
ATOM     48  H   UNL     1      15.939  -6.801   7.175  1.00  0.00     0.167 HD
ATOM     49  C   UNL     1      15.959  -5.997  11.481  1.00  0.00     0.037 A 
ATOM     50  C   UNL     1      17.083  -6.915   4.634  1.00  0.00     0.037 A 
ATOM     51  C   UNL     1      17.320  -5.799  11.058  1.00  0.00     0.049 A 
ATOM     52  C   UNL     1      18.181  -6.482   5.569  1.00  0.00     0.074 A 
ATOM     53  C   UNL     1      18.424  -5.475  11.828  1.00  0.00     0.029 A 
ATOM     54  N   UNL     1      17.762  -5.900   9.748  1.00  0.00    -0.354 N 
ATOM     55  N   UNL     1      18.139  -6.295   6.866  1.00  0.00    -0.248 NA
ATOM     56  C   UNL     1      19.501  -6.232   4.971  1.00  0.00     0.031 C 
ATOM     57  C   UNL     1      19.523  -5.330  10.975  1.00  0.00     0.029 A 
ATOM     58  C   UNL     1      19.117  -5.622   9.683  1.00  0.00     0.049 A 
ATOM     59  H   UNL     1      17.196  -6.135   8.977  1.00  0.00     0.167 HD
ATOM     60  C   UNL     1      19.429  -5.942   7.244  1.00  0.00     0.074 A 
ATOM     61  C   UNL     1      20.233  -5.948   6.039  1.00  0.00     0.031 C 
ATOM     62  C   UNL     1      19.907  -5.644   8.478  1.00  0.00     0.037 A 
BRANCH  49  63
ATOM     63  C   UNL     1      15.624  -5.800  12.931  1.00  0.00     0.057 A 
ATOM     64  C   UNL     1      15.283  -6.870  13.768  1.00  0.00     0.134 A 
ATOM     65  C   UNL     1      15.666  -4.522  13.504  1.00  0.00     0.134 A 
ATOM     66  F   UNL     1      15.209  -8.118  13.280  1.00  0.00    -0.206 F 
ATOM     67  C   UNL     1      14.970  -6.674  15.115  1.00  0.00     0.040 A 
ATOM     68  C   UNL     1      15.383  -4.317  14.855  1.00  0.00     0.040 A 
ATOM     69  F   UNL     1      15.990  -3.453  12.761  1.00  0.00    -0.206 F 
ATOM     70  C   UNL     1      15.027  -5.394  15.663  1.00  0.00     0.006 A 
ENDBRANCH  49  63
BRANCH  50  71
ATOM     71  C   UNL     1      17.348  -7.076   3.181  1.00  0.00     0.057 A 
ATOM     72  C   UNL     1      18.172  -8.100   2.702  1.00  0.00     0.134 A 
ATOM     73  C   UNL     1      16.799  -6.196   2.240  1.00  0.00     0.134 A 
ATOM     74  F   UNL     1      18.745  -8.961   3.556  1.00  0.00    -0.206 F 
ATOM     75  C   UNL     1      18.456  -8.234   1.342  1.00  0.00     0.040 A 
ATOM     76  C   UNL     1      17.054  -6.333   0.875  1.00  0.00     0.040 A 
ATOM     77  F   UNL     1      15.999  -5.194   2.635  1.00  0.00    -0.206 F 
ATOM     78  C   UNL     1      17.891  -7.351   0.423  1.00  0.00     0.006 A 
ENDBRANCH  50  71
BRANCH  62  79
ATOM     79  C   UNL     1      21.376  -5.352   8.598  1.00  0.00     0.057 A 
ATOM     80  C   UNL     1      21.942  -4.168   8.111  1.00  0.00     0.134 A 
ATOM     81  C   UNL     1      22.227  -6.256   9.248  1.00  0.00     0.134 A 
ATOM     82  F   UNL     1      21.185  -3.266   7.468  1.00  0.00    -0.206 F 
ATOM     83  C   UNL     1      23.307  -3.904   8.242  1.00  0.00     0.040 A 
ATOM     84  C   UNL     1      23.587  -5.990   9.411  1.00  0.00     0.040 A 
ATOM     85  F   UNL     1      21.748  -7.405   9.748  1.00  0.00    -0.206 F 
ATOM     86  C   UNL     1      24.132  -4.814   8.901  1.00  0.00     0.006 A 
ENDBRANCH  62  79
ENDBRANCH  36  37
ENDBRANCH  29  31
ENDBRANCH  28  29
ENDBRANCH  27  28
ENDBRANCH  26  27
ENDBRANCH  25  26
ENDBRANCH   1  25
TORSDOF 17
