REMARK SMILES O=C(C[C@H](NC(=O)[C@]12C[C@H]3C[C@H](C[C@H](C3)C1)C2)c1ccc(Cl)cc1Cl)OCCOCCOC(=O)c1ccc(-c2c3nc(c(-c4c(F)cccc4F)c4ccc([nH]4)c(-c4c(F)cccc4F)c4nc(c(-c5c(F)cccc5F)c5ccc2[nH]5)C=C4)C=C3)cc1
REMARK SMILES IDX 28 1 27 2 26 3 2 4 1 5 3 6 4 7 18 8 19 9 24 10 20 11 23 12
REMARK SMILES IDX 25 13 21 14 22 15 5 16 6 17 7 19 8 20 9 21 16 22 17 23 10 24
REMARK SMILES IDX 14 25 12 26 11 27 15 28 13 29 29 30 30 31 31 32 32 33 33 34
REMARK SMILES IDX 34 35 35 36 36 37 88 38 37 39 87 40 38 41 39 42 40 43 81 44
REMARK SMILES IDX 41 45 86 46 80 47 82 48 42 49 85 50 79 51 78 52 43 54 69 55
REMARK SMILES IDX 52 56 68 57 53 58 56 59 67 60 83 61 54 62 55 63 66 65 84 66
REMARK SMILES IDX 57 67 44 68 45 69 50 70 46 71 47 72 49 73 51 74 48 75 70 76
REMARK SMILES IDX 71 77 76 78 72 79 73 80 75 81 77 82 74 83 58 84 59 85 64 86
REMARK SMILES IDX 60 87 61 88 63 89 65 90 62 91
REMARK H PARENT 5 18 82 53 56 64
REMARK Flexibility Score: inf
ROOT
ATOM      1  C   UNL     1       3.245   3.515   1.180  1.00  0.00     0.202 C 
ENDROOT
BRANCH   1   2
ATOM      2  C   UNL     1       2.319   2.374   0.781  1.00  0.00     0.261 C 
BRANCH   2   3
ATOM      3  O   UNL     1       2.674   1.122   1.380  1.00  0.00    -0.463 OA
BRANCH   3   4
ATOM      4  C   UNL     1       3.245   0.099   0.708  1.00  0.00     0.308 C 
ATOM      5  O   UNL     1       2.993  -1.056   1.039  1.00  0.00    -0.252 OA
BRANCH   4   6
ATOM      6  C   UNL     1       4.313   0.390  -0.317  1.00  0.00     0.152 C 
BRANCH   6   7
ATOM      7  C   UNL     1       3.863   0.689  -1.738  1.00  0.00     0.125 C 
BRANCH   7   8
ATOM      8  C   UNL     1       4.889   1.374  -2.643  1.00  0.00    -0.006 A 
ATOM      9  C   UNL     1       4.411   2.406  -3.487  1.00  0.00     0.009 A 
ATOM     10  C   UNL     1       6.281   1.136  -2.680  1.00  0.00     0.047 A 
ATOM     11  C   UNL     1       5.237   3.039  -4.421  1.00  0.00     0.021 A 
ATOM     12  C   UNL     1       7.079   1.684  -3.693  1.00  0.00     0.041 A 
ATOM     13  Cl  UNL     1       7.149   0.154  -1.544  1.00  0.00    -0.084 Cl
ATOM     14  C   UNL     1       6.549   2.617  -4.571  1.00  0.00     0.042 A 
ATOM     15  Cl  UNL     1       7.524   3.255  -5.833  1.00  0.00    -0.084 Cl
ENDBRANCH   7   8
BRANCH   7  16
ATOM     16  N   UNL     1       2.975  -0.361  -2.275  1.00  0.00    -0.348 N 
ATOM     17  C   UNL     1       3.051  -1.619  -2.766  1.00  0.00     0.226 C 
ATOM     18  H   UNL     1       2.041  -0.050  -2.276  1.00  0.00     0.164 HD
ATOM     19  O   UNL     1       2.134  -2.355  -2.374  1.00  0.00    -0.274 OA
BRANCH  17  20
ATOM     20  C   UNL     1       3.977  -2.091  -3.892  1.00  0.00     0.050 C 
ATOM     21  C   UNL     1       3.712  -3.599  -4.181  1.00  0.00     0.020 C 
ATOM     22  C   UNL     1       5.471  -1.975  -3.609  1.00  0.00     0.020 C 
ATOM     23  C   UNL     1       3.628  -1.284  -5.165  1.00  0.00     0.020 C 
ATOM     24  C   UNL     1       4.541  -4.091  -5.380  1.00  0.00    -0.010 C 
ATOM     25  C   UNL     1       6.323  -2.430  -4.804  1.00  0.00    -0.010 C 
ATOM     26  C   UNL     1       4.456  -1.772  -6.363  1.00  0.00    -0.010 C 
ATOM     27  C   UNL     1       4.162  -3.259  -6.615  1.00  0.00     0.007 C 
ATOM     28  C   UNL     1       6.037  -3.908  -5.080  1.00  0.00     0.007 C 
ATOM     29  C   UNL     1       5.949  -1.596  -6.043  1.00  0.00     0.007 C 
ENDBRANCH  17  20
ENDBRANCH   7  16
ENDBRANCH   6   7
ENDBRANCH   4   6
ENDBRANCH   3   4
ENDBRANCH   2   3
ENDBRANCH   1   2
BRANCH   1  30
ATOM     30  O   UNL     1       4.633   3.381   0.895  1.00  0.00    -0.374 OA
BRANCH  30  31
ATOM     31  C   UNL     1       5.425   2.692   1.877  1.00  0.00     0.202 C 
BRANCH  31  32
ATOM     32  C   UNL     1       5.859   3.470   3.124  1.00  0.00     0.261 C 
BRANCH  32  33
ATOM     33  O   UNL     1       4.742   3.737   3.980  1.00  0.00    -0.460 OA
BRANCH  33  34
ATOM     34  C   UNL     1       4.237   4.993   3.879  1.00  0.00     0.338 C 
ATOM     35  O   UNL     1       4.711   5.937   3.286  1.00  0.00    -0.246 OA
BRANCH  34  36
ATOM     36  C   UNL     1       2.842   4.949   4.366  1.00  0.00     0.060 A 
ATOM     37  C   UNL     1       1.864   5.550   3.557  1.00  0.00     0.016 A 
ATOM     38  C   UNL     1       2.491   4.276   5.538  1.00  0.00     0.016 A 
ATOM     39  C   UNL     1       0.532   5.524   3.943  1.00  0.00     0.010 A 
ATOM     40  C   UNL     1       1.159   4.279   5.944  1.00  0.00     0.010 A 
ATOM     41  C   UNL     1       0.192   4.943   5.169  1.00  0.00    -0.014 A 
BRANCH  41  42
ATOM     42  C   UNL     1      -1.104   5.290   5.778  1.00  0.00     0.031 A 
ATOM     43  C   UNL     1      -1.123   6.457   6.723  1.00  0.00     0.074 A 
ATOM     44  C   UNL     1      -2.219   4.606   5.480  1.00  0.00     0.049 A 
ATOM     45  N   UNL     1      -2.104   6.925   7.446  1.00  0.00    -0.248 NA
ATOM     46  C   UNL     1       0.145   7.192   6.878  1.00  0.00     0.031 C 
ATOM     47  C   UNL     1      -2.303   3.494   4.535  1.00  0.00     0.029 A 
ATOM     48  N   UNL     1      -3.493   4.745   5.959  1.00  0.00    -0.354 N 
ATOM     49  C   UNL     1      -1.566   7.994   8.151  1.00  0.00     0.074 A 
ATOM     50  C   UNL     1      -0.171   8.093   7.792  1.00  0.00     0.031 C 
ATOM     51  C   UNL     1      -3.567   3.034   4.522  1.00  0.00     0.029 A 
ATOM     52  C   UNL     1      -4.362   3.797   5.481  1.00  0.00     0.049 A 
ATOM     53  H   UNL     1      -3.760   5.456   6.586  1.00  0.00     0.167 HD
ATOM     54  C   UNL     1      -2.189   8.821   9.020  1.00  0.00     0.037 A 
ATOM     55  C   UNL     1      -5.644   3.563   5.816  1.00  0.00     0.037 A 
ATOM     56  C   UNL     1      -3.578   8.700   9.367  1.00  0.00     0.049 A 
ATOM     57  C   UNL     1      -6.299   4.455   6.839  1.00  0.00     0.074 A 
ATOM     58  C   UNL     1      -4.325   9.487  10.223  1.00  0.00     0.029 A 
ATOM     59  N   UNL     1      -4.425   7.715   8.879  1.00  0.00    -0.354 N 
ATOM     60  N   UNL     1      -5.796   5.478   7.490  1.00  0.00    -0.248 NA
ATOM     61  C   UNL     1      -7.699   4.162   7.173  1.00  0.00     0.031 C 
ATOM     62  C   UNL     1      -5.610   8.942  10.298  1.00  0.00     0.029 A 
ATOM     63  C   UNL     1      -5.683   7.856   9.438  1.00  0.00     0.049 A 
ATOM     64  H   UNL     1      -4.169   7.019   8.232  1.00  0.00     0.167 HD
ATOM     65  C   UNL     1      -6.824   5.969   8.285  1.00  0.00     0.074 A 
ATOM     66  C   UNL     1      -7.981   5.138   8.024  1.00  0.00     0.031 C 
ATOM     67  C   UNL     1      -6.817   7.013   9.152  1.00  0.00     0.037 A 
BRANCH  54  68
ATOM     68  C   UNL     1      -1.363   9.888   9.675  1.00  0.00     0.057 A 
ATOM     69  C   UNL     1      -0.860  10.986   8.964  1.00  0.00     0.134 A 
ATOM     70  C   UNL     1      -1.074   9.819  11.044  1.00  0.00     0.134 A 
ATOM     71  F   UNL     1      -1.078  11.100   7.645  1.00  0.00    -0.206 F 
ATOM     72  C   UNL     1      -0.083  11.965   9.587  1.00  0.00     0.040 A 
ATOM     73  C   UNL     1      -0.323  10.806  11.683  1.00  0.00     0.040 A 
ATOM     74  F   UNL     1      -1.517   8.790  11.783  1.00  0.00    -0.206 F 
ATOM     75  C   UNL     1       0.180  11.880  10.953  1.00  0.00     0.006 A 
ENDBRANCH  54  68
BRANCH  55  76
ATOM     76  C   UNL     1      -6.381   2.434   5.196  1.00  0.00     0.057 A 
ATOM     77  C   UNL     1      -7.449   2.656   4.319  1.00  0.00     0.134 A 
ATOM     78  C   UNL     1      -6.038   1.103   5.468  1.00  0.00     0.134 A 
ATOM     79  F   UNL     1      -7.838   3.907   4.033  1.00  0.00    -0.206 F 
ATOM     80  C   UNL     1      -8.159   1.598   3.748  1.00  0.00     0.040 A 
ATOM     81  C   UNL     1      -6.722   0.036   4.883  1.00  0.00     0.040 A 
ATOM     82  F   UNL     1      -5.022   0.821   6.297  1.00  0.00    -0.206 F 
ATOM     83  C   UNL     1      -7.792   0.283   4.026  1.00  0.00     0.006 A 
ENDBRANCH  55  76
BRANCH  67  84
ATOM     84  C   UNL     1      -8.108   7.339   9.844  1.00  0.00     0.057 A 
ATOM     85  C   UNL     1      -8.640   6.520  10.847  1.00  0.00     0.134 A 
ATOM     86  C   UNL     1      -8.800   8.517   9.535  1.00  0.00     0.134 A 
ATOM     87  F   UNL     1      -8.030   5.373  11.184  1.00  0.00    -0.206 F 
ATOM     88  C   UNL     1      -9.830   6.848  11.499  1.00  0.00     0.040 A 
ATOM     89  C   UNL     1      -9.972   8.872  10.202  1.00  0.00     0.040 A 
ATOM     90  F   UNL     1      -8.336   9.354   8.593  1.00  0.00    -0.206 F 
ATOM     91  C   UNL     1     -10.494   8.031  11.182  1.00  0.00     0.006 A 
ENDBRANCH  67  84
ENDBRANCH  41  42
ENDBRANCH  34  36
ENDBRANCH  33  34
ENDBRANCH  32  33
ENDBRANCH  31  32
ENDBRANCH  30  31
ENDBRANCH   1  30
TORSDOF 18
