REMARK SMILES O=C(OCCOCCOC(=O)[C@H]1CCCCN1c1cc(-c2ccccc2)nc(-c2cccc(Cl)c2)n1)c1ccc(-c2c3nc(c(-c4c(F)cccc4F)c4ccc([nH]4)c(-c4c(F)cccc4F)c4nc(c(-c5c(F)cccc5F)c5ccc2[nH]5)C=C4)C=C3)cc1
REMARK SMILES IDX 6 1 5 2 4 3 3 4 2 5 1 6 37 7 38 8 90 9 39 10 89 11 40 12
REMARK SMILES IDX 41 13 42 14 83 15 43 16 88 17 82 18 84 19 44 20 87 21 81 22
REMARK SMILES IDX 80 23 45 25 71 26 54 27 70 28 55 29 58 30 69 31 85 32 56 33
REMARK SMILES IDX 57 34 68 36 86 37 59 38 46 39 47 40 52 41 48 42 49 43 51 44
REMARK SMILES IDX 53 45 50 46 72 47 73 48 78 49 74 50 75 51 77 52 79 53 76 54
REMARK SMILES IDX 60 55 61 56 66 57 62 58 63 59 65 60 67 61 64 62 7 63 8 64
REMARK SMILES IDX 9 65 10 66 11 67 12 68 13 69 17 70 14 71 16 72 15 73 18 74
REMARK SMILES IDX 19 75 36 76 20 77 28 78 27 79 21 80 22 81 26 82 23 83 25 84
REMARK SMILES IDX 24 85 29 86 30 87 35 88 31 89 33 90 32 91 34 92
REMARK H PARENT 84 24 58 35
REMARK Flexibility Score: inf
ROOT
ATOM      1  O   UNL     1       7.487  -1.452   3.078  1.00  0.00    -0.374 OA
ENDROOT
BRANCH   1   2
ATOM      2  C   UNL     1       6.504  -1.672   2.064  1.00  0.00     0.202 C 
BRANCH   2   3
ATOM      3  C   UNL     1       7.124  -2.067   0.721  1.00  0.00     0.261 C 
BRANCH   3   4
ATOM      4  O   UNL     1       7.926  -3.249   0.869  1.00  0.00    -0.460 OA
BRANCH   4   5
ATOM      5  C   UNL     1       9.240  -3.337   1.176  1.00  0.00     0.338 C 
ATOM      6  O   UNL     1       9.703  -4.447   1.440  1.00  0.00    -0.246 OA
BRANCH   5   7
ATOM      7  C   UNL     1      10.188  -2.178   1.182  1.00  0.00     0.060 A 
ATOM      8  C   UNL     1       9.858  -0.853   1.482  1.00  0.00     0.016 A 
ATOM      9  C   UNL     1      11.544  -2.483   0.969  1.00  0.00     0.016 A 
ATOM     10  C   UNL     1      10.826   0.139   1.563  1.00  0.00     0.010 A 
ATOM     11  C   UNL     1      12.528  -1.496   1.059  1.00  0.00     0.010 A 
ATOM     12  C   UNL     1      12.162  -0.181   1.359  1.00  0.00    -0.014 A 
BRANCH  12  13
ATOM     13  C   UNL     1      13.147   0.907   1.396  1.00  0.00     0.031 A 
ATOM     14  C   UNL     1      13.607   1.488   0.100  1.00  0.00     0.074 A 
ATOM     15  C   UNL     1      13.532   1.407   2.583  1.00  0.00     0.049 A 
ATOM     16  N   UNL     1      14.525   2.386  -0.122  1.00  0.00    -0.248 NA
ATOM     17  C   UNL     1      12.928   1.001  -1.114  1.00  0.00     0.031 C 
ATOM     18  C   UNL     1      13.025   0.968   3.886  1.00  0.00     0.029 A 
ATOM     19  N   UNL     1      14.426   2.396   2.888  1.00  0.00    -0.354 N 
ATOM     20  C   UNL     1      14.562   2.545  -1.500  1.00  0.00     0.074 A 
ATOM     21  C   UNL     1      13.562   1.669  -2.065  1.00  0.00     0.031 C 
ATOM     22  C   UNL     1      13.627   1.681   4.852  1.00  0.00     0.029 A 
ATOM     23  C   UNL     1      14.603   2.573   4.239  1.00  0.00     0.049 A 
ATOM     24  H   UNL     1      14.896   2.929   2.206  1.00  0.00     0.167 HD
ATOM     25  C   UNL     1      15.384   3.342  -2.216  1.00  0.00     0.037 A 
ATOM     26  C   UNL     1      15.501   3.334   4.892  1.00  0.00     0.037 A 
ATOM     27  C   UNL     1      16.366   4.200  -1.613  1.00  0.00     0.049 A 
ATOM     28  C   UNL     1      16.467   4.139   4.065  1.00  0.00     0.074 A 
ATOM     29  C   UNL     1      17.276   5.040  -2.225  1.00  0.00     0.029 A 
ATOM     30  N   UNL     1      16.565   4.313  -0.243  1.00  0.00    -0.354 N 
ATOM     31  N   UNL     1      16.527   4.269   2.760  1.00  0.00    -0.248 NA
ATOM     32  C   UNL     1      17.506   4.879   4.791  1.00  0.00     0.031 C 
ATOM     33  C   UNL     1      18.059   5.625  -1.224  1.00  0.00     0.029 A 
ATOM     34  C   UNL     1      17.609   5.181   0.011  1.00  0.00     0.049 A 
ATOM     35  H   UNL     1      16.039   3.845   0.445  1.00  0.00     0.167 HD
ATOM     36  C   UNL     1      17.606   5.102   2.506  1.00  0.00     0.074 A 
ATOM     37  C   UNL     1      18.154   5.472   3.797  1.00  0.00     0.031 C 
ATOM     38  C   UNL     1      18.113   5.518   1.320  1.00  0.00     0.037 A 
BRANCH  25  39
ATOM     39  C   UNL     1      15.304   3.248  -3.708  1.00  0.00     0.057 A 
ATOM     40  C   UNL     1      14.248   3.803  -4.441  1.00  0.00     0.134 A 
ATOM     41  C   UNL     1      16.301   2.570  -4.421  1.00  0.00     0.134 A 
ATOM     42  F   UNL     1      13.246   4.439  -3.815  1.00  0.00    -0.206 F 
ATOM     43  C   UNL     1      14.180   3.675  -5.830  1.00  0.00     0.040 A 
ATOM     44  C   UNL     1      16.253   2.450  -5.811  1.00  0.00     0.040 A 
ATOM     45  F   UNL     1      17.333   2.004  -3.777  1.00  0.00    -0.206 F 
ATOM     46  C   UNL     1      15.187   3.000  -6.519  1.00  0.00     0.006 A 
ENDBRANCH  25  39
BRANCH  26  47
ATOM     47  C   UNL     1      15.589   3.298   6.375  1.00  0.00     0.057 A 
ATOM     48  C   UNL     1      15.329   4.430   7.155  1.00  0.00     0.134 A 
ATOM     49  C   UNL     1      15.968   2.130   7.052  1.00  0.00     0.134 A 
ATOM     50  F   UNL     1      14.985   5.587   6.571  1.00  0.00    -0.206 F 
ATOM     51  C   UNL     1      15.459   4.409   8.546  1.00  0.00     0.040 A 
ATOM     52  C   UNL     1      16.073   2.085   8.443  1.00  0.00     0.040 A 
ATOM     53  F   UNL     1      16.235   1.007   6.369  1.00  0.00    -0.206 F 
ATOM     54  C   UNL     1      15.828   3.231   9.194  1.00  0.00     0.006 A 
ENDBRANCH  26  47
BRANCH  38  55
ATOM     55  C   UNL     1      19.309   6.414   1.375  1.00  0.00     0.057 A 
ATOM     56  C   UNL     1      20.583   5.910   1.661  1.00  0.00     0.134 A 
ATOM     57  C   UNL     1      19.195   7.775   1.068  1.00  0.00     0.134 A 
ATOM     58  F   UNL     1      20.749   4.617   1.976  1.00  0.00    -0.206 F 
ATOM     59  C   UNL     1      21.707   6.735   1.648  1.00  0.00     0.040 A 
ATOM     60  C   UNL     1      20.315   8.604   1.028  1.00  0.00     0.040 A 
ATOM     61  F   UNL     1      18.000   8.310   0.777  1.00  0.00    -0.206 F 
ATOM     62  C   UNL     1      21.575   8.084   1.320  1.00  0.00     0.006 A 
ENDBRANCH  38  55
ENDBRANCH  12  13
ENDBRANCH   5   7
ENDBRANCH   4   5
ENDBRANCH   3   4
ENDBRANCH   2   3
ENDBRANCH   1   2
BRANCH   1  63
ATOM     63  C   UNL     1       7.754  -2.563   3.941  1.00  0.00     0.202 C 
BRANCH  63  64
ATOM     64  C   UNL     1       7.356  -2.200   5.369  1.00  0.00     0.261 C 
BRANCH  64  65
ATOM     65  O   UNL     1       5.972  -1.820   5.361  1.00  0.00    -0.462 OA
BRANCH  65  66
ATOM     66  C   UNL     1       5.762  -0.488   5.109  1.00  0.00     0.328 C 
ATOM     67  O   UNL     1       6.617   0.379   5.201  1.00  0.00    -0.250 OA
BRANCH  66  68
ATOM     68  C   UNL     1       4.310  -0.274   4.625  1.00  0.00     0.193 C 
ATOM     69  C   UNL     1       3.317  -0.734   5.689  1.00  0.00     0.037 C 
ATOM     70  N   UNL     1       4.076   1.143   4.310  1.00  0.00    -0.343 N 
ATOM     71  C   UNL     1       3.415   0.157   6.925  1.00  0.00     0.005 C 
ATOM     72  C   UNL     1       4.083   2.109   5.401  1.00  0.00     0.119 C 
ATOM     73  C   UNL     1       3.198   1.626   6.557  1.00  0.00     0.022 C 
BRANCH  70  74
ATOM     74  C   UNL     1       3.551   1.490   3.086  1.00  0.00     0.134 A 
ATOM     75  C   UNL     1       4.168   2.457   2.317  1.00  0.00     0.076 A 
ATOM     76  N   UNL     1       2.432   0.878   2.672  1.00  0.00    -0.211 NA
ATOM     77  C   UNL     1       3.588   2.772   1.103  1.00  0.00     0.076 A 
ATOM     78  C   UNL     1       1.911   1.276   1.494  1.00  0.00     0.162 A 
ATOM     79  N   UNL     1       2.454   2.190   0.675  1.00  0.00    -0.228 NA
BRANCH  77  80
ATOM     80  C   UNL     1       4.143   3.806   0.225  1.00  0.00     0.000 A 
ATOM     81  C   UNL     1       3.487   5.040   0.080  1.00  0.00     0.010 A 
ATOM     82  C   UNL     1       5.336   3.601  -0.486  1.00  0.00     0.010 A 
ATOM     83  C   UNL     1       4.015   6.044  -0.735  1.00  0.00     0.001 A 
ATOM     84  C   UNL     1       5.861   4.602  -1.309  1.00  0.00     0.001 A 
ATOM     85  C   UNL     1       5.202   5.825  -1.428  1.00  0.00     0.000 A 
ENDBRANCH  77  80
BRANCH  78  86
ATOM     86  C   UNL     1       0.600   0.736   1.117  1.00  0.00     0.021 A 
ATOM     87  C   UNL     1      -0.434   0.632   2.067  1.00  0.00     0.012 A 
ATOM     88  C   UNL     1       0.324   0.340  -0.203  1.00  0.00     0.032 A 
ATOM     89  C   UNL     1      -1.700   0.157   1.714  1.00  0.00     0.002 A 
ATOM     90  C   UNL     1      -0.936  -0.154  -0.548  1.00  0.00     0.041 A 
ATOM     91  C   UNL     1      -1.949  -0.243   0.404  1.00  0.00     0.020 A 
ATOM     92  Cl  UNL     1      -1.242  -0.662  -2.164  1.00  0.00    -0.084 Cl
ENDBRANCH  78  86
ENDBRANCH  70  74
ENDBRANCH  66  68
ENDBRANCH  65  66
ENDBRANCH  64  65
ENDBRANCH  63  64
ENDBRANCH   1  63
TORSDOF 17
