REMARK SMILES C[C@H](C(=O)OCCOCCOC(=O)c1ccc(-c2c3nc(c(-c4c(F)cccc4F)c4ccc([nH]4)c(-c4c(F)cccc4F)c4nc(c(-c5c(F)cccc5F)c5ccc2[nH]5)C=C4)C=C3)cc1)c1ccc2c3cc(Cl)ccc3n(C(=O)c3ccc(Cl)cc3)c2c1
REMARK SMILES IDX 7 1 6 2 5 3 3 4 4 5 2 6 1 7 68 8 69 9 90 10 70 11 89 12
REMARK SMILES IDX 71 13 79 14 72 15 78 16 73 17 77 18 74 19 76 20 75 21 80 22
REMARK SMILES IDX 81 23 82 24 83 25 88 26 84 27 87 28 85 29 86 30 8 31 9 32
REMARK SMILES IDX 10 33 11 34 12 35 13 36 14 37 15 38 67 39 16 40 66 41 17 42
REMARK SMILES IDX 18 43 19 44 60 45 20 46 65 47 59 48 61 49 21 50 64 51 58 52
REMARK SMILES IDX 57 53 22 55 48 56 31 57 47 58 32 59 35 60 46 61 62 62 33 63
REMARK SMILES IDX 34 64 45 66 63 67 36 68 23 69 24 70 29 71 25 72 26 73 28 74
REMARK SMILES IDX 30 75 27 76 49 77 50 78 55 79 51 80 52 81 54 82 56 83 53 84
REMARK SMILES IDX 37 85 38 86 43 87 39 88 40 89 42 90 44 91 41 92
REMARK H PARENT 61 54 35 65
REMARK Flexibility Score: inf
ROOT
ATOM      1  C   UNL     1       2.965   1.784   0.904  1.00  0.00     0.202 C 
ENDROOT
BRANCH   1   2
ATOM      2  C   UNL     1       2.152   1.613  -0.387  1.00  0.00     0.261 C 
BRANCH   2   3
ATOM      3  O   UNL     1       1.199   0.538  -0.283  1.00  0.00    -0.463 OA
BRANCH   3   4
ATOM      4  C   UNL     1       1.338  -0.474  -1.183  1.00  0.00     0.313 C 
ATOM      5  O   UNL     1       2.162  -0.479  -2.092  1.00  0.00    -0.252 OA
BRANCH   4   6
ATOM      6  C   UNL     1       0.451  -1.677  -0.894  1.00  0.00     0.126 C 
ATOM      7  C   UNL     1       1.107  -2.576   0.168  1.00  0.00     0.025 C 
BRANCH   6   8
ATOM      8  C   UNL     1      -1.033  -1.455  -0.628  1.00  0.00    -0.032 A 
ATOM      9  C   UNL     1      -1.687  -0.225  -0.717  1.00  0.00     0.005 A 
ATOM     10  C   UNL     1      -1.803  -2.598  -0.346  1.00  0.00     0.032 A 
ATOM     11  C   UNL     1      -3.085  -0.137  -0.608  1.00  0.00     0.011 A 
ATOM     12  C   UNL     1      -3.187  -2.493  -0.146  1.00  0.00     0.057 A 
ATOM     13  C   UNL     1      -3.848  -1.298  -0.362  1.00  0.00     0.008 A 
ATOM     14  N   UNL     1      -4.113  -3.463   0.253  1.00  0.00    -0.276 N 
ATOM     15  C   UNL     1      -5.237  -1.587  -0.309  1.00  0.00     0.009 A 
ATOM     16  C   UNL     1      -5.393  -2.910   0.141  1.00  0.00     0.057 A 
ATOM     17  C   UNL     1      -6.373  -0.800  -0.591  1.00  0.00     0.031 A 
ATOM     18  C   UNL     1      -6.673  -3.399   0.466  1.00  0.00     0.029 A 
ATOM     19  C   UNL     1      -7.639  -1.324  -0.356  1.00  0.00     0.041 A 
ATOM     20  C   UNL     1      -7.788  -2.590   0.196  1.00  0.00     0.023 A 
ATOM     21  Cl  UNL     1      -9.026  -0.377  -0.732  1.00  0.00    -0.084 Cl
BRANCH  14  22
ATOM     22  C   UNL     1      -3.696  -4.725   0.753  1.00  0.00     0.262 C 
ATOM     23  O   UNL     1      -2.642  -4.710   1.396  1.00  0.00    -0.268 OA
BRANCH  22  24
ATOM     24  C   UNL     1      -4.298  -6.074   0.555  1.00  0.00     0.040 A 
ATOM     25  C   UNL     1      -3.682  -7.146   1.239  1.00  0.00     0.015 A 
ATOM     26  C   UNL     1      -5.312  -6.364  -0.360  1.00  0.00     0.015 A 
ATOM     27  C   UNL     1      -4.075  -8.469   1.030  1.00  0.00     0.021 A 
ATOM     28  C   UNL     1      -5.728  -7.694  -0.548  1.00  0.00     0.021 A 
ATOM     29  C   UNL     1      -5.106  -8.737   0.141  1.00  0.00     0.041 A 
ATOM     30  Cl  UNL     1      -5.592 -10.364  -0.130  1.00  0.00    -0.084 Cl
ENDBRANCH  22  24
ENDBRANCH  14  22
ENDBRANCH   6   8
ENDBRANCH   4   6
ENDBRANCH   3   4
ENDBRANCH   2   3
ENDBRANCH   1   2
BRANCH   1  31
ATOM     31  O   UNL     1       3.797   0.694   1.307  1.00  0.00    -0.374 OA
BRANCH  31  32
ATOM     32  C   UNL     1       3.132  -0.454   1.826  1.00  0.00     0.202 C 
BRANCH  32  33
ATOM     33  C   UNL     1       2.736  -0.460   3.304  1.00  0.00     0.261 C 
BRANCH  33  34
ATOM     34  O   UNL     1       1.964   0.691   3.665  1.00  0.00    -0.460 OA
BRANCH  34  35
ATOM     35  C   UNL     1       2.696   1.671   4.235  1.00  0.00     0.338 C 
ATOM     36  O   UNL     1       3.879   1.631   4.552  1.00  0.00    -0.246 OA
BRANCH  35  37
ATOM     37  C   UNL     1       1.913   2.912   4.288  1.00  0.00     0.060 A 
ATOM     38  C   UNL     1       2.517   4.068   3.780  1.00  0.00     0.016 A 
ATOM     39  C   UNL     1       0.653   2.962   4.888  1.00  0.00     0.016 A 
ATOM     40  C   UNL     1       1.897   5.299   3.941  1.00  0.00     0.010 A 
ATOM     41  C   UNL     1       0.032   4.202   5.053  1.00  0.00     0.010 A 
ATOM     42  C   UNL     1       0.676   5.376   4.623  1.00  0.00    -0.014 A 
BRANCH  42  43
ATOM     43  C   UNL     1       0.167   6.703   5.032  1.00  0.00     0.031 A 
ATOM     44  C   UNL     1       0.371   7.151   6.452  1.00  0.00     0.074 A 
ATOM     45  C   UNL     1      -0.418   7.513   4.134  1.00  0.00     0.049 A 
ATOM     46  N   UNL     1      -0.003   8.260   7.035  1.00  0.00    -0.248 NA
ATOM     47  C   UNL     1       1.093   6.220   7.335  1.00  0.00     0.031 C 
ATOM     48  C   UNL     1      -0.627   7.195   2.722  1.00  0.00     0.029 A 
ATOM     49  N   UNL     1      -0.946   8.769   4.281  1.00  0.00    -0.354 N 
ATOM     50  C   UNL     1       0.433   8.159   8.350  1.00  0.00     0.074 A 
ATOM     51  C   UNL     1       1.064   6.865   8.491  1.00  0.00     0.031 C 
ATOM     52  C   UNL     1      -1.249   8.229   2.132  1.00  0.00     0.029 A 
ATOM     53  C   UNL     1      -1.511   9.262   3.132  1.00  0.00     0.049 A 
ATOM     54  H   UNL     1      -0.922   9.269   5.128  1.00  0.00     0.167 HD
ATOM     55  C   UNL     1       0.326   9.070   9.346  1.00  0.00     0.037 A 
ATOM     56  C   UNL     1      -2.184  10.408   2.922  1.00  0.00     0.037 A 
ATOM     57  C   UNL     1      -0.308  10.353   9.193  1.00  0.00     0.049 A 
ATOM     58  C   UNL     1      -2.356  11.374   4.064  1.00  0.00     0.074 A 
ATOM     59  C   UNL     1      -0.464  11.356  10.133  1.00  0.00     0.029 A 
ATOM     60  N   UNL     1      -0.899  10.806   8.022  1.00  0.00    -0.354 N 
ATOM     61  N   UNL     1      -1.924  11.281   5.299  1.00  0.00    -0.248 NA
ATOM     62  C   UNL     1      -3.102  12.607   3.781  1.00  0.00     0.031 C 
ATOM     63  C   UNL     1      -1.198  12.392   9.547  1.00  0.00     0.029 A 
ATOM     64  C   UNL     1      -1.445  12.063   8.223  1.00  0.00     0.049 A 
ATOM     65  H   UNL     1      -0.926  10.307   7.174  1.00  0.00     0.167 HD
ATOM     66  C   UNL     1      -2.321  12.452   5.932  1.00  0.00     0.074 A 
ATOM     67  C   UNL     1      -3.015  13.246   4.939  1.00  0.00     0.031 C 
ATOM     68  C   UNL     1      -2.129  12.838   7.218  1.00  0.00     0.037 A 
BRANCH  55  69
ATOM     69  C   UNL     1       0.881   8.696  10.690  1.00  0.00     0.057 A 
ATOM     70  C   UNL     1       2.258   8.580  10.921  1.00  0.00     0.134 A 
ATOM     71  C   UNL     1       0.025   8.469  11.776  1.00  0.00     0.134 A 
ATOM     72  F   UNL     1       3.133   8.769   9.921  1.00  0.00    -0.206 F 
ATOM     73  C   UNL     1       2.763   8.226  12.174  1.00  0.00     0.040 A 
ATOM     74  C   UNL     1       0.519   8.143  13.041  1.00  0.00     0.040 A 
ATOM     75  F   UNL     1      -1.304   8.565  11.628  1.00  0.00    -0.206 F 
ATOM     76  C   UNL     1       1.892   8.014  13.241  1.00  0.00     0.006 A 
ENDBRANCH  55  69
BRANCH  56  77
ATOM     77  C   UNL     1      -2.758  10.695   1.583  1.00  0.00     0.057 A 
ATOM     78  C   UNL     1      -2.264  11.732   0.785  1.00  0.00     0.134 A 
ATOM     79  C   UNL     1      -3.822   9.941   1.073  1.00  0.00     0.134 A 
ATOM     80  F   UNL     1      -1.259  12.503   1.226  1.00  0.00    -0.206 F 
ATOM     81  C   UNL     1      -2.818  12.021  -0.464  1.00  0.00     0.040 A 
ATOM     82  C   UNL     1      -4.367  10.200  -0.185  1.00  0.00     0.040 A 
ATOM     83  F   UNL     1      -4.339   8.928   1.786  1.00  0.00    -0.206 F 
ATOM     84  C   UNL     1      -3.869  11.249  -0.954  1.00  0.00     0.006 A 
ENDBRANCH  56  77
BRANCH  68  85
ATOM     85  C   UNL     1      -2.642  14.193   7.613  1.00  0.00     0.057 A 
ATOM     86  C   UNL     1      -4.011  14.461   7.741  1.00  0.00     0.134 A 
ATOM     87  C   UNL     1      -1.750  15.233   7.908  1.00  0.00     0.134 A 
ATOM     88  F   UNL     1      -4.918  13.513   7.462  1.00  0.00    -0.206 F 
ATOM     89  C   UNL     1      -4.474  15.721   8.122  1.00  0.00     0.040 A 
ATOM     90  C   UNL     1      -2.200  16.487   8.319  1.00  0.00     0.040 A 
ATOM     91  F   UNL     1      -0.425  15.040   7.816  1.00  0.00    -0.206 F 
ATOM     92  C   UNL     1      -3.567  16.736   8.420  1.00  0.00     0.006 A 
ENDBRANCH  68  85
ENDBRANCH  42  43
ENDBRANCH  35  37
ENDBRANCH  34  35
ENDBRANCH  33  34
ENDBRANCH  32  33
ENDBRANCH  31  32
ENDBRANCH   1  31
TORSDOF 17
