REMARK SMILES CC(C)CSc1cc2c(cc1Cl)C=C(C(=O)OCCOCCOC(=O)c1ccc(-c3c4nc(c(-c5c(F)cccc5F)c5ccc([nH]5)c(-c5c(F)cccc5F)c5nc(c(-c6c(F)cccc6F)c6ccc3[nH]6)C=C5)C=C4)cc1)[C@@H](C(F)(F)F)O2
REMARK SMILES IDX 19 1 18 2 17 3 15 4 16 5 14 6 6 7 7 8 11 9 8 10 10 11 12 12
REMARK SMILES IDX 9 13 85 14 13 15 80 16 5 17 4 18 2 19 1 20 3 21 81 22 82 23
REMARK SMILES IDX 83 24 84 25 20 26 21 27 22 28 23 29 24 30 25 31 26 32 27 33
REMARK SMILES IDX 79 34 28 35 78 36 29 37 30 38 31 39 72 40 32 41 77 42 71 43
REMARK SMILES IDX 73 44 33 45 76 46 70 47 69 48 34 50 60 51 43 52 59 53 44 54
REMARK SMILES IDX 47 55 58 56 74 57 45 58 46 59 57 61 75 62 48 63 35 64 36 65
REMARK SMILES IDX 41 66 37 67 38 68 40 69 42 70 39 71 61 72 62 73 67 74 63 75
REMARK SMILES IDX 64 76 66 77 68 78 65 79 49 80 50 81 55 82 51 83 52 84 54 85
REMARK SMILES IDX 56 86 53 87
REMARK H PARENT 73 49 47 60
REMARK Flexibility Score: inf
ROOT
ATOM      1  C   UNL     1       1.207   0.663  10.354  1.00  0.00     0.202 C 
ENDROOT
BRANCH   1   2
ATOM      2  C   UNL     1       2.298   1.061   9.355  1.00  0.00     0.261 C 
BRANCH   2   3
ATOM      3  O   UNL     1       1.746   1.542   8.119  1.00  0.00    -0.460 OA
BRANCH   3   4
ATOM      4  C   UNL     1       1.981   0.743   7.052  1.00  0.00     0.338 C 
ATOM      5  O   UNL     1       2.683  -0.255   7.022  1.00  0.00    -0.246 OA
BRANCH   4   6
ATOM      6  C   UNL     1       1.140   1.169   5.919  1.00  0.00     0.087 C 
ATOM      7  C   UNL     1      -1.361   1.126   1.571  1.00  0.00     0.030 A 
ATOM      8  C   UNL     1      -0.798   2.135   2.376  1.00  0.00     0.063 A 
ATOM      9  C   UNL     1      -1.482  -0.163   2.112  1.00  0.00     0.055 A 
ATOM     10  C   UNL     1      -0.243   1.838   3.622  1.00  0.00     0.129 A 
ATOM     11  C   UNL     1      -0.897  -0.465   3.347  1.00  0.00     0.033 A 
ATOM     12  Cl  UNL     1      -2.350  -1.444   1.344  1.00  0.00    -0.083 Cl
ATOM     13  C   UNL     1      -0.240   0.525   4.080  1.00  0.00     0.019 A 
ATOM     14  O   UNL     1       0.301   2.883   4.311  1.00  0.00    -0.475 OA
ATOM     15  C   UNL     1       0.507   0.181   5.273  1.00  0.00     0.027 C 
ATOM     16  C   UNL     1       1.045   2.620   5.537  1.00  0.00     0.316 C 
BRANCH   7  17
ATOM     17  S   UNL     1      -1.831   1.639  -0.079  1.00  0.00    -0.124 SA
BRANCH  17  18
ATOM     18  C   UNL     1      -1.025   0.406  -1.182  1.00  0.00     0.078 C 
BRANCH  18  19
ATOM     19  C   UNL     1       0.511   0.416  -1.311  1.00  0.00    -0.007 C 
ATOM     20  C   UNL     1       1.268   0.058  -0.033  1.00  0.00     0.008 C 
ATOM     21  C   UNL     1       0.912  -0.589  -2.403  1.00  0.00     0.008 C 
ENDBRANCH  18  19
ENDBRANCH  17  18
ENDBRANCH   7  17
BRANCH  16  22
ATOM     22  C   UNL     1       2.419   3.295   5.401  1.00  0.00     0.430 C 
ATOM     23  F   UNL     1       2.293   4.589   5.019  1.00  0.00    -0.167 F 
ATOM     24  F   UNL     1       3.096   3.304   6.572  1.00  0.00    -0.167 F 
ATOM     25  F   UNL     1       3.197   2.674   4.487  1.00  0.00    -0.167 F 
ENDBRANCH  16  22
ENDBRANCH   4   6
ENDBRANCH   3   4
ENDBRANCH   2   3
ENDBRANCH   1   2
BRANCH   1  26
ATOM     26  O   UNL     1       0.272  -0.334   9.950  1.00  0.00    -0.374 OA
BRANCH  26  27
ATOM     27  C   UNL     1      -0.741   0.020   9.011  1.00  0.00     0.202 C 
BRANCH  27  28
ATOM     28  C   UNL     1      -1.892   0.918   9.483  1.00  0.00     0.261 C 
BRANCH  28  29
ATOM     29  O   UNL     1      -1.458   2.219   9.907  1.00  0.00    -0.460 OA
BRANCH  29  30
ATOM     30  C   UNL     1      -1.490   2.419  11.248  1.00  0.00     0.338 C 
ATOM     31  O   UNL     1      -1.851   1.628  12.106  1.00  0.00    -0.246 OA
BRANCH  30  32
ATOM     32  C   UNL     1      -0.839   3.703  11.568  1.00  0.00     0.060 A 
ATOM     33  C   UNL     1      -1.218   4.883  10.928  1.00  0.00     0.016 A 
ATOM     34  C   UNL     1       0.146   3.717  12.566  1.00  0.00     0.016 A 
ATOM     35  C   UNL     1      -0.623   6.087  11.310  1.00  0.00     0.010 A 
ATOM     36  C   UNL     1       0.733   4.923  12.951  1.00  0.00     0.010 A 
ATOM     37  C   UNL     1       0.340   6.120  12.337  1.00  0.00    -0.014 A 
BRANCH  37  38
ATOM     38  C   UNL     1       0.849   7.426  12.822  1.00  0.00     0.031 A 
ATOM     39  C   UNL     1       2.244   7.884  12.522  1.00  0.00     0.074 A 
ATOM     40  C   UNL     1       0.021   8.214  13.535  1.00  0.00     0.049 A 
ATOM     41  N   UNL     1       2.800   9.045  12.764  1.00  0.00    -0.248 NA
ATOM     42  C   UNL     1       3.135   6.912  11.873  1.00  0.00     0.031 C 
ATOM     43  C   UNL     1      -1.343   7.859  13.931  1.00  0.00     0.029 A 
ATOM     44  N   UNL     1       0.195   9.479  14.036  1.00  0.00    -0.354 N 
ATOM     45  C   UNL     1       4.096   8.956  12.274  1.00  0.00     0.074 A 
ATOM     46  C   UNL     1       4.262   7.604  11.778  1.00  0.00     0.031 C 
ATOM     47  C   UNL     1      -1.898   8.899  14.573  1.00  0.00     0.029 A 
ATOM     48  C   UNL     1      -0.921   9.979  14.660  1.00  0.00     0.049 A 
ATOM     49  H   UNL     1       1.039   9.979  13.955  1.00  0.00     0.167 HD
ATOM     50  C   UNL     1       5.049   9.918  12.220  1.00  0.00     0.037 A 
ATOM     51  C   UNL     1      -1.135  11.179  15.231  1.00  0.00     0.037 A 
ATOM     52  C   UNL     1       4.890  11.251  12.746  1.00  0.00     0.049 A 
ATOM     53  C   UNL     1      -0.037  12.207  15.210  1.00  0.00     0.074 A 
ATOM     54  C   UNL     1       5.788  12.305  12.720  1.00  0.00     0.029 A 
ATOM     55  N   UNL     1       3.763  11.709  13.414  1.00  0.00    -0.354 N 
ATOM     56  N   UNL     1       1.152  12.142  14.662  1.00  0.00    -0.248 NA
ATOM     57  C   UNL     1      -0.319  13.483  15.883  1.00  0.00     0.031 C 
ATOM     58  C   UNL     1       5.228  13.379  13.421  1.00  0.00     0.029 A 
ATOM     59  C   UNL     1       3.955  13.018  13.830  1.00  0.00     0.049 A 
ATOM     60  H   UNL     1       2.946  11.182  13.570  1.00  0.00     0.167 HD
ATOM     61  C   UNL     1       1.747  13.375  14.896  1.00  0.00     0.074 A 
ATOM     62  C   UNL     1       0.778  14.176  15.615  1.00  0.00     0.031 C 
ATOM     63  C   UNL     1       2.985  13.806  14.548  1.00  0.00     0.037 A 
BRANCH  50  64
ATOM     64  C   UNL     1       6.356   9.555  11.573  1.00  0.00     0.057 A 
ATOM     65  C   UNL     1       7.533   9.466  12.326  1.00  0.00     0.134 A 
ATOM     66  C   UNL     1       6.453   9.315  10.195  1.00  0.00     0.134 A 
ATOM     67  F   UNL     1       7.517   9.693  13.648  1.00  0.00    -0.206 F 
ATOM     68  C   UNL     1       8.757   9.145  11.733  1.00  0.00     0.040 A 
ATOM     69  C   UNL     1       7.664   8.966   9.596  1.00  0.00     0.040 A 
ATOM     70  F   UNL     1       5.362   9.378   9.416  1.00  0.00    -0.206 F 
ATOM     71  C   UNL     1       8.822   8.884  10.366  1.00  0.00     0.006 A 
ENDBRANCH  50  64
BRANCH  51  72
ATOM     72  C   UNL     1      -2.445  11.491  15.857  1.00  0.00     0.057 A 
ATOM     73  C   UNL     1      -2.864  10.852  17.030  1.00  0.00     0.134 A 
ATOM     74  C   UNL     1      -3.288  12.472  15.321  1.00  0.00     0.134 A 
ATOM     75  F   UNL     1      -2.106   9.897  17.589  1.00  0.00    -0.206 F 
ATOM     76  C   UNL     1      -4.069  11.180  17.651  1.00  0.00     0.040 A 
ATOM     77  C   UNL     1      -4.482  12.832  15.948  1.00  0.00     0.040 A 
ATOM     78  F   UNL     1      -2.935  13.132  14.208  1.00  0.00    -0.206 F 
ATOM     79  C   UNL     1      -4.876  12.184  17.117  1.00  0.00     0.006 A 
ENDBRANCH  51  72
BRANCH  63  80
ATOM     80  C   UNL     1       3.341  15.221  14.912  1.00  0.00     0.057 A 
ATOM     81  C   UNL     1       3.494  16.195  13.916  1.00  0.00     0.134 A 
ATOM     82  C   UNL     1       3.534  15.623  16.240  1.00  0.00     0.134 A 
ATOM     83  F   UNL     1       3.333  15.880  12.622  1.00  0.00    -0.206 F 
ATOM     84  C   UNL     1       3.821  17.516  14.229  1.00  0.00     0.040 A 
ATOM     85  C   UNL     1       3.827  16.949  16.568  1.00  0.00     0.040 A 
ATOM     86  F   UNL     1       3.388  14.746  17.245  1.00  0.00    -0.206 F 
ATOM     87  C   UNL     1       3.977  17.898  15.559  1.00  0.00     0.006 A 
ENDBRANCH  63  80
ENDBRANCH  37  38
ENDBRANCH  30  32
ENDBRANCH  29  30
ENDBRANCH  28  29
ENDBRANCH  27  28
ENDBRANCH  26  27
ENDBRANCH   1  26
TORSDOF 18
