REMARK SMILES O=C(OCCOCCOC(=O)c1c(-c2ccc(Cl)cc2)noc1CO[C@@H]1CCCCO1)c1ccc(-c2c3nc(c(-c4c(F)cccc4F)c4ccc([nH]4)c(-c4c(F)cccc4F)c4nc(c(-c5c(F)cccc5F)c5ccc2[nH]5)C=C4)C=C3)cc1
REMARK SMILES IDX 7 1 6 2 5 3 4 4 3 5 2 6 1 7 32 8 33 9 85 10 34 11 84 12
REMARK SMILES IDX 35 13 36 14 37 15 78 16 38 17 83 18 77 19 79 20 39 21 82 22
REMARK SMILES IDX 76 23 75 24 40 26 66 27 49 28 65 29 50 30 53 31 64 32 80 33
REMARK SMILES IDX 51 34 52 35 63 37 81 38 54 39 41 40 42 41 47 42 43 43 44 44
REMARK SMILES IDX 46 45 48 46 45 47 67 48 68 49 73 50 69 51 70 52 72 53 74 54
REMARK SMILES IDX 71 55 55 56 56 57 61 58 57 59 58 60 60 61 62 62 59 63 8 64
REMARK SMILES IDX 9 65 10 66 11 67 12 68 13 69 23 70 21 71 22 72 14 73 15 74
REMARK SMILES IDX 20 75 16 76 19 77 17 78 18 79 24 80 25 81 26 82 27 83 31 84
REMARK SMILES IDX 28 85 30 86 29 87
REMARK H PARENT 79 25 53 36
REMARK Flexibility Score: inf
ROOT
ATOM      1  C   UNL     1       2.435  -2.069  -0.320  1.00  0.00     0.202 C 
ENDROOT
BRANCH   1   2
ATOM      2  O   UNL     1       3.648  -1.329  -0.222  1.00  0.00    -0.374 OA
BRANCH   2   3
ATOM      3  C   UNL     1       3.889  -0.606   0.971  1.00  0.00     0.202 C 
BRANCH   3   4
ATOM      4  C   UNL     1       3.336   0.812   0.983  1.00  0.00     0.261 C 
BRANCH   4   5
ATOM      5  O   UNL     1       1.941   0.807   0.636  1.00  0.00    -0.460 OA
BRANCH   5   6
ATOM      6  C   UNL     1       1.429   1.284  -0.525  1.00  0.00     0.338 C 
ATOM      7  O   UNL     1       0.217   1.357  -0.694  1.00  0.00    -0.246 OA
BRANCH   6   8
ATOM      8  C   UNL     1       2.330   1.759  -1.601  1.00  0.00     0.060 A 
ATOM      9  C   UNL     1       3.380   0.978  -2.081  1.00  0.00     0.016 A 
ATOM     10  C   UNL     1       2.065   2.985  -2.213  1.00  0.00     0.016 A 
ATOM     11  C   UNL     1       4.243   1.438  -3.052  1.00  0.00     0.010 A 
ATOM     12  C   UNL     1       2.857   3.405  -3.283  1.00  0.00     0.010 A 
ATOM     13  C   UNL     1       3.948   2.626  -3.702  1.00  0.00    -0.014 A 
BRANCH  13  14
ATOM     14  C   UNL     1       4.793   3.023  -4.836  1.00  0.00     0.031 A 
ATOM     15  C   UNL     1       5.628   4.247  -4.706  1.00  0.00     0.074 A 
ATOM     16  C   UNL     1       4.824   2.249  -5.936  1.00  0.00     0.049 A 
ATOM     17  N   UNL     1       6.231   4.934  -5.633  1.00  0.00    -0.248 NA
ATOM     18  C   UNL     1       5.793   4.777  -3.343  1.00  0.00     0.031 C 
ATOM     19  C   UNL     1       4.137   0.961  -6.087  1.00  0.00     0.029 A 
ATOM     20  N   UNL     1       5.461   2.424  -7.133  1.00  0.00    -0.354 N 
ATOM     21  C   UNL     1       6.781   6.026  -4.979  1.00  0.00     0.074 A 
ATOM     22  C   UNL     1       6.471   5.891  -3.573  1.00  0.00     0.031 C 
ATOM     23  C   UNL     1       4.402   0.458  -7.301  1.00  0.00     0.029 A 
ATOM     24  C   UNL     1       5.175   1.439  -8.047  1.00  0.00     0.049 A 
ATOM     25  H   UNL     1       6.063   3.180  -7.321  1.00  0.00     0.167 HD
ATOM     26  C   UNL     1       7.450   7.061  -5.535  1.00  0.00     0.037 A 
ATOM     27  C   UNL     1       5.442   1.383  -9.363  1.00  0.00     0.037 A 
ATOM     28  C   UNL     1       7.740   7.128  -6.942  1.00  0.00     0.049 A 
ATOM     29  C   UNL     1       6.149   2.558  -9.973  1.00  0.00     0.074 A 
ATOM     30  C   UNL     1       8.355   8.134  -7.660  1.00  0.00     0.029 A 
ATOM     31  N   UNL     1       7.431   6.116  -7.847  1.00  0.00    -0.354 N 
ATOM     32  N   UNL     1       6.574   3.653  -9.386  1.00  0.00    -0.248 NA
ATOM     33  C   UNL     1       6.385   2.515 -11.419  1.00  0.00     0.031 C 
ATOM     34  C   UNL     1       8.389   7.743  -9.005  1.00  0.00     0.029 A 
ATOM     35  C   UNL     1       7.833   6.475  -9.118  1.00  0.00     0.049 A 
ATOM     36  H   UNL     1       6.990   5.267  -7.614  1.00  0.00     0.167 HD
ATOM     37  C   UNL     1       7.131   4.433 -10.387  1.00  0.00     0.074 A 
ATOM     38  C   UNL     1       7.003   3.672 -11.618  1.00  0.00     0.031 C 
ATOM     39  C   UNL     1       7.688   5.666 -10.305  1.00  0.00     0.037 A 
BRANCH  26  40
ATOM     40  C   UNL     1       7.784   8.207  -4.630  1.00  0.00     0.057 A 
ATOM     41  C   UNL     1       8.758   8.116  -3.627  1.00  0.00     0.134 A 
ATOM     42  C   UNL     1       7.041   9.393  -4.701  1.00  0.00     0.134 A 
ATOM     43  F   UNL     1       9.480   6.995  -3.481  1.00  0.00    -0.206 F 
ATOM     44  C   UNL     1       8.949   9.144  -2.700  1.00  0.00     0.040 A 
ATOM     45  C   UNL     1       7.241  10.437  -3.796  1.00  0.00     0.040 A 
ATOM     46  F   UNL     1       6.086   9.544  -5.631  1.00  0.00    -0.206 F 
ATOM     47  C   UNL     1       8.187  10.308  -2.782  1.00  0.00     0.006 A 
ENDBRANCH  26  40
BRANCH  27  48
ATOM     48  C   UNL     1       4.962   0.231 -10.168  1.00  0.00     0.057 A 
ATOM     49  C   UNL     1       5.852  -0.701 -10.710  1.00  0.00     0.134 A 
ATOM     50  C   UNL     1       3.592  -0.003 -10.362  1.00  0.00     0.134 A 
ATOM     51  F   UNL     1       7.175  -0.530 -10.571  1.00  0.00    -0.206 F 
ATOM     52  C   UNL     1       5.401  -1.823 -11.412  1.00  0.00     0.040 A 
ATOM     53  C   UNL     1       3.127  -1.132 -11.038  1.00  0.00     0.040 A 
ATOM     54  F   UNL     1       2.683   0.846  -9.861  1.00  0.00    -0.206 F 
ATOM     55  C   UNL     1       4.034  -2.046 -11.568  1.00  0.00     0.006 A 
ENDBRANCH  27  48
BRANCH  39  56
ATOM     56  C   UNL     1       8.225   6.242 -11.577  1.00  0.00     0.057 A 
ATOM     57  C   UNL     1       7.381   6.814 -12.534  1.00  0.00     0.134 A 
ATOM     58  C   UNL     1       9.605   6.294 -11.799  1.00  0.00     0.134 A 
ATOM     59  F   UNL     1       6.049   6.778 -12.377  1.00  0.00    -0.206 F 
ATOM     60  C   UNL     1       7.895   7.422 -13.678  1.00  0.00     0.040 A 
ATOM     61  C   UNL     1      10.132   6.917 -12.929  1.00  0.00     0.040 A 
ATOM     62  F   UNL     1      10.459   5.764 -10.911  1.00  0.00    -0.206 F 
ATOM     63  C   UNL     1       9.275   7.484 -13.871  1.00  0.00     0.006 A 
ENDBRANCH  39  56
ENDBRANCH  13  14
ENDBRANCH   6   8
ENDBRANCH   5   6
ENDBRANCH   4   5
ENDBRANCH   3   4
ENDBRANCH   2   3
ENDBRANCH   1   2
BRANCH   1  64
ATOM     64  C   UNL     1       2.810  -3.449  -0.863  1.00  0.00     0.261 C 
BRANCH  64  65
ATOM     65  O   UNL     1       3.472  -4.171   0.188  1.00  0.00    -0.459 OA
BRANCH  65  66
ATOM     66  C   UNL     1       4.752  -3.774   0.476  1.00  0.00     0.344 C 
ATOM     67  O   UNL     1       5.532  -3.275  -0.320  1.00  0.00    -0.246 OA
BRANCH  66  68
ATOM     68  C   UNL     1       5.001  -3.892   1.895  1.00  0.00     0.133 A 
ATOM     69  C   UNL     1       5.846  -3.139   2.762  1.00  0.00     0.128 A 
ATOM     70  C   UNL     1       4.471  -4.867   2.713  1.00  0.00     0.177 A 
ATOM     71  N   UNL     1       5.677  -3.529   4.036  1.00  0.00    -0.079 NA
ATOM     72  O   UNL     1       4.842  -4.628   3.995  1.00  0.00    -0.357 OA
BRANCH  69  73
ATOM     73  C   UNL     1       6.791  -2.076   2.440  1.00  0.00     0.005 A 
ATOM     74  C   UNL     1       6.638  -0.792   2.984  1.00  0.00     0.012 A 
ATOM     75  C   UNL     1       7.865  -2.326   1.576  1.00  0.00     0.012 A 
ATOM     76  C   UNL     1       7.504   0.240   2.608  1.00  0.00     0.021 A 
ATOM     77  C   UNL     1       8.749  -1.303   1.225  1.00  0.00     0.021 A 
ATOM     78  C   UNL     1       8.554  -0.020   1.729  1.00  0.00     0.041 A 
ATOM     79  Cl  UNL     1       9.612   1.252   1.258  1.00  0.00    -0.084 Cl
ENDBRANCH  69  73
BRANCH  70  80
ATOM     80  C   UNL     1       3.730  -6.122   2.453  1.00  0.00     0.242 C 
BRANCH  80  81
ATOM     81  O   UNL     1       4.701  -7.155   2.283  1.00  0.00    -0.345 OA
BRANCH  81  82
ATOM     82  C   UNL     1       5.041  -7.443   0.926  1.00  0.00     0.250 C 
ATOM     83  C   UNL     1       5.850  -8.739   0.888  1.00  0.00     0.062 C 
ATOM     84  O   UNL     1       5.775  -6.407   0.278  1.00  0.00    -0.353 OA
ATOM     85  C   UNL     1       7.216  -8.539   1.541  1.00  0.00     0.008 C 
ATOM     86  C   UNL     1       7.069  -6.160   0.827  1.00  0.00     0.163 C 
ATOM     87  C   UNL     1       7.948  -7.393   0.862  1.00  0.00     0.029 C 
ENDBRANCH  81  82
ENDBRANCH  80  81
ENDBRANCH  70  80
ENDBRANCH  66  68
ENDBRANCH  65  66
ENDBRANCH  64  65
ENDBRANCH   1  64
TORSDOF 18
