REMARK SMILES Cc1c(C(=O)OCCOCCOC(=O)c2ccc(-c3c4nc(c(-c5c(F)cccc5F)c5ccc([nH]5)c(-c5c(F)cccc5F)c5nc(c(-c6c(F)cccc6F)c6ccc3[nH]6)C=C5)C=C4)cc2)sc2c1=C(CSc1nncn1-c1ccccc1)CC(=O)N=2
REMARK SMILES IDX 8 1 7 2 6 3 4 4 5 5 3 6 1 7 2 8 71 9 69 10 70 11 72 12 89 13
REMARK SMILES IDX 86 14 87 15 88 16 73 17 74 18 75 19 76 20 79 21 77 22 78 23
REMARK SMILES IDX 80 24 81 25 85 26 82 27 84 28 83 29 9 30 10 31 11 32 12 33
REMARK SMILES IDX 13 34 14 35 15 36 16 37 68 38 17 39 67 40 18 41 19 42 20 43
REMARK SMILES IDX 61 44 21 45 66 46 60 47 62 48 22 49 65 50 59 51 58 52 23 54
REMARK SMILES IDX 49 55 32 56 48 57 33 58 36 59 47 60 63 61 34 62 35 63 46 65
REMARK SMILES IDX 64 66 37 67 24 68 25 69 30 70 26 71 27 72 29 73 31 74 28 75
REMARK SMILES IDX 50 76 51 77 56 78 52 79 53 80 55 81 57 82 54 83 38 84 39 85
REMARK SMILES IDX 44 86 40 87 41 88 43 89 45 90 42 91
REMARK H PARENT 62 53 36 64
REMARK Flexibility Score: inf
ROOT
ATOM      1  C   UNL     1       0.589  -5.268   1.989  1.00  0.00     0.202 C 
ENDROOT
BRANCH   1   2
ATOM      2  C   UNL     1      -0.210  -4.271   1.145  1.00  0.00     0.261 C 
BRANCH   2   3
ATOM      3  O   UNL     1       0.046  -2.877   1.415  1.00  0.00    -0.459 OA
BRANCH   3   4
ATOM      4  C   UNL     1      -1.012  -2.208   1.954  1.00  0.00     0.348 C 
ATOM      5  O   UNL     1      -2.098  -2.712   2.211  1.00  0.00    -0.245 OA
BRANCH   4   6
ATOM      6  C   UNL     1      -0.708  -0.789   2.284  1.00  0.00     0.118 A 
ATOM      7  C   UNL     1       0.957  -0.004   0.494  1.00  0.00     0.047 C 
ATOM      8  C   UNL     1       0.009   0.148   1.633  1.00  0.00    -0.016 A 
ATOM      9  C   UNL     1      -0.031   1.447   2.281  1.00  0.00     0.016 A 
ATOM     10  S   UNL     1      -1.356  -0.209   3.820  1.00  0.00    -0.108 S 
ATOM     11  C   UNL     1      -0.654   1.382   3.631  1.00  0.00     0.128 A 
ATOM     12  C   UNL     1      -0.187   2.706   1.817  1.00  0.00    -0.040 C 
ATOM     13  N   UNL     1      -0.749   2.312   4.513  1.00  0.00    -0.202 NA
ATOM     14  C   UNL     1       0.397   3.723   2.786  1.00  0.00     0.135 C 
ATOM     15  C   UNL     1      -0.221   3.547   4.178  1.00  0.00     0.251 C 
ATOM     16  O   UNL     1      -0.213   4.490   4.964  1.00  0.00    -0.272 OA
BRANCH  12  17
ATOM     17  C   UNL     1      -1.480   3.272   1.216  1.00  0.00     0.110 C 
BRANCH  17  18
ATOM     18  S   UNL     1      -2.399   2.205   0.110  1.00  0.00    -0.081 SA
BRANCH  18  19
ATOM     19  C   UNL     1      -1.632   2.558  -1.402  1.00  0.00     0.195 A 
ATOM     20  N   UNL     1      -1.271   3.764  -1.782  1.00  0.00    -0.123 NA
ATOM     21  N   UNL     1      -1.114   1.608  -2.265  1.00  0.00    -0.277 N 
ATOM     22  N   UNL     1      -0.466   3.635  -2.882  1.00  0.00    -0.138 NA
ATOM     23  C   UNL     1      -0.361   2.353  -3.144  1.00  0.00     0.231 A 
BRANCH  21  24
ATOM     24  C   UNL     1      -1.193   0.190  -2.215  1.00  0.00     0.049 A 
ATOM     25  C   UNL     1      -2.307  -0.455  -1.661  1.00  0.00     0.027 A 
ATOM     26  C   UNL     1      -0.097  -0.574  -2.644  1.00  0.00     0.027 A 
ATOM     27  C   UNL     1      -2.297  -1.835  -1.468  1.00  0.00     0.002 A 
ATOM     28  C   UNL     1      -0.090  -1.955  -2.439  1.00  0.00     0.002 A 
ATOM     29  C   UNL     1      -1.188  -2.581  -1.851  1.00  0.00     0.000 A 
ENDBRANCH  21  24
ENDBRANCH  18  19
ENDBRANCH  17  18
ENDBRANCH  12  17
ENDBRANCH   4   6
ENDBRANCH   3   4
ENDBRANCH   2   3
ENDBRANCH   1   2
BRANCH   1  30
ATOM     30  O   UNL     1       0.616  -5.114   3.401  1.00  0.00    -0.374 OA
BRANCH  30  31
ATOM     31  C   UNL     1       1.165  -3.931   3.963  1.00  0.00     0.202 C 
BRANCH  31  32
ATOM     32  C   UNL     1       2.641  -3.630   3.742  1.00  0.00     0.261 C 
BRANCH  32  33
ATOM     33  O   UNL     1       3.042  -3.620   2.377  1.00  0.00    -0.460 OA
BRANCH  33  34
ATOM     34  C   UNL     1       3.785  -4.704   2.040  1.00  0.00     0.338 C 
ATOM     35  O   UNL     1       3.756  -5.805   2.554  1.00  0.00    -0.246 OA
BRANCH  34  36
ATOM     36  C   UNL     1       4.810  -4.300   1.072  1.00  0.00     0.060 A 
ATOM     37  C   UNL     1       5.645  -5.307   0.584  1.00  0.00     0.016 A 
ATOM     38  C   UNL     1       5.102  -2.940   0.889  1.00  0.00     0.016 A 
ATOM     39  C   UNL     1       6.867  -4.947   0.060  1.00  0.00     0.010 A 
ATOM     40  C   UNL     1       6.329  -2.584   0.379  1.00  0.00     0.010 A 
ATOM     41  C   UNL     1       7.224  -3.592   0.034  1.00  0.00    -0.014 A 
BRANCH  41  42
ATOM     42  C   UNL     1       8.497  -3.239  -0.560  1.00  0.00     0.031 A 
ATOM     43  C   UNL     1       8.488  -3.482  -2.020  1.00  0.00     0.074 A 
ATOM     44  C   UNL     1       9.507  -2.666   0.124  1.00  0.00     0.049 A 
ATOM     45  N   UNL     1       9.129  -4.402  -2.657  1.00  0.00    -0.248 NA
ATOM     46  C   UNL     1       7.490  -2.769  -2.838  1.00  0.00     0.031 C 
ATOM     47  C   UNL     1       9.482  -2.175   1.505  1.00  0.00     0.029 A 
ATOM     48  N   UNL     1      10.756  -2.317  -0.301  1.00  0.00    -0.354 N 
ATOM     49  C   UNL     1       8.813  -4.202  -3.996  1.00  0.00     0.074 A 
ATOM     50  C   UNL     1       7.653  -3.356  -4.026  1.00  0.00     0.031 C 
ATOM     51  C   UNL     1      10.569  -1.399   1.725  1.00  0.00     0.029 A 
ATOM     52  C   UNL     1      11.429  -1.449   0.555  1.00  0.00     0.049 A 
ATOM     53  H   UNL     1      11.147  -2.650  -1.141  1.00  0.00     0.167 HD
ATOM     54  C   UNL     1       9.750  -4.446  -4.949  1.00  0.00     0.037 A 
ATOM     55  C   UNL     1      12.592  -0.797   0.296  1.00  0.00     0.037 A 
ATOM     56  C   UNL     1      10.797  -5.290  -4.430  1.00  0.00     0.049 A 
ATOM     57  C   UNL     1      13.268  -1.522  -0.801  1.00  0.00     0.074 A 
ATOM     58  C   UNL     1      10.906  -6.596  -4.002  1.00  0.00     0.029 A 
ATOM     59  N   UNL     1      11.851  -4.598  -3.896  1.00  0.00    -0.354 N 
ATOM     60  N   UNL     1      13.801  -2.701  -0.662  1.00  0.00    -0.248 NA
ATOM     61  C   UNL     1      13.052  -1.093  -2.177  1.00  0.00     0.031 C 
ATOM     62  C   UNL     1      11.932  -6.598  -3.007  1.00  0.00     0.029 A 
ATOM     63  C   UNL     1      12.457  -5.311  -2.899  1.00  0.00     0.049 A 
ATOM     64  H   UNL     1      12.135  -3.703  -4.192  1.00  0.00     0.167 HD
ATOM     65  C   UNL     1      13.553  -3.330  -1.866  1.00  0.00     0.074 A 
ATOM     66  C   UNL     1      13.275  -2.250  -2.806  1.00  0.00     0.031 C 
ATOM     67  C   UNL     1      13.275  -4.666  -1.896  1.00  0.00     0.037 A 
BRANCH  54  68
ATOM     68  C   UNL     1      10.003  -3.500  -6.105  1.00  0.00     0.057 A 
ATOM     69  C   UNL     1      10.909  -3.880  -7.110  1.00  0.00     0.134 A 
ATOM     70  C   UNL     1       9.648  -2.132  -6.110  1.00  0.00     0.134 A 
ATOM     71  F   UNL     1      11.363  -5.140  -7.183  1.00  0.00    -0.206 F 
ATOM     72  C   UNL     1      11.448  -2.960  -8.020  1.00  0.00     0.040 A 
ATOM     73  C   UNL     1      10.138  -1.219  -7.045  1.00  0.00     0.040 A 
ATOM     74  F   UNL     1       8.901  -1.576  -5.149  1.00  0.00    -0.206 F 
ATOM     75  C   UNL     1      11.062  -1.625  -7.990  1.00  0.00     0.006 A 
ENDBRANCH  54  68
BRANCH  55  76
ATOM     76  C   UNL     1      13.087   0.520   0.758  1.00  0.00     0.057 A 
ATOM     77  C   UNL     1      14.438   0.880   0.611  1.00  0.00     0.134 A 
ATOM     78  C   UNL     1      12.201   1.566   1.061  1.00  0.00     0.134 A 
ATOM     79  F   UNL     1      15.359  -0.041   0.293  1.00  0.00    -0.206 F 
ATOM     80  C   UNL     1      14.873   2.209   0.708  1.00  0.00     0.040 A 
ATOM     81  C   UNL     1      12.624   2.897   1.165  1.00  0.00     0.040 A 
ATOM     82  F   UNL     1      10.883   1.345   1.167  1.00  0.00    -0.206 F 
ATOM     83  C   UNL     1      13.960   3.225   0.969  1.00  0.00     0.006 A 
ENDBRANCH  55  76
BRANCH  67  84
ATOM     84  C   UNL     1      13.731  -5.478  -0.718  1.00  0.00     0.057 A 
ATOM     85  C   UNL     1      13.269  -5.319   0.598  1.00  0.00     0.134 A 
ATOM     86  C   UNL     1      14.660  -6.499  -0.943  1.00  0.00     0.134 A 
ATOM     87  F   UNL     1      12.314  -4.428   0.897  1.00  0.00    -0.206 F 
ATOM     88  C   UNL     1      13.763  -6.099   1.648  1.00  0.00     0.040 A 
ATOM     89  C   UNL     1      15.131  -7.311   0.089  1.00  0.00     0.040 A 
ATOM     90  F   UNL     1      15.112  -6.740  -2.184  1.00  0.00    -0.206 F 
ATOM     91  C   UNL     1      14.696  -7.100   1.394  1.00  0.00     0.006 A 
ENDBRANCH  67  84
ENDBRANCH  41  42
ENDBRANCH  34  36
ENDBRANCH  33  34
ENDBRANCH  32  33
ENDBRANCH  31  32
ENDBRANCH  30  31
ENDBRANCH   1  30
TORSDOF 18
