REMARK SMILES C[C@@H](C(=O)OCCOCCOC(=O)c1ccc(-c2c3nc(c(-c4c(F)cccc4F)c4ccc([nH]4)c(-c4c(F)cccc4F)c4nc(c(-c5c(F)cccc5F)c5ccc2[nH]5)C=C4)C=C3)cc1)c1ccc2c3cc(Cl)ccc3n(C(=O)c3ccc(Cl)cc3)c2c1
REMARK SMILES IDX 7 1 6 2 5 3 3 4 4 5 2 6 1 7 68 8 69 9 90 10 70 11 89 12
REMARK SMILES IDX 71 13 79 14 72 15 78 16 73 17 77 18 74 19 76 20 75 21 80 22
REMARK SMILES IDX 81 23 82 24 83 25 88 26 84 27 87 28 85 29 86 30 8 31 9 32
REMARK SMILES IDX 10 33 11 34 12 35 13 36 14 37 15 38 67 39 16 40 66 41 17 42
REMARK SMILES IDX 18 43 19 44 60 45 20 46 65 47 59 48 61 49 21 50 64 51 58 52
REMARK SMILES IDX 57 53 22 55 48 56 31 57 47 58 32 59 35 60 46 61 62 62 33 63
REMARK SMILES IDX 34 64 45 66 63 67 36 68 23 69 24 70 29 71 25 72 26 73 28 74
REMARK SMILES IDX 30 75 27 76 49 77 50 78 55 79 51 80 52 81 54 82 56 83 53 84
REMARK SMILES IDX 37 85 38 86 43 87 39 88 40 89 42 90 44 91 41 92
REMARK H PARENT 61 54 35 65
REMARK Flexibility Score: inf
ROOT
ATOM      1  C   UNL     1       2.065  -3.995   2.666  1.00  0.00     0.202 C 
ENDROOT
BRANCH   1   2
ATOM      2  C   UNL     1       2.247  -4.061   1.146  1.00  0.00     0.261 C 
BRANCH   2   3
ATOM      3  O   UNL     1       2.010  -2.780   0.547  1.00  0.00    -0.463 OA
BRANCH   3   4
ATOM      4  C   UNL     1       1.397  -2.803  -0.669  1.00  0.00     0.313 C 
ATOM      5  O   UNL     1       1.291  -3.806  -1.368  1.00  0.00    -0.252 OA
BRANCH   4   6
ATOM      6  C   UNL     1       0.763  -1.454  -1.026  1.00  0.00     0.126 C 
ATOM      7  C   UNL     1       1.541  -0.287  -0.398  1.00  0.00     0.025 C 
BRANCH   6   8
ATOM      8  C   UNL     1      -0.754  -1.374  -0.787  1.00  0.00    -0.032 A 
ATOM      9  C   UNL     1      -1.434  -0.165  -0.982  1.00  0.00     0.005 A 
ATOM     10  C   UNL     1      -1.514  -2.507  -0.442  1.00  0.00     0.032 A 
ATOM     11  C   UNL     1      -2.832  -0.083  -0.897  1.00  0.00     0.011 A 
ATOM     12  C   UNL     1      -2.922  -2.413  -0.309  1.00  0.00     0.057 A 
ATOM     13  C   UNL     1      -3.590  -1.231  -0.593  1.00  0.00     0.008 A 
ATOM     14  N   UNL     1      -3.872  -3.381   0.059  1.00  0.00    -0.276 N 
ATOM     15  C   UNL     1      -4.985  -1.500  -0.518  1.00  0.00     0.009 A 
ATOM     16  C   UNL     1      -5.150  -2.820  -0.069  1.00  0.00     0.057 A 
ATOM     17  C   UNL     1      -6.121  -0.702  -0.780  1.00  0.00     0.031 A 
ATOM     18  C   UNL     1      -6.439  -3.307   0.235  1.00  0.00     0.029 A 
ATOM     19  C   UNL     1      -7.393  -1.221  -0.554  1.00  0.00     0.041 A 
ATOM     20  C   UNL     1      -7.552  -2.498  -0.035  1.00  0.00     0.023 A 
ATOM     21  Cl  UNL     1      -8.776  -0.255  -0.899  1.00  0.00    -0.084 Cl
BRANCH  14  22
ATOM     22  C   UNL     1      -3.503  -4.661   0.547  1.00  0.00     0.262 C 
ATOM     23  O   UNL     1      -2.462  -4.690   1.208  1.00  0.00    -0.268 OA
BRANCH  22  24
ATOM     24  C   UNL     1      -4.170  -5.980   0.333  1.00  0.00     0.040 A 
ATOM     25  C   UNL     1      -3.652  -7.078   1.051  1.00  0.00     0.015 A 
ATOM     26  C   UNL     1      -5.165  -6.219  -0.620  1.00  0.00     0.015 A 
ATOM     27  C   UNL     1      -4.123  -8.375   0.839  1.00  0.00     0.021 A 
ATOM     28  C   UNL     1      -5.665  -7.518  -0.807  1.00  0.00     0.021 A 
ATOM     29  C   UNL     1      -5.138  -8.589  -0.085  1.00  0.00     0.041 A 
ATOM     30  Cl  UNL     1      -5.720 -10.184  -0.357  1.00  0.00    -0.084 Cl
ENDBRANCH  22  24
ENDBRANCH  14  22
ENDBRANCH   6   8
ENDBRANCH   4   6
ENDBRANCH   3   4
ENDBRANCH   2   3
ENDBRANCH   1   2
BRANCH   1  31
ATOM     31  O   UNL     1       0.782  -3.596   3.145  1.00  0.00    -0.374 OA
BRANCH  31  32
ATOM     32  C   UNL     1       0.366  -2.250   2.912  1.00  0.00     0.202 C 
BRANCH  32  33
ATOM     33  C   UNL     1       1.078  -1.157   3.720  1.00  0.00     0.261 C 
BRANCH  33  34
ATOM     34  O   UNL     1       2.488  -1.068   3.436  1.00  0.00    -0.460 OA
BRANCH  34  35
ATOM     35  C   UNL     1       3.297  -1.318   4.493  1.00  0.00     0.338 C 
ATOM     36  O   UNL     1       2.963  -1.536   5.651  1.00  0.00    -0.246 OA
BRANCH  35  37
ATOM     37  C   UNL     1       4.696  -1.457   4.054  1.00  0.00     0.060 A 
ATOM     38  C   UNL     1       5.336  -2.679   4.300  1.00  0.00     0.016 A 
ATOM     39  C   UNL     1       5.407  -0.378   3.527  1.00  0.00     0.016 A 
ATOM     40  C   UNL     1       6.702  -2.814   4.058  1.00  0.00     0.010 A 
ATOM     41  C   UNL     1       6.781  -0.513   3.293  1.00  0.00     0.010 A 
ATOM     42  C   UNL     1       7.441  -1.720   3.589  1.00  0.00    -0.014 A 
BRANCH  42  43
ATOM     43  C   UNL     1       8.922  -1.804   3.546  1.00  0.00     0.031 A 
ATOM     44  C   UNL     1       9.726  -1.191   4.659  1.00  0.00     0.074 A 
ATOM     45  C   UNL     1       9.545  -2.451   2.545  1.00  0.00     0.049 A 
ATOM     46  N   UNL     1      11.025  -1.124   4.807  1.00  0.00    -0.248 NA
ATOM     47  C   UNL     1       8.963  -0.570   5.753  1.00  0.00     0.031 C 
ATOM     48  C   UNL     1       8.879  -3.122   1.430  1.00  0.00     0.029 A 
ATOM     49  N   UNL     1      10.883  -2.644   2.305  1.00  0.00    -0.354 N 
ATOM     50  C   UNL     1      11.235  -0.453   6.006  1.00  0.00     0.074 A 
ATOM     51  C   UNL     1       9.931  -0.105   6.529  1.00  0.00     0.031 C 
ATOM     52  C   UNL     1       9.813  -3.643   0.616  1.00  0.00     0.029 A 
ATOM     53  C   UNL     1      11.139  -3.317   1.137  1.00  0.00     0.049 A 
ATOM     54  H   UNL     1      11.590  -2.329   2.913  1.00  0.00     0.167 HD
ATOM     55  C   UNL     1      12.406  -0.163   6.620  1.00  0.00     0.037 A 
ATOM     56  C   UNL     1      12.311  -3.616   0.543  1.00  0.00     0.037 A 
ATOM     57  C   UNL     1      13.704  -0.507   6.099  1.00  0.00     0.049 A 
ATOM     58  C   UNL     1      13.602  -3.219   1.209  1.00  0.00     0.074 A 
ATOM     59  C   UNL     1      14.949  -0.266   6.655  1.00  0.00     0.029 A 
ATOM     60  N   UNL     1      13.923  -1.161   4.897  1.00  0.00    -0.354 N 
ATOM     61  N   UNL     1      13.789  -2.602   2.351  1.00  0.00    -0.248 NA
ATOM     62  C   UNL     1      14.846  -3.564   0.504  1.00  0.00     0.031 C 
ATOM     63  C   UNL     1      15.923  -0.732   5.765  1.00  0.00     0.029 A 
ATOM     64  C   UNL     1      15.284  -1.310   4.681  1.00  0.00     0.049 A 
ATOM     65  H   UNL     1      13.216  -1.474   4.287  1.00  0.00     0.167 HD
ATOM     66  C   UNL     1      15.166  -2.508   2.514  1.00  0.00     0.074 A 
ATOM     67  C   UNL     1      15.767  -3.143   1.360  1.00  0.00     0.031 C 
ATOM     68  C   UNL     1      15.869  -1.948   3.529  1.00  0.00     0.037 A 
BRANCH  55  69
ATOM     69  C   UNL     1      12.337   0.587   7.919  1.00  0.00     0.057 A 
ATOM     70  C   UNL     1      11.882  -0.017   9.099  1.00  0.00     0.134 A 
ATOM     71  C   UNL     1      12.757   1.921   7.996  1.00  0.00     0.134 A 
ATOM     72  F   UNL     1      11.453  -1.288   9.091  1.00  0.00    -0.206 F 
ATOM     73  C   UNL     1      11.824   0.687  10.303  1.00  0.00     0.040 A 
ATOM     74  C   UNL     1      12.728   2.627   9.200  1.00  0.00     0.040 A 
ATOM     75  F   UNL     1      13.209   2.557   6.905  1.00  0.00    -0.206 F 
ATOM     76  C   UNL     1      12.254   2.012  10.357  1.00  0.00     0.006 A 
ENDBRANCH  55  69
BRANCH  56  77
ATOM     77  C   UNL     1      12.321  -4.316  -0.766  1.00  0.00     0.057 A 
ATOM     78  C   UNL     1      12.776  -5.634  -0.883  1.00  0.00     0.134 A 
ATOM     79  C   UNL     1      11.889  -3.676  -1.934  1.00  0.00     0.134 A 
ATOM     80  F   UNL     1      13.226  -6.292   0.196  1.00  0.00    -0.206 F 
ATOM     81  C   UNL     1      12.816  -6.286  -2.117  1.00  0.00     0.040 A 
ATOM     82  C   UNL     1      11.899  -4.324  -3.170  1.00  0.00     0.040 A 
ATOM     83  F   UNL     1      11.441  -2.413  -1.888  1.00  0.00    -0.206 F 
ATOM     84  C   UNL     1      12.370  -5.632  -3.264  1.00  0.00     0.006 A 
ENDBRANCH  56  77
BRANCH  68  85
ATOM     85  C   UNL     1      17.367  -2.026   3.456  1.00  0.00     0.057 A 
ATOM     86  C   UNL     1      18.106  -1.250   2.554  1.00  0.00     0.134 A 
ATOM     87  C   UNL     1      18.080  -2.859   4.328  1.00  0.00     0.134 A 
ATOM     88  F   UNL     1      17.483  -0.441   1.684  1.00  0.00    -0.206 F 
ATOM     89  C   UNL     1      19.500  -1.316   2.508  1.00  0.00     0.040 A 
ATOM     90  C   UNL     1      19.474  -2.914   4.309  1.00  0.00     0.040 A 
ATOM     91  F   UNL     1      17.434  -3.622   5.223  1.00  0.00    -0.206 F 
ATOM     92  C   UNL     1      20.188  -2.145   3.392  1.00  0.00     0.006 A 
ENDBRANCH  68  85
ENDBRANCH  42  43
ENDBRANCH  35  37
ENDBRANCH  34  35
ENDBRANCH  33  34
ENDBRANCH  32  33
ENDBRANCH  31  32
ENDBRANCH   1  31
TORSDOF 17
