REMARK SMILES O=C(C[C@@H]1CN(C(=O)[C@H]2C[C@H](O)C[NH2+]2)CCO1)OCCOCCOC(=O)c1ccc(-c2c3nc(c(-c4c(F)cccc4F)c4ccc([nH]4)c(-c4c(F)cccc4F)c4nc(c(-c5c(F)cccc5F)c5ccc2[nH]5)C=C4)C=C3)cc1
REMARK SMILES IDX 20 1 19 2 18 3 2 4 1 5 3 6 4 7 5 8 17 9 6 10 16 11 15 12
REMARK SMILES IDX 7 13 8 14 9 15 10 16 14 17 11 18 13 19 12 22 21 24 22 25
REMARK SMILES IDX 23 26 24 27 25 28 26 29 27 30 28 31 80 32 29 33 79 34 30 35
REMARK SMILES IDX 31 36 32 37 73 38 33 39 78 40 72 41 74 42 34 43 77 44 71 45
REMARK SMILES IDX 70 46 35 48 61 49 44 50 60 51 45 52 48 53 59 54 75 55 46 56
REMARK SMILES IDX 47 57 58 59 76 60 49 61 36 62 37 63 42 64 38 65 39 66 41 67
REMARK SMILES IDX 43 68 40 69 62 70 63 71 68 72 64 73 65 74 67 75 69 76 66 77
REMARK SMILES IDX 50 78 51 79 56 80 52 81 53 82 55 83 57 84 54 85
REMARK H PARENT 14 20 14 21 12 23 74 47 48 58
REMARK Flexibility Score: inf
ROOT
ATOM      1  C   UNL     1       4.698   1.226  -1.075  1.00  0.00     0.202 C 
ENDROOT
BRANCH   1   2
ATOM      2  C   UNL     1       4.033  -0.080  -0.635  1.00  0.00     0.261 C 
BRANCH   2   3
ATOM      3  O   UNL     1       2.620  -0.078  -0.397  1.00  0.00    -0.463 OA
BRANCH   3   4
ATOM      4  C   UNL     1       1.991   0.390   0.697  1.00  0.00     0.308 C 
ATOM      5  O   UNL     1       0.842   0.029   0.941  1.00  0.00    -0.252 OA
BRANCH   4   6
ATOM      6  C   UNL     1       2.704   1.343   1.608  1.00  0.00     0.156 C 
BRANCH   6   7
ATOM      7  C   UNL     1       3.711   0.699   2.551  1.00  0.00     0.148 C 
ATOM      8  C   UNL     1       3.341  -0.738   2.972  1.00  0.00     0.152 C 
ATOM      9  O   UNL     1       3.811   1.552   3.710  1.00  0.00    -0.374 OA
ATOM     10  N   UNL     1       4.293  -1.254   3.955  1.00  0.00    -0.333 N 
ATOM     11  C   UNL     1       4.798   1.065   4.631  1.00  0.00     0.182 C 
ATOM     12  C   UNL     1       4.461  -0.352   5.104  1.00  0.00     0.148 C 
BRANCH  10  13
ATOM     13  C   UNL     1       4.926  -2.488   3.976  1.00  0.00     0.281 C 
ATOM     14  O   UNL     1       5.577  -2.834   4.969  1.00  0.00    -0.268 OA
BRANCH  13  15
ATOM     15  C   UNL     1       4.913  -3.436   2.750  1.00  0.00     0.275 C 
ATOM     16  C   UNL     1       3.573  -3.929   2.210  1.00  0.00     0.113 C 
ATOM     17  N   UNL     1       5.674  -2.857   1.611  1.00  0.00    -0.334 N 
ATOM     18  C   UNL     1       3.642  -3.678   0.705  1.00  0.00     0.175 C 
ATOM     19  C   UNL     1       5.132  -3.524   0.425  1.00  0.00     0.293 C 
ATOM     20  H   UNL     1       6.671  -3.050   1.708  1.00  0.00     0.347 HD
ATOM     21  H   UNL     1       5.580  -1.843   1.559  1.00  0.00     0.347 HD
BRANCH  18  22
ATOM     22  O   UNL     1       3.051  -4.724  -0.043  1.00  0.00    -0.387 OA
ATOM     23  H   UNL     1       3.497  -5.561   0.162  1.00  0.00     0.211 HD
ENDBRANCH  18  22
ENDBRANCH  13  15
ENDBRANCH  10  13
ENDBRANCH   6   7
ENDBRANCH   4   6
ENDBRANCH   3   4
ENDBRANCH   2   3
ENDBRANCH   1   2
BRANCH   1  24
ATOM     24  O   UNL     1       3.897   2.355  -1.368  1.00  0.00    -0.374 OA
BRANCH  24  25
ATOM     25  C   UNL     1       2.768   2.229  -2.223  1.00  0.00     0.202 C 
BRANCH  25  26
ATOM     26  C   UNL     1       2.984   1.721  -3.648  1.00  0.00     0.261 C 
BRANCH  26  27
ATOM     27  O   UNL     1       3.430   0.354  -3.712  1.00  0.00    -0.460 OA
BRANCH  27  28
ATOM     28  C   UNL     1       4.664   0.179  -4.240  1.00  0.00     0.338 C 
ATOM     29  O   UNL     1       5.462   1.042  -4.558  1.00  0.00    -0.246 OA
BRANCH  28  30
ATOM     30  C   UNL     1       4.998  -1.256  -4.289  1.00  0.00     0.060 A 
ATOM     31  C   UNL     1       6.202  -1.676  -3.709  1.00  0.00     0.016 A 
ATOM     32  C   UNL     1       4.196  -2.154  -4.996  1.00  0.00     0.016 A 
ATOM     33  C   UNL     1       6.625  -2.996  -3.866  1.00  0.00     0.010 A 
ATOM     34  C   UNL     1       4.629  -3.473  -5.161  1.00  0.00     0.010 A 
ATOM     35  C   UNL     1       5.857  -3.893  -4.621  1.00  0.00    -0.014 A 
BRANCH  35  36
ATOM     36  C   UNL     1       6.375  -5.247  -4.930  1.00  0.00     0.031 A 
ATOM     37  C   UNL     1       7.021  -5.506  -6.262  1.00  0.00     0.074 A 
ATOM     38  C   UNL     1       6.250  -6.240  -4.033  1.00  0.00     0.049 A 
ATOM     39  N   UNL     1       7.459  -6.632  -6.764  1.00  0.00    -0.248 NA
ATOM     40  C   UNL     1       7.195  -4.343  -7.147  1.00  0.00     0.031 C 
ATOM     41  C   UNL     1       5.659  -6.105  -2.703  1.00  0.00     0.029 A 
ATOM     42  N   UNL     1       6.597  -7.565  -4.116  1.00  0.00    -0.354 N 
ATOM     43  C   UNL     1       7.950  -6.318  -8.025  1.00  0.00     0.074 A 
ATOM     44  C   UNL     1       7.743  -4.899  -8.219  1.00  0.00     0.031 C 
ATOM     45  C   UNL     1       5.668  -7.306  -2.099  1.00  0.00     0.029 A 
ATOM     46  C   UNL     1       6.227  -8.298  -3.015  1.00  0.00     0.049 A 
ATOM     47  H   UNL     1       7.065  -7.953  -4.890  1.00  0.00     0.167 HD
ATOM     48  C   UNL     1       8.524  -7.140  -8.935  1.00  0.00     0.037 A 
ATOM     49  C   UNL     1       6.297  -9.624  -2.790  1.00  0.00     0.037 A 
ATOM     50  C   UNL     1       8.733  -8.551  -8.739  1.00  0.00     0.049 A 
ATOM     51  C   UNL     1       6.876 -10.524  -3.848  1.00  0.00     0.074 A 
ATOM     52  C   UNL     1       9.345  -9.458  -9.587  1.00  0.00     0.029 A 
ATOM     53  N   UNL     1       8.325  -9.260  -7.621  1.00  0.00    -0.354 N 
ATOM     54  N   UNL     1       7.375 -10.211  -5.020  1.00  0.00    -0.248 NA
ATOM     55  C   UNL     1       6.897 -11.965  -3.555  1.00  0.00     0.031 C 
ATOM     56  C   UNL     1       9.265 -10.726  -9.002  1.00  0.00     0.029 A 
ATOM     57  C   UNL     1       8.643 -10.600  -7.771  1.00  0.00     0.049 A 
ATOM     58  H   UNL     1       7.877  -8.870  -6.836  1.00  0.00     0.167 HD
ATOM     59  C   UNL     1       7.784 -11.409  -5.593  1.00  0.00     0.074 A 
ATOM     60  C   UNL     1       7.493 -12.453  -4.633  1.00  0.00     0.031 C 
ATOM     61  C   UNL     1       8.347 -11.626  -6.806  1.00  0.00     0.037 A 
BRANCH  48  62
ATOM     62  C   UNL     1       8.955  -6.543 -10.242  1.00  0.00     0.057 A 
ATOM     63  C   UNL     1      10.099  -5.744 -10.346  1.00  0.00     0.134 A 
ATOM     64  C   UNL     1       8.252  -6.827 -11.420  1.00  0.00     0.134 A 
ATOM     65  F   UNL     1      10.809  -5.427  -9.253  1.00  0.00    -0.206 F 
ATOM     66  C   UNL     1      10.526  -5.239 -11.576  1.00  0.00     0.040 A 
ATOM     67  C   UNL     1       8.680  -6.345 -12.658  1.00  0.00     0.040 A 
ATOM     68  F   UNL     1       7.150  -7.590 -11.388  1.00  0.00    -0.206 F 
ATOM     69  C   UNL     1       9.819  -5.547 -12.738  1.00  0.00     0.006 A 
ENDBRANCH  48  62
BRANCH  49  70
ATOM     70  C   UNL     1       5.768 -10.196  -1.526  1.00  0.00     0.057 A 
ATOM     71  C   UNL     1       6.622 -10.763  -0.573  1.00  0.00     0.134 A 
ATOM     72  C   UNL     1       4.394 -10.225  -1.261  1.00  0.00     0.134 A 
ATOM     73  F   UNL     1       7.946 -10.787  -0.783  1.00  0.00    -0.206 F 
ATOM     74  C   UNL     1       6.126 -11.357   0.589  1.00  0.00     0.040 A 
ATOM     75  C   UNL     1       3.886 -10.793  -0.092  1.00  0.00     0.040 A 
ATOM     76  F   UNL     1       3.524  -9.696  -2.134  1.00  0.00    -0.206 F 
ATOM     77  C   UNL     1       4.754 -11.370   0.833  1.00  0.00     0.006 A 
ENDBRANCH  49  70
BRANCH  61  78
ATOM     78  C   UNL     1       8.704 -13.041  -7.153  1.00  0.00     0.057 A 
ATOM     79  C   UNL     1       7.726 -13.986  -7.485  1.00  0.00     0.134 A 
ATOM     80  C   UNL     1      10.043 -13.452  -7.193  1.00  0.00     0.134 A 
ATOM     81  F   UNL     1       6.425 -13.659  -7.452  1.00  0.00    -0.206 F 
ATOM     82  C   UNL     1       8.065 -15.297  -7.825  1.00  0.00     0.040 A 
ATOM     83  C   UNL     1      10.395 -14.753  -7.555  1.00  0.00     0.040 A 
ATOM     84  F   UNL     1      11.028 -12.593  -6.894  1.00  0.00    -0.206 F 
ATOM     85  C   UNL     1       9.404 -15.681  -7.867  1.00  0.00     0.006 A 
ENDBRANCH  61  78
ENDBRANCH  35  36
ENDBRANCH  28  30
ENDBRANCH  27  28
ENDBRANCH  26  27
ENDBRANCH  25  26
ENDBRANCH  24  25
ENDBRANCH   1  24
TORSDOF 18
