REMARK SMILES CC[NH2+][C@@]1(C(=O)OCCOCCOC(=O)c2ccc(-c3c4nc(c(-c5c(F)cccc5F)c5ccc([nH]5)c(-c5c(F)cccc5F)c5nc(c(-c6c(F)cccc6F)c6ccc3[nH]6)C=C5)C=C4)cc2)CC[C@H](Oc2ccc3c(c2)OCO3)C1
REMARK SMILES IDX 10 1 9 2 8 3 7 4 5 5 6 6 4 7 70 8 83 9 71 10 72 11 3 12 2 15
REMARK SMILES IDX 1 16 73 17 74 18 75 19 79 20 76 21 78 22 77 23 80 24 82 25
REMARK SMILES IDX 81 26 11 27 12 28 13 29 14 30 15 31 16 32 17 33 69 34 18 35
REMARK SMILES IDX 68 36 19 37 20 38 21 39 62 40 22 41 67 42 61 43 63 44 23 45
REMARK SMILES IDX 66 46 60 47 59 48 24 50 50 51 33 52 49 53 34 54 37 55 48 56
REMARK SMILES IDX 64 57 35 58 36 59 47 61 65 62 38 63 25 64 26 65 31 66 27 67
REMARK SMILES IDX 28 68 30 69 32 70 29 71 51 72 52 73 57 74 53 75 54 76 56 77
REMARK SMILES IDX 58 78 55 79 39 80 40 81 45 82 41 83 42 84 44 85 46 86 43 87
REMARK H PARENT 3 13 3 14 63 49 37 60
REMARK Flexibility Score: inf
ROOT
ATOM      1  O   UNL     1      -3.224  -2.184   1.490  1.00  0.00    -0.374 OA
ENDROOT
BRANCH   1   2
ATOM      2  C   UNL     1      -3.883  -3.101   0.621  1.00  0.00     0.202 C 
BRANCH   2   3
ATOM      3  C   UNL     1      -3.085  -3.640  -0.571  1.00  0.00     0.261 C 
BRANCH   3   4
ATOM      4  O   UNL     1      -1.746  -3.984  -0.210  1.00  0.00    -0.459 OA
BRANCH   4   5
ATOM      5  C   UNL     1      -0.781  -3.576  -1.075  1.00  0.00     0.368 C 
ATOM      6  O   UNL     1      -1.006  -3.118  -2.193  1.00  0.00    -0.245 OA
BRANCH   5   7
ATOM      7  C   UNL     1       0.652  -3.660  -0.467  1.00  0.00     0.198 C 
ATOM      8  C   UNL     1       1.623  -4.132  -1.560  1.00  0.00     0.085 C 
ATOM      9  C   UNL     1       0.841  -4.786   0.567  1.00  0.00     0.126 C 
ATOM     10  C   UNL     1       1.345  -5.634  -1.662  1.00  0.00     0.052 C 
ATOM     11  C   UNL     1       0.897  -6.075  -0.261  1.00  0.00     0.180 C 
BRANCH   7  12
ATOM     12  N   UNL     1       1.052  -2.379   0.174  1.00  0.00    -0.332 N 
ATOM     13  H   UNL     1       0.564  -2.307   1.067  1.00  0.00     0.347 HD
ATOM     14  H   UNL     1       2.067  -2.412   0.270  1.00  0.00     0.347 HD
BRANCH  12  15
ATOM     15  C   UNL     1       0.752  -1.178  -0.606  1.00  0.00     0.257 C 
ATOM     16  C   UNL     1       1.358   0.041   0.079  1.00  0.00     0.071 C 
ENDBRANCH  12  15
ENDBRANCH   7  12
BRANCH  11  17
ATOM     17  O   UNL     1      -0.429  -6.599  -0.289  1.00  0.00    -0.490 OA
BRANCH  17  18
ATOM     18  C   UNL     1      -0.610  -7.925  -0.544  1.00  0.00     0.123 A 
ATOM     19  C   UNL     1       0.347  -8.800  -1.085  1.00  0.00     0.050 A 
ATOM     20  C   UNL     1      -1.894  -8.390  -0.249  1.00  0.00     0.097 A 
ATOM     21  C   UNL     1       0.027 -10.142  -1.330  1.00  0.00     0.054 A 
ATOM     22  C   UNL     1      -2.173  -9.718  -0.480  1.00  0.00     0.169 A 
ATOM     23  C   UNL     1      -1.241 -10.572  -1.010  1.00  0.00     0.166 A 
ATOM     24  O   UNL     1      -3.350 -10.339  -0.222  1.00  0.00    -0.453 OA
ATOM     25  O   UNL     1      -1.721 -11.835  -1.163  1.00  0.00    -0.454 OA
ATOM     26  C   UNL     1      -3.053 -11.689  -0.626  1.00  0.00     0.468 C 
ENDBRANCH  17  18
ENDBRANCH  11  17
ENDBRANCH   5   7
ENDBRANCH   4   5
ENDBRANCH   3   4
ENDBRANCH   2   3
ENDBRANCH   1   2
BRANCH   1  27
ATOM     27  C   UNL     1      -2.181  -2.691   2.327  1.00  0.00     0.202 C 
BRANCH  27  28
ATOM     28  C   UNL     1      -2.567  -3.738   3.383  1.00  0.00     0.261 C 
BRANCH  28  29
ATOM     29  O   UNL     1      -3.047  -4.975   2.818  1.00  0.00    -0.460 OA
BRANCH  29  30
ATOM     30  C   UNL     1      -4.277  -5.357   3.248  1.00  0.00     0.338 C 
ATOM     31  O   UNL     1      -4.984  -4.802   4.069  1.00  0.00    -0.246 OA
BRANCH  30  32
ATOM     32  C   UNL     1      -4.747  -6.526   2.483  1.00  0.00     0.060 A 
ATOM     33  C   UNL     1      -5.873  -6.385   1.659  1.00  0.00     0.016 A 
ATOM     34  C   UNL     1      -4.174  -7.777   2.689  1.00  0.00     0.016 A 
ATOM     35  C   UNL     1      -6.448  -7.508   1.054  1.00  0.00     0.010 A 
ATOM     36  C   UNL     1      -4.757  -8.897   2.088  1.00  0.00     0.010 A 
ATOM     37  C   UNL     1      -5.911  -8.780   1.286  1.00  0.00    -0.014 A 
BRANCH  37  38
ATOM     38  C   UNL     1      -6.609 -10.014   0.828  1.00  0.00     0.031 A 
ATOM     39  C   UNL     1      -7.246 -10.907   1.860  1.00  0.00     0.074 A 
ATOM     40  C   UNL     1      -6.635 -10.382  -0.467  1.00  0.00     0.049 A 
ATOM     41  N   UNL     1      -7.747 -12.109   1.730  1.00  0.00    -0.248 NA
ATOM     42  C   UNL     1      -7.307 -10.373   3.230  1.00  0.00     0.031 C 
ATOM     43  C   UNL     1      -6.070  -9.623  -1.581  1.00  0.00     0.029 A 
ATOM     44  N   UNL     1      -7.113 -11.531  -1.053  1.00  0.00    -0.354 N 
ATOM     45  C   UNL     1      -8.169 -12.479   3.001  1.00  0.00     0.074 A 
ATOM     46  C   UNL     1      -7.817 -11.398   3.896  1.00  0.00     0.031 C 
ATOM     47  C   UNL     1      -6.181 -10.351  -2.707  1.00  0.00     0.029 A 
ATOM     48  C   UNL     1      -6.810 -11.631  -2.390  1.00  0.00     0.049 A 
ATOM     49  H   UNL     1      -7.624 -12.216  -0.563  1.00  0.00     0.167 HD
ATOM     50  C   UNL     1      -8.817 -13.604   3.390  1.00  0.00     0.037 A 
ATOM     51  C   UNL     1      -6.982 -12.654  -3.251  1.00  0.00     0.037 A 
ATOM     52  C   UNL     1      -9.204 -14.669   2.505  1.00  0.00     0.049 A 
ATOM     53  C   UNL     1      -7.650 -13.921  -2.793  1.00  0.00     0.074 A 
ATOM     54  C   UNL     1      -9.922 -15.816   2.797  1.00  0.00     0.029 A 
ATOM     55  N   UNL     1      -8.908 -14.715   1.153  1.00  0.00    -0.354 N 
ATOM     56  N   UNL     1      -8.082 -14.243  -1.598  1.00  0.00    -0.248 NA
ATOM     57  C   UNL     1      -7.868 -14.963  -3.808  1.00  0.00     0.031 C 
ATOM     58  C   UNL     1     -10.036 -16.571   1.625  1.00  0.00     0.029 A 
ATOM     59  C   UNL     1      -9.418 -15.877   0.598  1.00  0.00     0.049 A 
ATOM     60  H   UNL     1      -8.409 -14.024   0.660  1.00  0.00     0.167 HD
ATOM     61  C   UNL     1      -8.670 -15.495  -1.730  1.00  0.00     0.074 A 
ATOM     62  C   UNL     1      -8.521 -15.886  -3.115  1.00  0.00     0.031 C 
ATOM     63  C   UNL     1      -9.292 -16.244  -0.788  1.00  0.00     0.037 A 
BRANCH  50  64
ATOM     64  C   UNL     1      -9.155 -13.726   4.845  1.00  0.00     0.057 A 
ATOM     65  C   UNL     1     -10.157 -12.945   5.435  1.00  0.00     0.134 A 
ATOM     66  C   UNL     1      -8.478 -14.638   5.664  1.00  0.00     0.134 A 
ATOM     67  F   UNL     1     -10.833 -12.043   4.705  1.00  0.00    -0.206 F 
ATOM     68  C   UNL     1     -10.451 -13.041   6.795  1.00  0.00     0.040 A 
ATOM     69  C   UNL     1      -8.780 -14.761   7.021  1.00  0.00     0.040 A 
ATOM     70  F   UNL     1      -7.512 -15.421   5.160  1.00  0.00    -0.206 F 
ATOM     71  C   UNL     1      -9.764 -13.954   7.591  1.00  0.00     0.006 A 
ENDBRANCH  50  64
BRANCH  51  72
ATOM     72  C   UNL     1      -6.494 -12.535  -4.647  1.00  0.00     0.057 A 
ATOM     73  C   UNL     1      -7.382 -12.359  -5.713  1.00  0.00     0.134 A 
ATOM     74  C   UNL     1      -5.130 -12.633  -4.946  1.00  0.00     0.134 A 
ATOM     75  F   UNL     1      -8.702 -12.288  -5.487  1.00  0.00    -0.206 F 
ATOM     76  C   UNL     1      -6.932 -12.300  -7.033  1.00  0.00     0.040 A 
ATOM     77  C   UNL     1      -4.665 -12.557  -6.259  1.00  0.00     0.040 A 
ATOM     78  F   UNL     1      -4.234 -12.807  -3.963  1.00  0.00    -0.206 F 
ATOM     79  C   UNL     1      -5.569 -12.397  -7.308  1.00  0.00     0.006 A 
ENDBRANCH  51  72
BRANCH  63  80
ATOM     80  C   UNL     1      -9.931 -17.526  -1.231  1.00  0.00     0.057 A 
ATOM     81  C   UNL     1      -9.182 -18.675  -1.509  1.00  0.00     0.134 A 
ATOM     82  C   UNL     1     -11.326 -17.620  -1.332  1.00  0.00     0.134 A 
ATOM     83  F   UNL     1      -7.843 -18.645  -1.445  1.00  0.00    -0.206 F 
ATOM     84  C   UNL     1      -9.798 -19.871  -1.884  1.00  0.00     0.040 A 
ATOM     85  C   UNL     1     -11.953 -18.815  -1.685  1.00  0.00     0.040 A 
ATOM     86  F   UNL     1     -12.100 -16.556  -1.073  1.00  0.00    -0.206 F 
ATOM     87  C   UNL     1     -11.188 -19.945  -1.966  1.00  0.00     0.006 A 
ENDBRANCH  63  80
ENDBRANCH  37  38
ENDBRANCH  30  32
ENDBRANCH  29  30
ENDBRANCH  28  29
ENDBRANCH  27  28
ENDBRANCH   1  27
TORSDOF 18
