REMARK SMILES CC1(C)C(=O)N([C@H]2COC[C@@H]2C(=O)OCCOCCOC(=O)c2ccc(-c3c4nc(c(-c5c(F)cccc5F)c5ccc([nH]5)c(-c5c(F)cccc5F)c5nc(c(-c6c(F)cccc6F)c6ccc3[nH]6)C=C5)C=C4)cc2)S1(=O)=O
REMARK SMILES IDX 18 1 17 2 16 3 15 4 14 5 12 6 13 7 11 8 7 9 8 10 9 11 10 12
REMARK SMILES IDX 6 13 1 14 2 15 3 16 4 17 77 18 5 19 78 20 79 21 19 22 20 23
REMARK SMILES IDX 21 24 22 25 23 26 24 27 76 28 25 29 75 30 26 31 27 32 28 33
REMARK SMILES IDX 69 34 29 35 74 36 68 37 70 38 30 39 73 40 67 41 66 42 31 44
REMARK SMILES IDX 57 45 40 46 56 47 41 48 44 49 55 50 71 51 42 52 43 53 54 55
REMARK SMILES IDX 72 56 45 57 32 58 33 59 38 60 34 61 35 62 37 63 39 64 36 65
REMARK SMILES IDX 58 66 59 67 64 68 60 69 61 70 63 71 65 72 62 73 46 74 47 75
REMARK SMILES IDX 52 76 48 77 49 78 51 79 53 80 50 81
REMARK H PARENT 70 43 44 54
REMARK Flexibility Score: inf
ROOT
ATOM      1  C   UNL     1       4.184  -1.526   2.186  1.00  0.00     0.202 C 
ENDROOT
BRANCH   1   2
ATOM      2  O   UNL     1       4.574  -0.210   2.568  1.00  0.00    -0.374 OA
BRANCH   2   3
ATOM      3  C   UNL     1       5.264  -0.019   3.799  1.00  0.00     0.202 C 
BRANCH   3   4
ATOM      4  C   UNL     1       4.468  -0.140   5.101  1.00  0.00     0.261 C 
BRANCH   4   5
ATOM      5  O   UNL     1       3.934  -1.461   5.275  1.00  0.00    -0.463 OA
BRANCH   5   6
ATOM      6  C   UNL     1       2.591  -1.569   5.079  1.00  0.00     0.313 C 
ATOM      7  O   UNL     1       1.830  -0.632   4.885  1.00  0.00    -0.252 OA
BRANCH   6   8
ATOM      8  C   UNL     1       2.187  -3.026   5.039  1.00  0.00     0.151 C 
ATOM      9  C   UNL     1       0.900  -3.173   4.248  1.00  0.00     0.145 C 
ATOM     10  C   UNL     1      -0.163  -2.948   5.315  1.00  0.00     0.187 C 
ATOM     11  O   UNL     1       0.399  -3.343   6.575  1.00  0.00    -0.378 OA
ATOM     12  C   UNL     1       1.823  -3.447   6.444  1.00  0.00     0.177 C 
BRANCH   9  13
ATOM     13  N   UNL     1       0.762  -4.463   3.550  1.00  0.00    -0.231 N 
ATOM     14  C   UNL     1      -0.945  -7.461   3.158  1.00  0.00     0.041 C 
ATOM     15  C   UNL     1       0.113  -6.427   2.777  1.00  0.00     0.165 C 
ATOM     16  C   UNL     1       0.747  -6.762   1.428  1.00  0.00     0.041 C 
ATOM     17  C   UNL     1      -0.371  -4.960   2.882  1.00  0.00     0.259 C 
ATOM     18  S   UNL     1       1.217  -5.963   4.077  1.00  0.00     0.252 S 
ATOM     19  O   UNL     1      -1.316  -4.313   2.485  1.00  0.00    -0.272 OA
ATOM     20  O   UNL     1       0.667  -6.217   5.384  1.00  0.00    -0.205 OA
ATOM     21  O   UNL     1       2.609  -6.155   3.750  1.00  0.00    -0.205 OA
ENDBRANCH   9  13
ENDBRANCH   6   8
ENDBRANCH   5   6
ENDBRANCH   4   5
ENDBRANCH   3   4
ENDBRANCH   2   3
ENDBRANCH   1   2
BRANCH   1  22
ATOM     22  C   UNL     1       5.266  -2.543   1.797  1.00  0.00     0.261 C 
BRANCH  22  23
ATOM     23  O   UNL     1       6.220  -2.799   2.840  1.00  0.00    -0.460 OA
BRANCH  23  24
ATOM     24  C   UNL     1       7.450  -2.277   2.608  1.00  0.00     0.338 C 
ATOM     25  O   UNL     1       7.819  -1.653   1.627  1.00  0.00    -0.246 OA
BRANCH  24  26
ATOM     26  C   UNL     1       8.285  -2.404   3.814  1.00  0.00     0.060 A 
ATOM     27  C   UNL     1       8.792  -1.228   4.382  1.00  0.00     0.016 A 
ATOM     28  C   UNL     1       8.646  -3.654   4.318  1.00  0.00     0.016 A 
ATOM     29  C   UNL     1       9.701  -1.299   5.434  1.00  0.00     0.010 A 
ATOM     30  C   UNL     1       9.566  -3.722   5.369  1.00  0.00     0.010 A 
ATOM     31  C   UNL     1      10.123  -2.547   5.908  1.00  0.00    -0.014 A 
BRANCH  31  32
ATOM     32  C   UNL     1      11.246  -2.622   6.873  1.00  0.00     0.031 A 
ATOM     33  C   UNL     1      12.611  -3.017   6.380  1.00  0.00     0.074 A 
ATOM     34  C   UNL     1      11.056  -2.316   8.168  1.00  0.00     0.049 A 
ATOM     35  N   UNL     1      13.718  -3.192   7.055  1.00  0.00    -0.248 NA
ATOM     36  C   UNL     1      12.744  -3.248   4.933  1.00  0.00     0.031 C 
ATOM     37  C   UNL     1       9.790  -1.880   8.755  1.00  0.00     0.029 A 
ATOM     38  N   UNL     1      11.931  -2.334   9.224  1.00  0.00    -0.354 N 
ATOM     39  C   UNL     1      14.675  -3.564   6.119  1.00  0.00     0.074 A 
ATOM     40  C   UNL     1      14.011  -3.621   4.835  1.00  0.00     0.031 C 
ATOM     41  C   UNL     1       9.968  -1.681  10.072  1.00  0.00     0.029 A 
ATOM     42  C   UNL     1      11.347  -2.013  10.425  1.00  0.00     0.049 A 
ATOM     43  H   UNL     1      12.886  -2.555   9.131  1.00  0.00     0.167 HD
ATOM     44  C   UNL     1      15.990  -3.825   6.313  1.00  0.00     0.037 A 
ATOM     45  C   UNL     1      11.862  -2.013  11.669  1.00  0.00     0.037 A 
ATOM     46  C   UNL     1      16.645  -3.767   7.594  1.00  0.00     0.049 A 
ATOM     47  C   UNL     1      13.308  -2.385  11.869  1.00  0.00     0.074 A 
ATOM     48  C   UNL     1      17.978  -3.992   7.891  1.00  0.00     0.029 A 
ATOM     49  N   UNL     1      16.013  -3.470   8.792  1.00  0.00    -0.354 N 
ATOM     50  N   UNL     1      14.212  -2.708  10.976  1.00  0.00    -0.248 NA
ATOM     51  C   UNL     1      13.805  -2.389  13.252  1.00  0.00     0.031 C 
ATOM     52  C   UNL     1      18.140  -3.894   9.277  1.00  0.00     0.029 A 
ATOM     53  C   UNL     1      16.922  -3.540   9.836  1.00  0.00     0.049 A 
ATOM     54  H   UNL     1      15.060  -3.244   8.888  1.00  0.00     0.167 HD
ATOM     55  C   UNL     1      15.389  -2.922  11.683  1.00  0.00     0.074 A 
ATOM     56  C   UNL     1      15.087  -2.677  13.078  1.00  0.00     0.031 C 
ATOM     57  C   UNL     1      16.610  -3.287  11.220  1.00  0.00     0.037 A 
BRANCH  44  58
ATOM     58  C   UNL     1      16.803  -4.229   5.115  1.00  0.00     0.057 A 
ATOM     59  C   UNL     1      17.120  -3.326   4.092  1.00  0.00     0.134 A 
ATOM     60  C   UNL     1      17.306  -5.532   5.004  1.00  0.00     0.134 A 
ATOM     61  F   UNL     1      16.661  -2.066   4.130  1.00  0.00    -0.206 F 
ATOM     62  C   UNL     1      17.887  -3.711   2.990  1.00  0.00     0.040 A 
ATOM     63  C   UNL     1      18.099  -5.920   3.922  1.00  0.00     0.040 A 
ATOM     64  F   UNL     1      17.046  -6.447   5.950  1.00  0.00    -0.206 F 
ATOM     65  C   UNL     1      18.385  -5.010   2.908  1.00  0.00     0.006 A 
ENDBRANCH  44  58
BRANCH  45  66
ATOM     66  C   UNL     1      11.002  -1.668  12.831  1.00  0.00     0.057 A 
ATOM     67  C   UNL     1      11.226  -0.508  13.581  1.00  0.00     0.134 A 
ATOM     68  C   UNL     1       9.953  -2.503  13.235  1.00  0.00     0.134 A 
ATOM     69  F   UNL     1      12.229   0.321  13.258  1.00  0.00    -0.206 F 
ATOM     70  C   UNL     1      10.453  -0.201  14.702  1.00  0.00     0.040 A 
ATOM     71  C   UNL     1       9.153  -2.194  14.336  1.00  0.00     0.040 A 
ATOM     72  F   UNL     1       9.684  -3.630  12.558  1.00  0.00    -0.206 F 
ATOM     73  C   UNL     1       9.409  -1.044  15.079  1.00  0.00     0.006 A 
ENDBRANCH  45  66
BRANCH  57  74
ATOM     74  C   UNL     1      17.724  -3.401  12.223  1.00  0.00     0.057 A 
ATOM     75  C   UNL     1      17.770  -4.431  13.171  1.00  0.00     0.134 A 
ATOM     76  C   UNL     1      18.787  -2.487  12.212  1.00  0.00     0.134 A 
ATOM     77  F   UNL     1      16.780  -5.332  13.245  1.00  0.00    -0.206 F 
ATOM     78  C   UNL     1      18.818  -4.531  14.090  1.00  0.00     0.040 A 
ATOM     79  C   UNL     1      19.856  -2.596  13.103  1.00  0.00     0.040 A 
ATOM     80  F   UNL     1      18.814  -1.483  11.323  1.00  0.00    -0.206 F 
ATOM     81  C   UNL     1      19.869  -3.616  14.051  1.00  0.00     0.006 A 
ENDBRANCH  57  74
ENDBRANCH  31  32
ENDBRANCH  24  26
ENDBRANCH  23  24
ENDBRANCH  22  23
ENDBRANCH   1  22
TORSDOF 15
