REMARK SMILES Cc1cc(C)cc(-c2ccc([C@@H](C)C(=O)OCCOCCOC(=O)c3ccc(-c4c5nc(c(-c6c(F)cccc6F)c6ccc([nH]6)c(-c6c(F)cccc6F)c6nc(c(-c7c(F)cccc7F)c7ccc4[nH]7)C=C6)C=C5)cc3)cc2F)c1
REMARK SMILES IDX 19 1 18 2 17 3 16 4 14 5 15 6 12 7 13 8 11 9 8 10 9 11 80 12
REMARK SMILES IDX 10 13 79 14 81 15 7 16 1 17 2 18 3 19 82 20 4 21 5 22 6 23
REMARK SMILES IDX 20 24 21 25 22 26 23 27 24 28 25 29 26 30 78 31 27 32 77 33
REMARK SMILES IDX 28 34 29 35 30 36 71 37 31 38 76 39 70 40 72 41 32 42 75 43
REMARK SMILES IDX 69 44 68 45 33 47 59 48 42 49 58 50 43 51 46 52 57 53 73 54
REMARK SMILES IDX 44 55 45 56 56 58 74 59 47 60 34 61 35 62 40 63 36 64 37 65
REMARK SMILES IDX 39 66 41 67 38 68 60 69 61 70 66 71 62 72 63 73 65 74 67 75
REMARK SMILES IDX 64 76 48 77 49 78 54 79 50 80 51 81 53 82 55 83 52 84
REMARK H PARENT 72 46 46 57
REMARK Flexibility Score: inf
ROOT
ATOM      1  O   UNL     1       3.219  -8.153  -2.433  1.00  0.00    -0.374 OA
ENDROOT
BRANCH   1   2
ATOM      2  C   UNL     1       2.223  -8.290  -3.444  1.00  0.00     0.202 C 
BRANCH   2   3
ATOM      3  C   UNL     1       0.917  -8.958  -3.007  1.00  0.00     0.261 C 
BRANCH   3   4
ATOM      4  O   UNL     1       0.199  -8.133  -2.071  1.00  0.00    -0.463 OA
BRANCH   4   5
ATOM      5  C   UNL     1       0.007  -8.668  -0.836  1.00  0.00     0.313 C 
ATOM      6  O   UNL     1       0.286  -9.824  -0.531  1.00  0.00    -0.252 OA
BRANCH   5   7
ATOM      7  C   UNL     1      -0.644  -7.716   0.154  1.00  0.00     0.126 C 
ATOM      8  C   UNL     1      -2.137  -8.028   0.236  1.00  0.00     0.025 C 
BRANCH   7   9
ATOM      9  C   UNL     1      -0.384  -6.221  -0.011  1.00  0.00    -0.031 A 
ATOM     10  C   UNL     1      -0.087  -3.381  -0.100  1.00  0.00     0.017 A 
ATOM     11  C   UNL     1      -0.768  -4.077  -1.113  1.00  0.00     0.012 A 
ATOM     12  C   UNL     1       0.485  -4.144   0.924  1.00  0.00     0.131 A 
ATOM     13  C   UNL     1      -0.914  -5.473  -1.071  1.00  0.00     0.005 A 
ATOM     14  C   UNL     1       0.343  -5.534   0.975  1.00  0.00     0.044 A 
ATOM     15  F   UNL     1       1.156  -3.546   1.921  1.00  0.00    -0.206 F 
BRANCH  10  16
ATOM     16  C   UNL     1      -0.039  -1.908  -0.091  1.00  0.00    -0.015 A 
ATOM     17  C   UNL     1       2.515   0.939   0.012  1.00  0.00     0.044 C 
ATOM     18  C   UNL     1       1.213   0.194  -0.028  1.00  0.00    -0.050 A 
ATOM     19  C   UNL     1       0.009   0.909  -0.031  1.00  0.00     0.006 A 
ATOM     20  C   UNL     1       1.179  -1.209  -0.054  1.00  0.00     0.012 A 
ATOM     21  C   UNL     1      -1.219   0.241  -0.057  1.00  0.00    -0.050 A 
ATOM     22  C   UNL     1      -2.498   1.026  -0.041  1.00  0.00     0.044 C 
ATOM     23  C   UNL     1      -1.231  -1.160  -0.093  1.00  0.00     0.012 A 
ENDBRANCH  10  16
ENDBRANCH   7   9
ENDBRANCH   5   7
ENDBRANCH   4   5
ENDBRANCH   3   4
ENDBRANCH   2   3
ENDBRANCH   1   2
BRANCH   1  24
ATOM     24  C   UNL     1       3.048  -7.098  -1.485  1.00  0.00     0.202 C 
BRANCH  24  25
ATOM     25  C   UNL     1       3.405  -5.689  -1.971  1.00  0.00     0.261 C 
BRANCH  25  26
ATOM     26  O   UNL     1       2.492  -5.216  -2.978  1.00  0.00    -0.460 OA
BRANCH  26  27
ATOM     27  C   UNL     1       3.037  -5.031  -4.203  1.00  0.00     0.338 C 
ATOM     28  O   UNL     1       4.213  -5.145  -4.519  1.00  0.00    -0.246 OA
BRANCH  27  29
ATOM     29  C   UNL     1       1.972  -4.833  -5.203  1.00  0.00     0.060 A 
ATOM     30  C   UNL     1       1.979  -5.668  -6.329  1.00  0.00     0.016 A 
ATOM     31  C   UNL     1       1.030  -3.809  -5.085  1.00  0.00     0.016 A 
ATOM     32  C   UNL     1       1.068  -5.456  -7.361  1.00  0.00     0.010 A 
ATOM     33  C   UNL     1       0.124  -3.591  -6.128  1.00  0.00     0.010 A 
ATOM     34  C   UNL     1       0.157  -4.394  -7.283  1.00  0.00    -0.014 A 
BRANCH  34  35
ATOM     35  C   UNL     1      -0.677  -4.055  -8.461  1.00  0.00     0.031 A 
ATOM     36  C   UNL     1      -0.235  -2.952  -9.381  1.00  0.00     0.074 A 
ATOM     37  C   UNL     1      -1.803  -4.741  -8.724  1.00  0.00     0.049 A 
ATOM     38  N   UNL     1      -0.836  -2.465 -10.436  1.00  0.00    -0.248 NA
ATOM     39  C   UNL     1       1.056  -2.316  -9.074  1.00  0.00     0.031 C 
ATOM     40  C   UNL     1      -2.309  -5.864  -7.937  1.00  0.00     0.029 A 
ATOM     41  N   UNL     1      -2.727  -4.587  -9.727  1.00  0.00    -0.354 N 
ATOM     42  C   UNL     1      -0.001  -1.465 -10.918  1.00  0.00     0.074 A 
ATOM     43  C   UNL     1       1.139  -1.399 -10.028  1.00  0.00     0.031 C 
ATOM     44  C   UNL     1      -3.461  -6.292  -8.482  1.00  0.00     0.029 A 
ATOM     45  C   UNL     1      -3.789  -5.452  -9.634  1.00  0.00     0.049 A 
ATOM     46  H   UNL     1      -2.637  -3.920 -10.445  1.00  0.00     0.167 HD
ATOM     47  C   UNL     1      -0.166  -0.680 -12.008  1.00  0.00     0.037 A 
ATOM     48  C   UNL     1      -4.909  -5.542 -10.377  1.00  0.00     0.037 A 
ATOM     49  C   UNL     1      -1.295  -0.751 -12.896  1.00  0.00     0.049 A 
ATOM     50  C   UNL     1      -5.111  -4.600 -11.534  1.00  0.00     0.074 A 
ATOM     51  C   UNL     1      -1.534  -0.013 -14.043  1.00  0.00     0.029 A 
ATOM     52  N   UNL     1      -2.375  -1.605 -12.736  1.00  0.00    -0.354 N 
ATOM     53  N   UNL     1      -4.310  -3.667 -11.987  1.00  0.00    -0.248 NA
ATOM     54  C   UNL     1      -6.375  -4.718 -12.278  1.00  0.00     0.031 C 
ATOM     55  C   UNL     1      -2.781  -0.386 -14.550  1.00  0.00     0.029 A 
ATOM     56  C   UNL     1      -3.298  -1.389 -13.745  1.00  0.00     0.049 A 
ATOM     57  H   UNL     1      -2.471  -2.266 -12.013  1.00  0.00     0.167 HD
ATOM     58  C   UNL     1      -4.961  -3.100 -13.075  1.00  0.00     0.074 A 
ATOM     59  C   UNL     1      -6.220  -3.799 -13.222  1.00  0.00     0.031 C 
ATOM     60  C   UNL     1      -4.549  -2.091 -13.880  1.00  0.00     0.037 A 
BRANCH  47  61
ATOM     61  C   UNL     1       0.891   0.341 -12.300  1.00  0.00     0.057 A 
ATOM     62  C   UNL     1       0.636   1.704 -12.106  1.00  0.00     0.134 A 
ATOM     63  C   UNL     1       2.131  -0.017 -12.842  1.00  0.00     0.134 A 
ATOM     64  F   UNL     1      -0.535   2.112 -11.595  1.00  0.00    -0.206 F 
ATOM     65  C   UNL     1       1.573   2.678 -12.455  1.00  0.00     0.040 A 
ATOM     66  C   UNL     1       3.084   0.946 -13.176  1.00  0.00     0.040 A 
ATOM     67  F   UNL     1       2.438  -1.308 -13.041  1.00  0.00    -0.206 F 
ATOM     68  C   UNL     1       2.803   2.298 -12.991  1.00  0.00     0.006 A 
ENDBRANCH  47  61
BRANCH  48  69
ATOM     69  C   UNL     1      -5.938  -6.554 -10.034  1.00  0.00     0.057 A 
ATOM     70  C   UNL     1      -6.719  -6.434  -8.878  1.00  0.00     0.134 A 
ATOM     71  C   UNL     1      -6.156  -7.670 -10.848  1.00  0.00     0.134 A 
ATOM     72  F   UNL     1      -6.558  -5.385  -8.058  1.00  0.00    -0.206 F 
ATOM     73  C   UNL     1      -7.668  -7.397  -8.533  1.00  0.00     0.040 A 
ATOM     74  C   UNL     1      -7.117  -8.631 -10.527  1.00  0.00     0.040 A 
ATOM     75  F   UNL     1      -5.456  -7.827 -11.981  1.00  0.00    -0.206 F 
ATOM     76  C   UNL     1      -7.870  -8.499  -9.361  1.00  0.00     0.006 A 
ENDBRANCH  48  69
BRANCH  60  77
ATOM     77  C   UNL     1      -5.452  -1.677 -15.003  1.00  0.00     0.057 A 
ATOM     78  C   UNL     1      -5.121  -1.971 -16.332  1.00  0.00     0.134 A 
ATOM     79  C   UNL     1      -6.598  -0.906 -14.776  1.00  0.00     0.134 A 
ATOM     80  F   UNL     1      -4.029  -2.697 -16.618  1.00  0.00    -0.206 F 
ATOM     81  C   UNL     1      -5.887  -1.496 -17.397  1.00  0.00     0.040 A 
ATOM     82  C   UNL     1      -7.384  -0.442 -15.832  1.00  0.00     0.040 A 
ATOM     83  F   UNL     1      -6.972  -0.598 -13.525  1.00  0.00    -0.206 F 
ATOM     84  C   UNL     1      -7.023  -0.728 -17.147  1.00  0.00     0.006 A 
ENDBRANCH  60  77
ENDBRANCH  34  35
ENDBRANCH  27  29
ENDBRANCH  26  27
ENDBRANCH  25  26
ENDBRANCH  24  25
ENDBRANCH   1  24
TORSDOF 16
