REMARK SMILES CC(C)CCNC(=O)[C@@H](C)Oc1ccc(N)cc1C(=O)OCCOCCOC(=O)c1ccc(-c2c3nc(c(-c4c(F)cccc4F)c4ccc([nH]4)c(-c4c(F)cccc4F)c4nc(c(-c5c(F)cccc5F)c5ccc2[nH]5)C=C4)C=C3)cc1
REMARK SMILES IDX 22 1 21 2 19 3 20 4 18 5 12 6 13 7 14 8 17 9 15 10 11 11
REMARK SMILES IDX 9 12 10 13 7 14 6 15 8 17 5 18 4 19 2 20 1 21 3 22 16 23
REMARK SMILES IDX 23 26 24 27 25 28 26 29 27 30 28 31 29 32 30 33 31 34 83 35
REMARK SMILES IDX 32 36 82 37 33 38 34 39 35 40 76 41 36 42 81 43 75 44 77 45
REMARK SMILES IDX 37 46 80 47 74 48 73 49 38 51 64 52 47 53 63 54 48 55 51 56
REMARK SMILES IDX 62 57 78 58 49 59 50 60 61 62 79 63 52 64 39 65 40 66 45 67
REMARK SMILES IDX 41 68 42 69 44 70 46 71 43 72 65 73 66 74 71 75 67 76 68 77
REMARK SMILES IDX 70 78 72 79 69 80 53 81 54 82 59 83 55 84 56 85 58 86 60 87
REMARK SMILES IDX 57 88
REMARK H PARENT 6 16 16 24 16 25 77 50 51 61
REMARK Flexibility Score: inf
ROOT
ATOM      1  C   UNL     1      -7.444  -3.221   1.060  1.00  0.00     0.261 C 
ENDROOT
BRANCH   1   2
ATOM      2  O   UNL     1      -6.035  -2.959   1.170  1.00  0.00    -0.460 OA
BRANCH   2   3
ATOM      3  C   UNL     1      -5.323  -3.361   0.093  1.00  0.00     0.342 C 
ATOM      4  O   UNL     1      -5.773  -3.966  -0.871  1.00  0.00    -0.246 OA
BRANCH   3   5
ATOM      5  C   UNL     1      -3.917  -2.898   0.100  1.00  0.00     0.104 A 
ATOM      6  C   UNL     1      -3.090  -2.799   1.222  1.00  0.00     0.135 A 
ATOM      7  C   UNL     1      -1.714  -2.841   1.010  1.00  0.00     0.049 A 
ATOM      8  C   UNL     1      -1.183  -2.671  -0.275  1.00  0.00     0.029 A 
ATOM      9  C   UNL     1      -3.377  -2.662  -1.180  1.00  0.00     0.045 A 
ATOM     10  C   UNL     1      -2.018  -2.445  -1.361  1.00  0.00     0.032 A 
BRANCH   6  11
ATOM     11  O   UNL     1      -3.577  -2.777   2.492  1.00  0.00    -0.480 OA
BRANCH  11  12
ATOM     12  C   UNL     1      -3.269  -1.615   3.281  1.00  0.00     0.258 C 
ATOM     13  C   UNL     1      -4.206  -0.441   2.977  1.00  0.00     0.064 C 
BRANCH  12  14
ATOM     14  C   UNL     1      -1.817  -1.159   3.672  1.00  0.00     0.260 C 
ATOM     15  N   UNL     1      -1.087  -0.235   2.976  1.00  0.00    -0.353 N 
ATOM     16  H   UNL     1      -0.337   0.165   3.474  1.00  0.00     0.163 HD
ATOM     17  O   UNL     1      -1.273  -1.633   4.678  1.00  0.00    -0.271 OA
BRANCH  15  18
ATOM     18  C   UNL     1      -1.248   0.246   1.620  1.00  0.00     0.116 C 
BRANCH  18  19
ATOM     19  C   UNL     1      -0.545   1.565   1.314  1.00  0.00     0.024 C 
BRANCH  19  20
ATOM     20  C   UNL     1       0.992   1.486   1.160  1.00  0.00    -0.016 C 
ATOM     21  C   UNL     1       1.458   0.425   0.157  1.00  0.00     0.007 C 
ATOM     22  C   UNL     1       1.518   2.855   0.715  1.00  0.00     0.007 C 
ENDBRANCH  19  20
ENDBRANCH  18  19
ENDBRANCH  15  18
ENDBRANCH  12  14
ENDBRANCH  11  12
ENDBRANCH   6  11
BRANCH  10  23
ATOM     23  N   UNL     1      -1.506  -2.173  -2.616  1.00  0.00    -0.399 N 
ATOM     24  H   UNL     1      -0.541  -2.020  -2.731  1.00  0.00     0.156 HD
ATOM     25  H   UNL     1      -2.107  -2.132  -3.394  1.00  0.00     0.156 HD
ENDBRANCH  10  23
ENDBRANCH   3   5
ENDBRANCH   2   3
ENDBRANCH   1   2
BRANCH   1  26
ATOM     26  C   UNL     1      -8.225  -1.936   0.781  1.00  0.00     0.202 C 
BRANCH  26  27
ATOM     27  O   UNL     1      -7.916  -1.262  -0.438  1.00  0.00    -0.374 OA
BRANCH  27  28
ATOM     28  C   UNL     1      -6.780  -0.396  -0.429  1.00  0.00     0.202 C 
BRANCH  28  29
ATOM     29  C   UNL     1      -7.001   0.989   0.190  1.00  0.00     0.261 C 
BRANCH  29  30
ATOM     30  O   UNL     1      -7.134   0.908   1.623  1.00  0.00    -0.460 OA
BRANCH  30  31
ATOM     31  C   UNL     1      -8.378   1.143   2.098  1.00  0.00     0.338 C 
ATOM     32  O   UNL     1      -9.355   1.525   1.462  1.00  0.00    -0.246 OA
BRANCH  31  33
ATOM     33  C   UNL     1      -8.476   0.683   3.495  1.00  0.00     0.060 A 
ATOM     34  C   UNL     1      -9.540  -0.169   3.823  1.00  0.00     0.016 A 
ATOM     35  C   UNL     1      -7.582   1.111   4.479  1.00  0.00     0.016 A 
ATOM     36  C   UNL     1      -9.747  -0.551   5.145  1.00  0.00     0.010 A 
ATOM     37  C   UNL     1      -7.796   0.732   5.808  1.00  0.00     0.010 A 
ATOM     38  C   UNL     1      -8.903  -0.066   6.152  1.00  0.00    -0.014 A 
BRANCH  38  39
ATOM     39  C   UNL     1      -9.279  -0.260   7.573  1.00  0.00     0.031 A 
ATOM     40  C   UNL     1      -9.944   0.871   8.308  1.00  0.00     0.074 A 
ATOM     41  C   UNL     1      -9.067  -1.435   8.191  1.00  0.00     0.049 A 
ATOM     42  N   UNL     1     -10.337   0.936   9.554  1.00  0.00    -0.248 NA
ATOM     43  C   UNL     1     -10.199   2.096   7.532  1.00  0.00     0.031 C 
ATOM     44  C   UNL     1      -8.465  -2.617   7.578  1.00  0.00     0.029 A 
ATOM     45  N   UNL     1      -9.333  -1.821   9.481  1.00  0.00    -0.354 N 
ATOM     46  C   UNL     1     -10.875   2.206   9.714  1.00  0.00     0.074 A 
ATOM     47  C   UNL     1     -10.733   2.890   8.448  1.00  0.00     0.031 C 
ATOM     48  C   UNL     1      -8.397  -3.596   8.496  1.00  0.00     0.029 A 
ATOM     49  C   UNL     1      -8.925  -3.100   9.766  1.00  0.00     0.049 A 
ATOM     50  H   UNL     1      -9.775  -1.237  10.138  1.00  0.00     0.167 HD
ATOM     51  C   UNL     1     -11.446   2.751  10.815  1.00  0.00     0.037 A 
ATOM     52  C   UNL     1      -8.955  -3.784  10.927  1.00  0.00     0.037 A 
ATOM     53  C   UNL     1     -11.595   2.067  12.072  1.00  0.00     0.049 A 
ATOM     54  C   UNL     1      -9.540  -3.135  12.154  1.00  0.00     0.074 A 
ATOM     55  C   UNL     1     -12.184   2.526  13.238  1.00  0.00     0.029 A 
ATOM     56  N   UNL     1     -11.144   0.782  12.330  1.00  0.00    -0.354 N 
ATOM     57  N   UNL     1     -10.072  -1.944  12.287  1.00  0.00    -0.248 NA
ATOM     58  C   UNL     1      -9.532  -3.929  13.391  1.00  0.00     0.031 C 
ATOM     59  C   UNL     1     -12.046   1.535  14.215  1.00  0.00     0.029 A 
ATOM     60  C   UNL     1     -11.418   0.440  13.644  1.00  0.00     0.049 A 
ATOM     61  H   UNL     1     -10.696   0.198  11.676  1.00  0.00     0.167 HD
ATOM     62  C   UNL     1     -10.486  -1.857  13.611  1.00  0.00     0.074 A 
ATOM     63  C   UNL     1     -10.154  -3.120  14.237  1.00  0.00     0.031 C 
ATOM     64  C   UNL     1     -11.088  -0.824  14.251  1.00  0.00     0.037 A 
BRANCH  51  65
ATOM     65  C   UNL     1     -11.931   4.167  10.713  1.00  0.00     0.057 A 
ATOM     66  C   UNL     1     -13.072   4.508   9.975  1.00  0.00     0.134 A 
ATOM     67  C   UNL     1     -11.265   5.197  11.387  1.00  0.00     0.134 A 
ATOM     68  F   UNL     1     -13.747   3.571   9.292  1.00  0.00    -0.206 F 
ATOM     69  C   UNL     1     -13.521   5.828   9.895  1.00  0.00     0.040 A 
ATOM     70  C   UNL     1     -11.719   6.516  11.336  1.00  0.00     0.040 A 
ATOM     71  F   UNL     1     -10.168   4.938  12.114  1.00  0.00    -0.206 F 
ATOM     72  C   UNL     1     -12.847   6.835  10.583  1.00  0.00     0.006 A 
ENDBRANCH  51  65
BRANCH  52  73
ATOM     73  C   UNL     1      -8.402  -5.160  10.992  1.00  0.00     0.057 A 
ATOM     74  C   UNL     1      -9.233  -6.270  11.175  1.00  0.00     0.134 A 
ATOM     75  C   UNL     1      -7.025  -5.394  10.893  1.00  0.00     0.134 A 
ATOM     76  F   UNL     1     -10.558  -6.107  11.303  1.00  0.00    -0.206 F 
ATOM     77  C   UNL     1      -8.715  -7.563  11.273  1.00  0.00     0.040 A 
ATOM     78  C   UNL     1      -6.495  -6.683  10.963  1.00  0.00     0.040 A 
ATOM     79  F   UNL     1      -6.175  -4.371  10.718  1.00  0.00    -0.206 F 
ATOM     80  C   UNL     1      -7.342  -7.772  11.161  1.00  0.00     0.006 A 
ENDBRANCH  52  73
BRANCH  64  81
ATOM     81  C   UNL     1     -11.461  -1.027  15.691  1.00  0.00     0.057 A 
ATOM     82  C   UNL     1     -10.498  -1.059  16.708  1.00  0.00     0.134 A 
ATOM     83  C   UNL     1     -12.804  -1.151  16.068  1.00  0.00     0.134 A 
ATOM     84  F   UNL     1      -9.194  -0.957  16.413  1.00  0.00    -0.206 F 
ATOM     85  C   UNL     1     -10.858  -1.228  18.046  1.00  0.00     0.040 A 
ATOM     86  C   UNL     1     -13.178  -1.293  17.405  1.00  0.00     0.040 A 
ATOM     87  F   UNL     1     -13.777  -1.118  15.145  1.00  0.00    -0.206 F 
ATOM     88  C   UNL     1     -12.202  -1.338  18.398  1.00  0.00     0.006 A 
ENDBRANCH  64  81
ENDBRANCH  38  39
ENDBRANCH  31  33
ENDBRANCH  30  31
ENDBRANCH  29  30
ENDBRANCH  28  29
ENDBRANCH  27  28
ENDBRANCH  26  27
ENDBRANCH   1  26
TORSDOF 21
