REMARK SMILES CSCC[NH2+]CC(C)(C)C(=O)OCCOCCOC(=O)c1ccc(-c2c3nc(c(-c4c(F)cccc4F)c4ccc([nH]4)c(-c4c(F)cccc4F)c4nc(c(-c5c(F)cccc5F)c5ccc2[nH]5)C=C4)C=C3)cc1
REMARK SMILES IDX 13 1 12 2 10 3 11 4 7 5 8 6 9 7 6 8 5 9 4 12 3 13 2 14 1 15
REMARK SMILES IDX 14 16 15 17 16 18 17 19 18 20 19 21 20 22 21 23 22 24 74 25
REMARK SMILES IDX 23 26 73 27 24 28 25 29 26 30 67 31 27 32 72 33 66 34 68 35
REMARK SMILES IDX 28 36 71 37 65 38 64 39 29 41 55 42 38 43 54 44 39 45 42 46
REMARK SMILES IDX 53 47 69 48 40 49 41 50 52 52 70 53 43 54 30 55 31 56 36 57
REMARK SMILES IDX 32 58 33 59 35 60 37 61 34 62 56 63 57 64 62 65 58 66 59 67
REMARK SMILES IDX 61 68 63 69 60 70 44 71 45 72 50 73 46 74 47 75 49 76 51 77
REMARK SMILES IDX 48 78
REMARK H PARENT 5 10 5 11 68 40 42 51
REMARK Flexibility Score: inf
ROOT
ATOM      1  C   UNL     1      -3.439  -1.113  -4.763  1.00  0.00     0.261 C 
ENDROOT
BRANCH   1   2
ATOM      2  O   UNL     1      -2.855   0.163  -4.472  1.00  0.00    -0.463 OA
BRANCH   2   3
ATOM      3  C   UNL     1      -1.909   0.103  -3.494  1.00  0.00     0.317 C 
ATOM      4  O   UNL     1      -1.701  -0.928  -2.870  1.00  0.00    -0.251 OA
BRANCH   3   5
ATOM      5  C   UNL     1      -1.194   1.444  -3.222  1.00  0.00     0.111 C 
ATOM      6  C   UNL     1      -1.540   1.837  -1.781  1.00  0.00     0.029 C 
ATOM      7  C   UNL     1      -1.735   2.563  -4.151  1.00  0.00     0.029 C 
BRANCH   5   8
ATOM      8  C   UNL     1       0.359   1.380  -3.448  1.00  0.00     0.278 C 
BRANCH   8   9
ATOM      9  N   UNL     1       1.277   0.689  -2.523  1.00  0.00    -0.345 N 
ATOM     10  H   UNL     1       2.234   0.840  -2.844  1.00  0.00     0.346 HD
ATOM     11  H   UNL     1       1.118   1.077  -1.594  1.00  0.00     0.346 HD
BRANCH   9  12
ATOM     12  C   UNL     1       1.037  -0.756  -2.438  1.00  0.00     0.271 C 
BRANCH  12  13
ATOM     13  C   UNL     1       2.101  -1.594  -1.718  1.00  0.00     0.130 C 
BRANCH  13  14
ATOM     14  S   UNL     1       1.722  -1.956   0.044  1.00  0.00    -0.160 SA
ATOM     15  C   UNL     1       1.445  -0.288   0.673  1.00  0.00     0.085 C 
ENDBRANCH  13  14
ENDBRANCH  12  13
ENDBRANCH   9  12
ENDBRANCH   8   9
ENDBRANCH   5   8
ENDBRANCH   3   5
ENDBRANCH   2   3
ENDBRANCH   1   2
BRANCH   1  16
ATOM     16  C   UNL     1      -2.766  -1.863  -5.925  1.00  0.00     0.202 C 
BRANCH  16  17
ATOM     17  O   UNL     1      -1.399  -1.621  -6.230  1.00  0.00    -0.374 OA
BRANCH  17  18
ATOM     18  C   UNL     1      -0.991  -0.325  -6.656  1.00  0.00     0.202 C 
BRANCH  18  19
ATOM     19  C   UNL     1      -1.700   0.372  -7.822  1.00  0.00     0.261 C 
BRANCH  19  20
ATOM     20  O   UNL     1      -3.098   0.592  -7.572  1.00  0.00    -0.460 OA
BRANCH  20  21
ATOM     21  C   UNL     1      -3.925  -0.022  -8.453  1.00  0.00     0.338 C 
ATOM     22  O   UNL     1      -3.615  -0.663  -9.441  1.00  0.00    -0.246 OA
BRANCH  21  23
ATOM     23  C   UNL     1      -5.301  -0.002  -7.933  1.00  0.00     0.060 A 
ATOM     24  C   UNL     1      -5.920  -1.236  -7.695  1.00  0.00     0.016 A 
ATOM     25  C   UNL     1      -6.000   1.194  -7.775  1.00  0.00     0.016 A 
ATOM     26  C   UNL     1      -7.261  -1.283  -7.337  1.00  0.00     0.010 A 
ATOM     27  C   UNL     1      -7.354   1.145  -7.438  1.00  0.00     0.010 A 
ATOM     28  C   UNL     1      -7.995  -0.095  -7.257  1.00  0.00    -0.014 A 
BRANCH  28  29
ATOM     29  C   UNL     1      -9.470  -0.172  -7.177  1.00  0.00     0.031 A 
ATOM     30  C   UNL     1     -10.266  -0.013  -8.442  1.00  0.00     0.074 A 
ATOM     31  C   UNL     1     -10.081  -0.431  -6.009  1.00  0.00     0.049 A 
ATOM     32  N   UNL     1     -11.562  -0.002  -8.611  1.00  0.00    -0.248 NA
ATOM     33  C   UNL     1      -9.494   0.157  -9.684  1.00  0.00     0.031 C 
ATOM     34  C   UNL     1      -9.404  -0.661  -4.734  1.00  0.00     0.029 A 
ATOM     35  N   UNL     1     -11.414  -0.538  -5.710  1.00  0.00    -0.354 N 
ATOM     36  C   UNL     1     -11.761   0.184  -9.973  1.00  0.00     0.074 A 
ATOM     37  C   UNL     1     -10.456   0.312 -10.582  1.00  0.00     0.031 C 
ATOM     38  C   UNL     1     -10.330  -0.867  -3.783  1.00  0.00     0.029 A 
ATOM     39  C   UNL     1     -11.660  -0.748  -4.377  1.00  0.00     0.049 A 
ATOM     40  H   UNL     1     -12.126  -0.471  -6.387  1.00  0.00     0.167 HD
ATOM     41  C   UNL     1     -12.930   0.234 -10.655  1.00  0.00     0.037 A 
ATOM     42  C   UNL     1     -12.830  -0.806  -3.712  1.00  0.00     0.037 A 
ATOM     43  C   UNL     1     -14.224   0.106 -10.039  1.00  0.00     0.049 A 
ATOM     44  C   UNL     1     -14.117  -0.665  -4.481  1.00  0.00     0.074 A 
ATOM     45  C   UNL     1     -15.470   0.135 -10.638  1.00  0.00     0.029 A 
ATOM     46  N   UNL     1     -14.436  -0.070  -8.679  1.00  0.00    -0.354 N 
ATOM     47  N   UNL     1     -14.299  -0.501  -5.770  1.00  0.00    -0.248 NA
ATOM     48  C   UNL     1     -15.363  -0.722  -3.703  1.00  0.00     0.031 C 
ATOM     49  C   UNL     1     -16.438   0.033  -9.633  1.00  0.00     0.029 A 
ATOM     50  C   UNL     1     -15.794  -0.124  -8.416  1.00  0.00     0.049 A 
ATOM     51  H   UNL     1     -13.725  -0.145  -8.002  1.00  0.00     0.167 HD
ATOM     52  C   UNL     1     -15.675  -0.465  -5.961  1.00  0.00     0.074 A 
ATOM     53  C   UNL     1     -16.280  -0.639  -4.656  1.00  0.00     0.031 C 
ATOM     54  C   UNL     1     -16.376  -0.306  -7.110  1.00  0.00     0.037 A 
BRANCH  41  55
ATOM     55  C   UNL     1     -12.860   0.467 -12.136  1.00  0.00     0.057 A 
ATOM     56  C   UNL     1     -12.383  -0.509 -13.021  1.00  0.00     0.134 A 
ATOM     57  C   UNL     1     -13.303   1.676 -12.687  1.00  0.00     0.134 A 
ATOM     58  F   UNL     1     -11.927  -1.682 -12.558  1.00  0.00    -0.206 F 
ATOM     59  C   UNL     1     -12.330  -0.282 -14.398  1.00  0.00     0.040 A 
ATOM     60  C   UNL     1     -13.281   1.903 -14.064  1.00  0.00     0.040 A 
ATOM     61  F   UNL     1     -13.773   2.654 -11.897  1.00  0.00    -0.206 F 
ATOM     62  C   UNL     1     -12.788   0.924 -14.923  1.00  0.00     0.006 A 
ENDBRANCH  41  55
BRANCH  42  63
ATOM     63  C   UNL     1     -12.840  -0.984  -2.238  1.00  0.00     0.057 A 
ATOM     64  C   UNL     1     -13.338  -2.151  -1.648  1.00  0.00     0.134 A 
ATOM     65  C   UNL     1     -12.371   0.020  -1.382  1.00  0.00     0.134 A 
ATOM     66  F   UNL     1     -13.821  -3.141  -2.414  1.00  0.00    -0.206 F 
ATOM     67  C   UNL     1     -13.391  -2.305  -0.262  1.00  0.00     0.040 A 
ATOM     68  C   UNL     1     -12.392  -0.131   0.005  1.00  0.00     0.040 A 
ATOM     69  F   UNL     1     -11.878   1.163  -1.883  1.00  0.00    -0.206 F 
ATOM     70  C   UNL     1     -12.911  -1.294   0.569  1.00  0.00     0.006 A 
ENDBRANCH  42  63
BRANCH  54  71
ATOM     71  C   UNL     1     -17.874  -0.355  -7.016  1.00  0.00     0.057 A 
ATOM     72  C   UNL     1     -18.616   0.677  -6.428  1.00  0.00     0.134 A 
ATOM     73  C   UNL     1     -18.585  -1.433  -7.560  1.00  0.00     0.134 A 
ATOM     74  F   UNL     1     -17.997   1.733  -5.879  1.00  0.00    -0.206 F 
ATOM     75  C   UNL     1     -20.010   0.626  -6.361  1.00  0.00     0.040 A 
ATOM     76  C   UNL     1     -19.979  -1.481  -7.526  1.00  0.00     0.040 A 
ATOM     77  F   UNL     1     -17.937  -2.450  -8.148  1.00  0.00    -0.206 F 
ATOM     78  C   UNL     1     -20.695  -0.452  -6.919  1.00  0.00     0.006 A 
ENDBRANCH  54  71
ENDBRANCH  28  29
ENDBRANCH  21  23
ENDBRANCH  20  21
ENDBRANCH  19  20
ENDBRANCH  18  19
ENDBRANCH  17  18
ENDBRANCH  16  17
ENDBRANCH   1  16
TORSDOF 19
