REMARK SMILES CC(C)CCn1cc(C(=O)OCCOCCOC(=O)c2ccc(-c3c4nc(c(-c5c(F)cccc5F)c5ccc([nH]5)c(-c5c(F)cccc5F)c5nc(c(-c6c(F)cccc6F)c6ccc3[nH]6)C=C5)C=C4)cc2)c(-c2ccoc2)n1
REMARK SMILES IDX 13 1 12 2 11 3 9 4 10 5 8 6 6 7 7 8 80 9 74 10 5 11 4 12
REMARK SMILES IDX 2 13 1 14 3 15 75 16 76 17 79 18 77 19 78 20 14 21 15 22
REMARK SMILES IDX 16 23 17 24 18 25 19 26 20 27 21 28 73 29 22 30 72 31 23 32
REMARK SMILES IDX 24 33 25 34 66 35 26 36 71 37 65 38 67 39 27 40 70 41 64 42
REMARK SMILES IDX 63 43 28 45 54 46 37 47 53 48 38 49 41 50 52 51 68 52 39 53
REMARK SMILES IDX 40 54 51 56 69 57 42 58 29 59 30 60 35 61 31 62 32 63 34 64
REMARK SMILES IDX 36 65 33 66 55 67 56 68 61 69 57 70 58 71 60 72 62 73 59 74
REMARK SMILES IDX 43 75 44 76 49 77 45 78 46 79 48 80 50 81 47 82
REMARK H PARENT 67 44 41 55
REMARK Flexibility Score: inf
ROOT
ATOM      1  C   UNL     1       0.753  -0.550   8.686  1.00  0.00     0.202 C 
ENDROOT
BRANCH   1   2
ATOM      2  C   UNL     1       1.700  -0.483   7.487  1.00  0.00     0.261 C 
BRANCH   2   3
ATOM      3  O   UNL     1       0.988  -0.499   6.240  1.00  0.00    -0.460 OA
BRANCH   3   4
ATOM      4  C   UNL     1       1.111  -1.643   5.509  1.00  0.00     0.342 C 
ATOM      5  O   UNL     1       1.874  -2.567   5.778  1.00  0.00    -0.246 OA
BRANCH   4   6
ATOM      6  C   UNL     1       0.162  -1.701   4.422  1.00  0.00     0.106 A 
ATOM      7  N   UNL     1      -1.025  -1.184   2.653  1.00  0.00    -0.271 N 
ATOM      8  C   UNL     1      -0.336  -0.636   3.695  1.00  0.00     0.125 A 
ATOM      9  N   UNL     1      -1.260  -2.499   2.820  1.00  0.00    -0.172 NA
ATOM     10  C   UNL     1      -0.525  -2.818   3.890  1.00  0.00     0.110 A 
BRANCH   7  11
ATOM     11  C   UNL     1      -1.480  -0.545   1.433  1.00  0.00     0.144 C 
BRANCH  11  12
ATOM     12  C   UNL     1      -0.873   0.829   1.120  1.00  0.00     0.027 C 
BRANCH  12  13
ATOM     13  C   UNL     1       0.667   0.869   0.992  1.00  0.00    -0.016 C 
ATOM     14  C   UNL     1       1.180   0.061  -0.197  1.00  0.00     0.007 C 
ATOM     15  C   UNL     1       1.139   2.321   0.902  1.00  0.00     0.007 C 
ENDBRANCH  12  13
ENDBRANCH  11  12
ENDBRANCH   7  11
BRANCH  10  16
ATOM     16  C   UNL     1      -0.582  -4.136   4.501  1.00  0.00     0.041 A 
ATOM     17  C   UNL     1       0.293  -5.216   4.258  1.00  0.00     0.052 A 
ATOM     18  C   UNL     1      -1.503  -4.576   5.423  1.00  0.00     0.205 A 
ATOM     19  C   UNL     1      -0.136  -6.237   5.077  1.00  0.00     0.195 A 
ATOM     20  O   UNL     1      -1.227  -5.853   5.793  1.00  0.00    -0.472 OA
ENDBRANCH  10  16
ENDBRANCH   4   6
ENDBRANCH   3   4
ENDBRANCH   2   3
ENDBRANCH   1   2
BRANCH   1  21
ATOM     21  O   UNL     1       0.023  -1.755   8.915  1.00  0.00    -0.374 OA
BRANCH  21  22
ATOM     22  C   UNL     1      -0.950  -2.200   7.980  1.00  0.00     0.202 C 
BRANCH  22  23
ATOM     23  C   UNL     1      -2.250  -1.424   7.823  1.00  0.00     0.261 C 
BRANCH  23  24
ATOM     24  O   UNL     1      -2.055  -0.029   7.691  1.00  0.00    -0.460 OA
BRANCH  24  25
ATOM     25  C   UNL     1      -2.164   0.625   8.870  1.00  0.00     0.338 C 
ATOM     26  O   UNL     1      -2.103   0.148   9.991  1.00  0.00    -0.246 OA
BRANCH  25  27
ATOM     27  C   UNL     1      -2.587   2.000   8.602  1.00  0.00     0.060 A 
ATOM     28  C   UNL     1      -2.875   2.771   9.729  1.00  0.00     0.016 A 
ATOM     29  C   UNL     1      -3.049   2.336   7.322  1.00  0.00     0.016 A 
ATOM     30  C   UNL     1      -3.856   3.725   9.616  1.00  0.00     0.010 A 
ATOM     31  C   UNL     1      -4.043   3.274   7.216  1.00  0.00     0.010 A 
ATOM     32  C   UNL     1      -4.497   3.883   8.382  1.00  0.00    -0.014 A 
BRANCH  32  33
ATOM     33  C   UNL     1      -5.558   4.857   8.291  1.00  0.00     0.031 A 
ATOM     34  C   UNL     1      -5.003   6.225   8.283  1.00  0.00     0.074 A 
ATOM     35  C   UNL     1      -6.857   4.532   8.156  1.00  0.00     0.049 A 
ATOM     36  N   UNL     1      -4.977   7.047   9.276  1.00  0.00    -0.248 NA
ATOM     37  C   UNL     1      -4.145   6.619   7.153  1.00  0.00     0.031 C 
ATOM     38  C   UNL     1      -7.455   3.219   7.913  1.00  0.00     0.029 A 
ATOM     39  N   UNL     1      -7.933   5.365   8.133  1.00  0.00    -0.354 N 
ATOM     40  C   UNL     1      -4.316   8.169   8.799  1.00  0.00     0.074 A 
ATOM     41  C   UNL     1      -3.616   7.752   7.616  1.00  0.00     0.031 C 
ATOM     42  C   UNL     1      -8.747   3.378   7.538  1.00  0.00     0.029 A 
ATOM     43  C   UNL     1      -9.102   4.782   7.647  1.00  0.00     0.049 A 
ATOM     44  H   UNL     1      -7.889   6.301   8.434  1.00  0.00     0.167 HD
ATOM     45  C   UNL     1      -4.671   9.406   9.235  1.00  0.00     0.037 A 
ATOM     46  C   UNL     1     -10.231   5.459   7.305  1.00  0.00     0.037 A 
ATOM     47  C   UNL     1      -5.452   9.314  10.445  1.00  0.00     0.049 A 
ATOM     48  C   UNL     1     -10.165   6.788   7.974  1.00  0.00     0.074 A 
ATOM     49  C   UNL     1      -5.228   8.815  11.713  1.00  0.00     0.029 A 
ATOM     50  N   UNL     1      -6.816   9.416  10.311  1.00  0.00    -0.354 N 
ATOM     51  N   UNL     1     -10.269   6.948   9.263  1.00  0.00    -0.248 NA
ATOM     52  C   UNL     1      -9.484   7.861   7.264  1.00  0.00     0.031 C 
ATOM     53  C   UNL     1      -6.463   8.219  12.102  1.00  0.00     0.029 A 
ATOM     54  C   UNL     1      -7.400   8.458  11.096  1.00  0.00     0.049 A 
ATOM     55  H   UNL     1      -7.292  10.068   9.747  1.00  0.00     0.167 HD
ATOM     56  C   UNL     1      -9.287   7.876   9.580  1.00  0.00     0.074 A 
ATOM     57  C   UNL     1      -8.881   8.454   8.299  1.00  0.00     0.031 C 
ATOM     58  C   UNL     1      -8.684   7.865  10.805  1.00  0.00     0.037 A 
BRANCH  45  59
ATOM     59  C   UNL     1      -4.709  10.626   8.347  1.00  0.00     0.057 A 
ATOM     60  C   UNL     1      -5.013  11.867   8.932  1.00  0.00     0.134 A 
ATOM     61  C   UNL     1      -4.764  10.600   6.937  1.00  0.00     0.134 A 
ATOM     62  F   UNL     1      -5.004  12.021  10.265  1.00  0.00    -0.206 F 
ATOM     63  C   UNL     1      -5.426  12.970   8.177  1.00  0.00     0.040 A 
ATOM     64  C   UNL     1      -5.123  11.710   6.172  1.00  0.00     0.040 A 
ATOM     65  F   UNL     1      -4.578   9.488   6.219  1.00  0.00    -0.206 F 
ATOM     66  C   UNL     1      -5.491  12.891   6.792  1.00  0.00     0.006 A 
ENDBRANCH  45  59
BRANCH  46  67
ATOM     67  C   UNL     1     -11.186   5.202   6.200  1.00  0.00     0.057 A 
ATOM     68  C   UNL     1     -12.424   5.862   6.143  1.00  0.00     0.134 A 
ATOM     69  C   UNL     1     -10.787   4.546   5.024  1.00  0.00     0.134 A 
ATOM     70  F   UNL     1     -12.877   6.554   7.200  1.00  0.00    -0.206 F 
ATOM     71  C   UNL     1     -13.203   5.896   4.977  1.00  0.00     0.040 A 
ATOM     72  C   UNL     1     -11.556   4.569   3.854  1.00  0.00     0.040 A 
ATOM     73  F   UNL     1      -9.593   3.943   4.939  1.00  0.00    -0.206 F 
ATOM     74  C   UNL     1     -12.761   5.260   3.822  1.00  0.00     0.006 A 
ENDBRANCH  46  67
BRANCH  58  75
ATOM     75  C   UNL     1      -9.297   7.011  11.882  1.00  0.00     0.057 A 
ATOM     76  C   UNL     1      -9.417   5.614  11.823  1.00  0.00     0.134 A 
ATOM     77  C   UNL     1      -9.655   7.626  13.086  1.00  0.00     0.134 A 
ATOM     78  F   UNL     1      -9.006   4.925  10.749  1.00  0.00    -0.206 F 
ATOM     79  C   UNL     1      -9.916   4.872  12.900  1.00  0.00     0.040 A 
ATOM     80  C   UNL     1     -10.118   6.895  14.181  1.00  0.00     0.040 A 
ATOM     81  F   UNL     1      -9.515   8.953  13.234  1.00  0.00    -0.206 F 
ATOM     82  C   UNL     1     -10.263   5.514  14.086  1.00  0.00     0.006 A 
ENDBRANCH  58  75
ENDBRANCH  32  33
ENDBRANCH  25  27
ENDBRANCH  24  25
ENDBRANCH  23  24
ENDBRANCH  22  23
ENDBRANCH  21  22
ENDBRANCH   1  21
TORSDOF 18
