REMARK SMILES Cc1ccccc1C(=O)Nc1ccc(OCC(=O)OCCOCCOC(=O)c2ccc(-c3c4nc(c(-c5c(F)cccc5F)c5ccc([nH]5)c(-c5c(F)cccc5F)c5nc(c(-c6c(F)cccc6F)c6ccc3[nH]6)C=C5)C=C4)cc2)c(-c2nc3ccccc3s2)c1
REMARK SMILES IDX 21 1 20 2 19 3 17 4 18 5 16 6 15 7 14 8 11 9 12 10 92 11
REMARK SMILES IDX 13 12 82 13 10 14 8 15 9 16 7 18 1 19 2 20 3 21 4 22 6 23
REMARK SMILES IDX 5 24 83 25 84 26 91 27 85 28 90 29 86 30 89 31 87 32 88 33
REMARK SMILES IDX 22 34 23 35 24 36 25 37 26 38 27 39 28 40 29 41 81 42 30 43
REMARK SMILES IDX 80 44 31 45 32 46 33 47 74 48 34 49 79 50 73 51 75 52 35 53
REMARK SMILES IDX 78 54 72 55 71 56 36 58 62 59 45 60 61 61 46 62 49 63 60 64
REMARK SMILES IDX 76 65 47 66 48 67 59 69 77 70 50 71 37 72 38 73 43 74 39 75
REMARK SMILES IDX 40 76 42 77 44 78 41 79 63 80 64 81 69 82 65 83 66 84 68 85
REMARK SMILES IDX 70 86 67 87 51 88 52 89 57 90 53 91 54 92 56 93 58 94 55 95
REMARK H PARENT 10 17 75 57 49 68
REMARK Flexibility Score: inf
ROOT
ATOM      1  C   UNL     1       3.179  -3.387   1.271  1.00  0.00     0.202 C 
ENDROOT
BRANCH   1   2
ATOM      2  C   UNL     1       4.405  -3.760   0.478  1.00  0.00     0.261 C 
BRANCH   2   3
ATOM      3  O   UNL     1       5.098  -2.626  -0.028  1.00  0.00    -0.461 OA
BRANCH   3   4
ATOM      4  C   UNL     1       6.004  -3.075  -0.954  1.00  0.00     0.344 C 
ATOM      5  O   UNL     1       6.238  -4.234  -1.188  1.00  0.00    -0.248 OA
BRANCH   4   6
ATOM      6  C   UNL     1       6.747  -1.939  -1.648  1.00  0.00     0.352 C 
BRANCH   6   7
ATOM      7  O   UNL     1       6.228  -0.737  -2.174  1.00  0.00    -0.481 OA
BRANCH   7   8
ATOM      8  C   UNL     1       5.160  -0.097  -1.609  1.00  0.00     0.130 A 
ATOM      9  C   UNL     1       3.300   1.942  -0.927  1.00  0.00     0.042 A 
ATOM     10  C   UNL     1       4.493   1.774  -0.211  1.00  0.00     0.030 A 
ATOM     11  C   UNL     1       3.010   1.030  -1.943  1.00  0.00     0.041 A 
ATOM     12  C   UNL     1       5.406   0.755  -0.527  1.00  0.00     0.049 A 
ATOM     13  C   UNL     1       3.936   0.001  -2.314  1.00  0.00     0.055 A 
BRANCH   9  14
ATOM     14  N   UNL     1       2.565   3.122  -0.671  1.00  0.00    -0.322 N 
ATOM     15  C   UNL     1       1.242   3.497  -0.811  1.00  0.00     0.255 C 
ATOM     16  O   UNL     1       0.963   4.688  -0.949  1.00  0.00    -0.269 OA
ATOM     17  H   UNL     1       3.125   3.845  -0.307  1.00  0.00     0.170 HD
BRANCH  15  18
ATOM     18  C   UNL     1       0.124   2.542  -0.612  1.00  0.00     0.043 A 
ATOM     19  C   UNL     1       0.883   1.990   1.747  1.00  0.00     0.045 C 
ATOM     20  C   UNL     1       0.048   1.719   0.516  1.00  0.00    -0.038 A 
ATOM     21  C   UNL     1      -0.967   0.745   0.574  1.00  0.00     0.004 A 
ATOM     22  C   UNL     1      -1.996   0.719  -0.359  1.00  0.00     0.000 A 
ATOM     23  C   UNL     1      -1.008   2.638  -1.433  1.00  0.00     0.014 A 
ATOM     24  C   UNL     1      -2.071   1.738  -1.297  1.00  0.00     0.001 A 
ENDBRANCH  15  18
ENDBRANCH   9  14
BRANCH  13  25
ATOM     25  C   UNL     1       3.493  -0.950  -3.372  1.00  0.00     0.128 A 
ATOM     26  N   UNL     1       2.476  -0.711  -4.179  1.00  0.00    -0.236 NA
ATOM     27  S   UNL     1       4.079  -2.566  -3.477  1.00  0.00    -0.114 S 
ATOM     28  C   UNL     1       2.021  -1.890  -4.753  1.00  0.00     0.082 A 
ATOM     29  C   UNL     1       2.742  -3.034  -4.425  1.00  0.00     0.055 A 
ATOM     30  C   UNL     1       0.884  -2.023  -5.569  1.00  0.00     0.030 A 
ATOM     31  C   UNL     1       2.351  -4.318  -4.841  1.00  0.00     0.021 A 
ATOM     32  C   UNL     1       0.474  -3.295  -5.985  1.00  0.00     0.002 A 
ATOM     33  C   UNL     1       1.193  -4.428  -5.615  1.00  0.00     0.002 A 
ENDBRANCH  13  25
ENDBRANCH   7   8
ENDBRANCH   6   7
ENDBRANCH   4   6
ENDBRANCH   3   4
ENDBRANCH   2   3
ENDBRANCH   1   2
BRANCH   1  34
ATOM     34  O   UNL     1       2.147  -3.165   0.332  1.00  0.00    -0.374 OA
BRANCH  34  35
ATOM     35  C   UNL     1       1.964  -1.821  -0.006  1.00  0.00     0.202 C 
BRANCH  35  36
ATOM     36  C   UNL     1       1.829  -0.986   1.234  1.00  0.00     0.261 C 
BRANCH  36  37
ATOM     37  O   UNL     1       0.792  -1.262   2.237  1.00  0.00    -0.460 OA
BRANCH  37  38
ATOM     38  C   UNL     1      -0.093  -2.213   2.621  1.00  0.00     0.338 C 
ATOM     39  O   UNL     1      -0.710  -2.091   3.675  1.00  0.00    -0.246 OA
BRANCH  38  40
ATOM     40  C   UNL     1      -0.308  -3.440   1.841  1.00  0.00     0.060 A 
ATOM     41  C   UNL     1      -0.081  -4.684   2.445  1.00  0.00     0.016 A 
ATOM     42  C   UNL     1      -0.613  -3.372   0.496  1.00  0.00     0.016 A 
ATOM     43  C   UNL     1       0.195  -5.798   1.648  1.00  0.00     0.010 A 
ATOM     44  C   UNL     1      -0.256  -4.455  -0.297  1.00  0.00     0.010 A 
ATOM     45  C   UNL     1       0.260  -5.636   0.261  1.00  0.00    -0.014 A 
BRANCH  45  46
ATOM     46  C   UNL     1       1.060  -6.524  -0.608  1.00  0.00     0.031 A 
ATOM     47  C   UNL     1       0.475  -7.161  -1.782  1.00  0.00     0.074 A 
ATOM     48  C   UNL     1       2.370  -6.774  -0.378  1.00  0.00     0.049 A 
ATOM     49  N   UNL     1       0.560  -8.433  -1.990  1.00  0.00    -0.248 NA
ATOM     50  C   UNL     1      -0.265  -6.439  -2.807  1.00  0.00     0.031 C 
ATOM     51  C   UNL     1       3.405  -7.364  -1.214  1.00  0.00     0.029 A 
ATOM     52  N   UNL     1       3.048  -6.460   0.772  1.00  0.00    -0.354 N 
ATOM     53  C   UNL     1       0.194  -8.612  -3.299  1.00  0.00     0.074 A 
ATOM     54  C   UNL     1      -0.519  -7.415  -3.678  1.00  0.00     0.031 C 
ATOM     55  C   UNL     1       4.544  -7.504  -0.500  1.00  0.00     0.029 A 
ATOM     56  C   UNL     1       4.305  -7.036   0.861  1.00  0.00     0.049 A 
ATOM     57  H   UNL     1       2.675  -5.876   1.472  1.00  0.00     0.167 HD
ATOM     58  C   UNL     1       0.798  -9.555  -4.075  1.00  0.00     0.037 A 
ATOM     59  C   UNL     1       4.668  -7.622   2.037  1.00  0.00     0.037 A 
ATOM     60  C   UNL     1       1.999 -10.088  -3.413  1.00  0.00     0.049 A 
ATOM     61  C   UNL     1       4.423  -9.092   1.858  1.00  0.00     0.074 A 
ATOM     62  C   UNL     1       3.352  -9.883  -3.648  1.00  0.00     0.029 A 
ATOM     63  N   UNL     1       1.924 -10.668  -2.143  1.00  0.00    -0.354 N 
ATOM     64  N   UNL     1       3.665  -9.533   0.891  1.00  0.00    -0.248 NA
ATOM     65  C   UNL     1       5.082 -10.170   2.588  1.00  0.00     0.031 C 
ATOM     66  C   UNL     1       4.082 -10.334  -2.517  1.00  0.00     0.029 A 
ATOM     67  C   UNL     1       3.180 -10.817  -1.582  1.00  0.00     0.049 A 
ATOM     68  H   UNL     1       1.084 -10.935  -1.704  1.00  0.00     0.167 HD
ATOM     69  C   UNL     1       3.856 -10.863   0.743  1.00  0.00     0.074 A 
ATOM     70  C   UNL     1       4.682 -11.243   1.877  1.00  0.00     0.031 C 
ATOM     71  C   UNL     1       3.372 -11.541  -0.331  1.00  0.00     0.037 A 
BRANCH  58  72
ATOM     72  C   UNL     1       0.496  -9.647  -5.558  1.00  0.00     0.057 A 
ATOM     73  C   UNL     1       1.439 -10.098  -6.494  1.00  0.00     0.134 A 
ATOM     74  C   UNL     1      -0.758  -9.313  -6.115  1.00  0.00     0.134 A 
ATOM     75  F   UNL     1       2.630 -10.579  -6.122  1.00  0.00    -0.206 F 
ATOM     76  C   UNL     1       1.198 -10.099  -7.876  1.00  0.00     0.040 A 
ATOM     77  C   UNL     1      -0.994  -9.249  -7.496  1.00  0.00     0.040 A 
ATOM     78  F   UNL     1      -1.822  -9.059  -5.338  1.00  0.00    -0.206 F 
ATOM     79  C   UNL     1      -0.007  -9.639  -8.385  1.00  0.00     0.006 A 
ENDBRANCH  58  72
BRANCH  59  80
ATOM     80  C   UNL     1       4.417  -6.737   3.220  1.00  0.00     0.057 A 
ATOM     81  C   UNL     1       5.303  -5.651   3.392  1.00  0.00     0.134 A 
ATOM     82  C   UNL     1       3.182  -6.623   3.870  1.00  0.00     0.134 A 
ATOM     83  F   UNL     1       6.500  -5.664   2.784  1.00  0.00    -0.206 F 
ATOM     84  C   UNL     1       4.933  -4.462   4.040  1.00  0.00     0.040 A 
ATOM     85  C   UNL     1       2.804  -5.437   4.533  1.00  0.00     0.040 A 
ATOM     86  F   UNL     1       2.264  -7.593   3.767  1.00  0.00    -0.206 F 
ATOM     87  C   UNL     1       3.661  -4.337   4.580  1.00  0.00     0.006 A 
ENDBRANCH  59  80
BRANCH  71  88
ATOM     88  C   UNL     1       3.107 -13.004  -0.299  1.00  0.00     0.057 A 
ATOM     89  C   UNL     1       2.697 -13.657   0.870  1.00  0.00     0.134 A 
ATOM     90  C   UNL     1       3.015 -13.740  -1.495  1.00  0.00     0.134 A 
ATOM     91  F   UNL     1       2.655 -13.025   2.053  1.00  0.00    -0.206 F 
ATOM     92  C   UNL     1       2.245 -14.974   0.856  1.00  0.00     0.040 A 
ATOM     93  C   UNL     1       2.509 -15.034  -1.527  1.00  0.00     0.040 A 
ATOM     94  F   UNL     1       3.366 -13.216  -2.679  1.00  0.00    -0.206 F 
ATOM     95  C   UNL     1       2.131 -15.659  -0.348  1.00  0.00     0.006 A 
ENDBRANCH  71  88
ENDBRANCH  45  46
ENDBRANCH  38  40
ENDBRANCH  37  38
ENDBRANCH  36  37
ENDBRANCH  35  36
ENDBRANCH  34  35
ENDBRANCH   1  34
TORSDOF 19
