REMARK SMILES Cc1ccc([C@H](C)NC(=O)N[C@](C)(C(=O)OCCOCCOC(=O)c2ccc(-c3c4nc(c(-c5c(F)cccc5F)c5ccc([nH]5)c(-c5c(F)cccc5F)c5nc(c(-c6c(F)cccc6F)c6ccc3[nH]6)C=C5)C=C4)cc2)C(F)(F)F)s1
REMARK SMILES IDX 18 1 17 2 16 3 14 4 15 5 12 6 13 7 11 8 8 9 9 10 10 12 6 14
REMARK SMILES IDX 7 15 5 16 1 17 2 18 3 19 83 20 4 21 79 22 80 23 81 24 82 25
REMARK SMILES IDX 19 26 20 27 21 28 22 29 23 30 24 31 25 32 26 33 78 34 27 35
REMARK SMILES IDX 77 36 28 37 29 38 30 39 71 40 31 41 76 42 70 43 72 44 32 45
REMARK SMILES IDX 75 46 69 47 68 48 33 50 59 51 42 52 58 53 43 54 46 55 57 56
REMARK SMILES IDX 73 57 44 58 45 59 56 61 74 62 47 63 34 64 35 65 40 66 36 67
REMARK SMILES IDX 37 68 39 69 41 70 38 71 60 72 61 73 66 74 62 75 63 76 65 77
REMARK SMILES IDX 67 78 64 79 48 80 49 81 54 82 50 83 51 84 53 85 55 86 52 87
REMARK H PARENT 8 11 11 13 72 49 46 60
REMARK Flexibility Score: inf
ROOT
ATOM      1  C   UNL     1      -3.949  -4.709  -2.499  1.00  0.00     0.202 C 
ENDROOT
BRANCH   1   2
ATOM      2  C   UNL     1      -4.961  -4.386  -1.392  1.00  0.00     0.261 C 
BRANCH   2   3
ATOM      3  O   UNL     1      -5.270  -2.986  -1.436  1.00  0.00    -0.461 OA
BRANCH   3   4
ATOM      4  C   UNL     1      -5.700  -2.425  -0.273  1.00  0.00     0.341 C 
ATOM      5  O   UNL     1      -6.258  -3.043   0.625  1.00  0.00    -0.249 OA
BRANCH   4   6
ATOM      6  C   UNL     1      -5.263  -0.953  -0.175  1.00  0.00     0.232 C 
ATOM      7  C   UNL     1      -5.358  -0.301  -1.576  1.00  0.00     0.058 C 
BRANCH   6   8
ATOM      8  N   UNL     1      -6.235  -0.294   0.738  1.00  0.00    -0.315 N 
ATOM      9  N   UNL     1      -5.561   1.954   1.082  1.00  0.00    -0.331 N 
ATOM     10  C   UNL     1      -6.361   0.911   1.288  1.00  0.00     0.316 C 
ATOM     11  H   UNL     1      -5.903   2.754   1.544  1.00  0.00     0.166 HD
ATOM     12  O   UNL     1      -7.317   1.081   2.048  1.00  0.00    -0.249 OA
ATOM     13  H   UNL     1      -6.966  -0.899   0.999  1.00  0.00     0.166 HD
BRANCH   9  14
ATOM     14  C   UNL     1      -4.325   2.255   0.369  1.00  0.00     0.121 C 
ATOM     15  C   UNL     1      -4.489   3.559  -0.412  1.00  0.00     0.037 C 
BRANCH  14  16
ATOM     16  C   UNL     1      -3.170   2.315   1.343  1.00  0.00     0.027 A 
ATOM     17  C   UNL     1       0.582   1.982   2.483  1.00  0.00     0.056 C 
ATOM     18  C   UNL     1      -0.886   2.171   2.309  1.00  0.00     0.002 A 
ATOM     19  C   UNL     1      -1.856   2.305   3.278  1.00  0.00     0.015 A 
ATOM     20  S   UNL     1      -1.558   2.220   0.741  1.00  0.00    -0.144 S 
ATOM     21  C   UNL     1      -3.167   2.395   2.724  1.00  0.00     0.018 A 
ENDBRANCH  14  16
ENDBRANCH   9  14
ENDBRANCH   6   8
BRANCH   6  22
ATOM     22  C   UNL     1      -3.833  -1.101   0.413  1.00  0.00     0.422 C 
ATOM     23  F   UNL     1      -2.926  -0.388  -0.296  1.00  0.00    -0.168 F 
ATOM     24  F   UNL     1      -3.766  -0.682   1.697  1.00  0.00    -0.168 F 
ATOM     25  F   UNL     1      -3.368  -2.374   0.413  1.00  0.00    -0.168 F 
ENDBRANCH   6  22
ENDBRANCH   4   6
ENDBRANCH   3   4
ENDBRANCH   2   3
ENDBRANCH   1   2
BRANCH   1  26
ATOM     26  O   UNL     1      -2.665  -4.089  -2.391  1.00  0.00    -0.374 OA
BRANCH  26  27
ATOM     27  C   UNL     1      -2.571  -2.682  -2.614  1.00  0.00     0.202 C 
BRANCH  27  28
ATOM     28  C   UNL     1      -2.658  -2.190  -4.062  1.00  0.00     0.261 C 
BRANCH  28  29
ATOM     29  O   UNL     1      -3.946  -2.452  -4.646  1.00  0.00    -0.460 OA
BRANCH  29  30
ATOM     30  C   UNL     1      -3.924  -3.316  -5.687  1.00  0.00     0.338 C 
ATOM     31  O   UNL     1      -2.941  -3.822  -6.215  1.00  0.00    -0.246 OA
BRANCH  30  32
ATOM     32  C   UNL     1      -5.291  -3.733  -6.031  1.00  0.00     0.060 A 
ATOM     33  C   UNL     1      -5.585  -5.100  -5.958  1.00  0.00     0.016 A 
ATOM     34  C   UNL     1      -6.232  -2.824  -6.519  1.00  0.00     0.016 A 
ATOM     35  C   UNL     1      -6.810  -5.574  -6.418  1.00  0.00     0.010 A 
ATOM     36  C   UNL     1      -7.457  -3.304  -6.993  1.00  0.00     0.010 A 
ATOM     37  C   UNL     1      -7.735  -4.684  -6.978  1.00  0.00    -0.014 A 
BRANCH  37  38
ATOM     38  C   UNL     1      -8.914  -5.220  -7.696  1.00  0.00     0.031 A 
ATOM     39  C   UNL     1      -8.859  -5.341  -9.194  1.00  0.00     0.074 A 
ATOM     40  C   UNL     1     -10.004  -5.628  -7.022  1.00  0.00     0.049 A 
ATOM     41  N   UNL     1      -9.783  -5.742 -10.029  1.00  0.00    -0.248 NA
ATOM     42  C   UNL     1      -7.590  -4.960  -9.835  1.00  0.00     0.031 C 
ATOM     43  C   UNL     1     -10.155  -5.607  -5.569  1.00  0.00     0.029 A 
ATOM     44  N   UNL     1     -11.194  -6.134  -7.479  1.00  0.00    -0.354 N 
ATOM     45  C   UNL     1      -9.212  -5.655 -11.292  1.00  0.00     0.074 A 
ATOM     46  C   UNL     1      -7.871  -5.139 -11.118  1.00  0.00     0.031 C 
ATOM     47  C   UNL     1     -11.377  -6.067  -5.252  1.00  0.00     0.029 A 
ATOM     48  C   UNL     1     -12.103  -6.384  -6.481  1.00  0.00     0.049 A 
ATOM     49  H   UNL     1     -11.378  -6.303  -8.431  1.00  0.00     0.167 HD
ATOM     50  C   UNL     1      -9.754  -5.982 -12.489  1.00  0.00     0.037 A 
ATOM     51  C   UNL     1     -13.383  -6.796  -6.557  1.00  0.00     0.037 A 
ATOM     52  C   UNL     1     -11.086  -6.498 -12.659  1.00  0.00     0.049 A 
ATOM     53  C   UNL     1     -13.988  -7.082  -7.905  1.00  0.00     0.074 A 
ATOM     54  C   UNL     1     -11.723  -6.872 -13.829  1.00  0.00     0.029 A 
ATOM     55  N   UNL     1     -11.988  -6.706 -11.627  1.00  0.00    -0.354 N 
ATOM     56  N   UNL     1     -13.436  -7.011  -9.093  1.00  0.00    -0.248 NA
ATOM     57  C   UNL     1     -15.396  -7.504  -7.925  1.00  0.00     0.031 C 
ATOM     58  C   UNL     1     -13.027  -7.264 -13.509  1.00  0.00     0.029 A 
ATOM     59  C   UNL     1     -13.186  -7.180 -12.135  1.00  0.00     0.049 A 
ATOM     60  H   UNL     1     -11.805  -6.540 -10.674  1.00  0.00     0.167 HD
ATOM     61  C   UNL     1     -14.416  -7.408  -9.994  1.00  0.00     0.074 A 
ATOM     62  C   UNL     1     -15.595  -7.726  -9.216  1.00  0.00     0.031 C 
ATOM     63  C   UNL     1     -14.346  -7.503 -11.345  1.00  0.00     0.037 A 
BRANCH  50  64
ATOM     64  C   UNL     1      -8.912  -5.765 -13.711  1.00  0.00     0.057 A 
ATOM     65  C   UNL     1      -7.820  -6.588 -14.014  1.00  0.00     0.134 A 
ATOM     66  C   UNL     1      -9.219  -4.739 -14.614  1.00  0.00     0.134 A 
ATOM     67  F   UNL     1      -7.464  -7.579 -13.183  1.00  0.00    -0.206 F 
ATOM     68  C   UNL     1      -7.050  -6.385 -15.161  1.00  0.00     0.040 A 
ATOM     69  C   UNL     1      -8.472  -4.541 -15.776  1.00  0.00     0.040 A 
ATOM     70  F   UNL     1     -10.254  -3.917 -14.384  1.00  0.00    -0.206 F 
ATOM     71  C   UNL     1      -7.380  -5.362 -16.049  1.00  0.00     0.006 A 
ENDBRANCH  50  64
BRANCH  51  72
ATOM     72  C   UNL     1     -14.189  -6.947  -5.320  1.00  0.00     0.057 A 
ATOM     73  C   UNL     1     -14.595  -8.207  -4.865  1.00  0.00     0.134 A 
ATOM     74  C   UNL     1     -14.591  -5.832  -4.575  1.00  0.00     0.134 A 
ATOM     75  F   UNL     1     -14.261  -9.311  -5.550  1.00  0.00    -0.206 F 
ATOM     76  C   UNL     1     -15.386  -8.352  -3.724  1.00  0.00     0.040 A 
ATOM     77  C   UNL     1     -15.361  -5.963  -3.418  1.00  0.00     0.040 A 
ATOM     78  F   UNL     1     -14.234  -4.597  -4.958  1.00  0.00    -0.206 F 
ATOM     79  C   UNL     1     -15.767  -7.227  -2.994  1.00  0.00     0.006 A 
ENDBRANCH  51  72
BRANCH  63  80
ATOM     80  C   UNL     1     -15.561  -8.008 -12.066  1.00  0.00     0.057 A 
ATOM     81  C   UNL     1     -16.707  -7.219 -12.227  1.00  0.00     0.134 A 
ATOM     82  C   UNL     1     -15.563  -9.281 -12.649  1.00  0.00     0.134 A 
ATOM     83  F   UNL     1     -16.772  -5.995 -11.682  1.00  0.00    -0.206 F 
ATOM     84  C   UNL     1     -17.820  -7.687 -12.928  1.00  0.00     0.040 A 
ATOM     85  C   UNL     1     -16.660  -9.750 -13.373  1.00  0.00     0.040 A 
ATOM     86  F   UNL     1     -14.493 -10.083 -12.539  1.00  0.00    -0.206 F 
ATOM     87  C   UNL     1     -17.794  -8.954 -13.510  1.00  0.00     0.006 A 
ENDBRANCH  63  80
ENDBRANCH  37  38
ENDBRANCH  30  32
ENDBRANCH  29  30
ENDBRANCH  28  29
ENDBRANCH  27  28
ENDBRANCH  26  27
ENDBRANCH   1  26
TORSDOF 18
