REMARK SMILES O=C(CCC(=O)N1Cc2[nH]cnc2C[C@H]1C(=O)NCc1ccccc1)OCCOCCOC(=O)c1ccc(-c2c3nc(c(-c4c(F)cccc4F)c4ccc([nH]4)c(-c4c(F)cccc4F)c4nc(c(-c5c(F)cccc5F)c5ccc2[nH]5)C=C4)C=C3)cc1
REMARK SMILES IDX 27 1 26 2 2 3 1 4 3 5 4 6 5 7 6 8 7 9 8 10 15 11 9 12 14 13
REMARK SMILES IDX 10 14 13 15 11 16 12 18 16 19 17 20 18 21 19 23 20 24 21 25
REMARK SMILES IDX 25 26 22 27 24 28 23 29 28 30 29 31 30 32 31 33 32 34 33 35
REMARK SMILES IDX 34 36 35 37 36 38 88 39 37 40 87 41 38 42 39 43 40 44 81 45
REMARK SMILES IDX 41 46 86 47 80 48 82 49 42 50 85 51 79 52 78 53 43 55 69 56
REMARK SMILES IDX 52 57 68 58 53 59 56 60 67 61 83 62 54 63 55 64 66 66 84 67
REMARK SMILES IDX 57 68 44 69 45 70 50 71 46 72 47 73 49 74 51 75 48 76 70 77
REMARK SMILES IDX 71 78 76 79 72 80 73 81 75 82 77 83 74 84 58 85 59 86 64 87
REMARK SMILES IDX 60 88 61 89 63 90 65 91 62 92
REMARK H PARENT 10 17 18 22 82 54 56 65
REMARK Flexibility Score: inf
ROOT
ATOM      1  C   UNL     1       5.165  -0.866   0.903  1.00  0.00     0.261 C 
ENDROOT
BRANCH   1   2
ATOM      2  O   UNL     1       3.792  -0.437   0.861  1.00  0.00    -0.463 OA
BRANCH   2   3
ATOM      3  C   UNL     1       2.789  -1.180   0.341  1.00  0.00     0.306 C 
ATOM      4  O   UNL     1       1.629  -0.980   0.692  1.00  0.00    -0.252 OA
BRANCH   3   5
ATOM      5  C   UNL     1       3.115  -2.138  -0.767  1.00  0.00     0.132 C 
BRANCH   5   6
ATOM      6  C   UNL     1       3.152  -1.431  -2.108  1.00  0.00     0.112 C 
BRANCH   6   7
ATOM      7  C   UNL     1       4.319  -0.475  -2.259  1.00  0.00     0.224 C 
ATOM      8  O   UNL     1       5.431  -0.958  -2.502  1.00  0.00    -0.275 OA
BRANCH   7   9
ATOM      9  N   UNL     1       4.144   0.897  -2.106  1.00  0.00    -0.324 N 
ATOM     10  C   UNL     1       5.319   1.716  -2.461  1.00  0.00     0.176 C 
ATOM     11  C   UNL     1       2.883   1.571  -1.618  1.00  0.00     0.180 C 
ATOM     12  C   UNL     1       5.261   3.030  -1.806  1.00  0.00     0.058 A 
ATOM     13  C   UNL     1       3.093   2.724  -0.608  1.00  0.00     0.093 C 
ATOM     14  N   UNL     1       6.146   4.061  -1.949  1.00  0.00    -0.347 N 
ATOM     15  C   UNL     1       4.291   3.502  -0.963  1.00  0.00     0.066 A 
ATOM     16  C   UNL     1       5.671   5.100  -1.191  1.00  0.00     0.197 A 
ATOM     17  H   UNL     1       6.967   4.059  -2.493  1.00  0.00     0.167 HD
ATOM     18  N   UNL     1       4.540   4.792  -0.591  1.00  0.00    -0.242 NA
BRANCH  11  19
ATOM     19  C   UNL     1       1.750   1.787  -2.654  1.00  0.00     0.243 C 
ATOM     20  O   UNL     1       0.963   0.862  -2.905  1.00  0.00    -0.273 OA
ATOM     21  N   UNL     1       1.556   2.890  -3.406  1.00  0.00    -0.350 N 
ATOM     22  H   UNL     1       0.685   2.907  -3.865  1.00  0.00     0.163 HD
BRANCH  21  23
ATOM     23  C   UNL     1       2.371   4.050  -3.670  1.00  0.00     0.151 C 
BRANCH  23  24
ATOM     24  C   UNL     1       3.378   3.833  -4.774  1.00  0.00    -0.029 A 
ATOM     25  C   UNL     1       3.525   2.611  -5.451  1.00  0.00     0.005 A 
ATOM     26  C   UNL     1       4.202   4.905  -5.148  1.00  0.00     0.005 A 
ATOM     27  C   UNL     1       4.487   2.456  -6.449  1.00  0.00     0.000 A 
ATOM     28  C   UNL     1       5.153   4.754  -6.158  1.00  0.00     0.000 A 
ATOM     29  C   UNL     1       5.301   3.528  -6.803  1.00  0.00     0.000 A 
ENDBRANCH  23  24
ENDBRANCH  21  23
ENDBRANCH  11  19
ENDBRANCH   7   9
ENDBRANCH   6   7
ENDBRANCH   5   6
ENDBRANCH   3   5
ENDBRANCH   2   3
ENDBRANCH   1   2
BRANCH   1  30
ATOM     30  C   UNL     1       5.723  -0.801   2.322  1.00  0.00     0.202 C 
BRANCH  30  31
ATOM     31  O   UNL     1       5.117  -1.623   3.318  1.00  0.00    -0.374 OA
BRANCH  31  32
ATOM     32  C   UNL     1       3.710  -1.577   3.534  1.00  0.00     0.202 C 
BRANCH  32  33
ATOM     33  C   UNL     1       3.073  -0.296   4.071  1.00  0.00     0.261 C 
BRANCH  33  34
ATOM     34  O   UNL     1       3.391   0.879   3.337  1.00  0.00    -0.460 OA
BRANCH  34  35
ATOM     35  C   UNL     1       4.398   1.582   3.888  1.00  0.00     0.338 C 
ATOM     36  O   UNL     1       5.217   1.174   4.711  1.00  0.00    -0.246 OA
BRANCH  35  37
ATOM     37  C   UNL     1       4.282   3.002   3.551  1.00  0.00     0.060 A 
ATOM     38  C   UNL     1       5.332   3.797   4.018  1.00  0.00     0.016 A 
ATOM     39  C   UNL     1       2.993   3.510   3.342  1.00  0.00     0.016 A 
ATOM     40  C   UNL     1       5.015   5.009   4.583  1.00  0.00     0.010 A 
ATOM     41  C   UNL     1       2.676   4.717   3.920  1.00  0.00     0.010 A 
ATOM     42  C   UNL     1       3.671   5.392   4.626  1.00  0.00    -0.014 A 
BRANCH  42  43
ATOM     43  C   UNL     1       3.338   6.517   5.471  1.00  0.00     0.031 A 
ATOM     44  C   UNL     1       3.599   7.837   4.874  1.00  0.00     0.074 A 
ATOM     45  C   UNL     1       2.750   6.377   6.673  1.00  0.00     0.049 A 
ATOM     46  N   UNL     1       4.394   8.760   5.303  1.00  0.00    -0.248 NA
ATOM     47  C   UNL     1       2.945   8.132   3.593  1.00  0.00     0.031 C 
ATOM     48  C   UNL     1       2.150   5.172   7.250  1.00  0.00     0.029 A 
ATOM     49  N   UNL     1       2.468   7.342   7.593  1.00  0.00    -0.354 N 
ATOM     50  C   UNL     1       4.199   9.834   4.446  1.00  0.00     0.074 A 
ATOM     51  C   UNL     1       3.410   9.353   3.341  1.00  0.00     0.031 C 
ATOM     52  C   UNL     1       1.397   5.526   8.317  1.00  0.00     0.029 A 
ATOM     53  C   UNL     1       1.554   6.953   8.558  1.00  0.00     0.049 A 
ATOM     54  H   UNL     1       2.878   8.237   7.574  1.00  0.00     0.167 HD
ATOM     55  C   UNL     1       4.494  11.103   4.826  1.00  0.00     0.037 A 
ATOM     56  C   UNL     1       0.914   7.766   9.432  1.00  0.00     0.037 A 
ATOM     57  C   UNL     1       5.442  11.143   5.908  1.00  0.00     0.049 A 
ATOM     58  C   UNL     1       1.658   9.048   9.501  1.00  0.00     0.074 A 
ATOM     59  C   UNL     1       6.708  10.625   6.109  1.00  0.00     0.029 A 
ATOM     60  N   UNL     1       5.008  11.539   7.148  1.00  0.00    -0.354 N 
ATOM     61  N   UNL     1       2.812   9.210  10.085  1.00  0.00    -0.248 NA
ATOM     62  C   UNL     1       1.272  10.112   8.584  1.00  0.00     0.031 C 
ATOM     63  C   UNL     1       6.769  10.306   7.497  1.00  0.00     0.029 A 
ATOM     64  C   UNL     1       5.541  10.659   8.055  1.00  0.00     0.049 A 
ATOM     65  H   UNL     1       4.426  12.307   7.349  1.00  0.00     0.167 HD
ATOM     66  C   UNL     1       3.470  10.156   9.313  1.00  0.00     0.074 A 
ATOM     67  C   UNL     1       2.433  10.762   8.486  1.00  0.00     0.031 C 
ATOM     68  C   UNL     1       4.831  10.165   9.211  1.00  0.00     0.037 A 
BRANCH  55  69
ATOM     69  C   UNL     1       3.637  12.276   4.439  1.00  0.00     0.057 A 
ATOM     70  C   UNL     1       4.109  13.578   4.655  1.00  0.00     0.134 A 
ATOM     71  C   UNL     1       2.264  12.173   4.125  1.00  0.00     0.134 A 
ATOM     72  F   UNL     1       5.388  13.797   4.997  1.00  0.00    -0.206 F 
ATOM     73  C   UNL     1       3.266  14.694   4.614  1.00  0.00     0.040 A 
ATOM     74  C   UNL     1       1.426  13.284   4.023  1.00  0.00     0.040 A 
ATOM     75  F   UNL     1       1.642  10.993   4.002  1.00  0.00    -0.206 F 
ATOM     76  C   UNL     1       1.920  14.549   4.297  1.00  0.00     0.006 A 
ENDBRANCH  55  69
BRANCH  56  77
ATOM     77  C   UNL     1      -0.425   7.604  10.042  1.00  0.00     0.057 A 
ATOM     78  C   UNL     1      -0.808   8.360  11.158  1.00  0.00     0.134 A 
ATOM     79  C   UNL     1      -1.452   6.885   9.404  1.00  0.00     0.134 A 
ATOM     80  F   UNL     1       0.086   9.120  11.807  1.00  0.00    -0.206 F 
ATOM     81  C   UNL     1      -2.134   8.409  11.607  1.00  0.00     0.040 A 
ATOM     82  C   UNL     1      -2.776   6.911   9.851  1.00  0.00     0.040 A 
ATOM     83  F   UNL     1      -1.225   6.201   8.274  1.00  0.00    -0.206 F 
ATOM     84  C   UNL     1      -3.124   7.686  10.949  1.00  0.00     0.006 A 
ENDBRANCH  56  77
BRANCH  68  85
ATOM     85  C   UNL     1       5.616   9.353  10.198  1.00  0.00     0.057 A 
ATOM     86  C   UNL     1       5.525   7.958  10.307  1.00  0.00     0.134 A 
ATOM     87  C   UNL     1       6.593   9.989  10.974  1.00  0.00     0.134 A 
ATOM     88  F   UNL     1       4.696   7.254   9.524  1.00  0.00    -0.206 F 
ATOM     89  C   UNL     1       6.331   7.237  11.193  1.00  0.00     0.040 A 
ATOM     90  C   UNL     1       7.427   9.276  11.837  1.00  0.00     0.040 A 
ATOM     91  F   UNL     1       6.779  11.315  10.875  1.00  0.00    -0.206 F 
ATOM     92  C   UNL     1       7.288   7.896  11.959  1.00  0.00     0.006 A 
ENDBRANCH  68  85
ENDBRANCH  42  43
ENDBRANCH  35  37
ENDBRANCH  34  35
ENDBRANCH  33  34
ENDBRANCH  32  33
ENDBRANCH  31  32
ENDBRANCH  30  31
ENDBRANCH   1  30
TORSDOF 20
