REMARK SMILES CC[C@@H](C)OC(=O)C[C@@H]1C(=O)NCCN1C(=O)[C@@H]1CCCC[C@@H]1C(=O)OCCOCCOC(=O)c1ccc(-c2c3nc(c(-c4c(F)cccc4F)c4ccc([nH]4)c(-c4c(F)cccc4F)c4nc(c(-c5c(F)cccc5F)c5ccc2[nH]5)C=C4)C=C3)cc1
REMARK SMILES IDX 27 1 26 2 24 3 25 4 23 5 18 6 19 7 20 8 22 9 21 10 16 11
REMARK SMILES IDX 17 12 15 13 9 14 10 15 11 16 12 17 14 18 13 19 8 21 6 22
REMARK SMILES IDX 7 23 5 24 3 25 4 26 2 27 1 28 28 29 29 30 30 31 31 32 32 33
REMARK SMILES IDX 33 34 34 35 35 36 36 37 88 38 37 39 87 40 38 41 39 42 40 43
REMARK SMILES IDX 81 44 41 45 86 46 80 47 82 48 42 49 85 50 79 51 78 52 43 54
REMARK SMILES IDX 69 55 52 56 68 57 53 58 56 59 67 60 83 61 54 62 55 63 66 65
REMARK SMILES IDX 84 66 57 67 44 68 45 69 50 70 46 71 47 72 49 73 51 74 48 75
REMARK SMILES IDX 70 76 71 77 76 78 72 79 73 80 75 81 77 82 74 83 58 84 59 85
REMARK SMILES IDX 64 86 60 87 61 88 63 89 65 90 62 91
REMARK H PARENT 12 20 82 53 56 64
REMARK Flexibility Score: inf
ROOT
ATOM      1  C   UNL     1      -3.810  -6.021  -2.975  1.00  0.00     0.261 C 
ENDROOT
BRANCH   1   2
ATOM      2  O   UNL     1      -3.658  -4.950  -2.036  1.00  0.00    -0.463 OA
BRANCH   2   3
ATOM      3  C   UNL     1      -2.631  -4.130  -2.344  1.00  0.00     0.309 C 
ATOM      4  O   UNL     1      -1.906  -4.299  -3.318  1.00  0.00    -0.252 OA
BRANCH   3   5
ATOM      5  C   UNL     1      -2.486  -2.928  -1.429  1.00  0.00     0.111 C 
ATOM      6  C   UNL     1      -1.107  -2.880  -0.769  1.00  0.00     0.093 C 
ATOM      7  C   UNL     1      -1.034  -3.280   0.705  1.00  0.00     0.014 C 
ATOM      8  C   UNL     1      -2.304  -3.519   1.518  1.00  0.00     0.001 C 
ATOM      9  C   UNL     1      -3.606  -2.625  -0.433  1.00  0.00     0.016 C 
ATOM     10  C   UNL     1      -3.610  -3.564   0.754  1.00  0.00     0.001 C 
BRANCH   6  11
ATOM     11  C   UNL     1       0.021  -3.324  -1.744  1.00  0.00     0.227 C 
ATOM     12  O   UNL     1       0.447  -2.444  -2.512  1.00  0.00    -0.275 OA
BRANCH  11  13
ATOM     13  N   UNL     1       0.504  -4.622  -1.867  1.00  0.00    -0.328 N 
ATOM     14  C   UNL     1       0.131  -5.814  -1.065  1.00  0.00     0.185 C 
ATOM     15  C   UNL     1      -0.141  -7.039  -1.977  1.00  0.00     0.243 C 
ATOM     16  O   UNL     1      -0.963  -7.909  -1.697  1.00  0.00    -0.273 OA
ATOM     17  N   UNL     1       0.735  -7.229  -3.019  1.00  0.00    -0.353 N 
ATOM     18  C   UNL     1       1.322  -4.848  -3.077  1.00  0.00     0.141 C 
ATOM     19  C   UNL     1       1.792  -6.284  -3.293  1.00  0.00     0.137 C 
ATOM     20  H   UNL     1       0.640  -8.025  -3.590  1.00  0.00     0.163 HD
BRANCH  14  21
ATOM     21  C   UNL     1       1.218  -6.270  -0.070  1.00  0.00     0.158 C 
BRANCH  21  22
ATOM     22  C   UNL     1       1.670  -5.256   0.948  1.00  0.00     0.308 C 
ATOM     23  O   UNL     1       1.524  -5.424   2.151  1.00  0.00    -0.252 OA
BRANCH  22  24
ATOM     24  O   UNL     1       2.250  -4.190   0.350  1.00  0.00    -0.463 OA
BRANCH  24  25
ATOM     25  C   UNL     1       2.746  -2.993   1.028  1.00  0.00     0.173 C 
ATOM     26  C   UNL     1       2.224  -2.733   2.438  1.00  0.00     0.053 C 
BRANCH  25  27
ATOM     27  C   UNL     1       2.426  -1.838   0.058  1.00  0.00     0.041 C 
ATOM     28  C   UNL     1       2.519  -0.418   0.580  1.00  0.00     0.008 C 
ENDBRANCH  25  27
ENDBRANCH  24  25
ENDBRANCH  22  24
ENDBRANCH  21  22
ENDBRANCH  14  21
ENDBRANCH  11  13
ENDBRANCH   6  11
ENDBRANCH   3   5
ENDBRANCH   2   3
ENDBRANCH   1   2
BRANCH   1  29
ATOM     29  C   UNL     1      -4.724  -5.700  -4.172  1.00  0.00     0.202 C 
BRANCH  29  30
ATOM     30  O   UNL     1      -4.497  -4.541  -4.959  1.00  0.00    -0.374 OA
BRANCH  30  31
ATOM     31  C   UNL     1      -4.721  -3.234  -4.439  1.00  0.00     0.202 C 
BRANCH  31  32
ATOM     32  C   UNL     1      -5.957  -2.916  -3.584  1.00  0.00     0.261 C 
BRANCH  32  33
ATOM     33  O   UNL     1      -6.115  -3.773  -2.442  1.00  0.00    -0.460 OA
BRANCH  33  34
ATOM     34  C   UNL     1      -7.274  -4.465  -2.410  1.00  0.00     0.338 C 
ATOM     35  O   UNL     1      -8.200  -4.394  -3.201  1.00  0.00    -0.246 OA
BRANCH  34  36
ATOM     36  C   UNL     1      -7.249  -5.491  -1.356  1.00  0.00     0.060 A 
ATOM     37  C   UNL     1      -7.304  -6.829  -1.766  1.00  0.00     0.016 A 
ATOM     38  C   UNL     1      -7.434  -5.143  -0.016  1.00  0.00     0.016 A 
ATOM     39  C   UNL     1      -7.654  -7.819  -0.857  1.00  0.00     0.010 A 
ATOM     40  C   UNL     1      -7.806  -6.138   0.895  1.00  0.00     0.010 A 
ATOM     41  C   UNL     1      -7.994  -7.461   0.453  1.00  0.00    -0.014 A 
BRANCH  41  42
ATOM     42  C   UNL     1      -8.833  -8.410   1.223  1.00  0.00     0.031 A 
ATOM     43  C   UNL     1     -10.332  -8.250   1.151  1.00  0.00     0.074 A 
ATOM     44  C   UNL     1      -8.292  -9.456   1.868  1.00  0.00     0.049 A 
ATOM     45  N   UNL     1     -11.274  -8.983   1.687  1.00  0.00    -0.248 NA
ATOM     46  C   UNL     1     -10.834  -7.116   0.356  1.00  0.00     0.031 C 
ATOM     47  C   UNL     1      -6.864  -9.755   1.946  1.00  0.00     0.029 A 
ATOM     48  N   UNL     1      -8.892 -10.471   2.567  1.00  0.00    -0.354 N 
ATOM     49  C   UNL     1     -12.473  -8.398   1.296  1.00  0.00     0.074 A 
ATOM     50  C   UNL     1     -12.144  -7.234   0.506  1.00  0.00     0.031 C 
ATOM     51  C   UNL     1      -6.697 -10.883   2.659  1.00  0.00     0.029 A 
ATOM     52  C   UNL     1      -8.003 -11.369   3.101  1.00  0.00     0.049 A 
ATOM     53  H   UNL     1      -9.868 -10.548   2.676  1.00  0.00     0.167 HD
ATOM     54  C   UNL     1     -13.739  -8.800   1.560  1.00  0.00     0.037 A 
ATOM     55  C   UNL     1      -8.225 -12.455   3.865  1.00  0.00     0.037 A 
ATOM     56  C   UNL     1     -14.069  -9.962   2.339  1.00  0.00     0.049 A 
ATOM     57  C   UNL     1      -9.639 -12.846   4.202  1.00  0.00     0.074 A 
ATOM     58  C   UNL     1     -15.319 -10.448   2.679  1.00  0.00     0.029 A 
ATOM     59  N   UNL     1     -13.137 -10.822   2.899  1.00  0.00    -0.354 N 
ATOM     60  N   UNL     1     -10.765 -12.284   3.832  1.00  0.00    -0.248 NA
ATOM     61  C   UNL     1      -9.813 -14.029   5.056  1.00  0.00     0.031 C 
ATOM     62  C   UNL     1     -15.142 -11.585   3.476  1.00  0.00     0.029 A 
ATOM     63  C   UNL     1     -13.783 -11.829   3.593  1.00  0.00     0.049 A 
ATOM     64  H   UNL     1     -12.160 -10.729   2.815  1.00  0.00     0.167 HD
ATOM     65  C   UNL     1     -11.778 -13.063   4.377  1.00  0.00     0.074 A 
ATOM     66  C   UNL     1     -11.134 -14.140   5.098  1.00  0.00     0.031 C 
ATOM     67  C   UNL     1     -13.122 -12.904   4.288  1.00  0.00     0.037 A 
BRANCH  54  68
ATOM     68  C   UNL     1     -14.855  -7.958   1.019  1.00  0.00     0.057 A 
ATOM     69  C   UNL     1     -15.182  -7.949  -0.344  1.00  0.00     0.134 A 
ATOM     70  C   UNL     1     -15.621  -7.156   1.873  1.00  0.00     0.134 A 
ATOM     71  F   UNL     1     -14.475  -8.680  -1.218  1.00  0.00    -0.206 F 
ATOM     72  C   UNL     1     -16.219  -7.156  -0.839  1.00  0.00     0.040 A 
ATOM     73  C   UNL     1     -16.675  -6.377   1.393  1.00  0.00     0.040 A 
ATOM     74  F   UNL     1     -15.360  -7.119   3.189  1.00  0.00    -0.206 F 
ATOM     75  C   UNL     1     -16.973  -6.371   0.032  1.00  0.00     0.006 A 
ENDBRANCH  54  68
BRANCH  55  76
ATOM     76  C   UNL     1      -7.080 -13.253   4.370  1.00  0.00     0.057 A 
ATOM     77  C   UNL     1      -6.833 -14.549   3.903  1.00  0.00     0.134 A 
ATOM     78  C   UNL     1      -6.221 -12.746   5.352  1.00  0.00     0.134 A 
ATOM     79  F   UNL     1      -7.635 -15.098   2.979  1.00  0.00    -0.206 F 
ATOM     80  C   UNL     1      -5.784 -15.319   4.407  1.00  0.00     0.040 A 
ATOM     81  C   UNL     1      -5.154 -13.495   5.849  1.00  0.00     0.040 A 
ATOM     82  F   UNL     1      -6.406 -11.510   5.841  1.00  0.00    -0.206 F 
ATOM     83  C   UNL     1      -4.938 -14.790   5.381  1.00  0.00     0.006 A 
ENDBRANCH  55  76
BRANCH  67  84
ATOM     84  C   UNL     1     -13.982 -13.944   4.940  1.00  0.00     0.057 A 
ATOM     85  C   UNL     1     -14.132 -14.017   6.330  1.00  0.00     0.134 A 
ATOM     86  C   UNL     1     -14.704 -14.858   4.161  1.00  0.00     0.134 A 
ATOM     87  F   UNL     1     -13.460 -13.176   7.131  1.00  0.00    -0.206 F 
ATOM     88  C   UNL     1     -14.950 -14.979   6.924  1.00  0.00     0.040 A 
ATOM     89  C   UNL     1     -15.543 -15.808   4.742  1.00  0.00     0.040 A 
ATOM     90  F   UNL     1     -14.613 -14.834   2.823  1.00  0.00    -0.206 F 
ATOM     91  C   UNL     1     -15.663 -15.874   6.129  1.00  0.00     0.006 A 
ENDBRANCH  67  84
ENDBRANCH  41  42
ENDBRANCH  34  36
ENDBRANCH  33  34
ENDBRANCH  32  33
ENDBRANCH  31  32
ENDBRANCH  30  31
ENDBRANCH  29  30
ENDBRANCH   1  29
TORSDOF 21
