REMARK SMILES C[C@@H]1[C@H](C(=O)OCCOCCOC(=O)c2ccc(-c3c4nc(c(-c5c(F)cccc5F)c5ccc([nH]5)c(-c5c(F)cccc5F)c5nc(c(-c6c(F)cccc6F)c6ccc3[nH]6)C=C5)C=C4)cc2)CC[N@@H+]1Cc1cnn(-c2ccccc2)c1
REMARK SMILES IDX 8 1 7 2 6 3 4 4 5 5 3 6 1 7 2 8 71 9 69 10 70 11 72 13 73 14
REMARK SMILES IDX 74 15 83 16 75 17 76 18 77 19 78 20 82 21 79 22 81 23 80 24
REMARK SMILES IDX 9 25 10 26 11 27 12 28 13 29 14 30 15 31 16 32 68 33 17 34
REMARK SMILES IDX 67 35 18 36 19 37 20 38 61 39 21 40 66 41 60 42 62 43 22 44
REMARK SMILES IDX 65 45 59 46 58 47 23 49 49 50 32 51 48 52 33 53 36 54 47 55
REMARK SMILES IDX 63 56 34 57 35 58 46 60 64 61 37 62 24 63 25 64 30 65 26 66
REMARK SMILES IDX 27 67 29 68 31 69 28 70 50 71 51 72 56 73 52 74 53 75 55 76
REMARK SMILES IDX 57 77 54 78 38 79 39 80 44 81 40 82 41 83 43 84 45 85 42 86
REMARK H PARENT 71 12 62 48 36 59
REMARK Flexibility Score: inf
ROOT
ATOM      1  C   UNL     1       2.557   4.304   0.382  1.00  0.00     0.202 C 
ENDROOT
BRANCH   1   2
ATOM      2  C   UNL     1       1.145   4.231   0.966  1.00  0.00     0.261 C 
BRANCH   2   3
ATOM      3  O   UNL     1       0.640   2.889   0.847  1.00  0.00    -0.463 OA
BRANCH   3   4
ATOM      4  C   UNL     1      -0.284   2.679  -0.114  1.00  0.00     0.315 C 
ATOM      5  O   UNL     1      -0.855   3.568  -0.735  1.00  0.00    -0.252 OA
BRANCH   4   6
ATOM      6  C   UNL     1      -0.584   1.218  -0.357  1.00  0.00     0.162 C 
ATOM      7  C   UNL     1       1.669   0.342   0.678  1.00  0.00     0.076 C 
ATOM      8  C   UNL     1       0.475   0.101  -0.239  1.00  0.00     0.195 C 
ATOM      9  N   UNL     1      -0.336  -1.100   0.054  1.00  0.00    -0.328 N 
ATOM     10  C   UNL     1      -1.729   0.734   0.511  1.00  0.00     0.083 C 
ATOM     11  C   UNL     1      -1.742  -0.749   0.209  1.00  0.00     0.263 C 
ATOM     12  H   UNL     1      -0.192  -1.640  -0.798  1.00  0.00     0.348 HD
BRANCH   9  13
ATOM     13  C   UNL     1       0.156  -2.204   0.863  1.00  0.00     0.302 C 
BRANCH  13  14
ATOM     14  C   UNL     1       0.351  -1.865   2.304  1.00  0.00     0.045 A 
ATOM     15  C   UNL     1      -0.600  -1.563   3.300  1.00  0.00     0.145 A 
ATOM     16  C   UNL     1       1.550  -1.807   2.989  1.00  0.00     0.124 A 
ATOM     17  N   UNL     1      -0.054  -1.328   4.495  1.00  0.00    -0.176 NA
ATOM     18  N   UNL     1       1.282  -1.395   4.272  1.00  0.00    -0.240 N 
BRANCH  18  19
ATOM     19  C   UNL     1       2.226  -1.086   5.282  1.00  0.00     0.065 A 
ATOM     20  C   UNL     1       1.834  -1.121   6.624  1.00  0.00     0.028 A 
ATOM     21  C   UNL     1       3.549  -0.764   4.948  1.00  0.00     0.028 A 
ATOM     22  C   UNL     1       2.774  -0.889   7.627  1.00  0.00     0.002 A 
ATOM     23  C   UNL     1       4.474  -0.513   5.960  1.00  0.00     0.002 A 
ATOM     24  C   UNL     1       4.091  -0.580   7.296  1.00  0.00     0.000 A 
ENDBRANCH  18  19
ENDBRANCH  13  14
ENDBRANCH   9  13
ENDBRANCH   4   6
ENDBRANCH   3   4
ENDBRANCH   2   3
ENDBRANCH   1   2
BRANCH   1  25
ATOM     25  O   UNL     1       2.637   4.306  -1.044  1.00  0.00    -0.374 OA
BRANCH  25  26
ATOM     26  C   UNL     1       2.698   3.038  -1.696  1.00  0.00     0.202 C 
BRANCH  26  27
ATOM     27  C   UNL     1       4.072   2.345  -1.714  1.00  0.00     0.261 C 
BRANCH  27  28
ATOM     28  O   UNL     1       4.583   2.065  -0.397  1.00  0.00    -0.460 OA
BRANCH  28  29
ATOM     29  C   UNL     1       5.504   2.948   0.058  1.00  0.00     0.338 C 
ATOM     30  O   UNL     1       6.009   3.872  -0.565  1.00  0.00    -0.246 OA
BRANCH  29  31
ATOM     31  C   UNL     1       5.712   2.766   1.509  1.00  0.00     0.060 A 
ATOM     32  C   UNL     1       5.673   3.906   2.323  1.00  0.00     0.016 A 
ATOM     33  C   UNL     1       5.996   1.519   2.065  1.00  0.00     0.016 A 
ATOM     34  C   UNL     1       5.962   3.813   3.687  1.00  0.00     0.010 A 
ATOM     35  C   UNL     1       6.295   1.433   3.431  1.00  0.00     0.010 A 
ATOM     36  C   UNL     1       6.308   2.580   4.252  1.00  0.00    -0.014 A 
BRANCH  36  37
ATOM     37  C   UNL     1       6.821   2.511   5.653  1.00  0.00     0.031 A 
ATOM     38  C   UNL     1       8.273   2.174   5.887  1.00  0.00     0.074 A 
ATOM     39  C   UNL     1       6.021   2.734   6.715  1.00  0.00     0.049 A 
ATOM     40  N   UNL     1       8.914   1.986   7.013  1.00  0.00    -0.248 NA
ATOM     41  C   UNL     1       9.108   2.007   4.687  1.00  0.00     0.031 C 
ATOM     42  C   UNL     1       4.598   3.065   6.655  1.00  0.00     0.029 A 
ATOM     43  N   UNL     1       6.293   2.681   8.064  1.00  0.00    -0.354 N 
ATOM     44  C   UNL     1      10.222   1.678   6.657  1.00  0.00     0.074 A 
ATOM     45  C   UNL     1      10.265   1.635   5.212  1.00  0.00     0.031 C 
ATOM     46  C   UNL     1       4.117   3.163   7.907  1.00  0.00     0.029 A 
ATOM     47  C   UNL     1       5.189   2.883   8.860  1.00  0.00     0.049 A 
ATOM     48  H   UNL     1       7.194   2.514   8.425  1.00  0.00     0.167 HD
ATOM     49  C   UNL     1      11.300   1.480   7.453  1.00  0.00     0.037 A 
ATOM     50  C   UNL     1       5.051   2.825  10.200  1.00  0.00     0.037 A 
ATOM     51  C   UNL     1      11.277   1.542   8.890  1.00  0.00     0.049 A 
ATOM     52  C   UNL     1       6.248   2.529  11.066  1.00  0.00     0.074 A 
ATOM     53  C   UNL     1      12.333   1.413   9.775  1.00  0.00     0.029 A 
ATOM     54  N   UNL     1      10.139   1.746   9.654  1.00  0.00    -0.354 N 
ATOM     55  N   UNL     1       7.489   2.295  10.715  1.00  0.00    -0.248 NA
ATOM     56  C   UNL     1       6.024   2.500  12.521  1.00  0.00     0.031 C 
ATOM     57  C   UNL     1      11.826   1.485  11.077  1.00  0.00     0.029 A 
ATOM     58  C   UNL     1      10.463   1.718  11.001  1.00  0.00     0.049 A 
ATOM     59  H   UNL     1       9.234   1.889   9.294  1.00  0.00     0.167 HD
ATOM     60  C   UNL     1       8.199   2.141  11.901  1.00  0.00     0.074 A 
ATOM     61  C   UNL     1       7.251   2.304  12.982  1.00  0.00     0.031 C 
ATOM     62  C   UNL     1       9.521   1.898  12.075  1.00  0.00     0.037 A 
BRANCH  49  63
ATOM     63  C   UNL     1      12.610   1.182   6.779  1.00  0.00     0.057 A 
ATOM     64  C   UNL     1      13.295   2.152   6.035  1.00  0.00     0.134 A 
ATOM     65  C   UNL     1      13.207  -0.079   6.901  1.00  0.00     0.134 A 
ATOM     66  F   UNL     1      12.773   3.377   5.870  1.00  0.00    -0.206 F 
ATOM     67  C   UNL     1      14.511   1.870   5.410  1.00  0.00     0.040 A 
ATOM     68  C   UNL     1      14.438  -0.363   6.307  1.00  0.00     0.040 A 
ATOM     69  F   UNL     1      12.610  -1.051   7.606  1.00  0.00    -0.206 F 
ATOM     70  C   UNL     1      15.089   0.610   5.551  1.00  0.00     0.006 A 
ENDBRANCH  49  63
BRANCH  50  71
ATOM     71  C   UNL     1       3.721   3.042  10.829  1.00  0.00     0.057 A 
ATOM     72  C   UNL     1       3.449   4.188  11.584  1.00  0.00     0.134 A 
ATOM     73  C   UNL     1       2.710   2.081  10.734  1.00  0.00     0.134 A 
ATOM     74  F   UNL     1       4.392   5.127  11.748  1.00  0.00    -0.206 F 
ATOM     75  C   UNL     1       2.225   4.362  12.233  1.00  0.00     0.040 A 
ATOM     76  C   UNL     1       1.470   2.255  11.351  1.00  0.00     0.040 A 
ATOM     77  F   UNL     1       2.921   0.947  10.055  1.00  0.00    -0.206 F 
ATOM     78  C   UNL     1       1.228   3.396  12.111  1.00  0.00     0.006 A 
ENDBRANCH  50  71
BRANCH  62  79
ATOM     79  C   UNL     1      10.043   1.854  13.484  1.00  0.00     0.057 A 
ATOM     80  C   UNL     1       9.754   0.797  14.356  1.00  0.00     0.134 A 
ATOM     81  C   UNL     1      10.884   2.869  13.960  1.00  0.00     0.134 A 
ATOM     82  F   UNL     1       8.945  -0.202  13.969  1.00  0.00    -0.206 F 
ATOM     83  C   UNL     1      10.264   0.762  15.655  1.00  0.00     0.040 A 
ATOM     84  C   UNL     1      11.424   2.831  15.246  1.00  0.00     0.040 A 
ATOM     85  F   UNL     1      11.210   3.908  13.175  1.00  0.00    -0.206 F 
ATOM     86  C   UNL     1      11.108   1.778  16.101  1.00  0.00     0.006 A 
ENDBRANCH  62  79
ENDBRANCH  36  37
ENDBRANCH  29  31
ENDBRANCH  28  29
ENDBRANCH  27  28
ENDBRANCH  26  27
ENDBRANCH  25  26
ENDBRANCH   1  25
TORSDOF 17
