REMARK SMILES O=C(OCCOCCOC(=O)[C@@H](Cc1ccc(F)cc1)NC(=O)c1ccn(C2CCCC2)n1)c1ccc(-c2c3nc(c(-c4c(F)cccc4F)c4ccc([nH]4)c(-c4c(F)cccc4F)c4nc(c(-c5c(F)cccc5F)c5ccc2[nH]5)C=C4)C=C3)cc1
REMARK SMILES IDX 7 1 6 2 5 3 4 4 3 5 2 6 1 7 34 8 35 9 87 10 36 11 86 12
REMARK SMILES IDX 37 13 38 14 39 15 80 16 40 17 85 18 79 19 81 20 41 21 84 22
REMARK SMILES IDX 78 23 77 24 42 26 68 27 51 28 67 29 52 30 55 31 66 32 82 33
REMARK SMILES IDX 53 34 54 35 65 37 83 38 56 39 43 40 44 41 49 42 45 43 46 44
REMARK SMILES IDX 48 45 50 46 47 47 69 48 70 49 75 50 71 51 72 52 74 53 76 54
REMARK SMILES IDX 73 55 57 56 58 57 63 58 59 59 60 60 62 61 64 62 61 63 8 64
REMARK SMILES IDX 9 65 10 66 11 67 12 68 13 69 14 70 15 71 20 72 16 73 19 74
REMARK SMILES IDX 17 75 18 76 21 77 22 78 23 80 24 81 25 82 33 83 26 84 27 85
REMARK SMILES IDX 28 86 29 87 32 88 30 89 31 90
REMARK H PARENT 81 25 55 36 21 79
REMARK Flexibility Score: inf
ROOT
ATOM      1  C   UNL     1       3.181   1.348   1.724  1.00  0.00     0.202 C 
ENDROOT
BRANCH   1   2
ATOM      2  O   UNL     1       4.409   0.677   1.398  1.00  0.00    -0.374 OA
BRANCH   2   3
ATOM      3  C   UNL     1       5.012   0.896   0.129  1.00  0.00     0.202 C 
BRANCH   3   4
ATOM      4  C   UNL     1       4.861  -0.181  -0.946  1.00  0.00     0.261 C 
BRANCH   4   5
ATOM      5  O   UNL     1       3.524  -0.349  -1.451  1.00  0.00    -0.460 OA
BRANCH   5   6
ATOM      6  C   UNL     1       2.428  -0.447  -0.670  1.00  0.00     0.338 C 
ATOM      7  O   UNL     1       1.408   0.191  -0.900  1.00  0.00    -0.246 OA
BRANCH   6   8
ATOM      8  C   UNL     1       2.346  -1.564   0.281  1.00  0.00     0.060 A 
ATOM      9  C   UNL     1       3.447  -2.334   0.626  1.00  0.00     0.016 A 
ATOM     10  C   UNL     1       1.047  -1.981   0.605  1.00  0.00     0.016 A 
ATOM     11  C   UNL     1       3.255  -3.661   0.859  1.00  0.00     0.010 A 
ATOM     12  C   UNL     1       0.847  -3.287   0.965  1.00  0.00     0.010 A 
ATOM     13  C   UNL     1       1.948  -4.134   0.934  1.00  0.00    -0.014 A 
BRANCH  13  14
ATOM     14  C   UNL     1       1.804  -5.557   1.098  1.00  0.00     0.031 A 
ATOM     15  C   UNL     1       2.480  -6.056   2.323  1.00  0.00     0.074 A 
ATOM     16  C   UNL     1       1.065  -6.258   0.222  1.00  0.00     0.049 A 
ATOM     17  N   UNL     1       3.375  -6.981   2.436  1.00  0.00    -0.248 NA
ATOM     18  C   UNL     1       2.270  -5.269   3.557  1.00  0.00     0.031 C 
ATOM     19  C   UNL     1       0.214  -5.758  -0.866  1.00  0.00     0.029 A 
ATOM     20  N   UNL     1       0.813  -7.586   0.217  1.00  0.00    -0.354 N 
ATOM     21  C   UNL     1       3.681  -7.028   3.793  1.00  0.00     0.074 A 
ATOM     22  C   UNL     1       3.123  -5.850   4.395  1.00  0.00     0.031 C 
ATOM     23  C   UNL     1      -0.652  -6.729  -1.229  1.00  0.00     0.029 A 
ATOM     24  C   UNL     1      -0.318  -7.938  -0.502  1.00  0.00     0.049 A 
ATOM     25  H   UNL     1       1.381  -8.242   0.682  1.00  0.00     0.167 HD
ATOM     26  C   UNL     1       4.141  -8.166   4.374  1.00  0.00     0.037 A 
ATOM     27  C   UNL     1      -0.986  -9.106  -0.344  1.00  0.00     0.037 A 
ATOM     28  C   UNL     1       4.806  -9.011   3.421  1.00  0.00     0.049 A 
ATOM     29  C   UNL     1      -0.047 -10.050   0.328  1.00  0.00     0.074 A 
ATOM     30  C   UNL     1       5.927  -8.859   2.627  1.00  0.00     0.029 A 
ATOM     31  N   UNL     1       4.108 -10.065   2.884  1.00  0.00    -0.354 N 
ATOM     32  N   UNL     1       1.049 -10.498  -0.225  1.00  0.00    -0.248 NA
ATOM     33  C   UNL     1      -0.077 -10.105   1.784  1.00  0.00     0.031 C 
ATOM     34  C   UNL     1       5.595  -9.491   1.395  1.00  0.00     0.029 A 
ATOM     35  C   UNL     1       4.318 -10.038   1.528  1.00  0.00     0.049 A 
ATOM     36  H   UNL     1       3.561 -10.717   3.378  1.00  0.00     0.167 HD
ATOM     37  C   UNL     1       1.986 -10.527   0.800  1.00  0.00     0.074 A 
ATOM     38  C   UNL     1       1.217 -10.327   2.027  1.00  0.00     0.031 C 
ATOM     39  C   UNL     1       3.325 -10.420   0.549  1.00  0.00     0.037 A 
BRANCH  26  40
ATOM     40  C   UNL     1       3.630  -8.646   5.707  1.00  0.00     0.057 A 
ATOM     41  C   UNL     1       2.410  -8.229   6.288  1.00  0.00     0.134 A 
ATOM     42  C   UNL     1       4.222  -9.767   6.308  1.00  0.00     0.134 A 
ATOM     43  F   UNL     1       1.668  -7.237   5.782  1.00  0.00    -0.206 F 
ATOM     44  C   UNL     1       1.821  -8.880   7.372  1.00  0.00     0.040 A 
ATOM     45  C   UNL     1       3.614 -10.459   7.362  1.00  0.00     0.040 A 
ATOM     46  F   UNL     1       5.372 -10.273   5.837  1.00  0.00    -0.206 F 
ATOM     47  C   UNL     1       2.406 -10.020   7.893  1.00  0.00     0.006 A 
ENDBRANCH  26  40
BRANCH  27  48
ATOM     48  C   UNL     1      -2.457  -9.272  -0.311  1.00  0.00     0.057 A 
ATOM     49  C   UNL     1      -3.322  -8.230   0.077  1.00  0.00     0.134 A 
ATOM     50  C   UNL     1      -3.034 -10.543  -0.414  1.00  0.00     0.134 A 
ATOM     51  F   UNL     1      -2.869  -6.987   0.290  1.00  0.00    -0.206 F 
ATOM     52  C   UNL     1      -4.677  -8.441   0.351  1.00  0.00     0.040 A 
ATOM     53  C   UNL     1      -4.388 -10.770  -0.131  1.00  0.00     0.040 A 
ATOM     54  F   UNL     1      -2.280 -11.605  -0.732  1.00  0.00    -0.206 F 
ATOM     55  C   UNL     1      -5.212  -9.719   0.261  1.00  0.00     0.006 A 
ENDBRANCH  27  48
BRANCH  39  56
ATOM     56  C   UNL     1       3.780 -10.438  -0.886  1.00  0.00     0.057 A 
ATOM     57  C   UNL     1       4.711 -11.400  -1.291  1.00  0.00     0.134 A 
ATOM     58  C   UNL     1       3.486  -9.418  -1.805  1.00  0.00     0.134 A 
ATOM     59  F   UNL     1       5.091 -12.369  -0.444  1.00  0.00    -0.206 F 
ATOM     60  C   UNL     1       5.325 -11.349  -2.546  1.00  0.00     0.040 A 
ATOM     61  C   UNL     1       4.067  -9.374  -3.076  1.00  0.00     0.040 A 
ATOM     62  F   UNL     1       2.688  -8.398  -1.470  1.00  0.00    -0.206 F 
ATOM     63  C   UNL     1       5.000 -10.337  -3.445  1.00  0.00     0.006 A 
ENDBRANCH  39  56
ENDBRANCH  13  14
ENDBRANCH   6   8
ENDBRANCH   5   6
ENDBRANCH   4   5
ENDBRANCH   3   4
ENDBRANCH   2   3
ENDBRANCH   1   2
BRANCH   1  64
ATOM     64  C   UNL     1       3.099   2.876   1.676  1.00  0.00     0.261 C 
BRANCH  64  65
ATOM     65  O   UNL     1       3.284   3.366   0.336  1.00  0.00    -0.462 OA
BRANCH  65  66
ATOM     66  C   UNL     1       4.425   4.065   0.137  1.00  0.00     0.329 C 
ATOM     67  O   UNL     1       5.169   4.439   1.039  1.00  0.00    -0.250 OA
BRANCH  66  68
ATOM     68  C   UNL     1       4.749   4.333  -1.341  1.00  0.00     0.197 C 
BRANCH  68  69
ATOM     69  C   UNL     1       4.121   3.519  -2.490  1.00  0.00     0.072 C 
BRANCH  69  70
ATOM     70  C   UNL     1       2.625   3.433  -2.642  1.00  0.00    -0.045 A 
ATOM     71  C   UNL     1       2.044   2.188  -2.925  1.00  0.00     0.007 A 
ATOM     72  C   UNL     1       1.783   4.545  -2.563  1.00  0.00     0.007 A 
ATOM     73  C   UNL     1       0.657   2.031  -2.978  1.00  0.00     0.039 A 
ATOM     74  C   UNL     1       0.395   4.392  -2.616  1.00  0.00     0.039 A 
ATOM     75  C   UNL     1      -0.157   3.131  -2.790  1.00  0.00     0.123 A 
ATOM     76  F   UNL     1      -1.487   2.981  -2.785  1.00  0.00    -0.207 F 
ENDBRANCH  69  70
ENDBRANCH  68  69
BRANCH  68  77
ATOM     77  N   UNL     1       4.684   5.772  -1.549  1.00  0.00    -0.337 N 
ATOM     78  C   UNL     1       5.700   6.690  -1.423  1.00  0.00     0.272 C 
ATOM     79  H   UNL     1       3.807   6.131  -1.813  1.00  0.00     0.164 HD
ATOM     80  O   UNL     1       5.382   7.869  -1.321  1.00  0.00    -0.267 OA
BRANCH  78  81
ATOM     81  C   UNL     1       7.091   6.220  -1.410  1.00  0.00     0.150 A 
ATOM     82  C   UNL     1       7.734   5.273  -2.258  1.00  0.00     0.056 A 
ATOM     83  N   UNL     1       7.963   6.705  -0.513  1.00  0.00    -0.167 NA
ATOM     84  C   UNL     1       9.029   5.190  -1.806  1.00  0.00     0.110 A 
ATOM     85  N   UNL     1       9.122   6.091  -0.786  1.00  0.00    -0.269 N 
BRANCH  85  86
ATOM     86  C   UNL     1      10.318   6.479  -0.072  1.00  0.00     0.107 C 
ATOM     87  C   UNL     1      10.577   7.985  -0.112  1.00  0.00     0.027 C 
ATOM     88  C   UNL     1      10.283   6.173   1.424  1.00  0.00     0.027 C 
ATOM     89  C   UNL     1      11.594   8.202   0.995  1.00  0.00     0.002 C 
ATOM     90  C   UNL     1      11.307   7.124   2.041  1.00  0.00     0.002 C 
ENDBRANCH  85  86
ENDBRANCH  78  81
ENDBRANCH  68  77
ENDBRANCH  66  68
ENDBRANCH  65  66
ENDBRANCH  64  65
ENDBRANCH   1  64
TORSDOF 19
