REMARK SMILES O=C(OCCOCCOC(=O)[C@H](CCO)NC(=O)c1cccc(C(F)(F)F)c1F)c1ccc(-c2c3nc(c(-c4c(F)cccc4F)c4ccc([nH]4)c(-c4c(F)cccc4F)c4nc(c(-c5c(F)cccc5F)c5ccc2[nH]5)C=C4)C=C3)cc1
REMARK SMILES IDX 7 1 6 2 5 3 4 4 3 5 2 6 1 7 30 8 31 9 83 10 32 11 82 12
REMARK SMILES IDX 33 13 34 14 35 15 76 16 36 17 81 18 75 19 77 20 37 21 80 22
REMARK SMILES IDX 74 23 73 24 38 26 64 27 47 28 63 29 48 30 51 31 62 32 78 33
REMARK SMILES IDX 49 34 50 35 61 37 79 38 52 39 39 40 40 41 45 42 41 43 42 44
REMARK SMILES IDX 44 45 46 46 43 47 65 48 66 49 71 50 67 51 68 52 70 53 72 54
REMARK SMILES IDX 69 55 53 56 54 57 59 58 55 59 56 60 58 61 60 62 57 63 8 64
REMARK SMILES IDX 9 65 10 66 11 67 12 68 16 69 17 70 18 72 19 73 20 74 28 75
REMARK SMILES IDX 21 76 23 77 29 78 22 79 24 80 25 81 26 82 27 83 13 84 14 85
REMARK SMILES IDX 15 86
REMARK H PARENT 77 25 51 36 16 71 15 87
REMARK Flexibility Score: inf
ROOT
ATOM      1  C   UNL     1       4.882  -4.061  -2.264  1.00  0.00     0.202 C 
ENDROOT
BRANCH   1   2
ATOM      2  O   UNL     1       4.231  -2.888  -1.754  1.00  0.00    -0.374 OA
BRANCH   2   3
ATOM      3  C   UNL     1       5.102  -1.865  -1.272  1.00  0.00     0.202 C 
BRANCH   3   4
ATOM      4  C   UNL     1       5.441  -1.994   0.215  1.00  0.00     0.261 C 
BRANCH   4   5
ATOM      5  O   UNL     1       6.084  -3.251   0.476  1.00  0.00    -0.460 OA
BRANCH   5   6
ATOM      6  C   UNL     1       5.555  -4.390   0.978  1.00  0.00     0.338 C 
ATOM      7  O   UNL     1       6.305  -5.348   1.161  1.00  0.00    -0.246 OA
BRANCH   6   8
ATOM      8  C   UNL     1       4.113  -4.564   1.341  1.00  0.00     0.060 A 
ATOM      9  C   UNL     1       3.051  -3.829   0.812  1.00  0.00     0.016 A 
ATOM     10  C   UNL     1       3.802  -5.608   2.232  1.00  0.00     0.016 A 
ATOM     11  C   UNL     1       1.738  -4.074   1.181  1.00  0.00     0.010 A 
ATOM     12  C   UNL     1       2.480  -5.878   2.599  1.00  0.00     0.010 A 
ATOM     13  C   UNL     1       1.448  -5.089   2.085  1.00  0.00    -0.014 A 
BRANCH  13  14
ATOM     14  C   UNL     1       0.062  -5.173   2.569  1.00  0.00     0.031 A 
ATOM     15  C   UNL     1      -0.268  -4.504   3.866  1.00  0.00     0.074 A 
ATOM     16  C   UNL     1      -0.894  -5.653   1.755  1.00  0.00     0.049 A 
ATOM     17  N   UNL     1      -1.421  -4.383   4.464  1.00  0.00    -0.248 NA
ATOM     18  C   UNL     1       0.851  -3.854   4.571  1.00  0.00     0.031 C 
ATOM     19  C   UNL     1      -0.661  -6.181   0.409  1.00  0.00     0.029 A 
ATOM     20  N   UNL     1      -2.251  -5.722   1.914  1.00  0.00    -0.354 N 
ATOM     21  C   UNL     1      -1.165  -3.656   5.618  1.00  0.00     0.074 A 
ATOM     22  C   UNL     1       0.249  -3.364   5.643  1.00  0.00     0.031 C 
ATOM     23  C   UNL     1      -1.844  -6.485  -0.150  1.00  0.00     0.029 A 
ATOM     24  C   UNL     1      -2.905  -6.226   0.817  1.00  0.00     0.049 A 
ATOM     25  H   UNL     1      -2.713  -5.437   2.735  1.00  0.00     0.167 HD
ATOM     26  C   UNL     1      -2.043  -3.275   6.573  1.00  0.00     0.037 A 
ATOM     27  C   UNL     1      -4.218  -6.461   0.632  1.00  0.00     0.037 A 
ATOM     28  C   UNL     1      -3.441  -3.598   6.528  1.00  0.00     0.049 A 
ATOM     29  C   UNL     1      -5.160  -6.122   1.754  1.00  0.00     0.074 A 
ATOM     30  C   UNL     1      -4.412  -3.387   7.488  1.00  0.00     0.029 A 
ATOM     31  N   UNL     1      -4.065  -4.207   5.446  1.00  0.00    -0.354 N 
ATOM     32  N   UNL     1      -4.899  -5.537   2.900  1.00  0.00    -0.248 NA
ATOM     33  C   UNL     1      -6.570  -6.489   1.572  1.00  0.00     0.031 C 
ATOM     34  C   UNL     1      -5.620  -3.896   6.997  1.00  0.00     0.029 A 
ATOM     35  C   UNL     1      -5.409  -4.383   5.714  1.00  0.00     0.049 A 
ATOM     36  H   UNL     1      -3.616  -4.472   4.611  1.00  0.00     0.167 HD
ATOM     37  C   UNL     1      -6.108  -5.458   3.574  1.00  0.00     0.074 A 
ATOM     38  C   UNL     1      -7.109  -6.038   2.698  1.00  0.00     0.031 C 
ATOM     39  C   UNL     1      -6.370  -4.960   4.807  1.00  0.00     0.037 A 
BRANCH  26  40
ATOM     40  C   UNL     1      -1.483  -2.546   7.755  1.00  0.00     0.057 A 
ATOM     41  C   UNL     1      -1.310  -3.207   8.977  1.00  0.00     0.134 A 
ATOM     42  C   UNL     1      -1.068  -1.210   7.677  1.00  0.00     0.134 A 
ATOM     43  F   UNL     1      -1.673  -4.491   9.114  1.00  0.00    -0.206 F 
ATOM     44  C   UNL     1      -0.744  -2.566  10.080  1.00  0.00     0.040 A 
ATOM     45  C   UNL     1      -0.482  -0.564   8.768  1.00  0.00     0.040 A 
ATOM     46  F   UNL     1      -1.173  -0.532   6.524  1.00  0.00    -0.206 F 
ATOM     47  C   UNL     1      -0.321  -1.243   9.975  1.00  0.00     0.006 A 
ENDBRANCH  26  40
BRANCH  27  48
ATOM     48  C   UNL     1      -4.693  -7.064  -0.639  1.00  0.00     0.057 A 
ATOM     49  C   UNL     1      -4.339  -8.371  -1.001  1.00  0.00     0.134 A 
ATOM     50  C   UNL     1      -5.487  -6.344  -1.539  1.00  0.00     0.134 A 
ATOM     51  F   UNL     1      -3.580  -9.117  -0.184  1.00  0.00    -0.206 F 
ATOM     52  C   UNL     1      -4.732  -8.930  -2.218  1.00  0.00     0.040 A 
ATOM     53  C   UNL     1      -5.909  -6.900  -2.750  1.00  0.00     0.040 A 
ATOM     54  F   UNL     1      -5.877  -5.095  -1.246  1.00  0.00    -0.206 F 
ATOM     55  C   UNL     1      -5.523  -8.194  -3.096  1.00  0.00     0.006 A 
ENDBRANCH  27  48
BRANCH  39  56
ATOM     56  C   UNL     1      -7.793  -5.003   5.271  1.00  0.00     0.057 A 
ATOM     57  C   UNL     1      -8.550  -3.828   5.347  1.00  0.00     0.134 A 
ATOM     58  C   UNL     1      -8.379  -6.191   5.723  1.00  0.00     0.134 A 
ATOM     59  F   UNL     1      -8.036  -2.659   4.938  1.00  0.00    -0.206 F 
ATOM     60  C   UNL     1      -9.842  -3.831   5.871  1.00  0.00     0.040 A 
ATOM     61  C   UNL     1      -9.678  -6.209   6.230  1.00  0.00     0.040 A 
ATOM     62  F   UNL     1      -7.702  -7.348   5.667  1.00  0.00    -0.206 F 
ATOM     63  C   UNL     1     -10.409  -5.025   6.314  1.00  0.00     0.006 A 
ENDBRANCH  39  56
ENDBRANCH  13  14
ENDBRANCH   6   8
ENDBRANCH   5   6
ENDBRANCH   4   5
ENDBRANCH   3   4
ENDBRANCH   2   3
ENDBRANCH   1   2
BRANCH   1  64
ATOM     64  C   UNL     1       4.538  -4.195  -3.742  1.00  0.00     0.261 C 
BRANCH  64  65
ATOM     65  O   UNL     1       5.018  -3.004  -4.372  1.00  0.00    -0.462 OA
BRANCH  65  66
ATOM     66  C   UNL     1       4.115  -2.014  -4.596  1.00  0.00     0.328 C 
ATOM     67  O   UNL     1       2.898  -2.136  -4.635  1.00  0.00    -0.250 OA
BRANCH  66  68
ATOM     68  C   UNL     1       4.874  -0.712  -4.846  1.00  0.00     0.194 C 
BRANCH  68  69
ATOM     69  N   UNL     1       4.907  -0.505  -6.293  1.00  0.00    -0.338 N 
ATOM     70  C   UNL     1       5.976  -0.637  -7.147  1.00  0.00     0.254 C 
ATOM     71  H   UNL     1       4.056  -0.237  -6.708  1.00  0.00     0.164 HD
ATOM     72  O   UNL     1       5.807  -0.599  -8.361  1.00  0.00    -0.269 OA
BRANCH  70  73
ATOM     73  C   UNL     1       7.346  -0.681  -6.609  1.00  0.00     0.076 A 
ATOM     74  C   UNL     1       8.165   0.429  -6.827  1.00  0.00     0.017 A 
ATOM     75  C   UNL     1       7.828  -1.771  -5.886  1.00  0.00     0.148 A 
ATOM     76  C   UNL     1       9.440   0.467  -6.267  1.00  0.00     0.002 A 
ATOM     77  C   UNL     1       9.069  -1.714  -5.252  1.00  0.00     0.092 A 
ATOM     78  F   UNL     1       7.091  -2.882  -5.779  1.00  0.00    -0.205 F 
ATOM     79  C   UNL     1       9.883  -0.590  -5.467  1.00  0.00     0.016 A 
BRANCH  77  80
ATOM     80  C   UNL     1       9.511  -2.830  -4.352  1.00  0.00     0.419 C 
ATOM     81  F   UNL     1      10.234  -3.780  -5.002  1.00  0.00    -0.166 F 
ATOM     82  F   UNL     1      10.308  -2.385  -3.337  1.00  0.00    -0.166 F 
ATOM     83  F   UNL     1       8.484  -3.480  -3.735  1.00  0.00    -0.166 F 
ENDBRANCH  77  80
ENDBRANCH  70  73
ENDBRANCH  68  69
BRANCH  68  84
ATOM     84  C   UNL     1       4.206   0.452  -4.099  1.00  0.00     0.065 C 
BRANCH  84  85
ATOM     85  C   UNL     1       5.241   1.452  -3.590  1.00  0.00     0.159 C 
BRANCH  85  86
ATOM     86  O   UNL     1       6.015   1.990  -4.650  1.00  0.00    -0.396 OA
ATOM     87  H   UNL     1       6.495   1.274  -5.095  1.00  0.00     0.210 HD
ENDBRANCH  85  86
ENDBRANCH  84  85
ENDBRANCH  68  84
ENDBRANCH  66  68
ENDBRANCH  65  66
ENDBRANCH  64  65
ENDBRANCH   1  64
TORSDOF 20
