REMARK SMILES Cc1ccc(F)cc1NS(=O)(=O)c1ccc(C(=O)OCCOCCOC(=O)c2ccc(-c3c4nc(c(-c5c(F)cccc5F)c5ccc([nH]5)c(-c5c(F)cccc5F)c5nc(c(-c6c(F)cccc6F)c6ccc3[nH]6)C=C5)C=C4)cc2)cc1
REMARK SMILES IDX 21 1 20 2 19 3 17 4 18 5 16 6 13 7 14 8 83 9 15 10 82 11
REMARK SMILES IDX 10 12 11 13 12 14 9 15 8 17 1 18 2 19 3 20 4 21 7 22 5 23
REMARK SMILES IDX 6 24 22 25 23 26 24 27 25 28 26 29 27 30 28 31 29 32 81 33
REMARK SMILES IDX 30 34 80 35 31 36 32 37 33 38 74 39 34 40 79 41 73 42 75 43
REMARK SMILES IDX 35 44 78 45 72 46 71 47 36 49 62 50 45 51 61 52 46 53 49 54
REMARK SMILES IDX 60 55 76 56 47 57 48 58 59 60 77 61 50 62 37 63 38 64 43 65
REMARK SMILES IDX 39 66 40 67 42 68 44 69 41 70 63 71 64 72 69 73 65 74 66 75
REMARK SMILES IDX 68 76 70 77 67 78 51 79 52 80 57 81 53 82 54 83 56 84 58 85
REMARK SMILES IDX 55 86
REMARK H PARENT 9 16 75 48 49 59
REMARK Flexibility Score: inf
ROOT
ATOM      1  C   UNL     1      -7.917  -2.556   0.719  1.00  0.00     0.202 C 
ENDROOT
BRANCH   1   2
ATOM      2  C   UNL     1      -7.435  -3.304  -0.530  1.00  0.00     0.261 C 
BRANCH   2   3
ATOM      3  O   UNL     1      -6.061  -3.709  -0.453  1.00  0.00    -0.460 OA
BRANCH   3   4
ATOM      4  C   UNL     1      -5.226  -3.071  -1.314  1.00  0.00     0.338 C 
ATOM      5  O   UNL     1      -5.556  -2.295  -2.198  1.00  0.00    -0.246 OA
BRANCH   4   6
ATOM      6  C   UNL     1      -3.800  -3.356  -0.999  1.00  0.00     0.060 A 
ATOM      7  C   UNL     1      -1.084  -3.696  -0.386  1.00  0.00     0.087 A 
ATOM      8  C   UNL     1      -1.467  -2.683  -1.264  1.00  0.00     0.023 A 
ATOM      9  C   UNL     1      -2.048  -4.576   0.136  1.00  0.00     0.023 A 
ATOM     10  C   UNL     1      -2.827  -2.499  -1.542  1.00  0.00     0.017 A 
ATOM     11  C   UNL     1      -3.402  -4.414  -0.177  1.00  0.00     0.017 A 
BRANCH   7  12
ATOM     12  S   UNL     1       0.600  -3.923   0.135  1.00  0.00     0.261 S 
ATOM     13  O   UNL     1       1.276  -4.549  -0.984  1.00  0.00    -0.201 OA
ATOM     14  O   UNL     1       0.562  -4.573   1.428  1.00  0.00    -0.201 OA
BRANCH  12  15
ATOM     15  N   UNL     1       1.416  -2.469   0.350  1.00  0.00    -0.279 N 
ATOM     16  H   UNL     1       2.398  -2.529   0.398  1.00  0.00     0.180 HD
BRANCH  15  17
ATOM     17  C   UNL     1       0.862  -1.159   0.472  1.00  0.00     0.055 A 
ATOM     18  C   UNL     1       3.112  -0.118  -0.273  1.00  0.00     0.046 C 
ATOM     19  C   UNL     1       1.641  -0.052   0.058  1.00  0.00    -0.027 A 
ATOM     20  C   UNL     1       1.054   1.228   0.015  1.00  0.00     0.008 A 
ATOM     21  C   UNL     1      -0.254   1.421   0.442  1.00  0.00     0.039 A 
ATOM     22  C   UNL     1      -0.384  -0.921   1.052  1.00  0.00     0.066 A 
ATOM     23  C   UNL     1      -0.946   0.352   0.991  1.00  0.00     0.125 A 
ATOM     24  F   UNL     1      -2.189   0.544   1.452  1.00  0.00    -0.207 F 
ENDBRANCH  15  17
ENDBRANCH  12  15
ENDBRANCH   7  12
ENDBRANCH   4   6
ENDBRANCH   3   4
ENDBRANCH   2   3
ENDBRANCH   1   2
BRANCH   1  25
ATOM     25  O   UNL     1      -7.089  -1.513   1.221  1.00  0.00    -0.374 OA
BRANCH  25  26
ATOM     26  C   UNL     1      -5.917  -1.884   1.951  1.00  0.00     0.202 C 
BRANCH  26  27
ATOM     27  C   UNL     1      -6.121  -2.554   3.317  1.00  0.00     0.261 C 
BRANCH  27  28
ATOM     28  O   UNL     1      -6.672  -3.881   3.200  1.00  0.00    -0.460 OA
BRANCH  28  29
ATOM     29  C   UNL     1      -7.857  -4.067   3.827  1.00  0.00     0.338 C 
ATOM     30  O   UNL     1      -8.466  -3.266   4.524  1.00  0.00    -0.246 OA
BRANCH  29  31
ATOM     31  C   UNL     1      -8.449  -5.350   3.412  1.00  0.00     0.060 A 
ATOM     32  C   UNL     1      -9.697  -5.321   2.777  1.00  0.00     0.016 A 
ATOM     33  C   UNL     1      -7.836  -6.565   3.722  1.00  0.00     0.016 A 
ATOM     34  C   UNL     1     -10.356  -6.513   2.479  1.00  0.00     0.010 A 
ATOM     35  C   UNL     1      -8.504  -7.759   3.432  1.00  0.00     0.010 A 
ATOM     36  C   UNL     1      -9.779  -7.738   2.837  1.00  0.00    -0.014 A 
BRANCH  36  37
ATOM     37  C   UNL     1     -10.568  -8.987   2.709  1.00  0.00     0.031 A 
ATOM     38  C   UNL     1     -11.242  -9.556   3.927  1.00  0.00     0.074 A 
ATOM     39  C   UNL     1     -10.698  -9.597   1.518  1.00  0.00     0.049 A 
ATOM     40  N   UNL     1     -11.943 -10.654   4.051  1.00  0.00    -0.248 NA
ATOM     41  C   UNL     1     -11.107  -8.783   5.171  1.00  0.00     0.031 C 
ATOM     42  C   UNL     1     -10.124  -9.124   0.260  1.00  0.00     0.029 A 
ATOM     43  N   UNL     1     -11.351 -10.755   1.178  1.00  0.00    -0.354 N 
ATOM     44  C   UNL     1     -12.327 -10.708   5.385  1.00  0.00     0.074 A 
ATOM     45  C   UNL     1     -11.756  -9.548   6.036  1.00  0.00     0.031 C 
ATOM     46  C   UNL     1     -10.442  -9.992  -0.716  1.00  0.00     0.029 A 
ATOM     47  C   UNL     1     -11.213 -11.095  -0.144  1.00  0.00     0.049 A 
ATOM     48  H   UNL     1     -11.870 -11.291   1.822  1.00  0.00     0.167 HD
ATOM     49  C   UNL     1     -13.091 -11.635   6.009  1.00  0.00     0.037 A 
ATOM     50  C   UNL     1     -11.642 -12.184  -0.812  1.00  0.00     0.037 A 
ATOM     51  C   UNL     1     -13.658 -12.789   5.360  1.00  0.00     0.049 A 
ATOM     52  C   UNL     1     -12.429 -13.238  -0.080  1.00  0.00     0.074 A 
ATOM     53  C   UNL     1     -14.464 -13.774   5.902  1.00  0.00     0.029 A 
ATOM     54  N   UNL     1     -13.468 -13.116   4.026  1.00  0.00    -0.354 N 
ATOM     55  N   UNL     1     -12.808 -13.267   1.175  1.00  0.00    -0.248 NA
ATOM     56  C   UNL     1     -12.848 -14.412  -0.860  1.00  0.00     0.031 C 
ATOM     57  C   UNL     1     -14.723 -14.724   4.907  1.00  0.00     0.029 A 
ATOM     58  C   UNL     1     -14.120 -14.303   3.733  1.00  0.00     0.049 A 
ATOM     59  H   UNL     1     -12.947 -12.583   3.382  1.00  0.00     0.167 HD
ATOM     60  C   UNL     1     -13.532 -14.443   1.328  1.00  0.00     0.074 A 
ATOM     61  C   UNL     1     -13.549 -15.095   0.035  1.00  0.00     0.031 C 
ATOM     62  C   UNL     1     -14.131 -14.938   2.440  1.00  0.00     0.037 A 
BRANCH  49  63
ATOM     63  C   UNL     1     -13.338 -11.451   7.478  1.00  0.00     0.057 A 
ATOM     64  C   UNL     1     -14.182 -10.446   7.967  1.00  0.00     0.134 A 
ATOM     65  C   UNL     1     -12.744 -12.308   8.413  1.00  0.00     0.134 A 
ATOM     66  F   UNL     1     -14.771  -9.583   7.125  1.00  0.00    -0.206 F 
ATOM     67  C   UNL     1     -14.408 -10.285   9.336  1.00  0.00     0.040 A 
ATOM     68  C   UNL     1     -12.983 -12.173   9.782  1.00  0.00     0.040 A 
ATOM     69  F   UNL     1     -11.929 -13.294   8.011  1.00  0.00    -0.206 F 
ATOM     70  C   UNL     1     -13.812 -11.155  10.247  1.00  0.00     0.006 A 
ENDBRANCH  49  63
BRANCH  50  71
ATOM     71  C   UNL     1     -11.325 -12.343  -2.253  1.00  0.00     0.057 A 
ATOM     72  C   UNL     1     -12.325 -12.266  -3.229  1.00  0.00     0.134 A 
ATOM     73  C   UNL     1     -10.018 -12.594  -2.688  1.00  0.00     0.134 A 
ATOM     74  F   UNL     1     -13.600 -12.051  -2.872  1.00  0.00    -0.206 F 
ATOM     75  C   UNL     1     -12.041 -12.448  -4.583  1.00  0.00     0.040 A 
ATOM     76  C   UNL     1      -9.715 -12.754  -4.041  1.00  0.00     0.040 A 
ATOM     77  F   UNL     1      -9.014 -12.680  -1.802  1.00  0.00    -0.206 F 
ATOM     78  C   UNL     1     -10.730 -12.687  -4.993  1.00  0.00     0.006 A 
ENDBRANCH  50  71
BRANCH  62  79
ATOM     79  C   UNL     1     -14.883 -16.230   2.300  1.00  0.00     0.057 A 
ATOM     80  C   UNL     1     -14.225 -17.456   2.142  1.00  0.00     0.134 A 
ATOM     81  C   UNL     1     -16.282 -16.250   2.364  1.00  0.00     0.134 A 
ATOM     82  F   UNL     1     -12.887 -17.504   2.061  1.00  0.00    -0.206 F 
ATOM     83  C   UNL     1     -14.933 -18.654   2.031  1.00  0.00     0.040 A 
ATOM     84  C   UNL     1     -17.000 -17.444   2.280  1.00  0.00     0.040 A 
ATOM     85  F   UNL     1     -16.974 -15.111   2.523  1.00  0.00    -0.206 F 
ATOM     86  C   UNL     1     -16.325 -18.650   2.107  1.00  0.00     0.006 A 
ENDBRANCH  62  79
ENDBRANCH  36  37
ENDBRANCH  29  31
ENDBRANCH  28  29
ENDBRANCH  27  28
ENDBRANCH  26  27
ENDBRANCH  25  26
ENDBRANCH   1  25
TORSDOF 17
