REMARK SMILES O=C(OCCOCCOC(=O)c1cc(Br)ccc1OC(=O)c1ccc(F)cc1)c1ccc(-c2c3nc(c(-c4c(F)cccc4F)c4ccc([nH]4)c(-c4c(F)cccc4F)c4nc(c(-c5c(F)cccc5F)c5ccc2[nH]5)C=C4)C=C3)cc1
REMARK SMILES IDX 7 1 6 2 5 3 4 4 3 5 2 6 1 7 29 8 30 9 82 10 31 11 81 12
REMARK SMILES IDX 32 13 33 14 34 15 75 16 35 17 80 18 74 19 76 20 36 21 79 22
REMARK SMILES IDX 73 23 72 24 37 26 63 27 46 28 62 29 47 30 50 31 61 32 77 33
REMARK SMILES IDX 48 34 49 35 60 37 78 38 51 39 38 40 39 41 44 42 40 43 41 44
REMARK SMILES IDX 43 45 45 46 42 47 64 48 65 49 70 50 66 51 67 52 69 53 71 54
REMARK SMILES IDX 68 55 52 56 53 57 58 58 54 59 55 60 57 61 59 62 56 63 8 64
REMARK SMILES IDX 9 65 10 66 11 67 12 68 13 69 18 70 14 71 17 72 15 73 16 74
REMARK SMILES IDX 19 75 20 76 21 77 22 78 23 79 28 80 24 81 27 82 25 83 26 84
REMARK H PARENT 76 25 50 36
REMARK Flexibility Score: inf
ROOT
ATOM      1  C   UNL     1       1.874  -2.007  -1.676  1.00  0.00     0.202 C 
ENDROOT
BRANCH   1   2
ATOM      2  O   UNL     1       2.882  -1.151  -1.167  1.00  0.00    -0.374 OA
BRANCH   2   3
ATOM      3  C   UNL     1       3.411  -1.497   0.106  1.00  0.00     0.202 C 
BRANCH   3   4
ATOM      4  C   UNL     1       3.094  -0.460   1.177  1.00  0.00     0.261 C 
BRANCH   4   5
ATOM      5  O   UNL     1       1.794   0.094   0.991  1.00  0.00    -0.460 OA
BRANCH   5   6
ATOM      6  C   UNL     1       1.501   0.973   0.001  1.00  0.00     0.338 C 
ATOM      7  O   UNL     1       0.334   1.110  -0.359  1.00  0.00    -0.246 OA
BRANCH   6   8
ATOM      8  C   UNL     1       2.515   1.918  -0.562  1.00  0.00     0.060 A 
ATOM      9  C   UNL     1       3.700   1.560  -1.223  1.00  0.00     0.016 A 
ATOM     10  C   UNL     1       2.115   3.258  -0.598  1.00  0.00     0.016 A 
ATOM     11  C   UNL     1       4.439   2.491  -1.943  1.00  0.00     0.010 A 
ATOM     12  C   UNL     1       2.832   4.190  -1.344  1.00  0.00     0.010 A 
ATOM     13  C   UNL     1       3.983   3.799  -2.042  1.00  0.00    -0.014 A 
BRANCH  13  14
ATOM     14  C   UNL     1       4.745   4.779  -2.832  1.00  0.00     0.031 A 
ATOM     15  C   UNL     1       5.464   5.858  -2.096  1.00  0.00     0.074 A 
ATOM     16  C   UNL     1       4.791   4.679  -4.172  1.00  0.00     0.049 A 
ATOM     17  N   UNL     1       6.031   6.937  -2.555  1.00  0.00    -0.248 NA
ATOM     18  C   UNL     1       5.548   5.699  -0.634  1.00  0.00     0.031 C 
ATOM     19  C   UNL     1       4.218   3.584  -4.958  1.00  0.00     0.029 A 
ATOM     20  N   UNL     1       5.341   5.510  -5.112  1.00  0.00    -0.354 N 
ATOM     21  C   UNL     1       6.507   7.605  -1.437  1.00  0.00     0.074 A 
ATOM     22  C   UNL     1       6.157   6.817  -0.278  1.00  0.00     0.031 C 
ATOM     23  C   UNL     1       4.452   3.809  -6.261  1.00  0.00     0.029 A 
ATOM     24  C   UNL     1       5.107   5.104  -6.404  1.00  0.00     0.049 A 
ATOM     25  H   UNL     1       5.854   6.319  -4.884  1.00  0.00     0.167 HD
ATOM     26  C   UNL     1       7.161   8.786  -1.398  1.00  0.00     0.037 A 
ATOM     27  C   UNL     1       5.346   5.741  -7.566  1.00  0.00     0.037 A 
ATOM     28  C   UNL     1       7.462   9.545  -2.580  1.00  0.00     0.049 A 
ATOM     29  C   UNL     1       5.965   7.110  -7.500  1.00  0.00     0.074 A 
ATOM     30  C   UNL     1       8.061  10.784  -2.681  1.00  0.00     0.029 A 
ATOM     31  N   UNL     1       7.167   9.126  -3.873  1.00  0.00    -0.354 N 
ATOM     32  N   UNL     1       6.359   7.779  -6.441  1.00  0.00    -0.248 NA
ATOM     33  C   UNL     1       6.151   7.826  -8.768  1.00  0.00     0.031 C 
ATOM     34  C   UNL     1       8.062  11.147  -4.030  1.00  0.00     0.029 A 
ATOM     35  C   UNL     1       7.537  10.101  -4.779  1.00  0.00     0.049 A 
ATOM     36  H   UNL     1       6.754   8.264  -4.108  1.00  0.00     0.167 HD
ATOM     37  C   UNL     1       6.861   8.984  -6.911  1.00  0.00     0.074 A 
ATOM     38  C   UNL     1       6.718   8.954  -8.355  1.00  0.00     0.031 C 
ATOM     39  C   UNL     1       7.393  10.018  -6.214  1.00  0.00     0.037 A 
BRANCH  26  40
ATOM     40  C   UNL     1       7.483   9.342  -0.045  1.00  0.00     0.057 A 
ATOM     41  C   UNL     1       6.784  10.454   0.444  1.00  0.00     0.134 A 
ATOM     42  C   UNL     1       8.438   8.760   0.799  1.00  0.00     0.134 A 
ATOM     43  F   UNL     1       5.849  11.054  -0.307  1.00  0.00    -0.206 F 
ATOM     44  C   UNL     1       7.020  10.963   1.721  1.00  0.00     0.040 A 
ATOM     45  C   UNL     1       8.661   9.242   2.091  1.00  0.00     0.040 A 
ATOM     46  F   UNL     1       9.122   7.674   0.407  1.00  0.00    -0.206 F 
ATOM     47  C   UNL     1       7.953  10.349   2.554  1.00  0.00     0.006 A 
ENDBRANCH  26  40
BRANCH  27  48
ATOM     48  C   UNL     1       4.959   5.100  -8.850  1.00  0.00     0.057 A 
ATOM     49  C   UNL     1       3.614   4.866  -9.176  1.00  0.00     0.134 A 
ATOM     50  C   UNL     1       5.923   4.631  -9.748  1.00  0.00     0.134 A 
ATOM     51  F   UNL     1       2.637   5.287  -8.360  1.00  0.00    -0.206 F 
ATOM     52  C   UNL     1       3.246   4.155 -10.321  1.00  0.00     0.040 A 
ATOM     53  C   UNL     1       5.569   3.939 -10.910  1.00  0.00     0.040 A 
ATOM     54  F   UNL     1       7.226   4.838  -9.508  1.00  0.00    -0.206 F 
ATOM     55  C   UNL     1       4.227   3.687 -11.192  1.00  0.00     0.006 A 
ENDBRANCH  27  48
BRANCH  39  56
ATOM     56  C   UNL     1       7.905  11.191  -6.990  1.00  0.00     0.057 A 
ATOM     57  C   UNL     1       9.283  11.442  -7.047  1.00  0.00     0.134 A 
ATOM     58  C   UNL     1       7.042  12.153  -7.524  1.00  0.00     0.134 A 
ATOM     59  F   UNL     1      10.157  10.561  -6.537  1.00  0.00    -0.206 F 
ATOM     60  C   UNL     1       9.782  12.633  -7.570  1.00  0.00     0.040 A 
ATOM     61  C   UNL     1       7.532  13.337  -8.075  1.00  0.00     0.040 A 
ATOM     62  F   UNL     1       5.714  11.963  -7.504  1.00  0.00    -0.206 F 
ATOM     63  C   UNL     1       8.905  13.587  -8.081  1.00  0.00     0.006 A 
ENDBRANCH  39  56
ENDBRANCH  13  14
ENDBRANCH   6   8
ENDBRANCH   5   6
ENDBRANCH   4   5
ENDBRANCH   3   4
ENDBRANCH   2   3
ENDBRANCH   1   2
BRANCH   1  64
ATOM     64  C   UNL     1       2.493  -3.043  -2.611  1.00  0.00     0.261 C 
BRANCH  64  65
ATOM     65  O   UNL     1       3.402  -3.888  -1.883  1.00  0.00    -0.460 OA
BRANCH  65  66
ATOM     66  C   UNL     1       4.707  -3.504  -1.838  1.00  0.00     0.342 C 
ATOM     67  O   UNL     1       5.227  -2.580  -2.441  1.00  0.00    -0.246 OA
BRANCH  66  68
ATOM     68  C   UNL     1       5.371  -4.309  -0.788  1.00  0.00     0.103 A 
ATOM     69  C   UNL     1       4.990  -5.655  -0.644  1.00  0.00     0.035 A 
ATOM     70  C   UNL     1       6.293  -3.750   0.115  1.00  0.00     0.145 A 
ATOM     71  C   UNL     1       5.510  -6.420   0.395  1.00  0.00     0.019 A 
ATOM     72  C   UNL     1       6.820  -4.532   1.150  1.00  0.00     0.049 A 
ATOM     73  Br  UNL     1       4.915  -8.199   0.626  1.00  0.00    -0.051 Br
ATOM     74  C   UNL     1       6.430  -5.869   1.285  1.00  0.00     0.019 A 
BRANCH  70  75
ATOM     75  O   UNL     1       6.540  -2.356   0.186  1.00  0.00    -0.422 OA
BRANCH  75  76
ATOM     76  C   UNL     1       7.674  -1.871  -0.445  1.00  0.00     0.343 C 
ATOM     77  O   UNL     1       8.473  -2.541  -1.081  1.00  0.00    -0.246 OA
BRANCH  76  78
ATOM     78  C   UNL     1       7.857  -0.398  -0.190  1.00  0.00     0.060 A 
ATOM     79  C   UNL     1       9.090   0.179  -0.537  1.00  0.00     0.019 A 
ATOM     80  C   UNL     1       6.872   0.434   0.364  1.00  0.00     0.019 A 
ATOM     81  C   UNL     1       9.320   1.550  -0.361  1.00  0.00     0.040 A 
ATOM     82  C   UNL     1       7.094   1.811   0.523  1.00  0.00     0.040 A 
ATOM     83  C   UNL     1       8.315   2.357   0.153  1.00  0.00     0.123 A 
ATOM     84  F   UNL     1       8.524   3.672   0.300  1.00  0.00    -0.207 F 
ENDBRANCH  76  78
ENDBRANCH  75  76
ENDBRANCH  70  75
ENDBRANCH  66  68
ENDBRANCH  65  66
ENDBRANCH  64  65
ENDBRANCH   1  64
TORSDOF 17
