REMARK SMILES C[C@@H](CCC(=O)OCCOCCOC(=O)c1ccc(-c2c3nc(c(-c4c(F)cccc4F)c4ccc([nH]4)c(-c4c(F)cccc4F)c4nc(c(-c5c(F)cccc5F)c5ccc2[nH]5)C=C4)C=C3)cc1)NC(=O)Nc1ccc(Cl)c(Br)c1
REMARK SMILES IDX 9 1 8 2 7 3 5 4 6 5 4 6 3 7 2 8 1 9 70 10 71 11 72 13 73 14
REMARK SMILES IDX 74 16 75 17 81 18 76 19 79 20 77 21 80 22 78 23 10 24 11 25
REMARK SMILES IDX 12 26 13 27 14 28 15 29 16 30 17 31 69 32 18 33 68 34 19 35
REMARK SMILES IDX 20 36 21 37 62 38 22 39 67 40 61 41 63 42 23 43 66 44 60 45
REMARK SMILES IDX 59 46 24 48 50 49 33 50 49 51 34 52 37 53 48 54 64 55 35 56
REMARK SMILES IDX 36 57 47 59 65 60 38 61 25 62 26 63 31 64 27 65 28 66 30 67
REMARK SMILES IDX 32 68 29 69 51 70 52 71 57 72 53 73 54 74 56 75 58 76 55 77
REMARK SMILES IDX 39 78 40 79 45 80 41 81 42 82 44 83 46 84 43 85
REMARK H PARENT 70 12 73 15 63 47 37 58
REMARK Flexibility Score: inf
ROOT
ATOM      1  C   UNL     1      -3.550   0.141   2.379  1.00  0.00     0.202 C 
ENDROOT
BRANCH   1   2
ATOM      2  C   UNL     1      -2.932   1.482   1.976  1.00  0.00     0.261 C 
BRANCH   2   3
ATOM      3  O   UNL     1      -1.507   1.357   1.774  1.00  0.00    -0.463 OA
BRANCH   3   4
ATOM      4  C   UNL     1      -0.704   1.838   2.757  1.00  0.00     0.305 C 
ATOM      5  O   UNL     1      -1.092   2.390   3.777  1.00  0.00    -0.252 OA
BRANCH   4   6
ATOM      6  C   UNL     1       0.761   1.691   2.409  1.00  0.00     0.125 C 
BRANCH   6   7
ATOM      7  C   UNL     1       1.261   0.281   2.081  1.00  0.00     0.036 C 
BRANCH   7   8
ATOM      8  C   UNL     1       0.970  -0.276   0.674  1.00  0.00     0.081 C 
ATOM      9  C   UNL     1       1.176   0.728  -0.457  1.00  0.00     0.031 C 
BRANCH   8  10
ATOM     10  N   UNL     1      -0.380  -0.819   0.612  1.00  0.00    -0.335 N 
ATOM     11  C   UNL     1      -0.902  -1.778  -0.168  1.00  0.00     0.319 C 
ATOM     12  H   UNL     1      -1.015  -0.415   1.248  1.00  0.00     0.165 HD
ATOM     13  O   UNL     1      -2.034  -1.575  -0.609  1.00  0.00    -0.248 OA
ATOM     14  N   UNL     1      -0.224  -2.881  -0.544  1.00  0.00    -0.308 N 
ATOM     15  H   UNL     1      -0.620  -3.345  -1.317  1.00  0.00     0.171 HD
BRANCH  14  16
ATOM     16  C   UNL     1       0.933  -3.497  -0.050  1.00  0.00     0.044 A 
ATOM     17  C   UNL     1       1.675  -4.267  -0.949  1.00  0.00     0.028 A 
ATOM     18  C   UNL     1       1.391  -3.343   1.259  1.00  0.00     0.043 A 
ATOM     19  C   UNL     1       2.947  -4.724  -0.595  1.00  0.00     0.024 A 
ATOM     20  C   UNL     1       2.672  -3.785   1.613  1.00  0.00     0.038 A 
ATOM     21  C   UNL     1       3.466  -4.449   0.672  1.00  0.00     0.055 A 
ATOM     22  Br  UNL     1       3.283  -3.372   3.363  1.00  0.00    -0.049 Br
ATOM     23  Cl  UNL     1       5.095  -4.923   0.987  1.00  0.00    -0.083 Cl
ENDBRANCH  14  16
ENDBRANCH   8  10
ENDBRANCH   7   8
ENDBRANCH   6   7
ENDBRANCH   4   6
ENDBRANCH   3   4
ENDBRANCH   2   3
ENDBRANCH   1   2
BRANCH   1  24
ATOM     24  O   UNL     1      -3.268  -0.210   3.734  1.00  0.00    -0.374 OA
BRANCH  24  25
ATOM     25  C   UNL     1      -2.124  -1.044   3.919  1.00  0.00     0.202 C 
BRANCH  25  26
ATOM     26  C   UNL     1      -2.458  -2.540   3.928  1.00  0.00     0.261 C 
BRANCH  26  27
ATOM     27  O   UNL     1      -2.797  -2.996   2.607  1.00  0.00    -0.460 OA
BRANCH  27  28
ATOM     28  C   UNL     1      -4.124  -3.129   2.355  1.00  0.00     0.338 C 
ATOM     29  O   UNL     1      -5.041  -3.019   3.145  1.00  0.00    -0.246 OA
BRANCH  28  30
ATOM     30  C   UNL     1      -4.324  -3.274   0.897  1.00  0.00     0.060 A 
ATOM     31  C   UNL     1      -5.334  -2.514   0.294  1.00  0.00     0.016 A 
ATOM     32  C   UNL     1      -3.521  -4.118   0.126  1.00  0.00     0.016 A 
ATOM     33  C   UNL     1      -5.544  -2.595  -1.084  1.00  0.00     0.010 A 
ATOM     34  C   UNL     1      -3.719  -4.180  -1.256  1.00  0.00     0.010 A 
ATOM     35  C   UNL     1      -4.745  -3.435  -1.870  1.00  0.00    -0.014 A 
BRANCH  35  36
ATOM     36  C   UNL     1      -5.071  -3.665  -3.303  1.00  0.00     0.031 A 
ATOM     37  C   UNL     1      -5.622  -5.006  -3.705  1.00  0.00     0.074 A 
ATOM     38  C   UNL     1      -4.877  -2.718  -4.240  1.00  0.00     0.049 A 
ATOM     39  N   UNL     1      -5.892  -5.473  -4.896  1.00  0.00    -0.248 NA
ATOM     40  C   UNL     1      -5.872  -5.960  -2.613  1.00  0.00     0.031 C 
ATOM     41  C   UNL     1      -4.345  -1.377  -3.999  1.00  0.00     0.029 A 
ATOM     42  N   UNL     1      -5.100  -2.751  -5.597  1.00  0.00    -0.354 N 
ATOM     43  C   UNL     1      -6.307  -6.784  -4.698  1.00  0.00     0.074 A 
ATOM     44  C   UNL     1      -6.210  -7.051  -3.280  1.00  0.00     0.031 C 
ATOM     45  C   UNL     1      -4.289  -0.714  -5.168  1.00  0.00     0.029 A 
ATOM     46  C   UNL     1      -4.750  -1.591  -6.245  1.00  0.00     0.049 A 
ATOM     47  H   UNL     1      -5.476  -3.534  -6.061  1.00  0.00     0.167 HD
ATOM     48  C   UNL     1      -6.751  -7.682  -5.608  1.00  0.00     0.037 A 
ATOM     49  C   UNL     1      -4.782  -1.280  -7.556  1.00  0.00     0.037 A 
ATOM     50  C   UNL     1      -6.903  -7.408  -7.010  1.00  0.00     0.049 A 
ATOM     51  C   UNL     1      -5.281  -2.294  -8.555  1.00  0.00     0.074 A 
ATOM     52  C   UNL     1      -7.408  -8.235  -7.998  1.00  0.00     0.029 A 
ATOM     53  N   UNL     1      -6.557  -6.214  -7.622  1.00  0.00    -0.354 N 
ATOM     54  N   UNL     1      -5.714  -3.515  -8.350  1.00  0.00    -0.248 NA
ATOM     55  C   UNL     1      -5.296  -1.887  -9.970  1.00  0.00     0.031 C 
ATOM     56  C   UNL     1      -7.331  -7.554  -9.217  1.00  0.00     0.029 A 
ATOM     57  C   UNL     1      -6.818  -6.289  -8.979  1.00  0.00     0.049 A 
ATOM     58  H   UNL     1      -6.181  -5.430  -7.160  1.00  0.00     0.167 HD
ATOM     59  C   UNL     1      -6.076  -4.008  -9.599  1.00  0.00     0.074 A 
ATOM     60  C   UNL     1      -5.821  -2.954 -10.557  1.00  0.00     0.031 C 
ATOM     61  C   UNL     1      -6.576  -5.226  -9.921  1.00  0.00     0.037 A 
BRANCH  48  62
ATOM     62  C   UNL     1      -7.091  -9.052  -5.103  1.00  0.00     0.057 A 
ATOM     63  C   UNL     1      -8.214  -9.289  -4.299  1.00  0.00     0.134 A 
ATOM     64  C   UNL     1      -6.277 -10.146  -5.419  1.00  0.00     0.134 A 
ATOM     65  F   UNL     1      -9.023  -8.278  -3.946  1.00  0.00    -0.206 F 
ATOM     66  C   UNL     1      -8.494 -10.559  -3.795  1.00  0.00     0.040 A 
ATOM     67  C   UNL     1      -6.564 -11.427  -4.946  1.00  0.00     0.040 A 
ATOM     68  F   UNL     1      -5.189  -9.988  -6.187  1.00  0.00    -0.206 F 
ATOM     69  C   UNL     1      -7.669 -11.634  -4.122  1.00  0.00     0.006 A 
ENDBRANCH  48  62
BRANCH  49  70
ATOM     70  C   UNL     1      -4.325   0.056  -8.018  1.00  0.00     0.057 A 
ATOM     71  C   UNL     1      -5.231   1.002  -8.512  1.00  0.00     0.134 A 
ATOM     72  C   UNL     1      -2.970   0.406  -8.008  1.00  0.00     0.134 A 
ATOM     73  F   UNL     1      -6.540   0.715  -8.574  1.00  0.00    -0.206 F 
ATOM     74  C   UNL     1      -4.805   2.241  -8.995  1.00  0.00     0.040 A 
ATOM     75  C   UNL     1      -2.532   1.650  -8.466  1.00  0.00     0.040 A 
ATOM     76  F   UNL     1      -2.051  -0.457  -7.551  1.00  0.00    -0.206 F 
ATOM     77  C   UNL     1      -3.451   2.569  -8.969  1.00  0.00     0.006 A 
ENDBRANCH  49  70
BRANCH  61  78
ATOM     78  C   UNL     1      -6.920  -5.486 -11.358  1.00  0.00     0.057 A 
ATOM     79  C   UNL     1      -5.933  -5.720 -12.323  1.00  0.00     0.134 A 
ATOM     80  C   UNL     1      -8.258  -5.588 -11.763  1.00  0.00     0.134 A 
ATOM     81  F   UNL     1      -4.633  -5.628 -12.003  1.00  0.00    -0.206 F 
ATOM     82  C   UNL     1      -6.264  -6.038 -13.642  1.00  0.00     0.040 A 
ATOM     83  C   UNL     1      -8.601  -5.929 -13.072  1.00  0.00     0.040 A 
ATOM     84  F   UNL     1      -9.252  -5.386 -10.884  1.00  0.00    -0.206 F 
ATOM     85  C   UNL     1      -7.602  -6.154 -14.016  1.00  0.00     0.006 A 
ENDBRANCH  61  78
ENDBRANCH  35  36
ENDBRANCH  28  30
ENDBRANCH  27  28
ENDBRANCH  26  27
ENDBRANCH  25  26
ENDBRANCH  24  25
ENDBRANCH   1  24
TORSDOF 18
