REMARK SMILES CC[C@@H]1CCC[C@@](Cc2cccc(O)c2)(C(=O)OCCOCCOC(=O)c2ccc(-c3c4nc(c(-c5c(F)cccc5F)c5ccc([nH]5)c(-c5c(F)cccc5F)c5nc(c(-c6c(F)cccc6F)c6ccc3[nH]6)C=C5)C=C4)cc2)C1
REMARK SMILES IDX 20 1 19 2 18 3 16 4 17 5 7 6 3 7 4 8 81 9 5 10 6 11 2 12
REMARK SMILES IDX 1 13 8 14 9 15 10 16 15 17 11 18 13 19 12 20 14 21 21 23
REMARK SMILES IDX 22 24 23 25 24 26 25 27 26 28 27 29 28 30 80 31 29 32 79 33
REMARK SMILES IDX 30 34 31 35 32 36 73 37 33 38 78 39 72 40 74 41 34 42 77 43
REMARK SMILES IDX 71 44 70 45 35 47 61 48 44 49 60 50 45 51 48 52 59 53 75 54
REMARK SMILES IDX 46 55 47 56 58 58 76 59 49 60 36 61 37 62 42 63 38 64 39 65
REMARK SMILES IDX 41 66 43 67 40 68 62 69 63 70 68 71 64 72 65 73 67 74 69 75
REMARK SMILES IDX 66 76 50 77 51 78 56 79 52 80 53 81 55 82 57 83 54 84
REMARK H PARENT 14 22 74 46 48 57
REMARK Flexibility Score: inf
ROOT
ATOM      1  C   UNL     1       0.490   0.179  -7.624  1.00  0.00     0.202 C 
ENDROOT
BRANCH   1   2
ATOM      2  C   UNL     1       1.950   0.197  -7.165  1.00  0.00     0.261 C 
BRANCH   2   3
ATOM      3  O   UNL     1       2.235  -0.592  -5.991  1.00  0.00    -0.463 OA
BRANCH   3   4
ATOM      4  C   UNL     1       2.722   0.113  -4.932  1.00  0.00     0.312 C 
ATOM      5  O   UNL     1       2.766   1.340  -4.897  1.00  0.00    -0.252 OA
BRANCH   4   6
ATOM      6  C   UNL     1       3.317  -0.751  -3.807  1.00  0.00     0.072 C 
ATOM      7  C   UNL     1       1.389  -0.291  -2.173  1.00  0.00    -0.010 C 
ATOM      8  C   UNL     1       1.102  -1.786  -2.029  1.00  0.00     0.003 C 
ATOM      9  C   UNL     1       2.890  -0.090  -2.456  1.00  0.00     0.022 C 
ATOM     10  C   UNL     1       1.482  -2.536  -3.302  1.00  0.00     0.001 C 
ATOM     11  C   UNL     1       2.904  -2.244  -3.784  1.00  0.00     0.019 C 
BRANCH   7  12
ATOM     12  C   UNL     1       0.862   0.553  -1.001  1.00  0.00     0.000 C 
ATOM     13  C   UNL     1       1.337   0.147   0.382  1.00  0.00     0.004 C 
ENDBRANCH   7  12
BRANCH   6  14
ATOM     14  C   UNL     1       4.869  -0.622  -3.964  1.00  0.00     0.054 C 
BRANCH  14  15
ATOM     15  C   UNL     1       5.476  -1.389  -5.126  1.00  0.00    -0.043 A 
ATOM     16  C   UNL     1       5.371  -0.918  -6.443  1.00  0.00     0.004 A 
ATOM     17  C   UNL     1       6.131  -2.608  -4.904  1.00  0.00     0.049 A 
ATOM     18  C   UNL     1       5.844  -1.679  -7.516  1.00  0.00     0.004 A 
ATOM     19  C   UNL     1       6.622  -3.348  -5.977  1.00  0.00     0.115 A 
ATOM     20  C   UNL     1       6.469  -2.902  -7.285  1.00  0.00     0.046 A 
BRANCH  19  21
ATOM     21  O   UNL     1       7.252  -4.525  -5.699  1.00  0.00    -0.508 OA
ATOM     22  H   UNL     1       7.596  -5.049  -6.396  1.00  0.00     0.293 HD
ENDBRANCH  19  21
ENDBRANCH  14  15
ENDBRANCH   6  14
ENDBRANCH   4   6
ENDBRANCH   3   4
ENDBRANCH   2   3
ENDBRANCH   1   2
BRANCH   1  23
ATOM     23  O   UNL     1      -0.489   0.653  -6.706  1.00  0.00    -0.374 OA
BRANCH  23  24
ATOM     24  C   UNL     1      -0.758  -0.167  -5.570  1.00  0.00     0.202 C 
BRANCH  24  25
ATOM     25  C   UNL     1      -1.420  -1.520  -5.854  1.00  0.00     0.261 C 
BRANCH  25  26
ATOM     26  O   UNL     1      -0.530  -2.396  -6.573  1.00  0.00    -0.460 OA
BRANCH  26  27
ATOM     27  C   UNL     1      -1.129  -3.128  -7.543  1.00  0.00     0.338 C 
ATOM     28  O   UNL     1      -2.323  -3.245  -7.754  1.00  0.00    -0.246 OA
BRANCH  27  29
ATOM     29  C   UNL     1      -0.111  -3.677  -8.453  1.00  0.00     0.060 A 
ATOM     30  C   UNL     1       0.066  -3.061  -9.699  1.00  0.00     0.016 A 
ATOM     31  C   UNL     1       0.558  -4.861  -8.143  1.00  0.00     0.016 A 
ATOM     32  C   UNL     1       0.896  -3.647 -10.654  1.00  0.00     0.010 A 
ATOM     33  C   UNL     1       1.380  -5.454  -9.108  1.00  0.00     0.010 A 
ATOM     34  C   UNL     1       1.529  -4.867 -10.378  1.00  0.00    -0.014 A 
BRANCH  34  35
ATOM     35  C   UNL     1       2.256  -5.583 -11.453  1.00  0.00     0.031 A 
ATOM     36  C   UNL     1       1.551  -6.657 -12.235  1.00  0.00     0.074 A 
ATOM     37  C   UNL     1       3.532  -5.270 -11.741  1.00  0.00     0.049 A 
ATOM     38  N   UNL     1       2.016  -7.434 -13.181  1.00  0.00    -0.248 NA
ATOM     39  C   UNL     1       0.133  -6.881 -11.912  1.00  0.00     0.031 C 
ATOM     40  C   UNL     1       4.311  -4.218 -11.090  1.00  0.00     0.029 A 
ATOM     41  N   UNL     1       4.398  -5.817 -12.655  1.00  0.00    -0.354 N 
ATOM     42  C   UNL     1       0.951  -8.238 -13.566  1.00  0.00     0.074 A 
ATOM     43  C   UNL     1      -0.179  -7.869 -12.739  1.00  0.00     0.031 C 
ATOM     44  C   UNL     1       5.547  -4.205 -11.616  1.00  0.00     0.029 A 
ATOM     45  C   UNL     1       5.656  -5.270 -12.613  1.00  0.00     0.049 A 
ATOM     46  H   UNL     1       4.141  -6.532 -13.280  1.00  0.00     0.167 HD
ATOM     47  C   UNL     1       0.916  -9.193 -14.526  1.00  0.00     0.037 A 
ATOM     48  C   UNL     1       6.776  -5.610 -13.280  1.00  0.00     0.037 A 
ATOM     49  C   UNL     1       2.038  -9.565 -15.347  1.00  0.00     0.049 A 
ATOM     50  C   UNL     1       6.738  -6.746 -14.268  1.00  0.00     0.074 A 
ATOM     51  C   UNL     1       2.087 -10.496 -16.370  1.00  0.00     0.029 A 
ATOM     52  N   UNL     1       3.312  -9.034 -15.227  1.00  0.00    -0.354 N 
ATOM     53  N   UNL     1       5.719  -7.480 -14.645  1.00  0.00    -0.248 NA
ATOM     54  C   UNL     1       8.009  -7.108 -14.914  1.00  0.00     0.031 C 
ATOM     55  C   UNL     1       3.405 -10.562 -16.837  1.00  0.00     0.029 A 
ATOM     56  C   UNL     1       4.165  -9.645 -16.131  1.00  0.00     0.049 A 
ATOM     57  H   UNL     1       3.572  -8.326 -14.594  1.00  0.00     0.167 HD
ATOM     58  C   UNL     1       6.221  -8.378 -15.579  1.00  0.00     0.074 A 
ATOM     59  C   UNL     1       7.632  -8.089 -15.723  1.00  0.00     0.031 C 
ATOM     60  C   UNL     1       5.570  -9.356 -16.256  1.00  0.00     0.037 A 
BRANCH  47  61
ATOM     61  C   UNL     1      -0.377  -9.924 -14.728  1.00  0.00     0.057 A 
ATOM     62  C   UNL     1      -1.464  -9.333 -15.382  1.00  0.00     0.134 A 
ATOM     63  C   UNL     1      -0.518 -11.251 -14.303  1.00  0.00     0.134 A 
ATOM     64  F   UNL     1      -1.394  -8.061 -15.804  1.00  0.00    -0.206 F 
ATOM     65  C   UNL     1      -2.654 -10.032 -15.594  1.00  0.00     0.040 A 
ATOM     66  C   UNL     1      -1.696 -11.966 -14.525  1.00  0.00     0.040 A 
ATOM     67  F   UNL     1       0.489 -11.875 -13.674  1.00  0.00    -0.206 F 
ATOM     68  C   UNL     1      -2.769 -11.355 -15.170  1.00  0.00     0.006 A 
ENDBRANCH  47  61
BRANCH  48  69
ATOM     69  C   UNL     1       8.044  -4.890 -13.010  1.00  0.00     0.057 A 
ATOM     70  C   UNL     1       8.614  -4.042 -13.965  1.00  0.00     0.134 A 
ATOM     71  C   UNL     1       8.724  -5.046 -11.795  1.00  0.00     0.134 A 
ATOM     72  F   UNL     1       8.021  -3.872 -15.156  1.00  0.00    -0.206 F 
ATOM     73  C   UNL     1       9.822  -3.383 -13.728  1.00  0.00     0.040 A 
ATOM     74  C   UNL     1       9.921  -4.378 -11.537  1.00  0.00     0.040 A 
ATOM     75  F   UNL     1       8.226  -5.842 -10.837  1.00  0.00    -0.206 F 
ATOM     76  C   UNL     1      10.476  -3.547 -12.508  1.00  0.00     0.006 A 
ENDBRANCH  48  69
BRANCH  60  77
ATOM     77  C   UNL     1       6.374 -10.184 -17.214  1.00  0.00     0.057 A 
ATOM     78  C   UNL     1       7.250 -11.178 -16.764  1.00  0.00     0.134 A 
ATOM     79  C   UNL     1       6.234 -10.020 -18.597  1.00  0.00     0.134 A 
ATOM     80  F   UNL     1       7.438 -11.375 -15.450  1.00  0.00    -0.206 F 
ATOM     81  C   UNL     1       7.969 -11.975 -17.657  1.00  0.00     0.040 A 
ATOM     82  C   UNL     1       6.931 -10.823 -19.501  1.00  0.00     0.040 A 
ATOM     83  F   UNL     1       5.405  -9.089 -19.093  1.00  0.00    -0.206 F 
ATOM     84  C   UNL     1       7.804 -11.803 -19.030  1.00  0.00     0.006 A 
ENDBRANCH  60  77
ENDBRANCH  34  35
ENDBRANCH  27  29
ENDBRANCH  26  27
ENDBRANCH  25  26
ENDBRANCH  24  25
ENDBRANCH  23  24
ENDBRANCH   1  23
TORSDOF 18
