REMARK SMILES Cc1cccc(CC(=O)N[C@H]2CCCCC[C@@H]2C(=O)OCCOCCOC(=O)c2ccc(-c3c4nc(c(-c5c(F)cccc5F)c5ccc([nH]5)c(-c5c(F)cccc5F)c5nc(c(-c6c(F)cccc6F)c6ccc3[nH]6)C=C5)C=C4)cc2)c1
REMARK SMILES IDX 22 1 21 2 20 3 18 4 19 5 17 6 11 7 10 8 8 9 9 10 7 12 6 13
REMARK SMILES IDX 1 14 2 15 3 16 83 17 4 18 5 19 12 20 13 21 14 22 16 24 15 25
REMARK SMILES IDX 23 27 24 28 25 29 26 30 27 31 28 32 29 33 30 34 82 35 31 36
REMARK SMILES IDX 81 37 32 38 33 39 34 40 75 41 35 42 80 43 74 44 76 45 36 46
REMARK SMILES IDX 79 47 73 48 72 49 37 51 63 52 46 53 62 54 47 55 50 56 61 57
REMARK SMILES IDX 77 58 48 59 49 60 60 62 78 63 51 64 38 65 39 66 44 67 40 68
REMARK SMILES IDX 41 69 43 70 45 71 42 72 64 73 65 74 70 75 66 76 67 77 69 78
REMARK SMILES IDX 71 79 68 80 52 81 53 82 58 83 54 84 55 85 57 86 59 87 56 88
REMARK H PARENT 10 11 76 50 50 61
REMARK Flexibility Score: 100.00
ROOT
ATOM      1  C   UNL     1       0.148   6.929  -4.450  1.00  0.00     0.202 C 
ENDROOT
BRANCH   1   2
ATOM      2  C   UNL     1      -0.912   6.445  -3.525  1.00  0.00     0.261 C 
BRANCH   2   3
ATOM      3  O   UNL     1      -0.397   5.447  -2.643  1.00  0.00    -0.463 OA
BRANCH   3   4
ATOM      4  C   UNL     1      -0.507   4.139  -3.036  1.00  0.00     0.311 C 
ATOM      5  O   UNL     1      -1.065   3.753  -4.038  1.00  0.00    -0.252 OA
BRANCH   4   6
ATOM      6  C   UNL     1       0.249   3.262  -2.041  1.00  0.00     0.121 C 
BRANCH   6   7
ATOM      7  C   UNL     1      -0.072   1.785  -2.289  1.00  0.00     0.096 C 
BRANCH   7   8
ATOM      8  N   UNL     1       0.434   1.258  -3.584  1.00  0.00    -0.352 N 
ATOM      9  C   UNL     1       1.580   1.264  -4.315  1.00  0.00     0.224 C 
ATOM     10  O   UNL     1       1.476   0.870  -5.486  1.00  0.00    -0.275 OA
ATOM     11  H   UNL     1      -0.272   0.756  -4.052  1.00  0.00     0.163 HD
BRANCH   9  12
ATOM     12  C   UNL     1       2.957   1.639  -3.790  1.00  0.00     0.135 C 
BRANCH  12  13
ATOM     13  C   UNL     1       3.347   3.098  -3.864  1.00  0.00    -0.038 A 
ATOM     14  C   UNL     1       3.538   6.051  -1.470  1.00  0.00     0.044 C 
ATOM     15  C   UNL     1       3.696   5.236  -2.721  1.00  0.00    -0.051 A 
ATOM     16  C   UNL     1       3.877   5.857  -3.954  1.00  0.00     0.003 A 
ATOM     17  C   UNL     1       3.530   3.845  -2.689  1.00  0.00     0.007 A 
ATOM     18  C   UNL     1       3.865   5.098  -5.124  1.00  0.00     0.001 A 
ATOM     19  C   UNL     1       3.540   3.740  -5.088  1.00  0.00     0.004 A 
ENDBRANCH  12  13
ENDBRANCH   9  12
ENDBRANCH   7   8
BRANCH   7  20
ATOM     20  C   UNL     1       0.158   0.831  -1.109  1.00  0.00     0.026 C 
BRANCH  20  21
ATOM     21  C   UNL     1       1.481   0.985  -0.373  1.00  0.00     0.002 C 
BRANCH  21  22
ATOM     22  C   UNL     1       1.454   2.012   0.751  1.00  0.00     0.000 CG0
ATOM     23  G   UNL     1       1.249   3.458   0.332  1.00  0.00     0.000 G0
ENDBRANCH  21  22
ENDBRANCH  20  21
ENDBRANCH   7  20
ENDBRANCH   6   7
BRANCH   6  24
ATOM     24  C   UNL     1       0.062   3.744  -0.585  1.00  0.00     0.017 C 
BRANCH  24  25
ATOM     25  C   UNL     1       1.249   3.458   0.332  1.00  0.00     0.001 CG0
ATOM     26  G   UNL     1       1.454   2.012   0.751  1.00  0.00     0.000 G0
ENDBRANCH  24  25
ENDBRANCH   6  24
ENDBRANCH   4   6
ENDBRANCH   3   4
ENDBRANCH   2   3
ENDBRANCH   1   2
BRANCH   1  27
ATOM     27  O   UNL     1       0.006   6.129  -5.612  1.00  0.00    -0.374 OA
BRANCH  27  28
ATOM     28  C   UNL     1       0.937   6.390  -6.638  1.00  0.00     0.202 C 
BRANCH  28  29
ATOM     29  C   UNL     1       0.947   7.850  -7.099  1.00  0.00     0.261 C 
BRANCH  29  30
ATOM     30  O   UNL     1      -0.343   8.181  -7.659  1.00  0.00    -0.460 OA
BRANCH  30  31
ATOM     31  C   UNL     1      -1.169   8.909  -6.859  1.00  0.00     0.338 C 
ATOM     32  O   UNL     1      -0.859   9.936  -6.274  1.00  0.00    -0.246 OA
BRANCH  31  33
ATOM     33  C   UNL     1      -2.402   8.124  -6.543  1.00  0.00     0.060 A 
ATOM     34  C   UNL     1      -3.256   8.554  -5.508  1.00  0.00     0.016 A 
ATOM     35  C   UNL     1      -2.502   6.820  -7.019  1.00  0.00     0.016 A 
ATOM     36  C   UNL     1      -4.082   7.634  -4.840  1.00  0.00     0.010 A 
ATOM     37  C   UNL     1      -3.233   5.902  -6.292  1.00  0.00     0.010 A 
ATOM     38  C   UNL     1      -4.003   6.285  -5.178  1.00  0.00    -0.014 A 
BRANCH  38  39
ATOM     39  C   UNL     1      -4.536   5.160  -4.395  1.00  0.00     0.031 A 
ATOM     40  C   UNL     1      -5.446   4.198  -5.057  1.00  0.00     0.074 A 
ATOM     41  C   UNL     1      -4.012   4.801  -3.193  1.00  0.00     0.049 A 
ATOM     42  N   UNL     1      -6.070   3.273  -4.414  1.00  0.00    -0.248 NA
ATOM     43  C   UNL     1      -5.786   4.211  -6.481  1.00  0.00     0.031 C 
ATOM     44  C   UNL     1      -3.970   3.462  -2.599  1.00  0.00     0.029 A 
ATOM     45  N   UNL     1      -3.404   5.588  -2.213  1.00  0.00    -0.354 N 
ATOM     46  C   UNL     1      -6.494   2.362  -5.341  1.00  0.00     0.074 A 
ATOM     47  C   UNL     1      -6.485   3.076  -6.591  1.00  0.00     0.031 C 
ATOM     48  C   UNL     1      -3.619   3.550  -1.308  1.00  0.00     0.029 A 
ATOM     49  C   UNL     1      -3.559   4.955  -0.969  1.00  0.00     0.049 A 
ATOM     50  H   UNL     1      -2.944   6.444  -2.368  1.00  0.00     0.167 HD
ATOM     51  C   UNL     1      -6.645   1.065  -4.957  1.00  0.00     0.037 A 
ATOM     52  C   UNL     1      -4.133   5.615   0.071  1.00  0.00     0.037 A 
ATOM     53  C   UNL     1      -6.538   0.907  -3.493  1.00  0.00     0.049 A 
ATOM     54  C   UNL     1      -5.446   4.955   0.405  1.00  0.00     0.074 A 
ATOM     55  C   UNL     1      -5.710   0.224  -2.619  1.00  0.00     0.029 A 
ATOM     56  N   UNL     1      -7.286   1.758  -2.686  1.00  0.00    -0.354 N 
ATOM     57  N   UNL     1      -5.779   3.776  -0.048  1.00  0.00    -0.248 NA
ATOM     58  C   UNL     1      -6.521   5.568   1.172  1.00  0.00     0.031 C 
ATOM     59  C   UNL     1      -5.967   0.708  -1.288  1.00  0.00     0.029 A 
ATOM     60  C   UNL     1      -6.992   1.637  -1.341  1.00  0.00     0.049 A 
ATOM     61  H   UNL     1      -7.959   2.385  -3.038  1.00  0.00     0.167 HD
ATOM     62  C   UNL     1      -7.100   3.541   0.168  1.00  0.00     0.074 A 
ATOM     63  C   UNL     1      -7.516   4.680   0.980  1.00  0.00     0.031 C 
ATOM     64  C   UNL     1      -7.742   2.467  -0.389  1.00  0.00     0.037 A 
BRANCH  51  65
ATOM     65  C   UNL     1      -6.797  -0.077  -5.936  1.00  0.00     0.057 A 
ATOM     66  C   UNL     1      -7.305  -1.314  -5.509  1.00  0.00     0.134 A 
ATOM     67  C   UNL     1      -6.416  -0.044  -7.297  1.00  0.00     0.134 A 
ATOM     68  F   UNL     1      -7.660  -1.513  -4.231  1.00  0.00    -0.206 F 
ATOM     69  C   UNL     1      -7.468  -2.409  -6.373  1.00  0.00     0.040 A 
ATOM     70  C   UNL     1      -6.632  -1.108  -8.184  1.00  0.00     0.040 A 
ATOM     71  F   UNL     1      -5.759   0.995  -7.830  1.00  0.00    -0.206 F 
ATOM     72  C   UNL     1      -7.158  -2.301  -7.722  1.00  0.00     0.006 A 
ENDBRANCH  51  65
BRANCH  52  73
ATOM     73  C   UNL     1      -3.749   7.064   0.032  1.00  0.00     0.057 A 
ATOM     74  C   UNL     1      -2.388   7.359   0.283  1.00  0.00     0.134 A 
ATOM     75  C   UNL     1      -4.452   7.987  -0.754  1.00  0.00     0.134 A 
ATOM     76  F   UNL     1      -1.639   6.508   1.005  1.00  0.00    -0.206 F 
ATOM     77  C   UNL     1      -1.725   8.420  -0.346  1.00  0.00     0.040 A 
ATOM     78  C   UNL     1      -3.793   9.055  -1.387  1.00  0.00     0.040 A 
ATOM     79  F   UNL     1      -5.738   7.774  -1.062  1.00  0.00    -0.206 F 
ATOM     80  C   UNL     1      -2.421   9.246  -1.222  1.00  0.00     0.006 A 
ENDBRANCH  52  73
BRANCH  64  81
ATOM     81  C   UNL     1      -9.201   2.184  -0.134  1.00  0.00     0.057 A 
ATOM     82  C   UNL     1      -9.809   2.431   1.104  1.00  0.00     0.134 A 
ATOM     83  C   UNL     1     -10.041   1.589  -1.099  1.00  0.00     0.134 A 
ATOM     84  F   UNL     1      -9.088   2.812   2.169  1.00  0.00    -0.206 F 
ATOM     85  C   UNL     1     -11.182   2.266   1.312  1.00  0.00     0.040 A 
ATOM     86  C   UNL     1     -11.401   1.366  -0.887  1.00  0.00     0.040 A 
ATOM     87  F   UNL     1      -9.598   1.200  -2.301  1.00  0.00    -0.206 F 
ATOM     88  C   UNL     1     -11.987   1.744   0.308  1.00  0.00     0.006 A 
ENDBRANCH  64  81
ENDBRANCH  38  39
ENDBRANCH  31  33
ENDBRANCH  30  31
ENDBRANCH  29  30
ENDBRANCH  28  29
ENDBRANCH  27  28
ENDBRANCH   1  27
TORSDOF 17
