REMARK SMILES NS(=O)(=O)c1ccc(-c2cc(Cl)cc3c2O[C@@H](C(F)(F)F)C(C(=O)OCCOCCOC(=O)c2ccc(-c4c5nc(c(-c6c(F)cccc6F)c6ccc([nH]6)c(-c6c(F)cccc6F)c6nc(c(-c7c(F)cccc7F)c7ccc4[nH]7)C=C6)C=C5)cc2)=C3)cc1
REMARK SMILES IDX 27 1 26 2 25 3 23 4 24 5 22 6 9 7 10 8 15 9 11 10 14 11
REMARK SMILES IDX 16 12 12 13 13 14 88 15 17 16 8 17 5 18 6 19 90 20 7 21
REMARK SMILES IDX 89 22 2 23 3 24 4 25 1 26 18 29 19 30 20 31 21 32 28 33
REMARK SMILES IDX 29 34 30 35 31 36 32 37 33 38 34 39 35 40 87 41 36 42 86 43
REMARK SMILES IDX 37 44 38 45 39 46 80 47 40 48 85 49 79 50 81 51 41 52 84 53
REMARK SMILES IDX 78 54 77 55 42 57 68 58 51 59 67 60 52 61 55 62 66 63 82 64
REMARK SMILES IDX 53 65 54 66 65 68 83 69 56 70 43 71 44 72 49 73 45 74 46 75
REMARK SMILES IDX 48 76 50 77 47 78 69 79 70 80 75 81 71 82 72 83 74 84 76 85
REMARK SMILES IDX 73 86 57 87 58 88 63 89 59 90 60 91 62 92 64 93 61 94
REMARK H PARENT 1 27 1 28 81 56 55 67
REMARK Flexibility Score: inf
ROOT
ATOM      1  C   UNL     1       3.408   4.074  11.988  1.00  0.00     0.202 C 
ENDROOT
BRANCH   1   2
ATOM      2  C   UNL     1       3.098   5.577  11.894  1.00  0.00     0.261 C 
BRANCH   2   3
ATOM      3  O   UNL     1       2.066   5.887  10.944  1.00  0.00    -0.460 OA
BRANCH   3   4
ATOM      4  C   UNL     1       2.250   7.013  10.227  1.00  0.00     0.338 C 
ATOM      5  O   UNL     1       3.123   7.845  10.435  1.00  0.00    -0.246 OA
BRANCH   4   6
ATOM      6  C   UNL     1       1.379   7.080   9.028  1.00  0.00     0.087 C 
ATOM      7  C   UNL     1       1.357   3.705   6.591  1.00  0.00     0.026 A 
ATOM      8  C   UNL     1       2.599   3.077   6.851  1.00  0.00     0.033 A 
ATOM      9  C   UNL     1       1.179   4.959   7.224  1.00  0.00     0.135 A 
ATOM     10  C   UNL     1       3.671   3.785   7.392  1.00  0.00     0.042 A 
ATOM     11  C   UNL     1       2.312   5.744   7.506  1.00  0.00     0.019 A 
ATOM     12  O   UNL     1       0.037   5.188   8.029  1.00  0.00    -0.475 OA
ATOM     13  Cl  UNL     1       5.168   2.988   7.665  1.00  0.00    -0.084 Cl
ATOM     14  C   UNL     1       3.561   5.146   7.623  1.00  0.00     0.032 A 
ATOM     15  C   UNL     1       2.126   7.152   7.915  1.00  0.00     0.027 C 
ATOM     16  C   UNL     1       0.015   6.458   8.817  1.00  0.00     0.316 C 
BRANCH   7  17
ATOM     17  C   UNL     1       0.771   3.317   5.246  1.00  0.00    -0.015 A 
ATOM     18  C   UNL     1       0.512   2.558   2.494  1.00  0.00     0.082 A 
ATOM     19  C   UNL     1       0.590   1.581   3.483  1.00  0.00     0.022 A 
ATOM     20  C   UNL     1       0.510   3.905   2.862  1.00  0.00     0.022 A 
ATOM     21  C   UNL     1       0.698   1.962   4.838  1.00  0.00     0.010 A 
ATOM     22  C   UNL     1       0.628   4.277   4.220  1.00  0.00     0.010 A 
BRANCH  18  23
ATOM     23  S   UNL     1       0.479   2.133   0.769  1.00  0.00     0.238 S 
ATOM     24  O   UNL     1       1.366   3.032   0.056  1.00  0.00    -0.207 OA
ATOM     25  O   UNL     1      -0.888   1.919   0.377  1.00  0.00    -0.207 OA
BRANCH  23  26
ATOM     26  N   UNL     1       1.229   0.628   0.660  1.00  0.00    -0.225 NA
ATOM     27  H   UNL     1       1.243   0.324  -0.314  1.00  0.00     0.137 HD
ATOM     28  H   UNL     1       0.714  -0.051   1.220  1.00  0.00     0.137 HD
ENDBRANCH  23  26
ENDBRANCH  18  23
ENDBRANCH   7  17
BRANCH  16  29
ATOM     29  C   UNL     1      -0.908   6.518  10.056  1.00  0.00     0.430 C 
ATOM     30  F   UNL     1      -1.233   7.819  10.302  1.00  0.00    -0.167 F 
ATOM     31  F   UNL     1      -2.076   5.868   9.852  1.00  0.00    -0.167 F 
ATOM     32  F   UNL     1      -0.377   6.035  11.194  1.00  0.00    -0.167 F 
ENDBRANCH  16  29
ENDBRANCH   4   6
ENDBRANCH   3   4
ENDBRANCH   2   3
ENDBRANCH   1   2
BRANCH   1  33
ATOM     33  O   UNL     1       3.083   3.239  10.886  1.00  0.00    -0.374 OA
BRANCH  33  34
ATOM     34  C   UNL     1       1.709   3.071  10.545  1.00  0.00     0.202 C 
BRANCH  34  35
ATOM     35  C   UNL     1       0.780   2.352  11.528  1.00  0.00     0.261 C 
BRANCH  35  36
ATOM     36  O   UNL     1       0.708   2.971  12.821  1.00  0.00    -0.460 OA
BRANCH  36  37
ATOM     37  C   UNL     1       1.243   2.232  13.823  1.00  0.00     0.338 C 
ATOM     38  O   UNL     1       1.766   1.134  13.743  1.00  0.00    -0.246 OA
BRANCH  37  39
ATOM     39  C   UNL     1       1.254   3.013  15.069  1.00  0.00     0.060 A 
ATOM     40  C   UNL     1       2.491   3.265  15.673  1.00  0.00     0.016 A 
ATOM     41  C   UNL     1       0.062   3.385  15.692  1.00  0.00     0.016 A 
ATOM     42  C   UNL     1       2.539   3.854  16.933  1.00  0.00     0.010 A 
ATOM     43  C   UNL     1       0.113   3.971  16.958  1.00  0.00     0.010 A 
ATOM     44  C   UNL     1       1.349   4.173  17.599  1.00  0.00    -0.014 A 
BRANCH  44  45
ATOM     45  C   UNL     1       1.399   4.588  19.020  1.00  0.00     0.031 A 
ATOM     46  C   UNL     1       1.035   3.595  20.087  1.00  0.00     0.074 A 
ATOM     47  C   UNL     1       1.789   5.831  19.351  1.00  0.00     0.049 A 
ATOM     48  N   UNL     1       0.983   3.752  21.385  1.00  0.00    -0.248 NA
ATOM     49  C   UNL     1       0.674   2.244  19.629  1.00  0.00     0.031 C 
ATOM     50  C   UNL     1       2.188   6.869  18.402  1.00  0.00     0.029 A 
ATOM     51  N   UNL     1       1.903   6.431  20.578  1.00  0.00    -0.354 N 
ATOM     52  C   UNL     1       0.572   2.527  21.896  1.00  0.00     0.074 A 
ATOM     53  C   UNL     1       0.355   1.649  20.768  1.00  0.00     0.031 C 
ATOM     54  C   UNL     1       2.491   7.986  19.083  1.00  0.00     0.029 A 
ATOM     55  C   UNL     1       2.275   7.750  20.509  1.00  0.00     0.049 A 
ATOM     56  H   UNL     1       1.734   5.962  21.427  1.00  0.00     0.167 HD
ATOM     57  C   UNL     1       0.400   2.168  23.191  1.00  0.00     0.037 A 
ATOM     58  C   UNL     1       2.402   8.669  21.485  1.00  0.00     0.037 A 
ATOM     59  C   UNL     1       0.621   3.051  24.307  1.00  0.00     0.049 A 
ATOM     60  C   UNL     1       2.155   8.262  22.913  1.00  0.00     0.074 A 
ATOM     61  C   UNL     1       0.511   2.776  25.659  1.00  0.00     0.029 A 
ATOM     62  N   UNL     1       0.983   4.386  24.198  1.00  0.00    -0.354 N 
ATOM     63  N   UNL     1       1.809   7.091  23.392  1.00  0.00    -0.248 NA
ATOM     64  C   UNL     1       2.323   9.302  23.937  1.00  0.00     0.031 C 
ATOM     65  C   UNL     1       0.743   3.962  26.365  1.00  0.00     0.029 A 
ATOM     66  C   UNL     1       1.066   4.958  25.457  1.00  0.00     0.049 A 
ATOM     67  H   UNL     1       1.155   4.857  23.351  1.00  0.00     0.167 HD
ATOM     68  C   UNL     1       1.745   7.245  24.772  1.00  0.00     0.074 A 
ATOM     69  C   UNL     1       2.103   8.620  25.053  1.00  0.00     0.031 C 
ATOM     70  C   UNL     1       1.423   6.330  25.720  1.00  0.00     0.037 A 
BRANCH  57  71
ATOM     71  C   UNL     1      -0.085   0.772  23.464  1.00  0.00     0.057 A 
ATOM     72  C   UNL     1       0.712  -0.357  23.225  1.00  0.00     0.134 A 
ATOM     73  C   UNL     1      -1.364   0.555  23.993  1.00  0.00     0.134 A 
ATOM     74  F   UNL     1       1.943  -0.224  22.709  1.00  0.00    -0.206 F 
ATOM     75  C   UNL     1       0.241  -1.649  23.470  1.00  0.00     0.040 A 
ATOM     76  C   UNL     1      -1.833  -0.730  24.271  1.00  0.00     0.040 A 
ATOM     77  F   UNL     1      -2.179   1.589  24.252  1.00  0.00    -0.206 F 
ATOM     78  C   UNL     1      -1.033  -1.837  24.000  1.00  0.00     0.006 A 
ENDBRANCH  57  71
BRANCH  58  79
ATOM     79  C   UNL     1       2.767  10.066  21.140  1.00  0.00     0.057 A 
ATOM     80  C   UNL     1       4.004  10.609  21.503  1.00  0.00     0.134 A 
ATOM     81  C   UNL     1       1.883  10.893  20.435  1.00  0.00     0.134 A 
ATOM     82  F   UNL     1       4.886   9.875  22.197  1.00  0.00    -0.206 F 
ATOM     83  C   UNL     1       4.344  11.927  21.192  1.00  0.00     0.040 A 
ATOM     84  C   UNL     1       2.220  12.203  20.092  1.00  0.00     0.040 A 
ATOM     85  F   UNL     1       0.682  10.432  20.053  1.00  0.00    -0.206 F 
ATOM     86  C   UNL     1       3.453  12.726  20.478  1.00  0.00     0.006 A 
ENDBRANCH  58  79
BRANCH  70  87
ATOM     87  C   UNL     1       1.477   6.777  27.154  1.00  0.00     0.057 A 
ATOM     88  C   UNL     1       0.541   7.669  27.692  1.00  0.00     0.134 A 
ATOM     89  C   UNL     1       2.456   6.271  28.019  1.00  0.00     0.134 A 
ATOM     90  F   UNL     1      -0.417   8.200  26.917  1.00  0.00    -0.206 F 
ATOM     91  C   UNL     1       0.594   8.063  29.030  1.00  0.00     0.040 A 
ATOM     92  C   UNL     1       2.500   6.632  29.366  1.00  0.00     0.040 A 
ATOM     93  F   UNL     1       3.377   5.403  27.574  1.00  0.00    -0.206 F 
ATOM     94  C   UNL     1       1.571   7.538  29.874  1.00  0.00     0.006 A 
ENDBRANCH  70  87
ENDBRANCH  44  45
ENDBRANCH  37  39
ENDBRANCH  36  37
ENDBRANCH  35  36
ENDBRANCH  34  35
ENDBRANCH  33  34
ENDBRANCH   1  33
TORSDOF 18
