REMARK SMILES CN(Cc1ncc(C(=O)OCCOCCOC(=O)c2ccc(-c3c4nc(c(-c5c(F)cccc5F)c5ccc([nH]5)c(-c5c(F)cccc5F)c5nc(c(-c6c(F)cccc6F)c6ccc3[nH]6)C=C5)C=C4)cc2)cn1)S(=O)(=O)c1ccc(Cl)cc1
REMARK SMILES IDX 12 1 11 2 10 3 8 4 9 5 7 6 4 7 5 8 74 9 6 10 73 11 3 12 2 13
REMARK SMILES IDX 1 14 75 15 76 16 77 17 78 18 79 19 84 20 80 21 83 22 81 23
REMARK SMILES IDX 82 24 13 25 14 26 15 27 16 28 17 29 18 30 19 31 20 32 72 33
REMARK SMILES IDX 21 34 71 35 22 36 23 37 24 38 65 39 25 40 70 41 64 42 66 43
REMARK SMILES IDX 26 44 69 45 63 46 62 47 27 49 53 50 36 51 52 52 37 53 40 54
REMARK SMILES IDX 51 55 67 56 38 57 39 58 50 60 68 61 41 62 28 63 29 64 34 65
REMARK SMILES IDX 30 66 31 67 33 68 35 69 32 70 54 71 55 72 60 73 56 74 57 75
REMARK SMILES IDX 59 76 61 77 58 78 42 79 43 80 48 81 44 82 45 83 47 84 49 85
REMARK SMILES IDX 46 86
REMARK H PARENT 66 48 40 59
REMARK Flexibility Score: inf
ROOT
ATOM      1  C   UNL     1      -2.348   5.534   5.047  1.00  0.00     0.202 C 
ENDROOT
BRANCH   1   2
ATOM      2  C   UNL     1      -3.642   5.034   4.398  1.00  0.00     0.261 C 
BRANCH   2   3
ATOM      3  O   UNL     1      -3.395   3.956   3.481  1.00  0.00    -0.460 OA
BRANCH   3   4
ATOM      4  C   UNL     1      -3.573   4.270   2.176  1.00  0.00     0.341 C 
ATOM      5  O   UNL     1      -4.063   5.295   1.728  1.00  0.00    -0.246 OA
BRANCH   4   6
ATOM      6  C   UNL     1      -2.947   3.261   1.319  1.00  0.00     0.096 A 
ATOM      7  C   UNL     1      -1.673   1.530  -0.334  1.00  0.00     0.143 A 
ATOM      8  N   UNL     1      -2.050   1.076   0.884  1.00  0.00    -0.239 NA
ATOM      9  N   UNL     1      -1.900   2.778  -0.788  1.00  0.00    -0.239 NA
ATOM     10  C   UNL     1      -2.689   1.960   1.686  1.00  0.00     0.130 A 
ATOM     11  C   UNL     1      -2.513   3.625   0.064  1.00  0.00     0.130 A 
BRANCH   7  12
ATOM     12  C   UNL     1      -1.001   0.560  -1.283  1.00  0.00     0.179 C 
BRANCH  12  13
ATOM     13  N   UNL     1       0.493   0.538  -1.358  1.00  0.00    -0.193 NA
ATOM     14  C   UNL     1       1.084  -0.090  -0.149  1.00  0.00     0.125 C 
BRANCH  13  15
ATOM     15  S   UNL     1       1.310   1.974  -1.790  1.00  0.00     0.243 S 
ATOM     16  O   UNL     1       1.048   2.959  -0.762  1.00  0.00    -0.207 OA
ATOM     17  O   UNL     1       2.673   1.602  -2.107  1.00  0.00    -0.207 OA
BRANCH  15  18
ATOM     18  C   UNL     1       0.594   2.540  -3.315  1.00  0.00     0.082 A 
ATOM     19  C   UNL     1       0.546   3.917  -3.560  1.00  0.00     0.023 A 
ATOM     20  C   UNL     1       0.120   1.633  -4.268  1.00  0.00     0.023 A 
ATOM     21  C   UNL     1       0.010   4.389  -4.761  1.00  0.00     0.022 A 
ATOM     22  C   UNL     1      -0.443   2.112  -5.455  1.00  0.00     0.022 A 
ATOM     23  C   UNL     1      -0.492   3.486  -5.697  1.00  0.00     0.041 A 
ATOM     24  Cl  UNL     1      -1.168   4.069  -7.169  1.00  0.00    -0.084 Cl
ENDBRANCH  15  18
ENDBRANCH  13  15
ENDBRANCH  12  13
ENDBRANCH   7  12
ENDBRANCH   4   6
ENDBRANCH   3   4
ENDBRANCH   2   3
ENDBRANCH   1   2
BRANCH   1  25
ATOM     25  O   UNL     1      -1.316   6.002   4.182  1.00  0.00    -0.374 OA
BRANCH  25  26
ATOM     26  C   UNL     1      -0.508   5.036   3.508  1.00  0.00     0.202 C 
BRANCH  26  27
ATOM     27  C   UNL     1       0.525   4.257   4.332  1.00  0.00     0.261 C 
BRANCH  27  28
ATOM     28  O   UNL     1      -0.078   3.427   5.341  1.00  0.00    -0.460 OA
BRANCH  28  29
ATOM     29  C   UNL     1       0.116   3.865   6.609  1.00  0.00     0.338 C 
ATOM     30  O   UNL     1       0.776   4.826   6.968  1.00  0.00    -0.246 OA
BRANCH  29  31
ATOM     31  C   UNL     1      -0.746   3.122   7.546  1.00  0.00     0.060 A 
ATOM     32  C   UNL     1      -1.571   3.877   8.390  1.00  0.00     0.016 A 
ATOM     33  C   UNL     1      -0.669   1.735   7.680  1.00  0.00     0.016 A 
ATOM     34  C   UNL     1      -2.260   3.255   9.426  1.00  0.00     0.010 A 
ATOM     35  C   UNL     1      -1.362   1.112   8.723  1.00  0.00     0.010 A 
ATOM     36  C   UNL     1      -2.116   1.877   9.633  1.00  0.00    -0.014 A 
BRANCH  36  37
ATOM     37  C   UNL     1      -2.605   1.292  10.906  1.00  0.00     0.031 A 
ATOM     38  C   UNL     1      -1.615   0.993  12.001  1.00  0.00     0.074 A 
ATOM     39  C   UNL     1      -3.920   1.101  11.115  1.00  0.00     0.049 A 
ATOM     40  N   UNL     1      -1.822   0.516  13.202  1.00  0.00    -0.248 NA
ATOM     41  C   UNL     1      -0.201   1.266  11.699  1.00  0.00     0.031 C 
ATOM     42  C   UNL     1      -4.979   1.385  10.149  1.00  0.00     0.029 A 
ATOM     43  N   UNL     1      -4.586   0.627  12.217  1.00  0.00    -0.354 N 
ATOM     44  C   UNL     1      -0.568   0.429  13.795  1.00  0.00     0.074 A 
ATOM     45  C   UNL     1       0.398   0.859  12.808  1.00  0.00     0.031 C 
ATOM     46  C   UNL     1      -6.166   1.084  10.703  1.00  0.00     0.029 A 
ATOM     47  C   UNL     1      -5.947   0.561  12.050  1.00  0.00     0.049 A 
ATOM     48  H   UNL     1      -4.131   0.361  13.049  1.00  0.00     0.167 HD
ATOM     49  C   UNL     1      -0.250   0.041  15.054  1.00  0.00     0.037 A 
ATOM     50  C   UNL     1      -6.905   0.119  12.887  1.00  0.00     0.037 A 
ATOM     51  C   UNL     1      -1.212  -0.383  16.037  1.00  0.00     0.049 A 
ATOM     52  C   UNL     1      -6.519  -0.362  14.262  1.00  0.00     0.074 A 
ATOM     53  C   UNL     1      -0.992  -0.780  17.345  1.00  0.00     0.029 A 
ATOM     54  N   UNL     1      -2.579  -0.469  15.818  1.00  0.00    -0.354 N 
ATOM     55  N   UNL     1      -5.334  -0.414  14.821  1.00  0.00    -0.248 NA
ATOM     56  C   UNL     1      -7.611  -0.832  15.126  1.00  0.00     0.031 C 
ATOM     57  C   UNL     1      -2.219  -1.160  17.899  1.00  0.00     0.029 A 
ATOM     58  C   UNL     1      -3.212  -0.936  16.959  1.00  0.00     0.049 A 
ATOM     59  H   UNL     1      -3.033  -0.233  14.977  1.00  0.00     0.167 HD
ATOM     60  C   UNL     1      -5.542  -0.888  16.112  1.00  0.00     0.074 A 
ATOM     61  C   UNL     1      -6.968  -1.092  16.255  1.00  0.00     0.031 C 
ATOM     62  C   UNL     1      -4.635  -1.129  17.091  1.00  0.00     0.037 A 
BRANCH  49  63
ATOM     63  C   UNL     1       1.206   0.034  15.429  1.00  0.00     0.057 A 
ATOM     64  C   UNL     1       1.939   1.217  15.589  1.00  0.00     0.134 A 
ATOM     65  C   UNL     1       1.876  -1.175  15.658  1.00  0.00     0.134 A 
ATOM     66  F   UNL     1       1.363   2.409  15.370  1.00  0.00    -0.206 F 
ATOM     67  C   UNL     1       3.292   1.198  15.936  1.00  0.00     0.040 A 
ATOM     68  C   UNL     1       3.220  -1.206  16.035  1.00  0.00     0.040 A 
ATOM     69  F   UNL     1       1.234  -2.346  15.527  1.00  0.00    -0.206 F 
ATOM     70  C   UNL     1       3.934  -0.017  16.167  1.00  0.00     0.006 A 
ENDBRANCH  49  63
BRANCH  50  71
ATOM     71  C   UNL     1      -8.326   0.110  12.454  1.00  0.00     0.057 A 
ATOM     72  C   UNL     1      -9.274   0.951  13.049  1.00  0.00     0.134 A 
ATOM     73  C   UNL     1      -8.775  -0.762  11.455  1.00  0.00     0.134 A 
ATOM     74  F   UNL     1      -8.910   1.793  14.027  1.00  0.00    -0.206 F 
ATOM     75  C   UNL     1     -10.620   0.908  12.684  1.00  0.00     0.040 A 
ATOM     76  C   UNL     1     -10.113  -0.794  11.059  1.00  0.00     0.040 A 
ATOM     77  F   UNL     1      -7.917  -1.591  10.843  1.00  0.00    -0.206 F 
ATOM     78  C   UNL     1     -11.042   0.036  11.682  1.00  0.00     0.006 A 
ENDBRANCH  50  71
BRANCH  62  79
ATOM     79  C   UNL     1      -5.165  -1.591  18.420  1.00  0.00     0.057 A 
ATOM     80  C   UNL     1      -5.733  -2.859  18.598  1.00  0.00     0.134 A 
ATOM     81  C   UNL     1      -5.091  -0.755  19.543  1.00  0.00     0.134 A 
ATOM     82  F   UNL     1      -5.844  -3.707  17.564  1.00  0.00    -0.206 F 
ATOM     83  C   UNL     1      -6.245  -3.263  19.833  1.00  0.00     0.040 A 
ATOM     84  C   UNL     1      -5.568  -1.161  20.790  1.00  0.00     0.040 A 
ATOM     85  F   UNL     1      -4.547   0.467  19.449  1.00  0.00    -0.206 F 
ATOM     86  C   UNL     1      -6.158  -2.414  20.935  1.00  0.00     0.006 A 
ENDBRANCH  62  79
ENDBRANCH  36  37
ENDBRANCH  29  31
ENDBRANCH  28  29
ENDBRANCH  27  28
ENDBRANCH  26  27
ENDBRANCH  25  26
ENDBRANCH   1  25
TORSDOF 18
