REMARK SMILES C[C@H]1CCCC[C@H]1[N@H+]1[C@@H](C(=O)OCCOCCOC(=O)c2ccc(-c3c4nc(c(-c5c(F)cccc5F)c5ccc([nH]5)c(-c5c(F)cccc5F)c5nc(c(-c6c(F)cccc6F)c6ccc3[nH]6)C=C5)C=C4)cc2)CC[C@H]2CCCC[C@H]21
REMARK SMILES IDX 16 1 15 2 14 3 13 4 12 5 10 6 11 7 9 8 8 9 82 10 75 12 77 13
REMARK SMILES IDX 81 14 76 15 78 16 80 17 79 18 7 19 1 20 2 21 3 22 4 23 6 24
REMARK SMILES IDX 5 25 17 26 18 27 19 28 20 29 21 30 22 31 74 32 23 33 73 34
REMARK SMILES IDX 24 35 25 36 26 37 67 38 27 39 72 40 66 41 68 42 28 43 71 44
REMARK SMILES IDX 65 45 64 46 29 48 55 49 38 50 54 51 39 52 42 53 53 54 69 55
REMARK SMILES IDX 40 56 41 57 52 59 70 60 43 61 30 62 31 63 36 64 32 65 33 66
REMARK SMILES IDX 35 67 37 68 34 69 56 70 57 71 62 72 58 73 59 74 61 75 63 76
REMARK SMILES IDX 60 77 44 78 45 79 50 80 46 81 47 82 49 83 51 84 48 85
REMARK H PARENT 8 11 68 47 42 58
REMARK Flexibility Score: inf
ROOT
ATOM      1  C   UNL     1      -4.334   0.046   1.145  1.00  0.00     0.202 C 
ENDROOT
BRANCH   1   2
ATOM      2  O   UNL     1      -4.862  -0.239  -0.161  1.00  0.00    -0.374 OA
BRANCH   2   3
ATOM      3  C   UNL     1      -4.142  -0.960  -1.174  1.00  0.00     0.202 C 
BRANCH   3   4
ATOM      4  C   UNL     1      -3.522  -0.141  -2.345  1.00  0.00     0.261 C 
BRANCH   4   5
ATOM      5  O   UNL     1      -2.116  -0.510  -2.588  1.00  0.00    -0.459 OA
BRANCH   5   6
ATOM      6  C   UNL     1      -1.293   0.458  -3.093  1.00  0.00     0.365 C 
ATOM      7  O   UNL     1      -1.743   1.503  -3.566  1.00  0.00    -0.245 OA
BRANCH   6   8
ATOM      8  C   UNL     1       0.255   0.208  -3.045  1.00  0.00     0.295 C 
ATOM      9  N   UNL     1       0.870  -0.949  -2.329  1.00  0.00    -0.318 N 
ATOM     10  C   UNL     1       2.398  -0.936  -3.004  1.00  0.00     0.188 C 
ATOM     11  H   UNL     1       0.444  -1.870  -2.434  1.00  0.00     0.349 HD
ATOM     12  C   UNL     1       1.125   1.391  -2.579  1.00  0.00     0.078 C 
ATOM     13  C   UNL     1       3.122  -0.558  -1.780  1.00  0.00     0.048 C 
ATOM     14  C   UNL     1       3.487  -1.809  -3.753  1.00  0.00     0.065 C 
ATOM     15  C   UNL     1       2.548   1.002  -1.898  1.00  0.00     0.016 C 
ATOM     16  C   UNL     1       2.928  -2.107  -1.139  1.00  0.00     0.010 C 
ATOM     17  C   UNL     1       4.284  -2.924  -3.061  1.00  0.00     0.006 C 
ATOM     18  C   UNL     1       3.963  -3.120  -1.601  1.00  0.00     0.001 C 
BRANCH   9  19
ATOM     19  C   UNL     1       0.729  -0.729  -0.640  1.00  0.00     0.187 C 
ATOM     20  C   UNL     1       2.885   0.331   1.003  1.00  0.00     0.014 C 
ATOM     21  C   UNL     1       1.391   0.241   0.602  1.00  0.00     0.044 C 
ATOM     22  C   UNL     1       0.702   1.615   0.851  1.00  0.00     0.009 C 
ATOM     23  C   UNL     1      -0.792   1.440   1.037  1.00  0.00     0.001 C 
ATOM     24  C   UNL     1      -0.730  -0.788  -0.195  1.00  0.00     0.065 C 
ATOM     25  C   UNL     1      -1.330   0.601  -0.092  1.00  0.00     0.006 C 
ENDBRANCH   9  19
ENDBRANCH   6   8
ENDBRANCH   5   6
ENDBRANCH   4   5
ENDBRANCH   3   4
ENDBRANCH   2   3
ENDBRANCH   1   2
BRANCH   1  26
ATOM     26  C   UNL     1      -3.521  -0.987   1.968  1.00  0.00     0.261 C 
BRANCH  26  27
ATOM     27  O   UNL     1      -3.389  -2.263   1.347  1.00  0.00    -0.460 OA
BRANCH  27  28
ATOM     28  C   UNL     1      -4.429  -3.072   1.585  1.00  0.00     0.338 C 
ATOM     29  O   UNL     1      -5.289  -2.932   2.462  1.00  0.00    -0.246 OA
BRANCH  28  30
ATOM     30  C   UNL     1      -4.559  -4.054   0.507  1.00  0.00     0.060 A 
ATOM     31  C   UNL     1      -5.797  -4.080  -0.141  1.00  0.00     0.016 A 
ATOM     32  C   UNL     1      -3.564  -4.986   0.197  1.00  0.00     0.016 A 
ATOM     33  C   UNL     1      -6.102  -5.122  -1.002  1.00  0.00     0.010 A 
ATOM     34  C   UNL     1      -3.873  -6.034  -0.678  1.00  0.00     0.010 A 
ATOM     35  C   UNL     1      -5.169  -6.144  -1.218  1.00  0.00    -0.014 A 
BRANCH  35  36
ATOM     36  C   UNL     1      -5.657  -7.418  -1.800  1.00  0.00     0.031 A 
ATOM     37  C   UNL     1      -5.929  -8.575  -0.873  1.00  0.00     0.074 A 
ATOM     38  C   UNL     1      -5.970  -7.513  -3.104  1.00  0.00     0.049 A 
ATOM     39  N   UNL     1      -6.378  -9.773  -1.146  1.00  0.00    -0.248 NA
ATOM     40  C   UNL     1      -5.670  -8.345   0.559  1.00  0.00     0.031 C 
ATOM     41  C   UNL     1      -5.836  -6.439  -4.086  1.00  0.00     0.029 A 
ATOM     42  N   UNL     1      -6.483  -8.565  -3.820  1.00  0.00    -0.354 N 
ATOM     43  C   UNL     1      -6.439 -10.441   0.072  1.00  0.00     0.074 A 
ATOM     44  C   UNL     1      -5.954  -9.528   1.082  1.00  0.00     0.031 C 
ATOM     45  C   UNL     1      -6.259  -6.888  -5.280  1.00  0.00     0.029 A 
ATOM     46  C   UNL     1      -6.653  -8.290  -5.154  1.00  0.00     0.049 A 
ATOM     47  H   UNL     1      -6.707  -9.435  -3.416  1.00  0.00     0.167 HD
ATOM     48  C   UNL     1      -6.869 -11.699   0.328  1.00  0.00     0.037 A 
ATOM     49  C   UNL     1      -7.059  -9.088  -6.161  1.00  0.00     0.037 A 
ATOM     50  C   UNL     1      -7.366 -12.602  -0.676  1.00  0.00     0.049 A 
ATOM     51  C   UNL     1      -7.441 -10.516  -5.866  1.00  0.00     0.074 A 
ATOM     52  C   UNL     1      -7.830 -13.895  -0.516  1.00  0.00     0.029 A 
ATOM     53  N   UNL     1      -7.459 -12.306  -2.027  1.00  0.00    -0.354 N 
ATOM     54  N   UNL     1      -7.489 -11.140  -4.714  1.00  0.00    -0.248 NA
ATOM     55  C   UNL     1      -7.824 -11.351  -7.014  1.00  0.00     0.031 C 
ATOM     56  C   UNL     1      -8.145 -14.405  -1.779  1.00  0.00     0.029 A 
ATOM     57  C   UNL     1      -7.946 -13.404  -2.717  1.00  0.00     0.049 A 
ATOM     58  H   UNL     1      -7.216 -11.444  -2.436  1.00  0.00     0.167 HD
ATOM     59  C   UNL     1      -7.949 -12.422  -4.992  1.00  0.00     0.074 A 
ATOM     60  C   UNL     1      -8.164 -12.487  -6.422  1.00  0.00     0.031 C 
ATOM     61  C   UNL     1      -8.179 -13.449  -4.138  1.00  0.00     0.037 A 
BRANCH  48  62
ATOM     62  C   UNL     1      -6.779 -12.190   1.744  1.00  0.00     0.057 A 
ATOM     63  C   UNL     1      -7.614 -11.705   2.759  1.00  0.00     0.134 A 
ATOM     64  C   UNL     1      -5.861 -13.190   2.088  1.00  0.00     0.134 A 
ATOM     65  F   UNL     1      -8.507 -10.737   2.501  1.00  0.00    -0.206 F 
ATOM     66  C   UNL     1      -7.522 -12.179   4.069  1.00  0.00     0.040 A 
ATOM     67  C   UNL     1      -5.779 -13.694   3.387  1.00  0.00     0.040 A 
ATOM     68  F   UNL     1      -5.034 -13.704   1.164  1.00  0.00    -0.206 F 
ATOM     69  C   UNL     1      -6.607 -13.182   4.384  1.00  0.00     0.006 A 
ENDBRANCH  48  62
BRANCH  49  70
ATOM     70  C   UNL     1      -7.106  -8.565  -7.550  1.00  0.00     0.057 A 
ATOM     71  C   UNL     1      -8.319  -8.416  -8.233  1.00  0.00     0.134 A 
ATOM     72  C   UNL     1      -5.934  -8.229  -8.239  1.00  0.00     0.134 A 
ATOM     73  F   UNL     1      -9.474  -8.744  -7.637  1.00  0.00    -0.206 F 
ATOM     74  C   UNL     1      -8.363  -7.972  -9.556  1.00  0.00     0.040 A 
ATOM     75  C   UNL     1      -5.965  -7.755  -9.551  1.00  0.00     0.040 A 
ATOM     76  F   UNL     1      -4.739  -8.350  -7.642  1.00  0.00    -0.206 F 
ATOM     77  C   UNL     1      -7.183  -7.635 -10.217  1.00  0.00     0.006 A 
ENDBRANCH  49  70
BRANCH  61  78
ATOM     78  C   UNL     1      -8.755 -14.716  -4.705  1.00  0.00     0.057 A 
ATOM     79  C   UNL     1      -8.003 -15.589  -5.499  1.00  0.00     0.134 A 
ATOM     80  C   UNL     1     -10.066 -15.097  -4.388  1.00  0.00     0.134 A 
ATOM     81  F   UNL     1      -6.745 -15.280  -5.848  1.00  0.00    -0.206 F 
ATOM     82  C   UNL     1      -8.540 -16.789  -5.972  1.00  0.00     0.040 A 
ATOM     83  C   UNL     1     -10.604 -16.307  -4.829  1.00  0.00     0.040 A 
ATOM     84  F   UNL     1     -10.838 -14.312  -3.621  1.00  0.00    -0.206 F 
ATOM     85  C   UNL     1      -9.841 -17.155  -5.628  1.00  0.00     0.006 A 
ENDBRANCH  61  78
ENDBRANCH  35  36
ENDBRANCH  28  30
ENDBRANCH  27  28
ENDBRANCH  26  27
ENDBRANCH   1  26
TORSDOF 15
