REMARK SMILES CO[C@H]1C[C@@H](C(=O)OCCOCCOC(=O)c2ccc(-c3c4nc(c(-c5c(F)cccc5F)c5ccc([nH]5)c(-c5c(F)cccc5F)c5nc(c(-c6c(F)cccc6F)c6ccc3[nH]6)C=C5)C=C4)cc2)N(C(=O)c2cc(SC)ccc2C)C1
REMARK SMILES IDX 10 1 9 2 8 3 6 4 7 5 5 6 3 7 4 8 83 9 71 10 2 11 1 12 72 13
REMARK SMILES IDX 73 14 74 15 75 16 81 17 76 18 80 19 82 20 79 21 77 22 78 23
REMARK SMILES IDX 11 24 12 25 13 26 14 27 15 28 16 29 17 30 18 31 70 32 19 33
REMARK SMILES IDX 69 34 20 35 21 36 22 37 63 38 23 39 68 40 62 41 64 42 24 43
REMARK SMILES IDX 67 44 61 45 60 46 25 48 51 49 34 50 50 51 35 52 38 53 49 54
REMARK SMILES IDX 65 55 36 56 37 57 48 59 66 60 39 61 26 62 27 63 32 64 28 65
REMARK SMILES IDX 29 66 31 67 33 68 30 69 52 70 53 71 58 72 54 73 55 74 57 75
REMARK SMILES IDX 59 76 56 77 40 78 41 79 46 80 42 81 43 82 45 83 47 84 44 85
REMARK H PARENT 64 47 38 58
REMARK Flexibility Score: inf
ROOT
ATOM      1  C   UNL     1      -2.144   7.622  -0.551  1.00  0.00     0.202 C 
ENDROOT
BRANCH   1   2
ATOM      2  C   UNL     1      -1.479   6.716   0.499  1.00  0.00     0.261 C 
BRANCH   2   3
ATOM      3  O   UNL     1      -0.294   6.011   0.098  1.00  0.00    -0.462 OA
BRANCH   3   4
ATOM      4  C   UNL     1      -0.558   4.864  -0.576  1.00  0.00     0.329 C 
ATOM      5  O   UNL     1      -1.680   4.530  -0.954  1.00  0.00    -0.250 OA
BRANCH   4   6
ATOM      6  C   UNL     1       0.619   3.891  -0.660  1.00  0.00     0.198 C 
ATOM      7  C   UNL     1       1.477   1.928   0.431  1.00  0.00     0.140 C 
ATOM      8  C   UNL     1       0.241   2.798   0.353  1.00  0.00     0.071 C 
ATOM      9  C   UNL     1       2.597   2.958   0.321  1.00  0.00     0.152 C 
ATOM     10  N   UNL     1       2.040   4.140  -0.353  1.00  0.00    -0.322 N 
BRANCH   7  11
ATOM     11  O   UNL     1       1.565   1.235   1.671  1.00  0.00    -0.380 OA
ATOM     12  C   UNL     1       0.691   0.117   1.750  1.00  0.00     0.195 C 
ENDBRANCH   7  11
BRANCH  10  13
ATOM     13  C   UNL     1       2.897   4.750  -1.265  1.00  0.00     0.254 C 
ATOM     14  O   UNL     1       3.776   4.120  -1.855  1.00  0.00    -0.269 OA
BRANCH  13  15
ATOM     15  C   UNL     1       2.878   6.218  -1.481  1.00  0.00     0.044 A 
ATOM     16  C   UNL     1       3.104   6.627  -2.813  1.00  0.00     0.029 A 
ATOM     17  C   UNL     1       2.941   7.164  -0.446  1.00  0.00    -0.038 A 
ATOM     18  C   UNL     1       3.380   7.960  -3.143  1.00  0.00     0.008 A 
ATOM     19  C   UNL     1       3.225   8.498  -0.788  1.00  0.00     0.005 A 
ATOM     20  C   UNL     1       2.756   6.856   1.012  1.00  0.00     0.045 C 
ATOM     21  C   UNL     1       3.450   8.892  -2.111  1.00  0.00     0.015 A 
BRANCH  18  22
ATOM     22  S   UNL     1       3.720   8.333  -4.856  1.00  0.00    -0.130 SA
ATOM     23  C   UNL     1       3.332  10.100  -4.976  1.00  0.00     0.091 C 
ENDBRANCH  18  22
ENDBRANCH  13  15
ENDBRANCH  10  13
ENDBRANCH   4   6
ENDBRANCH   3   4
ENDBRANCH   2   3
ENDBRANCH   1   2
BRANCH   1  24
ATOM     24  O   UNL     1      -1.912   7.337  -1.924  1.00  0.00    -0.374 OA
BRANCH  24  25
ATOM     25  C   UNL     1      -0.625   7.668  -2.451  1.00  0.00     0.202 C 
BRANCH  25  26
ATOM     26  C   UNL     1      -0.266   9.149  -2.372  1.00  0.00     0.261 C 
BRANCH  26  27
ATOM     27  O   UNL     1       0.063   9.482  -1.013  1.00  0.00    -0.460 OA
BRANCH  27  28
ATOM     28  C   UNL     1       0.196  10.802  -0.785  1.00  0.00     0.338 C 
ATOM     29  O   UNL     1       0.234  11.704  -1.615  1.00  0.00    -0.246 OA
BRANCH  28  30
ATOM     30  C   UNL     1       0.212  11.023   0.664  1.00  0.00     0.060 A 
ATOM     31  C   UNL     1      -1.001  11.177   1.342  1.00  0.00     0.016 A 
ATOM     32  C   UNL     1       1.427  11.183   1.329  1.00  0.00     0.016 A 
ATOM     33  C   UNL     1      -0.994  11.555   2.686  1.00  0.00     0.010 A 
ATOM     34  C   UNL     1       1.433  11.520   2.683  1.00  0.00     0.010 A 
ATOM     35  C   UNL     1       0.223  11.761   3.356  1.00  0.00    -0.014 A 
BRANCH  35  36
ATOM     36  C   UNL     1       0.235  12.379   4.706  1.00  0.00     0.031 A 
ATOM     37  C   UNL     1       0.636  13.824   4.851  1.00  0.00     0.074 A 
ATOM     38  C   UNL     1      -0.120  11.669   5.792  1.00  0.00     0.049 A 
ATOM     39  N   UNL     1       0.711  14.559   5.931  1.00  0.00    -0.248 NA
ATOM     40  C   UNL     1       1.011  14.532   3.616  1.00  0.00     0.031 C 
ATOM     41  C   UNL     1      -0.524  10.265   5.790  1.00  0.00     0.029 A 
ATOM     42  N   UNL     1      -0.194  12.040   7.111  1.00  0.00    -0.354 N 
ATOM     43  C   UNL     1       1.145  15.809   5.508  1.00  0.00     0.074 A 
ATOM     44  C   UNL     1       1.357  15.723   4.079  1.00  0.00     0.031 C 
ATOM     45  C   UNL     1      -0.809   9.892   7.050  1.00  0.00     0.029 A 
ATOM     46  C   UNL     1      -0.589  11.025   7.946  1.00  0.00     0.049 A 
ATOM     47  H   UNL     1       0.017  12.948   7.428  1.00  0.00     0.167 HD
ATOM     48  C   UNL     1       1.332  16.935   6.237  1.00  0.00     0.037 A 
ATOM     49  C   UNL     1      -0.749  11.011   9.283  1.00  0.00     0.037 A 
ATOM     50  C   UNL     1       1.104  17.034   7.653  1.00  0.00     0.049 A 
ATOM     51  C   UNL     1      -0.507  12.266  10.077  1.00  0.00     0.074 A 
ATOM     52  C   UNL     1       1.217  18.147   8.469  1.00  0.00     0.029 A 
ATOM     53  N   UNL     1       0.720  15.979   8.464  1.00  0.00    -0.354 N 
ATOM     54  N   UNL     1      -0.147  13.454   9.656  1.00  0.00    -0.248 NA
ATOM     55  C   UNL     1      -0.698  12.178  11.532  1.00  0.00     0.031 C 
ATOM     56  C   UNL     1       0.937  17.755   9.783  1.00  0.00     0.029 A 
ATOM     57  C   UNL     1       0.615  16.408   9.777  1.00  0.00     0.049 A 
ATOM     58  H   UNL     1       0.548  15.061   8.154  1.00  0.00     0.167 HD
ATOM     59  C   UNL     1      -0.089  14.258  10.787  1.00  0.00     0.074 A 
ATOM     60  C   UNL     1      -0.463  13.426  11.912  1.00  0.00     0.031 C 
ATOM     61  C   UNL     1       0.243  15.568  10.886  1.00  0.00     0.037 A 
BRANCH  48  62
ATOM     62  C   UNL     1       1.812  18.155   5.509  1.00  0.00     0.057 A 
ATOM     63  C   UNL     1       0.967  18.890   4.667  1.00  0.00     0.134 A 
ATOM     64  C   UNL     1       3.122  18.620   5.678  1.00  0.00     0.134 A 
ATOM     65  F   UNL     1      -0.295  18.488   4.452  1.00  0.00    -0.206 F 
ATOM     66  C   UNL     1       1.414  20.034   4.004  1.00  0.00     0.040 A 
ATOM     67  C   UNL     1       3.574  19.774   5.037  1.00  0.00     0.040 A 
ATOM     68  F   UNL     1       3.980  17.963   6.473  1.00  0.00    -0.206 F 
ATOM     69  C   UNL     1       2.720  20.482   4.194  1.00  0.00     0.006 A 
ENDBRANCH  48  62
BRANCH  49  70
ATOM     70  C   UNL     1      -1.173   9.762   9.961  1.00  0.00     0.057 A 
ATOM     71  C   UNL     1      -2.460   9.628  10.492  1.00  0.00     0.134 A 
ATOM     72  C   UNL     1      -0.298   8.678  10.100  1.00  0.00     0.134 A 
ATOM     73  F   UNL     1      -3.333  10.643  10.409  1.00  0.00    -0.206 F 
ATOM     74  C   UNL     1      -2.861   8.463  11.148  1.00  0.00     0.040 A 
ATOM     75  C   UNL     1      -0.693   7.500  10.735  1.00  0.00     0.040 A 
ATOM     76  F   UNL     1       0.948   8.747   9.611  1.00  0.00    -0.206 F 
ATOM     77  C   UNL     1      -1.977   7.393  11.266  1.00  0.00     0.006 A 
ENDBRANCH  49  70
BRANCH  61  78
ATOM     78  C   UNL     1       0.201  16.187  12.251  1.00  0.00     0.057 A 
ATOM     79  C   UNL     1       1.193  15.929  13.205  1.00  0.00     0.134 A 
ATOM     80  C   UNL     1      -0.819  17.080  12.600  1.00  0.00     0.134 A 
ATOM     81  F   UNL     1       2.190  15.073  12.934  1.00  0.00    -0.206 F 
ATOM     82  C   UNL     1       1.161  16.524  14.467  1.00  0.00     0.040 A 
ATOM     83  C   UNL     1      -0.850  17.698  13.851  1.00  0.00     0.040 A 
ATOM     84  F   UNL     1      -1.794  17.375  11.727  1.00  0.00    -0.206 F 
ATOM     85  C   UNL     1       0.140  17.417  14.790  1.00  0.00     0.006 A 
ENDBRANCH  61  78
ENDBRANCH  35  36
ENDBRANCH  28  30
ENDBRANCH  27  28
ENDBRANCH  26  27
ENDBRANCH  25  26
ENDBRANCH  24  25
ENDBRANCH   1  24
TORSDOF 18
