REMARK SMILES O=C(OCCOCCOC(=O)[C@H]1O[C@@H](Oc2c(-c3cc(O)c(O)c(O)c3)oc3cc(O)cc(O)c3c2=O)[C@H](O)[C@@H](O)[C@@H]1O)c1ccc(-c2c3nc(c(-c4c(F)cccc4F)c4ccc([nH]4)c(-c4c(F)cccc4F)c4nc(c(-c5c(F)cccc5F)c5ccc2[nH]5)C=C4)C=C3)cc1
REMARK SMILES IDX 7 1 6 2 5 3 4 4 3 5 2 6 1 7 44 8 45 9 97 10 46 11 96 12
REMARK SMILES IDX 47 13 48 14 49 15 90 16 50 17 95 18 89 19 91 20 51 21 94 22
REMARK SMILES IDX 88 23 87 24 52 26 78 27 61 28 77 29 62 30 65 31 76 32 92 33
REMARK SMILES IDX 63 34 64 35 75 37 93 38 66 39 53 40 54 41 59 42 55 43 56 44
REMARK SMILES IDX 58 45 60 46 57 47 79 48 80 49 85 50 81 51 82 52 84 53 86 54
REMARK SMILES IDX 83 55 67 56 68 57 73 58 69 59 70 60 72 61 74 62 71 63 8 64
REMARK SMILES IDX 9 65 10 66 11 67 12 68 13 69 42 70 14 71 40 72 38 73 43 74
REMARK SMILES IDX 15 76 16 77 17 78 36 79 27 80 35 81 37 82 28 83 33 84 29 85
REMARK SMILES IDX 32 86 30 87 18 88 19 89 26 90 20 91 24 92 22 93 21 94 25 96
REMARK SMILES IDX 23 98 34 100 31 102 41 104 39 106
REMARK H PARENT 91 25 65 36 43 75 21 95 25 97 23 99 34 101 31 103 41 105
REMARK H PARENT 39 107
REMARK Flexibility Score: inf
ROOT
ATOM      1  C   UNL     1       6.450  -0.466   5.252  1.00  0.00     0.202 C 
ENDROOT
BRANCH   1   2
ATOM      2  O   UNL     1       6.783   0.927   5.207  1.00  0.00    -0.374 OA
BRANCH   2   3
ATOM      3  C   UNL     1       7.286   1.395   3.954  1.00  0.00     0.202 C 
BRANCH   3   4
ATOM      4  C   UNL     1       8.808   1.340   3.793  1.00  0.00     0.261 C 
BRANCH   4   5
ATOM      5  O   UNL     1       9.306   0.021   4.041  1.00  0.00    -0.460 OA
BRANCH   5   6
ATOM      6  C   UNL     1       9.583  -0.530   5.247  1.00  0.00     0.338 C 
ATOM      7  O   UNL     1       9.761  -1.745   5.312  1.00  0.00    -0.246 OA
BRANCH   6   8
ATOM      8  C   UNL     1       9.741   0.269   6.501  1.00  0.00     0.060 A 
ATOM      9  C   UNL     1       9.104   1.480   6.779  1.00  0.00     0.016 A 
ATOM     10  C   UNL     1      10.545  -0.296   7.505  1.00  0.00     0.016 A 
ATOM     11  C   UNL     1       9.274   2.135   7.980  1.00  0.00     0.010 A 
ATOM     12  C   UNL     1      10.707   0.344   8.735  1.00  0.00     0.010 A 
ATOM     13  C   UNL     1      10.072   1.567   8.962  1.00  0.00    -0.014 A 
BRANCH  13  14
ATOM     14  C   UNL     1      10.295   2.372  10.164  1.00  0.00     0.031 A 
ATOM     15  C   UNL     1      11.577   3.129  10.265  1.00  0.00     0.074 A 
ATOM     16  C   UNL     1       9.278   2.545  11.026  1.00  0.00     0.049 A 
ATOM     17  N   UNL     1      12.010   3.890  11.230  1.00  0.00    -0.248 NA
ATOM     18  C   UNL     1      12.489   3.036   9.109  1.00  0.00     0.031 C 
ATOM     19  C   UNL     1       7.941   1.958  10.883  1.00  0.00     0.029 A 
ATOM     20  N   UNL     1       9.195   3.289  12.168  1.00  0.00    -0.354 N 
ATOM     21  C   UNL     1      13.257   4.335  10.817  1.00  0.00     0.074 A 
ATOM     22  C   UNL     1      13.512   3.774   9.511  1.00  0.00     0.031 C 
ATOM     23  C   UNL     1       7.170   2.372  11.900  1.00  0.00     0.029 A 
ATOM     24  C   UNL     1       7.979   3.185  12.797  1.00  0.00     0.049 A 
ATOM     25  H   UNL     1       9.934   3.845  12.506  1.00  0.00     0.167 HD
ATOM     26  C   UNL     1      14.110   5.133  11.494  1.00  0.00     0.037 A 
ATOM     27  C   UNL     1       7.598   3.661  13.995  1.00  0.00     0.037 A 
ATOM     28  C   UNL     1      13.807   5.667  12.793  1.00  0.00     0.049 A 
ATOM     29  C   UNL     1       8.613   4.450  14.776  1.00  0.00     0.074 A 
ATOM     30  C   UNL     1      14.601   6.438  13.619  1.00  0.00     0.029 A 
ATOM     31  N   UNL     1      12.600   5.473  13.454  1.00  0.00    -0.354 N 
ATOM     32  N   UNL     1       9.822   4.822  14.421  1.00  0.00    -0.248 NA
ATOM     33  C   UNL     1       8.225   4.874  16.125  1.00  0.00     0.031 C 
ATOM     34  C   UNL     1      13.890   6.669  14.801  1.00  0.00     0.029 A 
ATOM     35  C   UNL     1      12.632   6.092  14.688  1.00  0.00     0.049 A 
ATOM     36  H   UNL     1      11.835   4.967  13.095  1.00  0.00     0.167 HD
ATOM     37  C   UNL     1      10.333   5.536  15.493  1.00  0.00     0.074 A 
ATOM     38  C   UNL     1       9.289   5.568  16.500  1.00  0.00     0.031 C 
ATOM     39  C   UNL     1      11.553   6.108  15.645  1.00  0.00     0.037 A 
BRANCH  26  40
ATOM     40  C   UNL     1      15.451   5.386  10.879  1.00  0.00     0.057 A 
ATOM     41  C   UNL     1      15.623   6.215   9.763  1.00  0.00     0.134 A 
ATOM     42  C   UNL     1      16.592   4.766  11.405  1.00  0.00     0.134 A 
ATOM     43  F   UNL     1      14.567   6.811   9.189  1.00  0.00    -0.206 F 
ATOM     44  C   UNL     1      16.880   6.406   9.184  1.00  0.00     0.040 A 
ATOM     45  C   UNL     1      17.856   4.968  10.851  1.00  0.00     0.040 A 
ATOM     46  F   UNL     1      16.494   3.948  12.464  1.00  0.00    -0.206 F 
ATOM     47  C   UNL     1      18.002   5.787   9.733  1.00  0.00     0.006 A 
ENDBRANCH  26  40
BRANCH  27  48
ATOM     48  C   UNL     1       6.258   3.343  14.552  1.00  0.00     0.057 A 
ATOM     49  C   UNL     1       5.325   4.346  14.838  1.00  0.00     0.134 A 
ATOM     50  C   UNL     1       5.891   2.024  14.855  1.00  0.00     0.134 A 
ATOM     51  F   UNL     1       5.617   5.631  14.588  1.00  0.00    -0.206 F 
ATOM     52  C   UNL     1       4.093   4.054  15.431  1.00  0.00     0.040 A 
ATOM     53  C   UNL     1       4.651   1.714  15.416  1.00  0.00     0.040 A 
ATOM     54  F   UNL     1       6.735   1.011  14.607  1.00  0.00    -0.206 F 
ATOM     55  C   UNL     1       3.753   2.734  15.719  1.00  0.00     0.006 A 
ENDBRANCH  27  48
BRANCH  39  56
ATOM     56  C   UNL     1      11.790   6.852  16.923  1.00  0.00     0.057 A 
ATOM     57  C   UNL     1      11.972   6.188  18.141  1.00  0.00     0.134 A 
ATOM     58  C   UNL     1      11.887   8.249  16.918  1.00  0.00     0.134 A 
ATOM     59  F   UNL     1      11.876   4.851  18.209  1.00  0.00    -0.206 F 
ATOM     60  C   UNL     1      12.219   6.891  19.319  1.00  0.00     0.040 A 
ATOM     61  C   UNL     1      12.166   8.960  18.082  1.00  0.00     0.040 A 
ATOM     62  F   UNL     1      11.732   8.939  15.777  1.00  0.00    -0.206 F 
ATOM     63  C   UNL     1      12.326   8.281  19.288  1.00  0.00     0.006 A 
ENDBRANCH  39  56
ENDBRANCH  13  14
ENDBRANCH   6   8
ENDBRANCH   5   6
ENDBRANCH   4   5
ENDBRANCH   3   4
ENDBRANCH   2   3
ENDBRANCH   1   2
BRANCH   1  64
ATOM     64  C   UNL     1       4.940  -0.670   5.315  1.00  0.00     0.261 C 
BRANCH  64  65
ATOM     65  O   UNL     1       4.335   0.078   4.254  1.00  0.00    -0.461 OA
BRANCH  65  66
ATOM     66  C   UNL     1       3.986   1.337   4.622  1.00  0.00     0.338 C 
ATOM     67  O   UNL     1       3.819   1.689   5.786  1.00  0.00    -0.249 OA
BRANCH  66  68
ATOM     68  C   UNL     1       3.716   2.241   3.435  1.00  0.00     0.263 C 
ATOM     69  O   UNL     1       3.878   3.595   3.908  1.00  0.00    -0.322 OA
ATOM     70  C   UNL     1       4.578   2.160   2.177  1.00  0.00     0.186 C 
ATOM     71  C   UNL     1       3.087   4.485   3.151  1.00  0.00     0.340 C 
ATOM     72  C   UNL     1       3.894   3.025   1.117  1.00  0.00     0.181 C 
ATOM     73  C   UNL     1       3.456   4.405   1.638  1.00  0.00     0.214 C 
BRANCH  70  74
ATOM     74  O   UNL     1       4.744   0.857   1.625  1.00  0.00    -0.387 OA
ATOM     75  H   UNL     1       3.881   0.510   1.350  1.00  0.00     0.211 HD
ENDBRANCH  70  74
BRANCH  71  76
ATOM     76  O   UNL     1       3.082   5.844   3.642  1.00  0.00    -0.454 OA
BRANCH  76  77
ATOM     77  C   UNL     1       4.258   6.426   4.113  1.00  0.00     0.214 A 
ATOM     78  C   UNL     1       4.969   7.308   3.377  1.00  0.00     0.181 A 
ATOM     79  C   UNL     1       4.603   6.332   5.574  1.00  0.00     0.239 A 
ATOM     80  O   UNL     1       6.065   8.018   3.809  1.00  0.00    -0.452 OA
ATOM     81  C   UNL     1       5.673   7.245   6.080  1.00  0.00     0.111 A 
ATOM     82  O   UNL     1       3.983   5.568   6.309  1.00  0.00    -0.285 OA
ATOM     83  C   UNL     1       6.331   8.050   5.150  1.00  0.00     0.146 A 
ATOM     84  C   UNL     1       6.034   7.373   7.434  1.00  0.00     0.134 A 
ATOM     85  C   UNL     1       7.311   8.966   5.544  1.00  0.00     0.094 A 
ATOM     86  C   UNL     1       7.011   8.297   7.838  1.00  0.00     0.093 A 
ATOM     87  C   UNL     1       7.636   9.092   6.885  1.00  0.00     0.123 A 
BRANCH  78  88
ATOM     88  C   UNL     1       4.677   7.532   1.953  1.00  0.00     0.029 A 
ATOM     89  C   UNL     1       5.641   7.143   1.006  1.00  0.00     0.062 A 
ATOM     90  C   UNL     1       3.393   7.918   1.536  1.00  0.00     0.062 A 
ATOM     91  C   UNL     1       5.261   6.984  -0.320  1.00  0.00     0.162 A 
ATOM     92  C   UNL     1       3.039   7.763   0.203  1.00  0.00     0.162 A 
ATOM     93  C   UNL     1       3.957   7.260  -0.712  1.00  0.00     0.200 A 
BRANCH  91  94
ATOM     94  O   UNL     1       6.158   6.443  -1.194  1.00  0.00    -0.504 OA
ATOM     95  H   UNL     1       7.034   6.262  -0.915  1.00  0.00     0.293 HD
ENDBRANCH  91  94
BRANCH  92  96
ATOM     96  O   UNL     1       1.737   7.964  -0.155  1.00  0.00    -0.504 OA
ATOM     97  H   UNL     1       1.477   7.865  -1.050  1.00  0.00     0.293 HD
ENDBRANCH  92  96
BRANCH  93  98
ATOM     98  O   UNL     1       3.525   6.900  -1.960  1.00  0.00    -0.502 OA
ATOM     99  H   UNL     1       4.133   6.559  -2.586  1.00  0.00     0.293 HD
ENDBRANCH  93  98
ENDBRANCH  78  88
BRANCH  84 100
ATOM    100  O   UNL     1       5.434   6.611   8.395  1.00  0.00    -0.507 OA
ATOM    101  H   UNL     1       5.684   6.707   9.293  1.00  0.00     0.293 HD
ENDBRANCH  84 100
BRANCH  87 102
ATOM    102  O   UNL     1       8.574  10.022   7.222  1.00  0.00    -0.508 OA
ATOM    103  H   UNL     1       8.977  10.543   6.556  1.00  0.00     0.293 HD
ENDBRANCH  87 102
ENDBRANCH  76  77
ENDBRANCH  71  76
BRANCH  72 104
ATOM    104  O   UNL     1       4.789   3.139  -0.018  1.00  0.00    -0.387 OA
ATOM    105  H   UNL     1       5.610   3.575   0.261  1.00  0.00     0.211 HD
ENDBRANCH  72 104
BRANCH  73 106
ATOM    106  O   UNL     1       2.397   4.847   0.774  1.00  0.00    -0.384 OA
ATOM    107  H   UNL     1       1.652   4.228   0.834  1.00  0.00     0.211 HD
ENDBRANCH  73 106
ENDBRANCH  66  68
ENDBRANCH  65  66
ENDBRANCH  64  65
ENDBRANCH   1  64
TORSDOF 25
