REMARK SMILES C[C@H]1CCC[C@@H]([NH2+]Cc2ccc(C(=O)OCCOCCOC(=O)c3ccc(-c4c5nc(c(-c6c(F)cccc6F)c6ccc([nH]6)c(-c6c(F)cccc6F)c6nc(c(-c7c(F)cccc7F)c7ccc4[nH]7)C=C6)C=C5)cc3)cn2)C1
REMARK SMILES IDX 17 1 16 2 15 3 13 4 14 5 12 6 9 7 10 8 79 9 11 10 78 11 8 12
REMARK SMILES IDX 7 13 6 16 1 17 2 18 3 19 80 20 4 21 5 22 18 23 19 24 20 25
REMARK SMILES IDX 21 26 22 27 23 28 24 29 25 30 77 31 26 32 76 33 27 34 28 35
REMARK SMILES IDX 29 36 70 37 30 38 75 39 69 40 71 41 31 42 74 43 68 44 67 45
REMARK SMILES IDX 32 47 58 48 41 49 57 50 42 51 45 52 56 53 72 54 43 55 44 56
REMARK SMILES IDX 55 58 73 59 46 60 33 61 34 62 39 63 35 64 36 65 38 66 40 67
REMARK SMILES IDX 37 68 59 69 60 70 65 71 61 72 62 73 64 74 66 75 63 76 47 77
REMARK SMILES IDX 48 78 53 79 49 80 50 81 52 82 54 83 51 84
REMARK H PARENT 7 14 7 15 71 46 45 57
REMARK Flexibility Score: inf
ROOT
ATOM      1  C   UNL     1      -6.633  -9.626  -2.856  1.00  0.00     0.202 C 
ENDROOT
BRANCH   1   2
ATOM      2  C   UNL     1      -5.693  -8.898  -3.822  1.00  0.00     0.261 C 
BRANCH   2   3
ATOM      3  O   UNL     1      -4.913  -7.904  -3.141  1.00  0.00    -0.460 OA
BRANCH   3   4
ATOM      4  C   UNL     1      -5.252  -6.623  -3.423  1.00  0.00     0.339 C 
ATOM      5  O   UNL     1      -6.035  -6.247  -4.284  1.00  0.00    -0.246 OA
BRANCH   4   6
ATOM      6  C   UNL     1      -4.657  -5.709  -2.435  1.00  0.00     0.078 A 
ATOM      7  C   UNL     1      -3.693  -3.810  -0.692  1.00  0.00     0.094 A 
ATOM      8  C   UNL     1      -3.006  -5.020  -0.835  1.00  0.00     0.031 A 
ATOM      9  N   UNL     1      -4.871  -3.573  -1.322  1.00  0.00    -0.254 NA
ATOM     10  C   UNL     1      -3.491  -5.980  -1.722  1.00  0.00     0.019 A 
ATOM     11  C   UNL     1      -5.319  -4.517  -2.182  1.00  0.00     0.127 A 
BRANCH   7  12
ATOM     12  C   UNL     1      -3.108  -2.665   0.121  1.00  0.00     0.318 C 
BRANCH  12  13
ATOM     13  N   UNL     1      -1.733  -2.369  -0.297  1.00  0.00    -0.339 N 
ATOM     14  H   UNL     1      -1.144  -3.156  -0.025  1.00  0.00     0.346 HD
ATOM     15  H   UNL     1      -1.770  -2.217  -1.305  1.00  0.00     0.346 HD
BRANCH  13  16
ATOM     16  C   UNL     1      -1.156  -1.152   0.277  1.00  0.00     0.182 C 
ATOM     17  C   UNL     1       2.531   0.056  -0.089  1.00  0.00     0.008 C 
ATOM     18  C   UNL     1       1.073   0.096   0.368  1.00  0.00    -0.008 C 
ATOM     19  C   UNL     1       0.377   1.359  -0.149  1.00  0.00     0.004 C 
ATOM     20  C   UNL     1       0.337  -1.162  -0.105  1.00  0.00     0.068 C 
ATOM     21  C   UNL     1      -1.099   1.381   0.234  1.00  0.00     0.006 C 
ATOM     22  C   UNL     1      -1.827   0.127  -0.245  1.00  0.00     0.065 C 
ENDBRANCH  13  16
ENDBRANCH  12  13
ENDBRANCH   7  12
ENDBRANCH   4   6
ENDBRANCH   3   4
ENDBRANCH   2   3
ENDBRANCH   1   2
BRANCH   1  23
ATOM     23  O   UNL     1      -7.631  -8.838  -2.211  1.00  0.00    -0.374 OA
BRANCH  23  24
ATOM     24  C   UNL     1      -7.235  -8.062  -1.079  1.00  0.00     0.202 C 
BRANCH  24  25
ATOM     25  C   UNL     1      -7.038  -8.806   0.247  1.00  0.00     0.261 C 
BRANCH  25  26
ATOM     26  O   UNL     1      -5.935  -9.729   0.198  1.00  0.00    -0.460 OA
BRANCH  26  27
ATOM     27  C   UNL     1      -6.291 -11.035   0.189  1.00  0.00     0.338 C 
ATOM     28  O   UNL     1      -7.418 -11.499   0.287  1.00  0.00    -0.246 OA
BRANCH  27  29
ATOM     29  C   UNL     1      -5.124 -11.871  -0.143  1.00  0.00     0.060 A 
ATOM     30  C   UNL     1      -5.245 -12.756  -1.222  1.00  0.00     0.016 A 
ATOM     31  C   UNL     1      -3.963 -11.848   0.631  1.00  0.00     0.016 A 
ATOM     32  C   UNL     1      -4.224 -13.660  -1.501  1.00  0.00     0.010 A 
ATOM     33  C   UNL     1      -2.942 -12.762   0.355  1.00  0.00     0.010 A 
ATOM     34  C   UNL     1      -3.084 -13.696  -0.688  1.00  0.00    -0.014 A 
BRANCH  34  35
ATOM     35  C   UNL     1      -2.111 -14.805  -0.837  1.00  0.00     0.031 A 
ATOM     36  C   UNL     1      -2.155 -15.949   0.138  1.00  0.00     0.074 A 
ATOM     37  C   UNL     1      -1.216 -14.805  -1.840  1.00  0.00     0.049 A 
ATOM     38  N   UNL     1      -1.372 -16.993   0.230  1.00  0.00    -0.248 NA
ATOM     39  C   UNL     1      -3.225 -15.907   1.148  1.00  0.00     0.031 C 
ATOM     40  C   UNL     1      -1.101 -13.776  -2.871  1.00  0.00     0.029 A 
ATOM     41  N   UNL     1      -0.225 -15.703  -2.147  1.00  0.00    -0.354 N 
ATOM     42  C   UNL     1      -1.847 -17.727   1.310  1.00  0.00     0.074 A 
ATOM     43  C   UNL     1      -2.965 -16.992   1.862  1.00  0.00     0.031 C 
ATOM     44  C   UNL     1      -0.087 -14.095  -3.693  1.00  0.00     0.029 A 
ATOM     45  C   UNL     1       0.539 -15.330  -3.225  1.00  0.00     0.049 A 
ATOM     46  H   UNL     1      -0.075 -16.535  -1.643  1.00  0.00     0.167 HD
ATOM     47  C   UNL     1      -1.397 -18.909   1.793  1.00  0.00     0.037 A 
ATOM     48  C   UNL     1       1.633 -15.908  -3.757  1.00  0.00     0.037 A 
ATOM     49  C   UNL     1      -0.286 -19.639   1.239  1.00  0.00     0.049 A 
ATOM     50  C   UNL     1       2.160 -17.185  -3.157  1.00  0.00     0.074 A 
ATOM     51  C   UNL     1       0.234 -20.856   1.643  1.00  0.00     0.029 A 
ATOM     52  N   UNL     1       0.481 -19.213   0.165  1.00  0.00    -0.354 N 
ATOM     53  N   UNL     1       1.691 -17.883  -2.150  1.00  0.00    -0.248 NA
ATOM     54  C   UNL     1       3.367 -17.757  -3.771  1.00  0.00     0.031 C 
ATOM     55  C   UNL     1       1.349 -21.141   0.848  1.00  0.00     0.029 A 
ATOM     56  C   UNL     1       1.488 -20.130  -0.089  1.00  0.00     0.049 A 
ATOM     57  H   UNL     1       0.332 -18.383  -0.342  1.00  0.00     0.167 HD
ATOM     58  C   UNL     1       2.525 -18.988  -2.030  1.00  0.00     0.074 A 
ATOM     59  C   UNL     1       3.522 -18.874  -3.074  1.00  0.00     0.031 C 
ATOM     60  C   UNL     1       2.470 -20.007  -1.137  1.00  0.00     0.037 A 
BRANCH  47  61
ATOM     61  C   UNL     1      -2.091 -19.474   2.998  1.00  0.00     0.057 A 
ATOM     62  C   UNL     1      -3.390 -19.996   2.931  1.00  0.00     0.134 A 
ATOM     63  C   UNL     1      -1.439 -19.524   4.237  1.00  0.00     0.134 A 
ATOM     64  F   UNL     1      -4.075 -19.967   1.778  1.00  0.00    -0.206 F 
ATOM     65  C   UNL     1      -4.024 -20.524   4.057  1.00  0.00     0.040 A 
ATOM     66  C   UNL     1      -2.052 -20.074   5.364  1.00  0.00     0.040 A 
ATOM     67  F   UNL     1      -0.193 -19.045   4.371  1.00  0.00    -0.206 F 
ATOM     68  C   UNL     1      -3.351 -20.570   5.277  1.00  0.00     0.006 A 
ENDBRANCH  47  61
BRANCH  48  69
ATOM     69  C   UNL     1       2.318 -15.279  -4.915  1.00  0.00     0.057 A 
ATOM     70  C   UNL     1       2.315 -15.885  -6.177  1.00  0.00     0.134 A 
ATOM     71  C   UNL     1       3.010 -14.069  -4.782  1.00  0.00     0.134 A 
ATOM     72  F   UNL     1       1.690 -17.056  -6.361  1.00  0.00    -0.206 F 
ATOM     73  C   UNL     1       2.991 -15.320  -7.260  1.00  0.00     0.040 A 
ATOM     74  C   UNL     1       3.667 -13.480  -5.863  1.00  0.00     0.040 A 
ATOM     75  F   UNL     1       3.050 -13.437  -3.600  1.00  0.00    -0.206 F 
ATOM     76  C   UNL     1       3.666 -14.111  -7.105  1.00  0.00     0.006 A 
ENDBRANCH  48  69
BRANCH  60  77
ATOM     77  C   UNL     1       3.490 -21.101  -1.274  1.00  0.00     0.057 A 
ATOM     78  C   UNL     1       4.837 -20.906  -0.945  1.00  0.00     0.134 A 
ATOM     79  C   UNL     1       3.108 -22.380  -1.701  1.00  0.00     0.134 A 
ATOM     80  F   UNL     1       5.271 -19.703  -0.540  1.00  0.00    -0.206 F 
ATOM     81  C   UNL     1       5.772 -21.937  -1.059  1.00  0.00     0.040 A 
ATOM     82  C   UNL     1       4.028 -23.425  -1.792  1.00  0.00     0.040 A 
ATOM     83  F   UNL     1       1.831 -22.639  -2.022  1.00  0.00    -0.206 F 
ATOM     84  C   UNL     1       5.366 -23.203  -1.477  1.00  0.00     0.006 A 
ENDBRANCH  60  77
ENDBRANCH  34  35
ENDBRANCH  27  29
ENDBRANCH  26  27
ENDBRANCH  25  26
ENDBRANCH  24  25
ENDBRANCH  23  24
ENDBRANCH   1  23
TORSDOF 17
