REMARK SMILES C=Cc1cncc(-c2ccc([C@@H](C)C(=O)OCCOCCOC(=O)c3ccc(-c4c5nc(c(-c6c(F)cccc6F)c6ccc([nH]6)c(-c6c(F)cccc6F)c6nc(c(-c7c(F)cccc7F)c7ccc4[nH]7)C=C6)C=C5)cc3)cc2)c1
REMARK SMILES IDX 18 1 17 2 16 3 14 4 15 5 12 6 13 7 11 8 8 9 9 10 80 11 10 12
REMARK SMILES IDX 79 13 7 14 3 15 4 16 81 17 5 18 6 19 2 20 1 21 19 22 20 23
REMARK SMILES IDX 21 24 22 25 23 26 24 27 25 28 26 29 78 30 27 31 77 32 28 33
REMARK SMILES IDX 29 34 30 35 71 36 31 37 76 38 70 39 72 40 32 41 75 42 69 43
REMARK SMILES IDX 68 44 33 46 59 47 42 48 58 49 43 50 46 51 57 52 73 53 44 54
REMARK SMILES IDX 45 55 56 57 74 58 47 59 34 60 35 61 40 62 36 63 37 64 39 65
REMARK SMILES IDX 41 66 38 67 60 68 61 69 66 70 62 71 63 72 65 73 67 74 64 75
REMARK SMILES IDX 48 76 49 77 54 78 50 79 51 80 53 81 55 82 52 83
REMARK H PARENT 72 45 46 56
REMARK Flexibility Score: inf
ROOT
ATOM      1  C   UNL     1      -4.984   6.291  -3.463  1.00  0.00     0.202 C 
ENDROOT
BRANCH   1   2
ATOM      2  C   UNL     1      -6.445   5.916  -3.725  1.00  0.00     0.261 C 
BRANCH   2   3
ATOM      3  O   UNL     1      -6.648   4.502  -3.545  1.00  0.00    -0.463 OA
BRANCH   3   4
ATOM      4  C   UNL     1      -7.105   3.819  -4.626  1.00  0.00     0.313 C 
ATOM      5  O   UNL     1      -7.489   4.347  -5.666  1.00  0.00    -0.252 OA
BRANCH   4   6
ATOM      6  C   UNL     1      -7.145   2.310  -4.430  1.00  0.00     0.126 C 
ATOM      7  C   UNL     1      -8.574   1.889  -4.096  1.00  0.00     0.025 C 
BRANCH   6   8
ATOM      8  C   UNL     1      -6.131   1.692  -3.470  1.00  0.00    -0.034 A 
ATOM      9  C   UNL     1      -4.339   0.341  -1.714  1.00  0.00    -0.017 A 
ATOM     10  C   UNL     1      -5.297   1.242  -1.225  1.00  0.00     0.009 A 
ATOM     11  C   UNL     1      -4.266   0.156  -3.101  1.00  0.00     0.009 A 
ATOM     12  C   UNL     1      -6.179   1.907  -2.087  1.00  0.00     0.005 A 
ATOM     13  C   UNL     1      -5.148   0.819  -3.966  1.00  0.00     0.005 A 
BRANCH   9  14
ATOM     14  C   UNL     1      -3.484  -0.425  -0.797  1.00  0.00     0.001 A 
ATOM     15  C   UNL     1      -1.306  -1.121   0.045  1.00  0.00    -0.007 A 
ATOM     16  C   UNL     1      -1.983  -1.933   0.951  1.00  0.00     0.119 A 
ATOM     17  C   UNL     1      -2.083  -0.371  -0.848  1.00  0.00     0.020 A 
ATOM     18  N   UNL     1      -3.329  -2.023   1.039  1.00  0.00    -0.263 NA
ATOM     19  C   UNL     1      -4.039  -1.270   0.167  1.00  0.00     0.119 A 
BRANCH  15  20
ATOM     20  C   UNL     1       0.160  -1.123   0.027  1.00  0.00     0.002 C 
ATOM     21  C   UNL     1       0.910  -0.029  -0.160  1.00  0.00     0.009 C 
ENDBRANCH  15  20
ENDBRANCH   9  14
ENDBRANCH   6   8
ENDBRANCH   4   6
ENDBRANCH   3   4
ENDBRANCH   2   3
ENDBRANCH   1   2
BRANCH   1  22
ATOM     22  O   UNL     1      -4.048   5.847  -4.446  1.00  0.00    -0.374 OA
BRANCH  22  23
ATOM     23  C   UNL     1      -3.686   4.466  -4.426  1.00  0.00     0.202 C 
BRANCH  23  24
ATOM     24  C   UNL     1      -2.645   4.063  -3.377  1.00  0.00     0.261 C 
BRANCH  24  25
ATOM     25  O   UNL     1      -3.132   4.239  -2.034  1.00  0.00    -0.460 OA
BRANCH  25  26
ATOM     26  C   UNL     1      -2.499   5.199  -1.325  1.00  0.00     0.338 C 
ATOM     27  O   UNL     1      -1.514   5.843  -1.662  1.00  0.00    -0.246 OA
BRANCH  26  28
ATOM     28  C   UNL     1      -3.248   5.512  -0.095  1.00  0.00     0.060 A 
ATOM     29  C   UNL     1      -3.518   6.862   0.160  1.00  0.00     0.016 A 
ATOM     30  C   UNL     1      -3.595   4.531   0.838  1.00  0.00     0.016 A 
ATOM     31  C   UNL     1      -4.073   7.245   1.378  1.00  0.00     0.010 A 
ATOM     32  C   UNL     1      -4.149   4.919   2.066  1.00  0.00     0.010 A 
ATOM     33  C   UNL     1      -4.348   6.281   2.357  1.00  0.00    -0.014 A 
BRANCH  33  34
ATOM     34  C   UNL     1      -4.687   6.737   3.728  1.00  0.00     0.031 A 
ATOM     35  C   UNL     1      -3.602   6.796   4.769  1.00  0.00     0.074 A 
ATOM     36  C   UNL     1      -5.925   7.172   4.024  1.00  0.00     0.049 A 
ATOM     37  N   UNL     1      -3.656   7.233   6.002  1.00  0.00    -0.248 NA
ATOM     38  C   UNL     1      -2.276   6.302   4.365  1.00  0.00     0.031 C 
ATOM     39  C   UNL     1      -7.055   7.196   3.098  1.00  0.00     0.029 A 
ATOM     40  N   UNL     1      -6.431   7.690   5.189  1.00  0.00    -0.354 N 
ATOM     41  C   UNL     1      -2.376   7.072   6.518  1.00  0.00     0.074 A 
ATOM     42  C   UNL     1      -1.575   6.463   5.478  1.00  0.00     0.031 C 
ATOM     43  C   UNL     1      -8.125   7.707   3.732  1.00  0.00     0.029 A 
ATOM     44  C   UNL     1      -7.758   8.031   5.109  1.00  0.00     0.049 A 
ATOM     45  H   UNL     1      -5.893   7.806   6.006  1.00  0.00     0.167 HD
ATOM     46  C   UNL     1      -1.905   7.412   7.741  1.00  0.00     0.037 A 
ATOM     47  C   UNL     1      -8.582   8.546   6.042  1.00  0.00     0.037 A 
ATOM     48  C   UNL     1      -2.696   8.017   8.779  1.00  0.00     0.049 A 
ATOM     49  C   UNL     1      -8.046   8.871   7.410  1.00  0.00     0.074 A 
ATOM     50  C   UNL     1      -2.303   8.407  10.048  1.00  0.00     0.029 A 
ATOM     51  N   UNL     1      -4.045   8.315   8.670  1.00  0.00    -0.354 N 
ATOM     52  N   UNL     1      -6.826   8.743   7.874  1.00  0.00    -0.248 NA
ATOM     53  C   UNL     1      -9.002   9.424   8.382  1.00  0.00     0.031 C 
ATOM     54  C   UNL     1      -3.424   8.907  10.720  1.00  0.00     0.029 A 
ATOM     55  C   UNL     1      -4.505   8.868   9.854  1.00  0.00     0.049 A 
ATOM     56  H   UNL     1      -4.595   8.158   7.869  1.00  0.00     0.167 HD
ATOM     57  C   UNL     1      -6.862   9.224   9.178  1.00  0.00     0.074 A 
ATOM     58  C   UNL     1      -8.220   9.658   9.427  1.00  0.00     0.031 C 
ATOM     59  C   UNL     1      -5.858   9.301  10.086  1.00  0.00     0.037 A 
BRANCH  46  60
ATOM     60  C   UNL     1      -0.461   7.120   8.026  1.00  0.00     0.057 A 
ATOM     61  C   UNL     1       0.571   7.875   7.455  1.00  0.00     0.134 A 
ATOM     62  C   UNL     1      -0.101   6.088   8.901  1.00  0.00     0.134 A 
ATOM     63  F   UNL     1       0.292   8.868   6.597  1.00  0.00    -0.206 F 
ATOM     64  C   UNL     1       1.912   7.601   7.728  1.00  0.00     0.040 A 
ATOM     65  C   UNL     1       1.236   5.819   9.200  1.00  0.00     0.040 A 
ATOM     66  F   UNL     1      -1.041   5.329   9.483  1.00  0.00    -0.206 F 
ATOM     67  C   UNL     1       2.247   6.573   8.608  1.00  0.00     0.006 A 
ENDBRANCH  46  60
BRANCH  47  68
ATOM     68  C   UNL     1     -10.007   8.798   5.714  1.00  0.00     0.057 A 
ATOM     69  C   UNL     1     -10.506  10.100   5.593  1.00  0.00     0.134 A 
ATOM     70  C   UNL     1     -10.908   7.741   5.538  1.00  0.00     0.134 A 
ATOM     71  F   UNL     1      -9.696  11.153   5.774  1.00  0.00    -0.206 F 
ATOM     72  C   UNL     1     -11.854  10.342   5.325  1.00  0.00     0.040 A 
ATOM     73  C   UNL     1     -12.253   7.969   5.248  1.00  0.00     0.040 A 
ATOM     74  F   UNL     1     -10.490   6.471   5.642  1.00  0.00    -0.206 F 
ATOM     75  C   UNL     1     -12.731   9.274   5.147  1.00  0.00     0.006 A 
ENDBRANCH  47  68
BRANCH  59  76
ATOM     76  C   UNL     1      -6.185   9.908  11.419  1.00  0.00     0.057 A 
ATOM     77  C   UNL     1      -6.955   9.230  12.372  1.00  0.00     0.134 A 
ATOM     78  C   UNL     1      -5.702  11.178  11.761  1.00  0.00     0.134 A 
ATOM     79  F   UNL     1      -7.457   8.016  12.102  1.00  0.00    -0.206 F 
ATOM     80  C   UNL     1      -7.256   9.804  13.609  1.00  0.00     0.040 A 
ATOM     81  C   UNL     1      -5.976  11.752  13.003  1.00  0.00     0.040 A 
ATOM     82  F   UNL     1      -4.951  11.877  10.897  1.00  0.00    -0.206 F 
ATOM     83  C   UNL     1      -6.761  11.068  13.929  1.00  0.00     0.006 A 
ENDBRANCH  59  76
ENDBRANCH  33  34
ENDBRANCH  26  28
ENDBRANCH  25  26
ENDBRANCH  24  25
ENDBRANCH  23  24
ENDBRANCH  22  23
ENDBRANCH   1  22
TORSDOF 17
