REMARK SMILES Cc1cc2c(N[C@@H]3CCCCC[C@@H]3C(=O)OCCOCCOC(=O)c3ccc(-c4c5nc(c(-c6c(F)cccc6F)c6ccc([nH]6)c(-c6c(F)cccc6F)c6nc(c(-c7c(F)cccc7F)c7ccc4[nH]7)C=C6)C=C5)cc3)ncnc2s1
REMARK SMILES IDX 18 1 17 2 16 3 14 4 15 5 13 6 7 7 6 8 5 10 1 11 2 12 3 13
REMARK SMILES IDX 83 14 4 15 82 16 81 17 79 18 80 19 8 20 12 22 11 23 10 24
REMARK SMILES IDX 9 25 19 27 20 28 21 29 22 30 23 31 24 32 25 33 26 34 78 35
REMARK SMILES IDX 27 36 77 37 28 38 29 39 30 40 71 41 31 42 76 43 70 44 72 45
REMARK SMILES IDX 32 46 75 47 69 48 68 49 33 51 59 52 42 53 58 54 43 55 46 56
REMARK SMILES IDX 57 57 73 58 44 59 45 60 56 62 74 63 47 64 34 65 35 66 40 67
REMARK SMILES IDX 36 68 37 69 39 70 41 71 38 72 60 73 61 74 66 75 62 76 63 77
REMARK SMILES IDX 65 78 67 79 64 80 48 81 49 82 54 83 50 84 51 85 53 86 55 87
REMARK SMILES IDX 52 88
REMARK H PARENT 6 9 72 50 46 61
REMARK Flexibility Score: 90.00
ROOT
ATOM      1  C   UNL     1      -2.893   4.549  -4.353  1.00  0.00     0.202 C 
ENDROOT
BRANCH   1   2
ATOM      2  C   UNL     1      -3.982   4.569  -3.280  1.00  0.00     0.261 C 
BRANCH   2   3
ATOM      3  O   UNL     1      -3.779   3.504  -2.330  1.00  0.00    -0.463 OA
BRANCH   3   4
ATOM      4  C   UNL     1      -4.850   2.722  -2.042  1.00  0.00     0.311 C 
ATOM      5  O   UNL     1      -5.957   2.834  -2.558  1.00  0.00    -0.252 OA
BRANCH   4   6
ATOM      6  C   UNL     1      -4.533   1.627  -1.030  1.00  0.00     0.121 C 
BRANCH   6   7
ATOM      7  C   UNL     1      -4.178   2.175   0.364  1.00  0.00     0.095 C 
BRANCH   7   8
ATOM      8  N   UNL     1      -3.350   3.373   0.371  1.00  0.00    -0.366 N 
ATOM      9  H   UNL     1      -3.908   4.177   0.261  1.00  0.00     0.162 HD
BRANCH   8  10
ATOM     10  C   UNL     1      -2.035   3.718   0.484  1.00  0.00     0.138 A 
ATOM     11  C   UNL     1       1.407  -0.116   0.401  1.00  0.00     0.056 C 
ATOM     12  C   UNL     1       0.745   1.203   0.594  1.00  0.00     0.004 A 
ATOM     13  C   UNL     1      -0.572   1.534   0.357  1.00  0.00     0.029 A 
ATOM     14  S   UNL     1       1.606   2.544   1.194  1.00  0.00    -0.121 S 
ATOM     15  C   UNL     1      -0.874   2.922   0.560  1.00  0.00     0.054 A 
ATOM     16  C   UNL     1       0.300   3.595   0.882  1.00  0.00     0.129 A 
ATOM     17  N   UNL     1       0.469   4.922   0.996  1.00  0.00    -0.225 NA
ATOM     18  N   UNL     1      -1.877   5.066   0.547  1.00  0.00    -0.219 NA
ATOM     19  C   UNL     1      -0.661   5.586   0.766  1.00  0.00     0.225 A 
ENDBRANCH   8  10
ENDBRANCH   7   8
BRANCH   7  20
ATOM     20  C   UNL     1      -3.799   1.178   1.466  1.00  0.00     0.026 CG0
ATOM     21  G   UNL     1      -4.415  -0.214   1.341  1.00  0.00     0.000 G0
ENDBRANCH   7  20
ENDBRANCH   6   7
BRANCH   6  22
ATOM     22  C   UNL     1      -3.647   0.535  -1.632  1.00  0.00     0.017 C 
BRANCH  22  23
ATOM     23  C   UNL     1      -3.939  -0.871  -1.103  1.00  0.00     0.001 C 
BRANCH  23  24
ATOM     24  C   UNL     1      -3.662  -1.123   0.372  1.00  0.00     0.000 C 
BRANCH  24  25
ATOM     25  C   UNL     1      -4.415  -0.214   1.341  1.00  0.00     0.002 CG0
ATOM     26  G   UNL     1      -3.799   1.178   1.466  1.00  0.00     0.000 G0
ENDBRANCH  24  25
ENDBRANCH  23  24
ENDBRANCH  22  23
ENDBRANCH   6  22
ENDBRANCH   4   6
ENDBRANCH   3   4
ENDBRANCH   2   3
ENDBRANCH   1   2
BRANCH   1  27
ATOM     27  O   UNL     1      -3.011   3.494  -5.314  1.00  0.00    -0.374 OA
BRANCH  27  28
ATOM     28  C   UNL     1      -2.713   2.178  -4.865  1.00  0.00     0.202 C 
BRANCH  28  29
ATOM     29  C   UNL     1      -1.243   1.796  -4.845  1.00  0.00     0.261 C 
BRANCH  29  30
ATOM     30  O   UNL     1      -0.495   2.609  -3.953  1.00  0.00    -0.460 OA
BRANCH  30  31
ATOM     31  C   UNL     1       0.218   3.596  -4.544  1.00  0.00     0.338 C 
ATOM     32  O   UNL     1       0.081   4.047  -5.665  1.00  0.00    -0.246 OA
BRANCH  31  33
ATOM     33  C   UNL     1       1.321   3.953  -3.644  1.00  0.00     0.060 A 
ATOM     34  C   UNL     1       2.134   5.038  -3.985  1.00  0.00     0.016 A 
ATOM     35  C   UNL     1       1.663   3.079  -2.606  1.00  0.00     0.016 A 
ATOM     36  C   UNL     1       3.363   5.167  -3.365  1.00  0.00     0.010 A 
ATOM     37  C   UNL     1       2.886   3.203  -2.001  1.00  0.00     0.010 A 
ATOM     38  C   UNL     1       3.750   4.202  -2.429  1.00  0.00    -0.014 A 
BRANCH  38  39
ATOM     39  C   UNL     1       5.088   4.235  -1.880  1.00  0.00     0.031 A 
ATOM     40  C   UNL     1       5.369   5.363  -0.965  1.00  0.00     0.074 A 
ATOM     41  C   UNL     1       5.948   3.214  -2.052  1.00  0.00     0.049 A 
ATOM     42  N   UNL     1       6.231   6.312  -1.118  1.00  0.00    -0.248 NA
ATOM     43  C   UNL     1       4.522   5.502   0.228  1.00  0.00     0.031 C 
ATOM     44  C   UNL     1       5.697   1.893  -2.640  1.00  0.00     0.029 A 
ATOM     45  N   UNL     1       7.235   3.122  -1.629  1.00  0.00    -0.354 N 
ATOM     46  C   UNL     1       6.162   7.077   0.041  1.00  0.00     0.074 A 
ATOM     47  C   UNL     1       5.009   6.617   0.771  1.00  0.00     0.031 C 
ATOM     48  C   UNL     1       6.730   1.071  -2.347  1.00  0.00     0.029 A 
ATOM     49  C   UNL     1       7.769   1.846  -1.693  1.00  0.00     0.049 A 
ATOM     50  H   UNL     1       7.745   3.898  -1.303  1.00  0.00     0.167 HD
ATOM     51  C   UNL     1       7.181   7.897   0.414  1.00  0.00     0.037 A 
ATOM     52  C   UNL     1       8.964   1.459  -1.190  1.00  0.00     0.037 A 
ATOM     53  C   UNL     1       8.072   8.171  -0.682  1.00  0.00     0.049 A 
ATOM     54  C   UNL     1       9.785   2.683  -1.006  1.00  0.00     0.074 A 
ATOM     55  C   UNL     1       7.931   8.770  -1.919  1.00  0.00     0.029 A 
ATOM     56  N   UNL     1       9.254   7.475  -0.738  1.00  0.00    -0.354 N 
ATOM     57  N   UNL     1      10.244   3.412  -1.985  1.00  0.00    -0.248 NA
ATOM     58  C   UNL     1       9.749   3.337   0.293  1.00  0.00     0.031 C 
ATOM     59  C   UNL     1       8.774   8.020  -2.791  1.00  0.00     0.029 A 
ATOM     60  C   UNL     1       9.408   7.038  -2.028  1.00  0.00     0.049 A 
ATOM     61  H   UNL     1       9.876   7.319   0.010  1.00  0.00     0.167 HD
ATOM     62  C   UNL     1      10.161   4.718  -1.526  1.00  0.00     0.074 A 
ATOM     63  C   UNL     1       9.956   4.601  -0.086  1.00  0.00     0.031 C 
ATOM     64  C   UNL     1       9.985   5.762  -2.389  1.00  0.00     0.037 A 
BRANCH  51  65
ATOM     65  C   UNL     1       7.546   8.182   1.844  1.00  0.00     0.057 A 
ATOM     66  C   UNL     1       8.449   9.217   2.140  1.00  0.00     0.134 A 
ATOM     67  C   UNL     1       7.259   7.309   2.913  1.00  0.00     0.134 A 
ATOM     68  F   UNL     1       8.827  10.091   1.195  1.00  0.00    -0.206 F 
ATOM     69  C   UNL     1       9.056   9.345   3.395  1.00  0.00     0.040 A 
ATOM     70  C   UNL     1       7.816   7.459   4.185  1.00  0.00     0.040 A 
ATOM     71  F   UNL     1       6.508   6.211   2.755  1.00  0.00    -0.206 F 
ATOM     72  C   UNL     1       8.740   8.464   4.423  1.00  0.00     0.006 A 
ENDBRANCH  51  65
BRANCH  52  73
ATOM     73  C   UNL     1       9.329   0.160  -0.585  1.00  0.00     0.057 A 
ATOM     74  C   UNL     1      10.671  -0.184  -0.379  1.00  0.00     0.134 A 
ATOM     75  C   UNL     1       8.376  -0.648   0.060  1.00  0.00     0.134 A 
ATOM     76  F   UNL     1      11.653   0.547  -0.927  1.00  0.00    -0.206 F 
ATOM     77  C   UNL     1      11.047  -1.247   0.451  1.00  0.00     0.040 A 
ATOM     78  C   UNL     1       8.737  -1.717   0.884  1.00  0.00     0.040 A 
ATOM     79  F   UNL     1       7.065  -0.373  -0.015  1.00  0.00    -0.206 F 
ATOM     80  C   UNL     1      10.078  -2.009   1.097  1.00  0.00     0.006 A 
ENDBRANCH  52  73
BRANCH  64  81
ATOM     81  C   UNL     1      10.146   5.490  -3.861  1.00  0.00     0.057 A 
ATOM     82  C   UNL     1       9.301   4.647  -4.598  1.00  0.00     0.134 A 
ATOM     83  C   UNL     1      11.084   6.232  -4.588  1.00  0.00     0.134 A 
ATOM     84  F   UNL     1       8.308   3.971  -4.007  1.00  0.00    -0.206 F 
ATOM     85  C   UNL     1       9.409   4.519  -5.987  1.00  0.00     0.040 A 
ATOM     86  C   UNL     1      11.180   6.140  -5.979  1.00  0.00     0.040 A 
ATOM     87  F   UNL     1      11.889   7.104  -3.960  1.00  0.00    -0.206 F 
ATOM     88  C   UNL     1      10.347   5.274  -6.683  1.00  0.00     0.006 A 
ENDBRANCH  64  81
ENDBRANCH  38  39
ENDBRANCH  31  33
ENDBRANCH  30  31
ENDBRANCH  29  30
ENDBRANCH  28  29
ENDBRANCH  27  28
ENDBRANCH   1  27
TORSDOF 16
