REMARK SMILES Cc1ccccc1-n1nc(Cl)c(C(=O)OCCOCCOC(=O)c2ccc(-c3c4nc(c(-c5c(F)cccc5F)c5ccc([nH]5)c(-c5c(F)cccc5F)c5nc(c(-c6c(F)cccc6F)c6ccc3[nH]6)C=C5)C=C4)cc2)n1
REMARK SMILES IDX 19 1 18 2 17 3 16 4 15 5 13 6 14 7 12 8 8 9 9 10 78 11 10 12
REMARK SMILES IDX 11 13 7 14 1 15 2 16 3 17 4 18 6 19 5 20 20 21 21 22 22 23
REMARK SMILES IDX 23 24 24 25 25 26 77 27 26 28 76 29 27 30 28 31 29 32 70 33
REMARK SMILES IDX 30 34 75 35 69 36 71 37 31 38 74 39 68 40 67 41 32 43 58 44
REMARK SMILES IDX 41 45 57 46 42 47 45 48 56 49 72 50 43 51 44 52 55 54 73 55
REMARK SMILES IDX 46 56 33 57 34 58 39 59 35 60 36 61 38 62 40 63 37 64 59 65
REMARK SMILES IDX 60 66 65 67 61 68 62 69 64 70 66 71 63 72 47 73 48 74 53 75
REMARK SMILES IDX 49 76 50 77 52 78 54 79 51 80
REMARK H PARENT 71 42 45 53
REMARK Flexibility Score: inf
ROOT
ATOM      1  C   UNL     1       0.837   7.412  -3.368  1.00  0.00     0.202 C 
ENDROOT
BRANCH   1   2
ATOM      2  O   UNL     1       1.768   6.363  -3.156  1.00  0.00    -0.374 OA
BRANCH   2   3
ATOM      3  C   UNL     1       1.465   5.120  -3.771  1.00  0.00     0.202 C 
BRANCH   3   4
ATOM      4  C   UNL     1       2.622   4.188  -3.466  1.00  0.00     0.261 C 
BRANCH   4   5
ATOM      5  O   UNL     1       2.527   3.623  -2.150  1.00  0.00    -0.458 OA
BRANCH   5   6
ATOM      6  C   UNL     1       2.647   4.408  -1.030  1.00  0.00     0.362 C 
ATOM      7  O   UNL     1       3.144   5.514  -0.974  1.00  0.00    -0.244 OA
BRANCH   6   8
ATOM      8  C   UNL     1       1.958   3.748   0.060  1.00  0.00     0.209 A 
ATOM      9  N   UNL     1       0.815   2.216   0.923  1.00  0.00    -0.149 N 
ATOM     10  N   UNL     1       0.336   3.326   1.550  1.00  0.00    -0.135 NA
ATOM     11  N   UNL     1       1.895   2.410   0.138  1.00  0.00    -0.139 NA
ATOM     12  C   UNL     1       1.100   4.291   1.024  1.00  0.00     0.186 A 
ATOM     13  Cl  UNL     1       0.808   5.918   1.378  1.00  0.00    -0.057 Cl
BRANCH   9  14
ATOM     14  C   UNL     1       0.072   1.013   0.787  1.00  0.00     0.089 A 
ATOM     15  C   UNL     1       2.186  -0.451   0.465  1.00  0.00     0.047 C 
ATOM     16  C   UNL     1       0.697  -0.212   0.459  1.00  0.00    -0.023 A 
ATOM     17  C   UNL     1      -0.118  -1.303   0.111  1.00  0.00     0.006 A 
ATOM     18  C   UNL     1      -1.508  -1.192   0.107  1.00  0.00     0.000 A 
ATOM     19  C   UNL     1      -1.331   1.103   0.832  1.00  0.00     0.030 A 
ATOM     20  C   UNL     1      -2.114   0.005   0.476  1.00  0.00     0.002 A 
ENDBRANCH   9  14
ENDBRANCH   6   8
ENDBRANCH   5   6
ENDBRANCH   4   5
ENDBRANCH   3   4
ENDBRANCH   2   3
ENDBRANCH   1   2
BRANCH   1  21
ATOM     21  C   UNL     1       0.817   7.918  -4.817  1.00  0.00     0.261 C 
BRANCH  21  22
ATOM     22  O   UNL     1       2.131   8.390  -5.175  1.00  0.00    -0.460 OA
BRANCH  22  23
ATOM     23  C   UNL     1       2.881   7.525  -5.907  1.00  0.00     0.338 C 
ATOM     24  O   UNL     1       2.495   6.900  -6.883  1.00  0.00    -0.246 OA
BRANCH  23  25
ATOM     25  C   UNL     1       4.154   7.231  -5.188  1.00  0.00     0.060 A 
ATOM     26  C   UNL     1       4.965   6.167  -5.625  1.00  0.00     0.016 A 
ATOM     27  C   UNL     1       4.375   7.801  -3.934  1.00  0.00     0.016 A 
ATOM     28  C   UNL     1       5.898   5.585  -4.753  1.00  0.00     0.010 A 
ATOM     29  C   UNL     1       5.248   7.185  -3.057  1.00  0.00     0.010 A 
ATOM     30  C   UNL     1       5.989   6.055  -3.442  1.00  0.00    -0.014 A 
BRANCH  30  31
ATOM     31  C   UNL     1       6.683   5.381  -2.343  1.00  0.00     0.031 A 
ATOM     32  C   UNL     1       7.762   6.065  -1.589  1.00  0.00     0.074 A 
ATOM     33  C   UNL     1       6.158   4.259  -1.790  1.00  0.00     0.049 A 
ATOM     34  N   UNL     1       8.499   5.459  -0.715  1.00  0.00    -0.248 NA
ATOM     35  C   UNL     1       8.153   7.463  -1.772  1.00  0.00     0.031 C 
ATOM     36  C   UNL     1       6.293   3.825  -0.399  1.00  0.00     0.029 A 
ATOM     37  N   UNL     1       5.477   3.201  -2.401  1.00  0.00    -0.354 N 
ATOM     38  C   UNL     1       9.083   6.433   0.050  1.00  0.00     0.074 A 
ATOM     39  C   UNL     1       9.020   7.622  -0.763  1.00  0.00     0.031 C 
ATOM     40  C   UNL     1       5.973   2.529  -0.306  1.00  0.00     0.029 A 
ATOM     41  C   UNL     1       5.757   2.039  -1.650  1.00  0.00     0.049 A 
ATOM     42  H   UNL     1       4.910   3.256  -3.204  1.00  0.00     0.167 HD
ATOM     43  C   UNL     1       9.384   6.161   1.351  1.00  0.00     0.037 A 
ATOM     44  C   UNL     1       6.312   0.934  -2.216  1.00  0.00     0.037 A 
ATOM     45  C   UNL     1       9.267   4.733   1.683  1.00  0.00     0.049 A 
ATOM     46  C   UNL     1       7.640   0.561  -1.606  1.00  0.00     0.074 A 
ATOM     47  C   UNL     1       8.589   3.981   2.627  1.00  0.00     0.029 A 
ATOM     48  N   UNL     1       9.856   3.806   0.835  1.00  0.00    -0.354 N 
ATOM     49  N   UNL     1       8.135   1.129  -0.542  1.00  0.00    -0.248 NA
ATOM     50  C   UNL     1       8.570  -0.398  -2.198  1.00  0.00     0.031 C 
ATOM     51  C   UNL     1       8.815   2.596   2.345  1.00  0.00     0.029 A 
ATOM     52  C   UNL     1       9.655   2.507   1.250  1.00  0.00     0.049 A 
ATOM     53  H   UNL     1      10.362   4.049   0.026  1.00  0.00     0.167 HD
ATOM     54  C   UNL     1       9.453   0.791  -0.411  1.00  0.00     0.074 A 
ATOM     55  C   UNL     1       9.667  -0.210  -1.442  1.00  0.00     0.031 C 
ATOM     56  C   UNL     1      10.271   1.432   0.478  1.00  0.00     0.037 A 
BRANCH  43  57
ATOM     57  C   UNL     1       9.686   7.219   2.389  1.00  0.00     0.057 A 
ATOM     58  C   UNL     1      10.302   6.866   3.605  1.00  0.00     0.134 A 
ATOM     59  C   UNL     1       9.320   8.578   2.296  1.00  0.00     0.134 A 
ATOM     60  F   UNL     1      10.681   5.604   3.854  1.00  0.00    -0.206 F 
ATOM     61  C   UNL     1      10.550   7.791   4.631  1.00  0.00     0.040 A 
ATOM     62  C   UNL     1       9.623   9.524   3.286  1.00  0.00     0.040 A 
ATOM     63  F   UNL     1       8.598   9.056   1.276  1.00  0.00    -0.206 F 
ATOM     64  C   UNL     1      10.232   9.131   4.465  1.00  0.00     0.006 A 
ENDBRANCH  43  57
BRANCH  44  65
ATOM     65  C   UNL     1       5.880   0.755  -3.626  1.00  0.00     0.057 A 
ATOM     66  C   UNL     1       4.560   0.324  -3.854  1.00  0.00     0.134 A 
ATOM     67  C   UNL     1       6.531   1.401  -4.682  1.00  0.00     0.134 A 
ATOM     68  F   UNL     1       3.872  -0.286  -2.876  1.00  0.00    -0.206 F 
ATOM     69  C   UNL     1       3.882   0.614  -5.041  1.00  0.00     0.040 A 
ATOM     70  C   UNL     1       5.859   1.701  -5.874  1.00  0.00     0.040 A 
ATOM     71  F   UNL     1       7.779   1.866  -4.530  1.00  0.00    -0.206 F 
ATOM     72  C   UNL     1       4.523   1.336  -6.043  1.00  0.00     0.006 A 
ENDBRANCH  44  65
BRANCH  56  73
ATOM     73  C   UNL     1      11.750   1.164   0.620  1.00  0.00     0.057 A 
ATOM     74  C   UNL     1      12.310  -0.118   0.547  1.00  0.00     0.134 A 
ATOM     75  C   UNL     1      12.665   2.196   0.925  1.00  0.00     0.134 A 
ATOM     76  F   UNL     1      11.540  -1.204   0.381  1.00  0.00    -0.206 F 
ATOM     77  C   UNL     1      13.688  -0.346   0.679  1.00  0.00     0.040 A 
ATOM     78  C   UNL     1      14.033   1.976   1.109  1.00  0.00     0.040 A 
ATOM     79  F   UNL     1      12.286   3.475   1.044  1.00  0.00    -0.206 F 
ATOM     80  C   UNL     1      14.554   0.703   0.963  1.00  0.00     0.006 A 
ENDBRANCH  56  73
ENDBRANCH  30  31
ENDBRANCH  23  25
ENDBRANCH  22  23
ENDBRANCH  21  22
ENDBRANCH   1  21
TORSDOF 15
