REMARK SMILES C#CC[N@H+](CC(=O)OCCOCCOC(=O)c1ccc(-c2c3nc(c(-c4c(F)cccc4F)c4ccc([nH]4)c(-c4c(F)cccc4F)c4nc(c(-c5c(F)cccc5F)c5ccc2[nH]5)C=C4)C=C3)cc1)[C@H](C)c1ccccc1[N+](=O)[O-]
REMARK SMILES IDX 10 1 9 2 8 3 6 4 7 5 5 6 4 7 3 9 2 10 1 11 71 12 72 13 73 14
REMARK SMILES IDX 74 15 78 16 75 17 77 18 76 19 79 20 80 21 81 22 11 23 12 24
REMARK SMILES IDX 13 25 14 26 15 27 16 28 17 29 18 30 70 31 19 32 69 33 20 34
REMARK SMILES IDX 21 35 22 36 63 37 23 38 68 39 62 40 64 41 24 42 67 43 61 44
REMARK SMILES IDX 60 45 25 47 51 48 34 49 50 50 35 51 38 52 49 53 65 54 36 55
REMARK SMILES IDX 37 56 48 58 66 59 39 60 26 61 27 62 32 63 28 64 29 65 31 66
REMARK SMILES IDX 33 67 30 68 52 69 53 70 58 71 54 72 55 73 57 74 59 75 56 76
REMARK SMILES IDX 40 77 41 78 46 79 42 80 43 81 45 82 47 83 44 84
REMARK H PARENT 4 8 64 46 38 57
REMARK Flexibility Score: inf
ROOT
ATOM      1  C   UNL     1      -4.739   6.055  -0.666  1.00  0.00     0.202 C 
ENDROOT
BRANCH   1   2
ATOM      2  C   UNL     1      -5.202   4.787   0.049  1.00  0.00     0.261 C 
BRANCH   2   3
ATOM      3  O   UNL     1      -4.321   3.685  -0.221  1.00  0.00    -0.459 OA
BRANCH   3   4
ATOM      4  C   UNL     1      -4.789   2.751  -1.078  1.00  0.00     0.361 C 
ATOM      5  O   UNL     1      -5.936   2.742  -1.520  1.00  0.00    -0.245 OA
BRANCH   4   6
ATOM      6  C   UNL     1      -3.823   1.622  -1.404  1.00  0.00     0.387 C 
BRANCH   6   7
ATOM      7  N   UNL     1      -2.314   1.794  -1.332  1.00  0.00    -0.309 N 
ATOM      8  H   UNL     1      -1.967   2.596  -1.859  1.00  0.00     0.349 HD
BRANCH   7   9
ATOM      9  C   UNL     1      -1.923   2.070   0.068  1.00  0.00     0.354 C 
BRANCH   9  10
ATOM     10  C   UNL     1      -0.484   2.187   0.341  1.00  0.00    -0.047 C 
ATOM     11  C   UNL     1       0.682   2.320   0.612  1.00  0.00     0.010 C 
ENDBRANCH   9  10
ENDBRANCH   7   9
BRANCH   7  12
ATOM     12  C   UNL     1      -1.696   0.553  -1.954  1.00  0.00     0.220 C 
ATOM     13  C   UNL     1      -2.212  -0.746  -1.273  1.00  0.00     0.081 C 
BRANCH  12  14
ATOM     14  C   UNL     1      -0.161   0.549  -2.154  1.00  0.00     0.087 A 
ATOM     15  C   UNL     1       0.599  -0.619  -1.903  1.00  0.00     0.017 A 
ATOM     16  C   UNL     1       0.590   1.654  -2.609  1.00  0.00     0.278 A 
ATOM     17  C   UNL     1       1.998  -0.647  -1.980  1.00  0.00     0.001 A 
ATOM     18  C   UNL     1       2.003   1.649  -2.645  1.00  0.00     0.086 A 
ATOM     19  C   UNL     1       2.705   0.499  -2.308  1.00  0.00     0.007 A 
BRANCH  16  20
ATOM     20  N   UNL     1      -0.046   2.863  -3.105  1.00  0.00     0.063 N 
ATOM     21  O   UNL     1       0.418   3.944  -2.712  1.00  0.00    -0.258 OA
ATOM     22  O   UNL     1      -0.922   2.731  -3.974  1.00  0.00    -0.258 OA
ENDBRANCH  16  20
ENDBRANCH  12  14
ENDBRANCH   7  12
ENDBRANCH   6   7
ENDBRANCH   4   6
ENDBRANCH   3   4
ENDBRANCH   2   3
ENDBRANCH   1   2
BRANCH   1  23
ATOM     23  O   UNL     1      -4.764   6.047  -2.089  1.00  0.00    -0.374 OA
BRANCH  23  24
ATOM     24  C   UNL     1      -3.762   5.307  -2.787  1.00  0.00     0.202 C 
BRANCH  24  25
ATOM     25  C   UNL     1      -2.320   5.810  -2.711  1.00  0.00     0.261 C 
BRANCH  25  26
ATOM     26  O   UNL     1      -1.782   5.777  -1.377  1.00  0.00    -0.460 OA
BRANCH  26  27
ATOM     27  C   UNL     1      -1.462   6.996  -0.884  1.00  0.00     0.338 C 
ATOM     28  O   UNL     1      -1.538   8.072  -1.456  1.00  0.00    -0.246 OA
BRANCH  27  29
ATOM     29  C   UNL     1      -1.197   6.928   0.564  1.00  0.00     0.060 A 
ATOM     30  C   UNL     1      -2.031   7.687   1.393  1.00  0.00     0.016 A 
ATOM     31  C   UNL     1      -0.076   6.280   1.083  1.00  0.00     0.016 A 
ATOM     32  C   UNL     1      -1.707   7.867   2.733  1.00  0.00     0.010 A 
ATOM     33  C   UNL     1       0.248   6.462   2.435  1.00  0.00     0.010 A 
ATOM     34  C   UNL     1      -0.538   7.296   3.254  1.00  0.00    -0.014 A 
BRANCH  34  35
ATOM     35  C   UNL     1      -0.088   7.705   4.610  1.00  0.00     0.031 A 
ATOM     36  C   UNL     1       1.071   8.656   4.755  1.00  0.00     0.074 A 
ATOM     37  C   UNL     1      -0.757   7.294   5.703  1.00  0.00     0.049 A 
ATOM     38  N   UNL     1       1.609   9.151   5.842  1.00  0.00    -0.248 NA
ATOM     39  C   UNL     1       1.711   9.112   3.510  1.00  0.00     0.031 C 
ATOM     40  C   UNL     1      -1.921   6.408   5.696  1.00  0.00     0.029 A 
ATOM     41  N   UNL     1      -0.555   7.572   7.032  1.00  0.00    -0.354 N 
ATOM     42  C   UNL     1       2.654   9.962   5.415  1.00  0.00     0.074 A 
ATOM     43  C   UNL     1       2.696   9.868   3.971  1.00  0.00     0.031 C 
ATOM     44  C   UNL     1      -2.329   6.214   6.960  1.00  0.00     0.029 A 
ATOM     45  C   UNL     1      -1.434   6.928   7.868  1.00  0.00     0.049 A 
ATOM     46  H   UNL     1       0.153   8.175   7.355  1.00  0.00     0.167 HD
ATOM     47  C   UNL     1       3.497  10.720   6.157  1.00  0.00     0.037 A 
ATOM     48  C   UNL     1      -1.495   6.897   9.213  1.00  0.00     0.037 A 
ATOM     49  C   UNL     1       3.447  10.819   7.594  1.00  0.00     0.049 A 
ATOM     50  C   UNL     1      -0.507   7.702  10.016  1.00  0.00     0.074 A 
ATOM     51  C   UNL     1       4.240  11.585   8.432  1.00  0.00     0.029 A 
ATOM     52  N   UNL     1       2.565  10.123   8.407  1.00  0.00    -0.354 N 
ATOM     53  N   UNL     1       0.459   8.485   9.600  1.00  0.00    -0.248 NA
ATOM     54  C   UNL     1      -0.625   7.625  11.479  1.00  0.00     0.031 C 
ATOM     55  C   UNL     1       3.888  11.295   9.754  1.00  0.00     0.029 A 
ATOM     56  C   UNL     1       2.819  10.415   9.738  1.00  0.00     0.049 A 
ATOM     57  H   UNL     1       1.863   9.512   8.086  1.00  0.00     0.167 HD
ATOM     58  C   UNL     1       1.036   9.023  10.745  1.00  0.00     0.074 A 
ATOM     59  C   UNL     1       0.299   8.489  11.871  1.00  0.00     0.031 C 
ATOM     60  C   UNL     1       2.078   9.883  10.855  1.00  0.00     0.037 A 
BRANCH  47  61
ATOM     61  C   UNL     1       4.574  11.482   5.436  1.00  0.00     0.057 A 
ATOM     62  C   UNL     1       4.295  12.583   4.617  1.00  0.00     0.134 A 
ATOM     63  C   UNL     1       5.922  11.138   5.612  1.00  0.00     0.134 A 
ATOM     64  F   UNL     1       3.027  12.963   4.396  1.00  0.00    -0.206 F 
ATOM     65  C   UNL     1       5.312  13.300   3.982  1.00  0.00     0.040 A 
ATOM     66  C   UNL     1       6.949  11.866   5.011  1.00  0.00     0.040 A 
ATOM     67  F   UNL     1       6.264  10.099   6.390  1.00  0.00    -0.206 F 
ATOM     68  C   UNL     1       6.645  12.947   4.188  1.00  0.00     0.006 A 
ENDBRANCH  47  61
BRANCH  48  69
ATOM     69  C   UNL     1      -2.513   6.054   9.895  1.00  0.00     0.057 A 
ATOM     70  C   UNL     1      -3.529   6.618  10.675  1.00  0.00     0.134 A 
ATOM     71  C   UNL     1      -2.466   4.656   9.815  1.00  0.00     0.134 A 
ATOM     72  F   UNL     1      -3.617   7.950  10.810  1.00  0.00    -0.206 F 
ATOM     73  C   UNL     1      -4.440   5.825  11.375  1.00  0.00     0.040 A 
ATOM     74  C   UNL     1      -3.391   3.852  10.481  1.00  0.00     0.040 A 
ATOM     75  F   UNL     1      -1.520   4.050   9.082  1.00  0.00    -0.206 F 
ATOM     76  C   UNL     1      -4.375   4.437  11.275  1.00  0.00     0.006 A 
ENDBRANCH  48  69
BRANCH  60  77
ATOM     77  C   UNL     1       2.448  10.348  12.238  1.00  0.00     0.057 A 
ATOM     78  C   UNL     1       2.994   9.487  13.199  1.00  0.00     0.134 A 
ATOM     79  C   UNL     1       2.262  11.688  12.608  1.00  0.00     0.134 A 
ATOM     80  F   UNL     1       3.193   8.191  12.917  1.00  0.00    -0.206 F 
ATOM     81  C   UNL     1       3.297   9.930  14.489  1.00  0.00     0.040 A 
ATOM     82  C   UNL     1       2.598  12.150  13.881  1.00  0.00     0.040 A 
ATOM     83  F   UNL     1       1.758  12.573  11.735  1.00  0.00    -0.206 F 
ATOM     84  C   UNL     1       3.104  11.266  14.831  1.00  0.00     0.006 A 
ENDBRANCH  60  77
ENDBRANCH  34  35
ENDBRANCH  27  29
ENDBRANCH  26  27
ENDBRANCH  25  26
ENDBRANCH  24  25
ENDBRANCH  23  24
ENDBRANCH   1  23
TORSDOF 20
