REMARK SMILES Cc1c(NCc2ccccn2)cccc1C(=O)N1CCOC[C@@H]1CC(=O)OCCOCCOC(=O)c1ccc(-c2c3nc(c(-c4c(F)cccc4F)c4ccc([nH]4)c(-c4c(F)cccc4F)c4nc(c(-c5c(F)cccc5F)c5ccc2[nH]5)C=C4)C=C3)cc1
REMARK SMILES IDX 28 1 27 2 25 3 26 4 24 5 23 6 18 7 19 8 20 9 22 10 21 11
REMARK SMILES IDX 16 12 17 13 15 14 1 15 2 16 3 17 12 18 14 19 13 20 4 21 5 23
REMARK SMILES IDX 6 24 7 25 11 26 8 27 10 28 9 29 29 30 30 31 31 32 32 33
REMARK SMILES IDX 33 34 34 35 35 36 36 37 37 38 89 39 38 40 88 41 39 42 40 43
REMARK SMILES IDX 41 44 82 45 42 46 87 47 81 48 83 49 43 50 86 51 80 52 79 53
REMARK SMILES IDX 44 55 70 56 53 57 69 58 54 59 57 60 68 61 84 62 55 63 56 64
REMARK SMILES IDX 67 66 85 67 58 68 45 69 46 70 51 71 47 72 48 73 50 74 52 75
REMARK SMILES IDX 49 76 71 77 72 78 77 79 73 80 74 81 76 82 78 83 75 84 59 85
REMARK SMILES IDX 60 86 65 87 61 88 62 89 64 90 66 91 63 92
REMARK H PARENT 4 22 83 54 57 65
REMARK Flexibility Score: inf
ROOT
ATOM      1  C   UNL     1       0.998   1.404   2.039  1.00  0.00     0.261 C 
ENDROOT
BRANCH   1   2
ATOM      2  O   UNL     1       1.159   2.580   1.271  1.00  0.00    -0.463 OA
BRANCH   2   3
ATOM      3  C   UNL     1       1.953   3.526   1.827  1.00  0.00     0.308 C 
ATOM      4  O   UNL     1       2.164   3.701   3.007  1.00  0.00    -0.252 OA
BRANCH   3   5
ATOM      5  C   UNL     1       2.627   4.264   0.721  1.00  0.00     0.150 C 
BRANCH   5   6
ATOM      6  C   UNL     1       3.565   3.398  -0.145  1.00  0.00     0.122 C 
ATOM      7  N   UNL     1       3.097   2.168  -0.892  1.00  0.00    -0.330 N 
ATOM      8  C   UNL     1       4.145   1.690  -1.788  1.00  0.00     0.148 C 
ATOM      9  C   UNL     1       5.458   1.435  -1.044  1.00  0.00     0.181 C 
ATOM     10  C   UNL     1       4.834   2.990   0.650  1.00  0.00     0.185 C 
ATOM     11  O   UNL     1       5.868   2.559  -0.254  1.00  0.00    -0.377 OA
BRANCH   7  12
ATOM     12  C   UNL     1       1.786   1.935  -1.315  1.00  0.00     0.254 C 
ATOM     13  O   UNL     1       1.014   2.878  -1.493  1.00  0.00    -0.269 OA
BRANCH  12  14
ATOM     14  C   UNL     1       1.226   0.505  -1.477  1.00  0.00     0.045 A 
ATOM     15  C   UNL     1       3.032  -0.986  -0.461  1.00  0.00     0.047 C 
ATOM     16  C   UNL     1       1.591  -0.676  -0.765  1.00  0.00    -0.015 A 
ATOM     17  C   UNL     1       0.639  -1.726  -0.566  1.00  0.00     0.038 A 
ATOM     18  C   UNL     1      -0.578  -1.653  -1.250  1.00  0.00     0.026 A 
ATOM     19  C   UNL     1       0.064   0.434  -2.261  1.00  0.00     0.014 A 
ATOM     20  C   UNL     1      -0.818  -0.644  -2.173  1.00  0.00     0.003 A 
BRANCH  17  21
ATOM     21  N   UNL     1       0.970  -2.874   0.139  1.00  0.00    -0.379 N 
ATOM     22  H   UNL     1       1.690  -2.798   0.806  1.00  0.00     0.160 HD
BRANCH  21  23
ATOM     23  C   UNL     1       0.344  -4.190  -0.020  1.00  0.00     0.169 C 
BRANCH  23  24
ATOM     24  C   UNL     1       0.617  -4.899  -1.342  1.00  0.00     0.059 A 
ATOM     25  C   UNL     1       1.008  -4.230  -2.503  1.00  0.00     0.026 A 
ATOM     26  N   UNL     1       0.387  -6.239  -1.356  1.00  0.00    -0.259 NA
ATOM     27  C   UNL     1       1.148  -4.925  -3.699  1.00  0.00     0.004 A 
ATOM     28  C   UNL     1       0.556  -6.898  -2.526  1.00  0.00     0.111 A 
ATOM     29  C   UNL     1       0.922  -6.289  -3.713  1.00  0.00     0.020 A 
ENDBRANCH  23  24
ENDBRANCH  21  23
ENDBRANCH  17  21
ENDBRANCH  12  14
ENDBRANCH   7  12
ENDBRANCH   5   6
ENDBRANCH   3   5
ENDBRANCH   2   3
ENDBRANCH   1   2
BRANCH   1  30
ATOM     30  C   UNL     1       2.304   0.676   2.260  1.00  0.00     0.202 C 
BRANCH  30  31
ATOM     31  O   UNL     1       2.785   0.974   3.558  1.00  0.00    -0.374 OA
BRANCH  31  32
ATOM     32  C   UNL     1       4.017   0.385   3.937  1.00  0.00     0.202 C 
BRANCH  32  33
ATOM     33  C   UNL     1       4.164  -1.117   3.622  1.00  0.00     0.261 C 
BRANCH  33  34
ATOM     34  O   UNL     1       3.263  -1.945   4.408  1.00  0.00    -0.460 OA
BRANCH  34  35
ATOM     35  C   UNL     1       2.089  -2.362   3.846  1.00  0.00     0.338 C 
ATOM     36  O   UNL     1       1.998  -3.207   2.970  1.00  0.00    -0.246 OA
BRANCH  35  37
ATOM     37  C   UNL     1       0.942  -1.536   4.341  1.00  0.00     0.060 A 
ATOM     38  C   UNL     1      -0.298  -1.500   3.666  1.00  0.00     0.016 A 
ATOM     39  C   UNL     1       1.220  -0.571   5.293  1.00  0.00     0.016 A 
ATOM     40  C   UNL     1      -1.188  -0.413   3.842  1.00  0.00     0.010 A 
ATOM     41  C   UNL     1       0.432   0.560   5.325  1.00  0.00     0.010 A 
ATOM     42  C   UNL     1      -0.791   0.666   4.625  1.00  0.00    -0.014 A 
BRANCH  42  43
ATOM     43  C   UNL     1      -1.427   1.999   4.771  1.00  0.00     0.031 A 
ATOM     44  C   UNL     1      -1.575   2.506   6.177  1.00  0.00     0.074 A 
ATOM     45  C   UNL     1      -1.473   2.931   3.774  1.00  0.00     0.049 A 
ATOM     46  N   UNL     1      -2.013   3.676   6.494  1.00  0.00    -0.248 NA
ATOM     47  C   UNL     1      -1.266   1.704   7.364  1.00  0.00     0.031 C 
ATOM     48  C   UNL     1      -1.146   4.352   3.955  1.00  0.00     0.029 A 
ATOM     49  N   UNL     1      -1.806   2.860   2.408  1.00  0.00    -0.354 N 
ATOM     50  C   UNL     1      -1.707   3.904   7.817  1.00  0.00     0.074 A 
ATOM     51  C   UNL     1      -1.351   2.612   8.337  1.00  0.00     0.031 C 
ATOM     52  C   UNL     1      -1.509   5.046   2.871  1.00  0.00     0.029 A 
ATOM     53  C   UNL     1      -2.232   4.152   1.999  1.00  0.00     0.049 A 
ATOM     54  H   UNL     1      -1.753   2.059   1.839  1.00  0.00     0.167 HD
ATOM     55  C   UNL     1      -1.693   5.191   8.266  1.00  0.00     0.037 A 
ATOM     56  C   UNL     1      -3.396   4.453   1.348  1.00  0.00     0.037 A 
ATOM     57  C   UNL     1      -2.185   6.099   7.228  1.00  0.00     0.049 A 
ATOM     58  C   UNL     1      -4.230   5.490   2.002  1.00  0.00     0.074 A 
ATOM     59  C   UNL     1      -1.574   7.006   6.381  1.00  0.00     0.029 A 
ATOM     60  N   UNL     1      -3.490   5.954   6.773  1.00  0.00    -0.354 N 
ATOM     61  N   UNL     1      -3.896   6.042   3.126  1.00  0.00    -0.248 NA
ATOM     62  C   UNL     1      -5.564   5.871   1.556  1.00  0.00     0.031 C 
ATOM     63  C   UNL     1      -2.535   7.415   5.420  1.00  0.00     0.029 A 
ATOM     64  C   UNL     1      -3.733   6.769   5.687  1.00  0.00     0.049 A 
ATOM     65  H   UNL     1      -4.154   5.347   7.173  1.00  0.00     0.167 HD
ATOM     66  C   UNL     1      -5.019   6.553   3.698  1.00  0.00     0.074 A 
ATOM     67  C   UNL     1      -5.995   6.556   2.627  1.00  0.00     0.031 C 
ATOM     68  C   UNL     1      -5.047   6.773   5.043  1.00  0.00     0.037 A 
BRANCH  55  69
ATOM     69  C   UNL     1      -1.131   5.714   9.578  1.00  0.00     0.057 A 
ATOM     70  C   UNL     1      -1.121   7.105   9.830  1.00  0.00     0.134 A 
ATOM     71  C   UNL     1      -0.549   4.955  10.609  1.00  0.00     0.134 A 
ATOM     72  F   UNL     1      -1.639   7.986   8.963  1.00  0.00    -0.206 F 
ATOM     73  C   UNL     1      -0.575   7.680  10.987  1.00  0.00     0.040 A 
ATOM     74  C   UNL     1      -0.019   5.515  11.782  1.00  0.00     0.040 A 
ATOM     75  F   UNL     1      -0.435   3.628  10.559  1.00  0.00    -0.206 F 
ATOM     76  C   UNL     1      -0.024   6.883  11.974  1.00  0.00     0.006 A 
ENDBRANCH  55  69
BRANCH  56  77
ATOM     77  C   UNL     1      -3.963   3.425   0.437  1.00  0.00     0.057 A 
ATOM     78  C   UNL     1      -3.278   3.403  -0.775  1.00  0.00     0.134 A 
ATOM     79  C   UNL     1      -4.315   2.210   1.034  1.00  0.00     0.134 A 
ATOM     80  F   UNL     1      -3.097   4.532  -1.478  1.00  0.00    -0.206 F 
ATOM     81  C   UNL     1      -2.507   2.300  -1.070  1.00  0.00     0.040 A 
ATOM     82  C   UNL     1      -3.585   1.076   0.723  1.00  0.00     0.040 A 
ATOM     83  F   UNL     1      -5.103   2.186   2.118  1.00  0.00    -0.206 F 
ATOM     84  C   UNL     1      -2.592   1.179  -0.242  1.00  0.00     0.006 A 
ENDBRANCH  56  77
BRANCH  68  85
ATOM     85  C   UNL     1      -6.301   7.008   5.841  1.00  0.00     0.057 A 
ATOM     86  C   UNL     1      -7.590   6.620   5.440  1.00  0.00     0.134 A 
ATOM     87  C   UNL     1      -6.227   7.577   7.129  1.00  0.00     0.134 A 
ATOM     88  F   UNL     1      -7.805   5.899   4.333  1.00  0.00    -0.206 F 
ATOM     89  C   UNL     1      -8.731   6.906   6.197  1.00  0.00     0.040 A 
ATOM     90  C   UNL     1      -7.351   7.795   7.928  1.00  0.00     0.040 A 
ATOM     91  F   UNL     1      -5.057   7.932   7.680  1.00  0.00    -0.206 F 
ATOM     92  C   UNL     1      -8.614   7.496   7.446  1.00  0.00     0.006 A 
ENDBRANCH  68  85
ENDBRANCH  42  43
ENDBRANCH  35  37
ENDBRANCH  34  35
ENDBRANCH  33  34
ENDBRANCH  32  33
ENDBRANCH  31  32
ENDBRANCH  30  31
ENDBRANCH   1  30
TORSDOF 20
