REMARK SMILES CC(=O)N1CCC[C@H]([N@H+](CC(=O)OCCOCCOC(=O)c2ccc(-c3c4nc(c(-c5c(F)cccc5F)c5ccc([nH]5)c(-c5c(F)cccc5F)c5nc(c(-c6c(F)cccc6F)c6ccc3[nH]6)C=C5)C=C4)cc2)C(C)C)C1
REMARK SMILES IDX 15 1 14 2 13 3 11 4 12 5 10 6 9 7 8 9 4 10 5 11 79 12 6 13
REMARK SMILES IDX 7 14 2 15 1 16 3 17 76 18 77 19 78 20 16 21 17 22 18 23
REMARK SMILES IDX 19 24 20 25 21 26 22 27 23 28 75 29 24 30 74 31 25 32 26 33
REMARK SMILES IDX 27 34 68 35 28 36 73 37 67 38 69 39 29 40 72 41 66 42 65 43
REMARK SMILES IDX 30 45 56 46 39 47 55 48 40 49 43 50 54 51 70 52 41 53 42 54
REMARK SMILES IDX 53 56 71 57 44 58 31 59 32 60 37 61 33 62 34 63 36 64 38 65
REMARK SMILES IDX 35 66 57 67 58 68 63 69 59 70 60 71 62 72 64 73 61 74 45 75
REMARK SMILES IDX 46 76 51 77 47 78 48 79 50 80 52 81 49 82
REMARK H PARENT 9 8 69 44 43 55
REMARK Flexibility Score: inf
ROOT
ATOM      1  C   UNL     1       2.475   0.293  -1.461  1.00  0.00     0.202 C 
ENDROOT
BRANCH   1   2
ATOM      2  C   UNL     1       3.709   0.161  -0.552  1.00  0.00     0.261 C 
BRANCH   2   3
ATOM      3  O   UNL     1       3.785   1.068   0.548  1.00  0.00    -0.459 OA
BRANCH   3   4
ATOM      4  C   UNL     1       3.951   2.396   0.305  1.00  0.00     0.361 C 
ATOM      5  O   UNL     1       3.955   2.913  -0.790  1.00  0.00    -0.245 OA
BRANCH   4   6
ATOM      6  C   UNL     1       4.195   3.123   1.629  1.00  0.00     0.387 C 
BRANCH   6   7
ATOM      7  N   UNL     1       2.974   3.187   2.462  1.00  0.00    -0.320 N 
ATOM      8  H   UNL     1       2.128   2.660   2.244  1.00  0.00     0.349 HD
BRANCH   7   9
ATOM      9  C   UNL     1       3.024   2.320   3.667  1.00  0.00     0.204 C 
ATOM     10  N   UNL     1       1.581   0.368   2.976  1.00  0.00    -0.337 N 
ATOM     11  C   UNL     1       0.474   0.909   3.761  1.00  0.00     0.120 C 
ATOM     12  C   UNL     1       2.910   0.778   3.377  1.00  0.00     0.184 C 
ATOM     13  C   UNL     1       0.618   2.284   4.398  1.00  0.00     0.028 C 
ATOM     14  C   UNL     1       2.042   2.557   4.820  1.00  0.00     0.069 C 
BRANCH  10  15
ATOM     15  C   UNL     1       1.341  -0.706   2.135  1.00  0.00     0.219 C 
ATOM     16  C   UNL     1       2.312  -1.824   1.954  1.00  0.00     0.114 C 
ATOM     17  O   UNL     1       0.288  -0.878   1.538  1.00  0.00    -0.275 OA
ENDBRANCH  10  15
ENDBRANCH   7   9
BRANCH   7  18
ATOM     18  C   UNL     1       2.180   4.408   2.218  1.00  0.00     0.178 C 
ATOM     19  C   UNL     1       0.948   4.113   1.352  1.00  0.00     0.075 C 
ATOM     20  C   UNL     1       1.827   5.369   3.359  1.00  0.00     0.075 C 
ENDBRANCH   7  18
ENDBRANCH   6   7
ENDBRANCH   4   6
ENDBRANCH   3   4
ENDBRANCH   2   3
ENDBRANCH   1   2
BRANCH   1  21
ATOM     21  O   UNL     1       1.178   0.099  -0.866  1.00  0.00    -0.374 OA
BRANCH  21  22
ATOM     22  C   UNL     1       0.544   1.303  -0.386  1.00  0.00     0.202 C 
BRANCH  22  23
ATOM     23  C   UNL     1      -1.012   1.200  -0.125  1.00  0.00     0.261 C 
BRANCH  23  24
ATOM     24  O   UNL     1      -1.376   0.781   1.230  1.00  0.00    -0.460 OA
BRANCH  24  25
ATOM     25  C   UNL     1      -2.439  -0.058   1.434  1.00  0.00     0.338 C 
ATOM     26  O   UNL     1      -3.447  -0.088   0.746  1.00  0.00    -0.246 OA
BRANCH  25  27
ATOM     27  C   UNL     1      -2.155  -1.095   2.512  1.00  0.00     0.060 A 
ATOM     28  C   UNL     1      -1.808  -2.389   2.084  1.00  0.00     0.016 A 
ATOM     29  C   UNL     1      -2.066  -0.829   3.885  1.00  0.00     0.016 A 
ATOM     30  C   UNL     1      -1.282  -3.356   2.974  1.00  0.00     0.010 A 
ATOM     31  C   UNL     1      -1.521  -1.797   4.780  1.00  0.00     0.010 A 
ATOM     32  C   UNL     1      -1.127  -3.085   4.341  1.00  0.00    -0.014 A 
BRANCH  32  33
ATOM     33  C   UNL     1      -0.963  -4.239   5.311  1.00  0.00     0.031 A 
ATOM     34  C   UNL     1      -2.241  -4.711   5.976  1.00  0.00     0.074 A 
ATOM     35  C   UNL     1       0.168  -4.938   5.582  1.00  0.00     0.049 A 
ATOM     36  N   UNL     1      -2.446  -5.675   6.840  1.00  0.00    -0.248 NA
ATOM     37  C   UNL     1      -3.456  -3.960   5.623  1.00  0.00     0.031 C 
ATOM     38  C   UNL     1       1.504  -4.680   5.050  1.00  0.00     0.029 A 
ATOM     39  N   UNL     1       0.362  -6.048   6.395  1.00  0.00    -0.354 N 
ATOM     40  C   UNL     1      -3.804  -5.624   7.134  1.00  0.00     0.074 A 
ATOM     41  C   UNL     1      -4.350  -4.485   6.436  1.00  0.00     0.031 C 
ATOM     42  C   UNL     1       2.365  -5.604   5.529  1.00  0.00     0.029 A 
ATOM     43  C   UNL     1       1.657  -6.529   6.418  1.00  0.00     0.049 A 
ATOM     44  H   UNL     1      -0.367  -6.459   6.913  1.00  0.00     0.167 HD
ATOM     45  C   UNL     1      -4.567  -6.465   7.869  1.00  0.00     0.037 A 
ATOM     46  C   UNL     1       2.206  -7.587   7.067  1.00  0.00     0.037 A 
ATOM     47  C   UNL     1      -4.087  -7.633   8.546  1.00  0.00     0.049 A 
ATOM     48  C   UNL     1       1.347  -8.489   7.938  1.00  0.00     0.074 A 
ATOM     49  C   UNL     1      -4.807  -8.546   9.294  1.00  0.00     0.029 A 
ATOM     50  N   UNL     1      -2.770  -8.053   8.553  1.00  0.00    -0.354 N 
ATOM     51  N   UNL     1       0.057  -8.445   8.167  1.00  0.00    -0.248 NA
ATOM     52  C   UNL     1       2.027  -9.600   8.634  1.00  0.00     0.031 C 
ATOM     53  C   UNL     1      -3.915  -9.498   9.796  1.00  0.00     0.029 A 
ATOM     54  C   UNL     1      -2.651  -9.206   9.310  1.00  0.00     0.049 A 
ATOM     55  H   UNL     1      -2.028  -7.600   8.091  1.00  0.00     0.167 HD
ATOM     56  C   UNL     1      -0.228  -9.534   8.991  1.00  0.00     0.074 A 
ATOM     57  C   UNL     1       1.017 -10.232   9.213  1.00  0.00     0.031 C 
ATOM     58  C   UNL     1      -1.418  -9.918   9.517  1.00  0.00     0.037 A 
BRANCH  45  59
ATOM     59  C   UNL     1      -6.024  -6.123   7.970  1.00  0.00     0.057 A 
ATOM     60  C   UNL     1      -6.884  -6.218   6.866  1.00  0.00     0.134 A 
ATOM     61  C   UNL     1      -6.559  -5.646   9.172  1.00  0.00     0.134 A 
ATOM     62  F   UNL     1      -6.422  -6.637   5.678  1.00  0.00    -0.206 F 
ATOM     63  C   UNL     1      -8.213  -5.803   6.942  1.00  0.00     0.040 A 
ATOM     64  C   UNL     1      -7.896  -5.266   9.270  1.00  0.00     0.040 A 
ATOM     65  F   UNL     1      -5.787  -5.530  10.263  1.00  0.00    -0.206 F 
ATOM     66  C   UNL     1      -8.723  -5.331   8.149  1.00  0.00     0.006 A 
ENDBRANCH  45  59
BRANCH  46  67
ATOM     67  C   UNL     1       3.666  -7.905   6.950  1.00  0.00     0.057 A 
ATOM     68  C   UNL     1       4.113  -9.092   6.345  1.00  0.00     0.134 A 
ATOM     69  C   UNL     1       4.641  -7.100   7.552  1.00  0.00     0.134 A 
ATOM     70  F   UNL     1       3.232  -9.942   5.798  1.00  0.00    -0.206 F 
ATOM     71  C   UNL     1       5.459  -9.475   6.366  1.00  0.00     0.040 A 
ATOM     72  C   UNL     1       5.995  -7.457   7.556  1.00  0.00     0.040 A 
ATOM     73  F   UNL     1       4.292  -5.965   8.173  1.00  0.00    -0.206 F 
ATOM     74  C   UNL     1       6.407  -8.653   6.971  1.00  0.00     0.006 A 
ENDBRANCH  46  67
BRANCH  58  75
ATOM     75  C   UNL     1      -1.463 -11.176  10.342  1.00  0.00     0.057 A 
ATOM     76  C   UNL     1      -0.884 -11.256  11.615  1.00  0.00     0.134 A 
ATOM     77  C   UNL     1      -2.149 -12.308   9.878  1.00  0.00     0.134 A 
ATOM     78  F   UNL     1      -0.211 -10.213  12.123  1.00  0.00    -0.206 F 
ATOM     79  C   UNL     1      -0.961 -12.421  12.383  1.00  0.00     0.040 A 
ATOM     80  C   UNL     1      -2.259 -13.468  10.648  1.00  0.00     0.040 A 
ATOM     81  F   UNL     1      -2.745 -12.299   8.676  1.00  0.00    -0.206 F 
ATOM     82  C   UNL     1      -1.656 -13.530  11.902  1.00  0.00     0.006 A 
ENDBRANCH  58  75
ENDBRANCH  32  33
ENDBRANCH  25  27
ENDBRANCH  24  25
ENDBRANCH  23  24
ENDBRANCH  22  23
ENDBRANCH  21  22
ENDBRANCH   1  21
TORSDOF 18
