REMARK SMILES O=C(OCCOCCOC(=O)c1ccc(-n2cc(CSc3nc4ccccc4c(=O)n3-c3ccc(Br)cc3)nn2)cc1)c1ccc(-c2c3nc(c(-c4c(F)cccc4F)c4ccc([nH]4)c(-c4c(F)cccc4F)c4nc(c(-c5c(F)cccc5F)c5ccc2[nH]5)C=C4)C=C3)cc1
REMARK SMILES IDX 7 1 6 2 5 3 4 4 3 5 2 6 1 7 43 8 44 9 96 10 45 11 95 12
REMARK SMILES IDX 46 13 47 14 48 15 89 16 49 17 94 18 88 19 90 20 50 21 93 22
REMARK SMILES IDX 87 23 86 24 51 26 77 27 60 28 76 29 61 30 64 31 75 32 91 33
REMARK SMILES IDX 62 34 63 35 74 37 92 38 65 39 52 40 53 41 58 42 54 43 55 44
REMARK SMILES IDX 57 45 59 46 56 47 78 48 79 49 84 50 80 51 81 52 83 53 85 54
REMARK SMILES IDX 82 55 66 56 67 57 72 58 68 59 69 60 71 61 73 62 70 63 8 64
REMARK SMILES IDX 9 65 10 66 11 67 12 68 13 69 42 70 14 71 41 72 15 73 16 74
REMARK SMILES IDX 17 75 40 76 18 77 39 78 19 79 20 80 21 81 22 82 31 83 23 84
REMARK SMILES IDX 29 85 24 86 28 87 30 88 25 89 27 90 26 91 32 92 33 93 38 94
REMARK SMILES IDX 34 95 37 96 35 97 36 98
REMARK H PARENT 90 25 64 36
REMARK Flexibility Score: inf
ROOT
ATOM      1  C   UNL     1       3.034   2.236   0.252  1.00  0.00     0.202 C 
ENDROOT
BRANCH   1   2
ATOM      2  O   UNL     1       4.133   1.313   0.356  1.00  0.00    -0.374 OA
BRANCH   2   3
ATOM      3  C   UNL     1       4.692   0.852  -0.871  1.00  0.00     0.202 C 
BRANCH   3   4
ATOM      4  C   UNL     1       4.524  -0.626  -1.231  1.00  0.00     0.261 C 
BRANCH   4   5
ATOM      5  O   UNL     1       3.168  -0.997  -1.546  1.00  0.00    -0.460 OA
BRANCH   5   6
ATOM      6  C   UNL     1       2.107  -0.606  -0.804  1.00  0.00     0.338 C 
ATOM      7  O   UNL     1       1.113  -0.112  -1.325  1.00  0.00    -0.246 OA
BRANCH   6   8
ATOM      8  C   UNL     1       2.063  -1.071   0.607  1.00  0.00     0.060 A 
ATOM      9  C   UNL     1       3.191  -1.397   1.363  1.00  0.00     0.016 A 
ATOM     10  C   UNL     1       0.790  -1.307   1.139  1.00  0.00     0.016 A 
ATOM     11  C   UNL     1       3.079  -2.222   2.455  1.00  0.00     0.010 A 
ATOM     12  C   UNL     1       0.664  -2.063   2.289  1.00  0.00     0.010 A 
ATOM     13  C   UNL     1       1.813  -2.631   2.841  1.00  0.00    -0.014 A 
BRANCH  13  14
ATOM     14  C   UNL     1       1.751  -3.745   3.770  1.00  0.00     0.031 A 
ATOM     15  C   UNL     1       2.311  -3.506   5.129  1.00  0.00     0.074 A 
ATOM     16  C   UNL     1       1.141  -4.879   3.373  1.00  0.00     0.049 A 
ATOM     17  N   UNL     1       3.105  -4.250   5.832  1.00  0.00    -0.248 NA
ATOM     18  C   UNL     1       1.993  -2.210   5.756  1.00  0.00     0.031 C 
ATOM     19  C   UNL     1       0.388  -5.108   2.130  1.00  0.00     0.029 A 
ATOM     20  N   UNL     1       0.930  -6.024   4.066  1.00  0.00    -0.354 N 
ATOM     21  C   UNL     1       3.238  -3.604   7.059  1.00  0.00     0.074 A 
ATOM     22  C   UNL     1       2.632  -2.305   6.920  1.00  0.00     0.031 C 
ATOM     23  C   UNL     1      -0.423  -6.171   2.298  1.00  0.00     0.029 A 
ATOM     24  C   UNL     1      -0.146  -6.757   3.595  1.00  0.00     0.049 A 
ATOM     25  H   UNL     1       1.486  -6.307   4.827  1.00  0.00     0.167 HD
ATOM     26  C   UNL     1       3.644  -4.242   8.188  1.00  0.00     0.037 A 
ATOM     27  C   UNL     1      -0.849  -7.677   4.294  1.00  0.00     0.037 A 
ATOM     28  C   UNL     1       4.415  -5.419   7.916  1.00  0.00     0.049 A 
ATOM     29  C   UNL     1      -0.019  -8.092   5.453  1.00  0.00     0.074 A 
ATOM     30  C   UNL     1       5.624  -5.662   7.295  1.00  0.00     0.029 A 
ATOM     31  N   UNL     1       3.813  -6.645   8.041  1.00  0.00    -0.354 N 
ATOM     32  N   UNL     1       1.099  -8.758   5.351  1.00  0.00    -0.248 NA
ATOM     33  C   UNL     1      -0.204  -7.378   6.708  1.00  0.00     0.031 C 
ATOM     34  C   UNL     1       5.463  -6.922   6.649  1.00  0.00     0.029 A 
ATOM     35  C   UNL     1       4.172  -7.370   6.933  1.00  0.00     0.049 A 
ATOM     36  H   UNL     1       3.237  -6.946   8.780  1.00  0.00     0.167 HD
ATOM     37  C   UNL     1       1.920  -8.240   6.345  1.00  0.00     0.074 A 
ATOM     38  C   UNL     1       1.034  -7.460   7.203  1.00  0.00     0.031 C 
ATOM     39  C   UNL     1       3.281  -8.257   6.226  1.00  0.00     0.037 A 
BRANCH  26  40
ATOM     40  C   UNL     1       3.048  -3.944   9.535  1.00  0.00     0.057 A 
ATOM     41  C   UNL     1       3.681  -4.382  10.708  1.00  0.00     0.134 A 
ATOM     42  C   UNL     1       1.728  -3.470   9.697  1.00  0.00     0.134 A 
ATOM     43  F   UNL     1       4.920  -4.894  10.670  1.00  0.00    -0.206 F 
ATOM     44  C   UNL     1       3.034  -4.372  11.950  1.00  0.00     0.040 A 
ATOM     45  C   UNL     1       1.092  -3.409  10.937  1.00  0.00     0.040 A 
ATOM     46  F   UNL     1       0.962  -3.135   8.650  1.00  0.00    -0.206 F 
ATOM     47  C   UNL     1       1.736  -3.884  12.068  1.00  0.00     0.006 A 
ENDBRANCH  26  40
BRANCH  27  48
ATOM     48  C   UNL     1      -2.312  -7.882   4.212  1.00  0.00     0.057 A 
ATOM     49  C   UNL     1      -2.907  -9.069   4.647  1.00  0.00     0.134 A 
ATOM     50  C   UNL     1      -3.194  -6.829   3.893  1.00  0.00     0.134 A 
ATOM     51  F   UNL     1      -2.149 -10.106   5.032  1.00  0.00    -0.206 F 
ATOM     52  C   UNL     1      -4.298  -9.209   4.744  1.00  0.00     0.040 A 
ATOM     53  C   UNL     1      -4.582  -6.960   3.968  1.00  0.00     0.040 A 
ATOM     54  F   UNL     1      -2.736  -5.610   3.571  1.00  0.00    -0.206 F 
ATOM     55  C   UNL     1      -5.140  -8.153   4.402  1.00  0.00     0.006 A 
ENDBRANCH  27  48
BRANCH  39  56
ATOM     56  C   UNL     1       3.870  -9.021   5.073  1.00  0.00     0.057 A 
ATOM     57  C   UNL     1       3.713  -8.623   3.737  1.00  0.00     0.134 A 
ATOM     58  C   UNL     1       4.755 -10.073   5.317  1.00  0.00     0.134 A 
ATOM     59  F   UNL     1       2.984  -7.547   3.420  1.00  0.00    -0.206 F 
ATOM     60  C   UNL     1       4.365  -9.274   2.686  1.00  0.00     0.040 A 
ATOM     61  C   UNL     1       5.440 -10.713   4.279  1.00  0.00     0.040 A 
ATOM     62  F   UNL     1       5.015 -10.461   6.576  1.00  0.00    -0.206 F 
ATOM     63  C   UNL     1       5.237 -10.321   2.957  1.00  0.00     0.006 A 
ENDBRANCH  39  56
ENDBRANCH  13  14
ENDBRANCH   6   8
ENDBRANCH   5   6
ENDBRANCH   4   5
ENDBRANCH   3   4
ENDBRANCH   2   3
ENDBRANCH   1   2
BRANCH   1  64
ATOM     64  C   UNL     1       3.294   3.613  -0.382  1.00  0.00     0.261 C 
BRANCH  64  65
ATOM     65  O   UNL     1       3.525   3.507  -1.802  1.00  0.00    -0.460 OA
BRANCH  65  66
ATOM     66  C   UNL     1       4.806   3.749  -2.200  1.00  0.00     0.338 C 
ATOM     67  O   UNL     1       5.689   4.234  -1.545  1.00  0.00    -0.246 OA
BRANCH  66  68
ATOM     68  C   UNL     1       5.049   3.028  -3.481  1.00  0.00     0.060 A 
ATOM     69  C   UNL     1       6.191   2.213  -3.525  1.00  0.00     0.018 A 
ATOM     70  C   UNL     1       4.184   3.093  -4.579  1.00  0.00     0.018 A 
ATOM     71  C   UNL     1       6.487   1.477  -4.665  1.00  0.00     0.029 A 
ATOM     72  C   UNL     1       4.485   2.364  -5.739  1.00  0.00     0.029 A 
ATOM     73  C   UNL     1       5.638   1.563  -5.770  1.00  0.00     0.066 A 
BRANCH  73  74
ATOM     74  N   UNL     1       6.145   1.109  -6.998  1.00  0.00    -0.220 N 
ATOM     75  C   UNL     1       7.135   1.772  -7.679  1.00  0.00     0.141 A 
ATOM     76  N   UNL     1       5.556   0.212  -7.803  1.00  0.00    -0.062 NA
ATOM     77  C   UNL     1       7.120   1.271  -8.954  1.00  0.00     0.093 A 
ATOM     78  N   UNL     1       6.193   0.245  -8.973  1.00  0.00    -0.134 NA
BRANCH  77  79
ATOM     79  C   UNL     1       7.599   1.825 -10.245  1.00  0.00     0.138 C 
BRANCH  79  80
ATOM     80  S   UNL     1       9.244   2.400 -10.629  1.00  0.00    -0.081 SA
BRANCH  80  81
ATOM     81  C   UNL     1      10.221   2.796  -9.248  1.00  0.00     0.176 A 
ATOM     82  N   UNL     1      11.438   2.357  -9.392  1.00  0.00    -0.223 NA
ATOM     83  N   UNL     1       9.829   3.508  -8.121  1.00  0.00    -0.255 N 
ATOM     84  C   UNL     1      12.346   2.530  -8.346  1.00  0.00     0.079 A 
ATOM     85  C   UNL     1      10.459   3.076  -6.943  1.00  0.00     0.266 A 
ATOM     86  C   UNL     1      13.718   2.387  -8.552  1.00  0.00     0.029 A 
ATOM     87  C   UNL     1      11.885   2.752  -7.060  1.00  0.00     0.066 A 
ATOM     88  O   UNL     1       9.918   2.899  -5.852  1.00  0.00    -0.268 OA
ATOM     89  C   UNL     1      14.599   2.413  -7.464  1.00  0.00     0.002 A 
ATOM     90  C   UNL     1      12.741   2.728  -5.956  1.00  0.00     0.016 A 
ATOM     91  C   UNL     1      14.107   2.552  -6.164  1.00  0.00     0.001 A 
BRANCH  83  92
ATOM     92  C   UNL     1       8.796   4.530  -8.015  1.00  0.00     0.051 A 
ATOM     93  C   UNL     1       8.559   5.168  -6.775  1.00  0.00     0.028 A 
ATOM     94  C   UNL     1       7.964   4.929  -9.067  1.00  0.00     0.028 A 
ATOM     95  C   UNL     1       7.429   5.959  -6.542  1.00  0.00     0.018 A 
ATOM     96  C   UNL     1       6.806   5.691  -8.838  1.00  0.00     0.018 A 
ATOM     97  C   UNL     1       6.523   6.168  -7.566  1.00  0.00     0.018 A 
ATOM     98  Br  UNL     1       4.914   7.092  -7.228  1.00  0.00    -0.051 Br
ENDBRANCH  83  92
ENDBRANCH  80  81
ENDBRANCH  79  80
ENDBRANCH  77  79
ENDBRANCH  73  74
ENDBRANCH  66  68
ENDBRANCH  65  66
ENDBRANCH  64  65
ENDBRANCH   1  64
TORSDOF 19
