REMARK SMILES O=C(OCCOCCOC(=O)c1ccc(S(=O)(=O)Cc2cccs2)c(F)c1)c1ccc(-c2c3nc(c(-c4c(F)cccc4F)c4ccc([nH]4)c(-c4c(F)cccc4F)c4nc(c(-c5c(F)cccc5F)c5ccc2[nH]5)C=C4)C=C3)cc1
REMARK SMILES IDX 7 1 6 2 5 3 4 4 3 5 2 6 1 7 28 8 29 9 81 10 30 11 80 12
REMARK SMILES IDX 31 13 32 14 33 15 74 16 34 17 79 18 73 19 75 20 35 21 78 22
REMARK SMILES IDX 72 23 71 24 36 26 62 27 45 28 61 29 46 30 49 31 60 32 76 33
REMARK SMILES IDX 47 34 48 35 59 37 77 38 50 39 37 40 38 41 43 42 39 43 40 44
REMARK SMILES IDX 42 45 44 46 41 47 63 48 64 49 69 50 65 51 66 52 68 53 70 54
REMARK SMILES IDX 67 55 51 56 52 57 57 58 53 59 54 60 56 61 58 62 55 63 8 64
REMARK SMILES IDX 9 65 10 66 11 67 12 68 13 69 27 70 14 71 25 72 15 73 26 74
REMARK SMILES IDX 16 75 17 76 18 77 19 78 20 79 21 80 24 81 22 82 23 83
REMARK H PARENT 75 25 49 36
REMARK Flexibility Score: inf
ROOT
ATOM      1  C   UNL     1       2.642   2.198  -0.642  1.00  0.00     0.202 C 
ENDROOT
BRANCH   1   2
ATOM      2  O   UNL     1       3.975   1.676  -0.749  1.00  0.00    -0.374 OA
BRANCH   2   3
ATOM      3  C   UNL     1       4.152   0.646  -1.724  1.00  0.00     0.202 C 
BRANCH   3   4
ATOM      4  C   UNL     1       3.799  -0.763  -1.245  1.00  0.00     0.261 C 
BRANCH   4   5
ATOM      5  O   UNL     1       2.423  -0.818  -0.837  1.00  0.00    -0.460 OA
BRANCH   5   6
ATOM      6  C   UNL     1       1.925  -0.948   0.414  1.00  0.00     0.338 C 
ATOM      7  O   UNL     1       0.712  -1.091   0.556  1.00  0.00    -0.246 OA
BRANCH   6   8
ATOM      8  C   UNL     1       2.773  -0.928   1.642  1.00  0.00     0.060 A 
ATOM      9  C   UNL     1       3.969  -0.219   1.772  1.00  0.00     0.016 A 
ATOM     10  C   UNL     1       2.269  -1.587   2.776  1.00  0.00     0.016 A 
ATOM     11  C   UNL     1       4.688  -0.225   2.960  1.00  0.00     0.010 A 
ATOM     12  C   UNL     1       2.957  -1.551   3.993  1.00  0.00     0.010 A 
ATOM     13  C   UNL     1       4.180  -0.879   4.081  1.00  0.00    -0.014 A 
BRANCH  13  14
ATOM     14  C   UNL     1       4.983  -0.878   5.317  1.00  0.00     0.031 A 
ATOM     15  C   UNL     1       5.735  -2.115   5.693  1.00  0.00     0.074 A 
ATOM     16  C   UNL     1       5.123   0.268   6.009  1.00  0.00     0.049 A 
ATOM     17  N   UNL     1       6.487  -2.338   6.737  1.00  0.00    -0.248 NA
ATOM     18  C   UNL     1       5.645  -3.250   4.759  1.00  0.00     0.031 C 
ATOM     19  C   UNL     1       4.516   1.550   5.644  1.00  0.00     0.029 A 
ATOM     20  N   UNL     1       5.850   0.552   7.134  1.00  0.00    -0.354 N 
ATOM     21  C   UNL     1       6.951  -3.638   6.592  1.00  0.00     0.074 A 
ATOM     22  C   UNL     1       6.390  -4.161   5.367  1.00  0.00     0.031 C 
ATOM     23  C   UNL     1       4.933   2.493   6.504  1.00  0.00     0.029 A 
ATOM     24  C   UNL     1       5.777   1.869   7.517  1.00  0.00     0.049 A 
ATOM     25  H   UNL     1       6.375  -0.123   7.622  1.00  0.00     0.167 HD
ATOM     26  C   UNL     1       7.771  -4.326   7.417  1.00  0.00     0.037 A 
ATOM     27  C   UNL     1       6.317   2.490   8.582  1.00  0.00     0.037 A 
ATOM     28  C   UNL     1       8.305  -3.785   8.636  1.00  0.00     0.049 A 
ATOM     29  C   UNL     1       7.136   1.671   9.540  1.00  0.00     0.074 A 
ATOM     30  C   UNL     1       9.067  -4.414   9.603  1.00  0.00     0.029 A 
ATOM     31  N   UNL     1       8.133  -2.470   9.049  1.00  0.00    -0.354 N 
ATOM     32  N   UNL     1       7.495   0.412   9.448  1.00  0.00    -0.248 NA
ATOM     33  C   UNL     1       7.601   2.343  10.760  1.00  0.00     0.031 C 
ATOM     34  C   UNL     1       9.329  -3.487  10.617  1.00  0.00     0.029 A 
ATOM     35  C   UNL     1       8.765  -2.270  10.262  1.00  0.00     0.049 A 
ATOM     36  H   UNL     1       7.634  -1.783   8.551  1.00  0.00     0.167 HD
ATOM     37  C   UNL     1       8.231   0.141  10.592  1.00  0.00     0.074 A 
ATOM     38  C   UNL     1       8.287   1.374  11.353  1.00  0.00     0.031 C 
ATOM     39  C   UNL     1       8.803  -1.024  10.984  1.00  0.00     0.037 A 
BRANCH  26  40
ATOM     40  C   UNL     1       8.086  -5.742   7.046  1.00  0.00     0.057 A 
ATOM     41  C   UNL     1       7.485  -6.807   7.726  1.00  0.00     0.134 A 
ATOM     42  C   UNL     1       8.979  -6.054   6.013  1.00  0.00     0.134 A 
ATOM     43  F   UNL     1       6.614  -6.575   8.720  1.00  0.00    -0.206 F 
ATOM     44  C   UNL     1       7.763  -8.134   7.397  1.00  0.00     0.040 A 
ATOM     45  C   UNL     1       9.252  -7.378   5.662  1.00  0.00     0.040 A 
ATOM     46  F   UNL     1       9.568  -5.079   5.305  1.00  0.00    -0.206 F 
ATOM     47  C   UNL     1       8.647  -8.423   6.358  1.00  0.00     0.006 A 
ENDBRANCH  26  40
BRANCH  27  48
ATOM     48  C   UNL     1       6.077   3.939   8.808  1.00  0.00     0.057 A 
ATOM     49  C   UNL     1       4.798   4.432   9.101  1.00  0.00     0.134 A 
ATOM     50  C   UNL     1       7.119   4.870   8.725  1.00  0.00     0.134 A 
ATOM     51  F   UNL     1       3.755   3.595   9.197  1.00  0.00    -0.206 F 
ATOM     52  C   UNL     1       4.560   5.795   9.283  1.00  0.00     0.040 A 
ATOM     53  C   UNL     1       6.899   6.235   8.929  1.00  0.00     0.040 A 
ATOM     54  F   UNL     1       8.370   4.462   8.468  1.00  0.00    -0.206 F 
ATOM     55  C   UNL     1       5.615   6.702   9.200  1.00  0.00     0.006 A 
ENDBRANCH  27  48
BRANCH  39  56
ATOM     56  C   UNL     1       9.545  -1.015  12.284  1.00  0.00     0.057 A 
ATOM     57  C   UNL     1      10.944  -1.067  12.305  1.00  0.00     0.134 A 
ATOM     58  C   UNL     1       8.870  -1.044  13.510  1.00  0.00     0.134 A 
ATOM     59  F   UNL     1      11.643  -1.053  11.161  1.00  0.00    -0.206 F 
ATOM     60  C   UNL     1      11.647  -1.165  13.505  1.00  0.00     0.040 A 
ATOM     61  C   UNL     1       9.564  -1.120  14.717  1.00  0.00     0.040 A 
ATOM     62  F   UNL     1       7.530  -0.986  13.550  1.00  0.00    -0.206 F 
ATOM     63  C   UNL     1      10.957  -1.192  14.715  1.00  0.00     0.006 A 
ENDBRANCH  39  56
ENDBRANCH  13  14
ENDBRANCH   6   8
ENDBRANCH   5   6
ENDBRANCH   4   5
ENDBRANCH   3   4
ENDBRANCH   2   3
ENDBRANCH   1   2
BRANCH   1  64
ATOM     64  C   UNL     1       2.688   3.729  -0.579  1.00  0.00     0.261 C 
BRANCH  64  65
ATOM     65  O   UNL     1       3.219   4.215  -1.824  1.00  0.00    -0.460 OA
BRANCH  65  66
ATOM     66  C   UNL     1       4.566   4.345  -1.845  1.00  0.00     0.338 C 
ATOM     67  O   UNL     1       5.326   4.461  -0.898  1.00  0.00    -0.246 OA
BRANCH  66  68
ATOM     68  C   UNL     1       5.010   4.033  -3.214  1.00  0.00     0.063 A 
ATOM     69  C   UNL     1       4.426   4.623  -4.337  1.00  0.00     0.017 A 
ATOM     70  C   UNL     1       5.968   3.026  -3.360  1.00  0.00     0.056 A 
ATOM     71  C   UNL     1       4.841   4.225  -5.610  1.00  0.00     0.024 A 
ATOM     72  C   UNL     1       6.302   2.573  -4.628  1.00  0.00     0.142 A 
ATOM     73  C   UNL     1       5.792   3.200  -5.751  1.00  0.00     0.103 A 
ATOM     74  F   UNL     1       7.066   1.480  -4.715  1.00  0.00    -0.206 F 
BRANCH  73  75
ATOM     75  S   UNL     1       6.311   2.789  -7.388  1.00  0.00     0.186 S 
ATOM     76  O   UNL     1       5.218   2.006  -7.939  1.00  0.00    -0.223 OA
ATOM     77  O   UNL     1       6.668   4.055  -8.009  1.00  0.00    -0.223 OA
BRANCH  75  78
ATOM     78  C   UNL     1       7.754   1.755  -7.390  1.00  0.00     0.188 C 
BRANCH  78  79
ATOM     79  C   UNL     1       8.900   2.243  -6.552  1.00  0.00     0.020 A 
ATOM     80  C   UNL     1       9.299   3.513  -6.180  1.00  0.00     0.016 A 
ATOM     81  S   UNL     1       9.973   1.053  -5.909  1.00  0.00    -0.148 S 
ATOM     82  C   UNL     1      10.405   3.495  -5.279  1.00  0.00     0.012 A 
ATOM     83  C   UNL     1      10.860   2.219  -5.038  1.00  0.00     0.065 A 
ENDBRANCH  78  79
ENDBRANCH  75  78
ENDBRANCH  73  75
ENDBRANCH  66  68
ENDBRANCH  65  66
ENDBRANCH  64  65
ENDBRANCH   1  64
TORSDOF 17
