REMARK SMILES C[C@@H](C(=O)OCCOCCOC(=O)c1ccc(-c2c3nc(c(-c4c(F)cccc4F)c4ccc([nH]4)c(-c4c(F)cccc4F)c4nc(c(-c5c(F)cccc5F)c5ccc2[nH]5)C=C4)C=C3)cc1)c1cc(C(=O)c2ccccc2)ccc1O
REMARK SMILES IDX 7 1 6 2 5 3 3 4 4 5 2 6 1 7 68 8 69 9 81 10 70 11 80 12
REMARK SMILES IDX 79 13 82 14 71 16 72 17 73 18 74 19 78 20 75 21 77 22 76 23
REMARK SMILES IDX 8 24 9 25 10 26 11 27 12 28 13 29 14 30 15 31 67 32 16 33
REMARK SMILES IDX 66 34 17 35 18 36 19 37 60 38 20 39 65 40 59 41 61 42 21 43
REMARK SMILES IDX 64 44 58 45 57 46 22 48 48 49 31 50 47 51 32 52 35 53 46 54
REMARK SMILES IDX 62 55 33 56 34 57 45 59 63 60 36 61 23 62 24 63 29 64 25 65
REMARK SMILES IDX 26 66 28 67 30 68 27 69 49 70 50 71 55 72 51 73 52 74 54 75
REMARK SMILES IDX 56 76 53 77 37 78 38 79 43 80 39 81 40 82 42 83 44 84 41 85
REMARK H PARENT 82 15 61 47 35 58
REMARK Flexibility Score: inf
ROOT
ATOM      1  C   UNL     1       2.557  -2.224  -3.943  1.00  0.00     0.202 C 
ENDROOT
BRANCH   1   2
ATOM      2  C   UNL     1       2.270  -0.722  -4.055  1.00  0.00     0.261 C 
BRANCH   2   3
ATOM      3  O   UNL     1       1.940  -0.166  -2.763  1.00  0.00    -0.463 OA
BRANCH   3   4
ATOM      4  C   UNL     1       0.768   0.528  -2.689  1.00  0.00     0.313 C 
ATOM      5  O   UNL     1       0.076   0.807  -3.661  1.00  0.00    -0.252 OA
BRANCH   4   6
ATOM      6  C   UNL     1       0.429   0.965  -1.255  1.00  0.00     0.130 C 
ATOM      7  C   UNL     1       1.292   0.339  -0.157  1.00  0.00     0.025 C 
BRANCH   6   8
ATOM      8  C   UNL     1      -1.070   0.825  -0.997  1.00  0.00     0.009 A 
ATOM      9  C   UNL     1      -1.864   1.985  -0.982  1.00  0.00     0.020 A 
ATOM     10  C   UNL     1      -1.730  -0.405  -0.896  1.00  0.00     0.119 A 
ATOM     11  C   UNL     1      -3.263   1.901  -0.926  1.00  0.00     0.023 A 
ATOM     12  C   UNL     1      -3.117  -0.506  -0.941  1.00  0.00     0.047 A 
ATOM     13  C   UNL     1      -3.886   0.650  -0.982  1.00  0.00     0.016 A 
BRANCH  10  14
ATOM     14  O   UNL     1      -1.054  -1.570  -0.716  1.00  0.00    -0.508 OA
ATOM     15  H   UNL     1      -0.118  -1.567  -0.677  1.00  0.00     0.293 HD
ENDBRANCH  10  14
BRANCH  11  16
ATOM     16  C   UNL     1      -4.052   3.159  -0.822  1.00  0.00     0.193 C 
ATOM     17  O   UNL     1      -3.560   4.229  -1.169  1.00  0.00    -0.289 OA
BRANCH  16  18
ATOM     18  C   UNL     1      -5.436   3.138  -0.290  1.00  0.00     0.022 A 
ATOM     19  C   UNL     1      -6.415   3.878  -0.956  1.00  0.00     0.012 A 
ATOM     20  C   UNL     1      -5.771   2.383   0.842  1.00  0.00     0.012 A 
ATOM     21  C   UNL     1      -7.740   3.815  -0.525  1.00  0.00     0.001 A 
ATOM     22  C   UNL     1      -7.098   2.316   1.263  1.00  0.00     0.001 A 
ATOM     23  C   UNL     1      -8.082   3.024   0.574  1.00  0.00     0.000 A 
ENDBRANCH  16  18
ENDBRANCH  11  16
ENDBRANCH   6   8
ENDBRANCH   4   6
ENDBRANCH   3   4
ENDBRANCH   2   3
ENDBRANCH   1   2
BRANCH   1  24
ATOM     24  O   UNL     1       1.418  -3.082  -3.817  1.00  0.00    -0.374 OA
BRANCH  24  25
ATOM     25  C   UNL     1       0.705  -3.005  -2.585  1.00  0.00     0.202 C 
BRANCH  25  26
ATOM     26  C   UNL     1       1.224  -3.895  -1.450  1.00  0.00     0.261 C 
BRANCH  26  27
ATOM     27  O   UNL     1       2.614  -3.660  -1.179  1.00  0.00    -0.460 OA
BRANCH  27  28
ATOM     28  C   UNL     1       3.434  -4.622  -1.657  1.00  0.00     0.338 C 
ATOM     29  O   UNL     1       3.118  -5.707  -2.128  1.00  0.00    -0.246 OA
BRANCH  28  30
ATOM     30  C   UNL     1       4.818  -4.126  -1.699  1.00  0.00     0.060 A 
ATOM     31  C   UNL     1       5.495  -4.239  -2.919  1.00  0.00     0.016 A 
ATOM     32  C   UNL     1       5.462  -3.621  -0.567  1.00  0.00     0.016 A 
ATOM     33  C   UNL     1       6.842  -3.909  -2.998  1.00  0.00     0.010 A 
ATOM     34  C   UNL     1       6.819  -3.296  -0.646  1.00  0.00     0.010 A 
ATOM     35  C   UNL     1       7.522  -3.480  -1.850  1.00  0.00    -0.014 A 
BRANCH  35  36
ATOM     36  C   UNL     1       9.000  -3.398  -1.885  1.00  0.00     0.031 A 
ATOM     37  C   UNL     1       9.799  -4.549  -1.338  1.00  0.00     0.074 A 
ATOM     38  C   UNL     1       9.615  -2.346  -2.449  1.00  0.00     0.049 A 
ATOM     39  N   UNL     1      11.096  -4.703  -1.274  1.00  0.00    -0.248 NA
ATOM     40  C   UNL     1       9.031  -5.678  -0.789  1.00  0.00     0.031 C 
ATOM     41  C   UNL     1       8.941  -1.197  -3.051  1.00  0.00     0.029 A 
ATOM     42  N   UNL     1      10.950  -2.078  -2.611  1.00  0.00    -0.354 N 
ATOM     43  C   UNL     1      11.299  -5.940  -0.676  1.00  0.00     0.074 A 
ATOM     44  C   UNL     1       9.995  -6.482  -0.366  1.00  0.00     0.031 C 
ATOM     45  C   UNL     1       9.870  -0.344  -3.517  1.00  0.00     0.029 A 
ATOM     46  C   UNL     1      11.199  -0.874  -3.220  1.00  0.00     0.049 A 
ATOM     47  H   UNL     1      11.663  -2.691  -2.317  1.00  0.00     0.167 HD
ATOM     48  C   UNL     1      12.469  -6.572  -0.419  1.00  0.00     0.037 A 
ATOM     49  C   UNL     1      12.369  -0.266  -3.493  1.00  0.00     0.037 A 
ATOM     50  C   UNL     1      13.763  -6.029  -0.736  1.00  0.00     0.049 A 
ATOM     51  C   UNL     1      13.657  -0.959  -3.134  1.00  0.00     0.074 A 
ATOM     52  C   UNL     1      15.009  -6.597  -0.537  1.00  0.00     0.029 A 
ATOM     53  N   UNL     1      13.976  -4.787  -1.315  1.00  0.00    -0.354 N 
ATOM     54  N   UNL     1      13.839  -2.139  -2.592  1.00  0.00    -0.248 NA
ATOM     55  C   UNL     1      14.902  -0.235  -3.427  1.00  0.00     0.031 C 
ATOM     56  C   UNL     1      15.978  -5.675  -0.948  1.00  0.00     0.029 A 
ATOM     57  C   UNL     1      15.334  -4.556  -1.453  1.00  0.00     0.049 A 
ATOM     58  H   UNL     1      13.266  -4.161  -1.587  1.00  0.00     0.167 HD
ATOM     59  C   UNL     1      15.215  -2.313  -2.507  1.00  0.00     0.074 A 
ATOM     60  C   UNL     1      15.820  -1.120  -3.063  1.00  0.00     0.031 C 
ATOM     61  C   UNL     1      15.915  -3.364  -2.015  1.00  0.00     0.037 A 
BRANCH  48  62
ATOM     62  C   UNL     1      12.399  -7.906   0.264  1.00  0.00     0.057 A 
ATOM     63  C   UNL     1      11.939  -9.055  -0.393  1.00  0.00     0.134 A 
ATOM     64  C   UNL     1      12.822  -8.047   1.592  1.00  0.00     0.134 A 
ATOM     65  F   UNL     1      11.504  -8.985  -1.660  1.00  0.00    -0.206 F 
ATOM     66  C   UNL     1      11.881 -10.291   0.254  1.00  0.00     0.040 A 
ATOM     67  C   UNL     1      12.793  -9.283   2.241  1.00  0.00     0.040 A 
ATOM     68  F   UNL     1      13.275  -6.988   2.279  1.00  0.00    -0.206 F 
ATOM     69  C   UNL     1      12.316 -10.409   1.573  1.00  0.00     0.006 A 
ENDBRANCH  48  62
BRANCH  49  70
ATOM     70  C   UNL     1      12.381   1.074  -4.132  1.00  0.00     0.057 A 
ATOM     71  C   UNL     1      12.848   1.252  -5.439  1.00  0.00     0.134 A 
ATOM     72  C   UNL     1      11.939   2.212  -3.445  1.00  0.00     0.134 A 
ATOM     73  F   UNL     1      13.306   0.204  -6.141  1.00  0.00    -0.206 F 
ATOM     74  C   UNL     1      12.893   2.514  -6.034  1.00  0.00     0.040 A 
ATOM     75  C   UNL     1      11.954   3.476  -4.037  1.00  0.00     0.040 A 
ATOM     76  F   UNL     1      11.478   2.109  -2.190  1.00  0.00    -0.206 F 
ATOM     77  C   UNL     1      12.439   3.630  -5.334  1.00  0.00     0.006 A 
ENDBRANCH  49  70
BRANCH  61  78
ATOM     78  C   UNL     1      17.413  -3.287  -2.089  1.00  0.00     0.057 A 
ATOM     79  C   UNL     1      18.152  -2.437  -1.256  1.00  0.00     0.134 A 
ATOM     80  C   UNL     1      18.124  -4.105  -2.976  1.00  0.00     0.134 A 
ATOM     81  F   UNL     1      17.529  -1.620  -0.393  1.00  0.00    -0.206 F 
ATOM     82  C   UNL     1      19.545  -2.388  -1.319  1.00  0.00     0.040 A 
ATOM     83  C   UNL     1      19.518  -4.084  -3.029  1.00  0.00     0.040 A 
ATOM     84  F   UNL     1      17.477  -4.949  -3.793  1.00  0.00    -0.206 F 
ATOM     85  C   UNL     1      20.233  -3.218  -2.203  1.00  0.00     0.006 A 
ENDBRANCH  61  78
ENDBRANCH  35  36
ENDBRANCH  28  30
ENDBRANCH  27  28
ENDBRANCH  26  27
ENDBRANCH  25  26
ENDBRANCH  24  25
ENDBRANCH   1  24
TORSDOF 18
