REMARK SMILES COc1cccc(NC(=O)[C@@H]2[C@@H](C(=O)OCCOCCOC(=O)c3ccc(-c4c5nc(c(-c6c(F)cccc6F)c6ccc([nH]6)c(-c6c(F)cccc6F)c6nc(c(-c7c(F)cccc7F)c7ccc4[nH]7)C=C6)C=C5)cc3)[C@H]3C=C[C@@H]2C3)c1
REMARK SMILES IDX 17 1 16 2 15 3 13 4 14 5 12 6 11 7 81 8 78 9 80 10 82 11
REMARK SMILES IDX 79 12 9 13 8 14 10 16 7 17 3 18 4 19 83 20 5 21 6 22 2 23
REMARK SMILES IDX 1 24 18 25 19 26 20 27 21 28 22 29 23 30 24 31 25 32 77 33
REMARK SMILES IDX 26 34 76 35 27 36 28 37 29 38 70 39 30 40 75 41 69 42 71 43
REMARK SMILES IDX 31 44 74 45 68 46 67 47 32 49 58 50 41 51 57 52 42 53 45 54
REMARK SMILES IDX 56 55 72 56 43 57 44 58 55 60 73 61 46 62 33 63 34 64 39 65
REMARK SMILES IDX 35 66 36 67 38 68 40 69 37 70 59 71 60 72 65 73 61 74 62 75
REMARK SMILES IDX 64 76 66 77 63 78 47 79 48 80 53 81 49 82 50 83 52 84 54 85
REMARK SMILES IDX 51 86
REMARK H PARENT 8 15 71 48 45 59
REMARK Flexibility Score: inf
ROOT
ATOM      1  C   UNL     1       0.175   7.730   3.412  1.00  0.00     0.202 C 
ENDROOT
BRANCH   1   2
ATOM      2  C   UNL     1       0.372   7.248   4.857  1.00  0.00     0.261 C 
BRANCH   2   3
ATOM      3  O   UNL     1       1.729   6.955   5.213  1.00  0.00    -0.463 OA
BRANCH   3   4
ATOM      4  C   UNL     1       2.022   5.637   5.052  1.00  0.00     0.310 C 
ATOM      5  O   UNL     1       1.216   4.832   4.612  1.00  0.00    -0.252 OA
BRANCH   4   6
ATOM      6  C   UNL     1       3.455   5.282   5.355  1.00  0.00     0.119 C 
ATOM      7  C   UNL     1       3.575   3.791   5.837  1.00  0.00     0.100 C 
ATOM      8  C   UNL     1       4.363   3.964   7.170  1.00  0.00     0.025 C 
ATOM      9  C   UNL     1       4.072   6.085   6.529  1.00  0.00     0.027 C 
ATOM     10  C   UNL     1       3.412   4.607   8.162  1.00  0.00    -0.027 C 
ATOM     11  C   UNL     1       5.252   5.184   6.896  1.00  0.00     0.017 C 
ATOM     12  C   UNL     1       3.243   5.881   7.779  1.00  0.00    -0.027 C 
BRANCH   7  13
ATOM     13  C   UNL     1       4.331   2.920   4.841  1.00  0.00     0.228 C 
ATOM     14  N   UNL     1       3.768   2.316   3.756  1.00  0.00    -0.326 N 
ATOM     15  H   UNL     1       4.449   1.912   3.171  1.00  0.00     0.169 HD
ATOM     16  O   UNL     1       5.560   2.796   4.941  1.00  0.00    -0.274 OA
BRANCH  14  17
ATOM     17  C   UNL     1       2.467   2.118   3.255  1.00  0.00     0.044 A 
ATOM     18  C   UNL     1       1.116   1.637   1.287  1.00  0.00     0.120 A 
ATOM     19  C   UNL     1      -0.048   1.932   1.981  1.00  0.00     0.046 A 
ATOM     20  C   UNL     1       2.366   1.746   1.905  1.00  0.00     0.072 A 
ATOM     21  C   UNL     1       0.037   2.209   3.337  1.00  0.00     0.006 A 
ATOM     22  C   UNL     1       1.286   2.248   3.977  1.00  0.00     0.026 A 
BRANCH  18  23
ATOM     23  O   UNL     1       1.007   1.297  -0.034  1.00  0.00    -0.497 OA
ATOM     24  C   UNL     1       1.269  -0.097  -0.203  1.00  0.00     0.278 C 
ENDBRANCH  18  23
ENDBRANCH  14  17
ENDBRANCH   7  13
ENDBRANCH   4   6
ENDBRANCH   3   4
ENDBRANCH   2   3
ENDBRANCH   1   2
BRANCH   1  25
ATOM     25  O   UNL     1       0.936   7.154   2.361  1.00  0.00    -0.374 OA
BRANCH  25  26
ATOM     26  C   UNL     1       2.342   7.379   2.303  1.00  0.00     0.202 C 
BRANCH  26  27
ATOM     27  C   UNL     1       2.873   8.814   2.215  1.00  0.00     0.261 C 
BRANCH  27  28
ATOM     28  O   UNL     1       2.527   9.614   3.359  1.00  0.00    -0.460 OA
BRANCH  28  29
ATOM     29  C   UNL     1       1.740  10.679   3.086  1.00  0.00     0.338 C 
ATOM     30  O   UNL     1       1.340  11.049   1.985  1.00  0.00    -0.246 OA
BRANCH  29  31
ATOM     31  C   UNL     1       1.234  11.267   4.333  1.00  0.00     0.060 A 
ATOM     32  C   UNL     1      -0.153  11.298   4.530  1.00  0.00     0.016 A 
ATOM     33  C   UNL     1       2.099  11.873   5.244  1.00  0.00     0.016 A 
ATOM     34  C   UNL     1      -0.686  11.973   5.622  1.00  0.00     0.010 A 
ATOM     35  C   UNL     1       1.561  12.566   6.332  1.00  0.00     0.010 A 
ATOM     36  C   UNL     1       0.167  12.648   6.504  1.00  0.00    -0.014 A 
BRANCH  36  37
ATOM     37  C   UNL     1      -0.411  13.569   7.508  1.00  0.00     0.031 A 
ATOM     38  C   UNL     1      -0.435  15.043   7.211  1.00  0.00     0.074 A 
ATOM     39  C   UNL     1      -0.929  13.095   8.654  1.00  0.00     0.049 A 
ATOM     40  N   UNL     1      -0.852  16.033   7.957  1.00  0.00    -0.248 NA
ATOM     41  C   UNL     1       0.080  15.458   5.895  1.00  0.00     0.031 C 
ATOM     42  C   UNL     1      -1.000  11.684   9.029  1.00  0.00     0.029 A 
ATOM     43  N   UNL     1      -1.488  13.756   9.718  1.00  0.00    -0.354 N 
ATOM     44  C   UNL     1      -0.633  17.185   7.212  1.00  0.00     0.074 A 
ATOM     45  C   UNL     1      -0.032  16.776   5.962  1.00  0.00     0.031 C 
ATOM     46  C   UNL     1      -1.562  11.585  10.247  1.00  0.00     0.029 A 
ATOM     47  C   UNL     1      -1.857  12.926  10.748  1.00  0.00     0.049 A 
ATOM     48  H   UNL     1      -1.613  14.732   9.741  1.00  0.00     0.167 HD
ATOM     49  C   UNL     1      -0.913  18.467   7.543  1.00  0.00     0.037 A 
ATOM     50  C   UNL     1      -2.352  13.223  11.964  1.00  0.00     0.037 A 
ATOM     51  C   UNL     1      -1.529  18.866   8.781  1.00  0.00     0.049 A 
ATOM     52  C   UNL     1      -2.592  14.665  12.328  1.00  0.00     0.074 A 
ATOM     53  C   UNL     1      -1.896  20.136   9.190  1.00  0.00     0.029 A 
ATOM     54  N   UNL     1      -1.862  18.000   9.811  1.00  0.00    -0.354 N 
ATOM     55  N   UNL     1      -2.422  15.743  11.601  1.00  0.00    -0.248 NA
ATOM     56  C   UNL     1      -3.094  14.931  13.684  1.00  0.00     0.031 C 
ATOM     57  C   UNL     1      -2.399  20.046  10.491  1.00  0.00     0.029 A 
ATOM     58  C   UNL     1      -2.398  18.713  10.870  1.00  0.00     0.049 A 
ATOM     59  H   UNL     1      -1.735  17.024   9.792  1.00  0.00     0.167 HD
ATOM     60  C   UNL     1      -2.830  16.808  12.396  1.00  0.00     0.074 A 
ATOM     61  C   UNL     1      -3.267  16.244  13.656  1.00  0.00     0.031 C 
ATOM     62  C   UNL     1      -2.844  18.133  12.110  1.00  0.00     0.037 A 
BRANCH  49  63
ATOM     63  C   UNL     1      -0.530  19.542   6.569  1.00  0.00     0.057 A 
ATOM     64  C   UNL     1      -1.230  19.748   5.374  1.00  0.00     0.134 A 
ATOM     65  C   UNL     1       0.517  20.424   6.865  1.00  0.00     0.134 A 
ATOM     66  F   UNL     1      -2.235  18.930   5.025  1.00  0.00    -0.206 F 
ATOM     67  C   UNL     1      -0.895  20.786   4.503  1.00  0.00     0.040 A 
ATOM     68  C   UNL     1       0.846  21.480   6.015  1.00  0.00     0.040 A 
ATOM     69  F   UNL     1       1.226  20.284   7.996  1.00  0.00    -0.206 F 
ATOM     70  C   UNL     1       0.139  21.662   4.828  1.00  0.00     0.006 A 
ENDBRANCH  49  63
BRANCH  50  71
ATOM     71  C   UNL     1      -2.637  12.145  12.946  1.00  0.00     0.057 A 
ATOM     72  C   UNL     1      -3.945  11.867  13.359  1.00  0.00     0.134 A 
ATOM     73  C   UNL     1      -1.605  11.404  13.535  1.00  0.00     0.134 A 
ATOM     74  F   UNL     1      -4.975  12.559  12.849  1.00  0.00    -0.206 F 
ATOM     75  C   UNL     1      -4.216  10.915  14.344  1.00  0.00     0.040 A 
ATOM     76  C   UNL     1      -1.863  10.429  14.499  1.00  0.00     0.040 A 
ATOM     77  F   UNL     1      -0.329  11.619  13.183  1.00  0.00    -0.206 F 
ATOM     78  C   UNL     1      -3.172  10.191  14.915  1.00  0.00     0.006 A 
ENDBRANCH  50  71
BRANCH  62  79
ATOM     79  C   UNL     1      -3.393  19.058  13.157  1.00  0.00     0.057 A 
ATOM     80  C   UNL     1      -2.698  19.336  14.340  1.00  0.00     0.134 A 
ATOM     81  C   UNL     1      -4.618  19.709  12.958  1.00  0.00     0.134 A 
ATOM     82  F   UNL     1      -1.526  18.737  14.598  1.00  0.00    -0.206 F 
ATOM     83  C   UNL     1      -3.214  20.209  15.300  1.00  0.00     0.040 A 
ATOM     84  C   UNL     1      -5.130  20.605  13.896  1.00  0.00     0.040 A 
ATOM     85  F   UNL     1      -5.330  19.495  11.841  1.00  0.00    -0.206 F 
ATOM     86  C   UNL     1      -4.430  20.852  15.075  1.00  0.00     0.006 A 
ENDBRANCH  62  79
ENDBRANCH  36  37
ENDBRANCH  29  31
ENDBRANCH  28  29
ENDBRANCH  27  28
ENDBRANCH  26  27
ENDBRANCH  25  26
ENDBRANCH   1  25
TORSDOF 17
