REMARK SMILES [NH3+][C@@H](Cc1c[nH]c2ccccc12)C(=O)N[C@@H](CS)C(=O)N[C@@H](CO)C(=O)OCCOCCOC(=O)c1ccc(-c2c3nc(c(-c4c(F)cccc4F)c4ccc([nH]4)c(-c4c(F)cccc4F)c4nc(c(-c5c(F)cccc5F)c5ccc2[nH]5)C=C4)C=C3)cc1
REMARK SMILES IDX 28 1 27 2 25 3 26 4 22 5 21 6 19 7 20 8 16 10 15 11 13 12
REMARK SMILES IDX 14 13 2 15 1 16 3 20 4 21 5 22 12 23 6 24 7 25 11 26 8 28
REMARK SMILES IDX 10 29 9 30 17 31 18 32 23 34 24 35 29 37 30 38 31 39 32 40
REMARK SMILES IDX 33 41 34 42 35 43 36 44 37 45 89 46 38 47 88 48 39 49 40 50
REMARK SMILES IDX 41 51 82 52 42 53 87 54 81 55 83 56 43 57 86 58 80 59 79 60
REMARK SMILES IDX 44 62 70 63 53 64 69 65 54 66 57 67 68 68 84 69 55 70 56 71
REMARK SMILES IDX 67 73 85 74 58 75 45 76 46 77 51 78 47 79 48 80 50 81 52 82
REMARK SMILES IDX 49 83 71 84 72 85 77 86 73 87 74 88 76 89 78 90 75 91 59 92
REMARK SMILES IDX 60 93 65 94 61 95 62 96 64 97 66 98 63 99
REMARK H PARENT 21 9 15 14 1 17 1 18 1 19 6 27 18 33 24 36 83 61 57 72
REMARK Flexibility Score: inf
ROOT
ATOM      1  C   UNL     1      -6.349  -2.168  -5.213  1.00  0.00     0.261 C 
ENDROOT
BRANCH   1   2
ATOM      2  O   UNL     1      -5.621  -1.060  -4.668  1.00  0.00    -0.462 OA
BRANCH   2   3
ATOM      3  C   UNL     1      -6.043  -0.630  -3.447  1.00  0.00     0.331 C 
ATOM      4  O   UNL     1      -7.101  -0.956  -2.922  1.00  0.00    -0.250 OA
BRANCH   3   5
ATOM      5  C   UNL     1      -5.040   0.334  -2.808  1.00  0.00     0.218 C 
BRANCH   5   6
ATOM      6  N   UNL     1      -3.732   0.369  -3.491  1.00  0.00    -0.339 N 
ATOM      7  C   UNL     1      -2.681   0.979  -2.875  1.00  0.00     0.244 C 
ATOM      8  O   UNL     1      -2.553   2.193  -3.044  1.00  0.00    -0.273 OA
ATOM      9  H   UNL     1      -3.621  -0.042  -4.379  1.00  0.00     0.164 HD
BRANCH   7  10
ATOM     10  C   UNL     1      -1.797   0.176  -1.890  1.00  0.00     0.181 C 
BRANCH  10  11
ATOM     11  N   UNL     1      -1.866   0.803  -0.580  1.00  0.00    -0.338 N 
ATOM     12  C   UNL     1      -0.918   1.561   0.045  1.00  0.00     0.279 C 
ATOM     13  O   UNL     1      -1.331   2.368   0.886  1.00  0.00    -0.268 OA
ATOM     14  H   UNL     1      -2.703   0.665  -0.081  1.00  0.00     0.164 HD
BRANCH  12  15
ATOM     15  C   UNL     1       0.610   1.396  -0.196  1.00  0.00     0.275 C 
BRANCH  15  16
ATOM     16  N   UNL     1       1.019  -0.019  -0.045  1.00  0.00    -0.347 N 
ATOM     17  H   UNL     1       2.022  -0.103  -0.207  1.00  0.00     0.345 HD
ATOM     18  H   UNL     1       0.516  -0.593  -0.722  1.00  0.00     0.345 HD
ATOM     19  H   UNL     1       0.799  -0.338   0.899  1.00  0.00     0.345 HD
ENDBRANCH  15  16
BRANCH  15  20
ATOM     20  C   UNL     1       1.232   2.179  -1.379  1.00  0.00     0.113 C 
BRANCH  20  21
ATOM     21  C   UNL     1       1.188   1.565  -2.757  1.00  0.00    -0.016 A 
ATOM     22  C   UNL     1       1.699   0.343  -3.164  1.00  0.00     0.087 A 
ATOM     23  C   UNL     1       0.610   2.163  -3.931  1.00  0.00     0.003 A 
ATOM     24  N   UNL     1       1.324   0.123  -4.463  1.00  0.00    -0.361 N 
ATOM     25  C   UNL     1       0.630   1.205  -4.946  1.00  0.00     0.046 A 
ATOM     26  C   UNL     1       0.027   3.416  -4.210  1.00  0.00     0.010 A 
ATOM     27  H   UNL     1       1.523  -0.693  -4.977  1.00  0.00     0.166 HD
ATOM     28  C   UNL     1       0.033   1.410  -6.197  1.00  0.00     0.026 A 
ATOM     29  C   UNL     1      -0.549   3.650  -5.464  1.00  0.00     0.001 A 
ATOM     30  C   UNL     1      -0.562   2.652  -6.435  1.00  0.00     0.002 A 
ENDBRANCH  20  21
ENDBRANCH  15  20
ENDBRANCH  12  15
ENDBRANCH  10  11
BRANCH  10  31
ATOM     31  C   UNL     1      -1.869  -1.354  -1.889  1.00  0.00     0.101 C 
BRANCH  31  32
ATOM     32  S   UNL     1      -3.284  -2.125  -1.052  1.00  0.00    -0.177 SA
ATOM     33  H   UNL     1      -3.235  -1.841   0.277  1.00  0.00     0.102 HD
ENDBRANCH  31  32
ENDBRANCH  10  31
ENDBRANCH   7  10
ENDBRANCH   5   6
BRANCH   5  34
ATOM     34  C   UNL     1      -5.671   1.733  -2.760  1.00  0.00     0.193 C 
BRANCH  34  35
ATOM     35  O   UNL     1      -5.561   2.378  -4.031  1.00  0.00    -0.394 OA
ATOM     36  H   UNL     1      -4.625   2.470  -4.267  1.00  0.00     0.210 HD
ENDBRANCH  34  35
ENDBRANCH   5  34
ENDBRANCH   3   5
ENDBRANCH   2   3
ENDBRANCH   1   2
BRANCH   1  37
ATOM     37  C   UNL     1      -5.448  -2.961  -6.163  1.00  0.00     0.202 C 
BRANCH  37  38
ATOM     38  O   UNL     1      -4.352  -3.654  -5.560  1.00  0.00    -0.374 OA
BRANCH  38  39
ATOM     39  C   UNL     1      -3.272  -2.862  -5.073  1.00  0.00     0.202 C 
BRANCH  39  40
ATOM     40  C   UNL     1      -2.262  -2.363  -6.116  1.00  0.00     0.261 C 
BRANCH  40  41
ATOM     41  O   UNL     1      -2.861  -1.537  -7.126  1.00  0.00    -0.460 OA
BRANCH  41  42
ATOM     42  C   UNL     1      -2.918  -2.096  -8.359  1.00  0.00     0.338 C 
ATOM     43  O   UNL     1      -2.438  -3.166  -8.716  1.00  0.00    -0.246 OA
BRANCH  42  44
ATOM     44  C   UNL     1      -3.795  -1.295  -9.224  1.00  0.00     0.060 A 
ATOM     45  C   UNL     1      -4.970  -1.890  -9.700  1.00  0.00     0.016 A 
ATOM     46  C   UNL     1      -3.443  -0.002  -9.610  1.00  0.00     0.016 A 
ATOM     47  C   UNL     1      -5.802  -1.191 -10.573  1.00  0.00     0.010 A 
ATOM     48  C   UNL     1      -4.267   0.692 -10.502  1.00  0.00     0.010 A 
ATOM     49  C   UNL     1      -5.441   0.095 -10.998  1.00  0.00    -0.014 A 
BRANCH  49  50
ATOM     50  C   UNL     1      -6.237   0.780 -12.042  1.00  0.00     0.031 A 
ATOM     51  C   UNL     1      -5.781   0.717 -13.471  1.00  0.00     0.074 A 
ATOM     52  C   UNL     1      -7.356   1.449 -11.714  1.00  0.00     0.049 A 
ATOM     53  N   UNL     1      -6.274   1.312 -14.525  1.00  0.00    -0.248 NA
ATOM     54  C   UNL     1      -4.611  -0.133 -13.748  1.00  0.00     0.031 C 
ATOM     55  C   UNL     1      -7.923   1.538 -10.369  1.00  0.00     0.029 A 
ATOM     56  N   UNL     1      -8.209   2.193 -12.490  1.00  0.00    -0.354 N 
ATOM     57  C   UNL     1      -5.478   0.912 -15.591  1.00  0.00     0.074 A 
ATOM     58  C   UNL     1      -4.454   0.043 -15.053  1.00  0.00     0.031 C 
ATOM     59  C   UNL     1      -9.021   2.313 -10.411  1.00  0.00     0.029 A 
ATOM     60  C   UNL     1      -9.210   2.802 -11.774  1.00  0.00     0.049 A 
ATOM     61  H   UNL     1      -8.112   2.281 -13.466  1.00  0.00     0.167 HD
ATOM     62  C   UNL     1      -5.596   1.238 -16.899  1.00  0.00     0.037 A 
ATOM     63  C   UNL     1     -10.149   3.682 -12.172  1.00  0.00     0.037 A 
ATOM     64  C   UNL     1      -6.613   2.108 -17.428  1.00  0.00     0.049 A 
ATOM     65  C   UNL     1     -10.193   4.111 -13.615  1.00  0.00     0.074 A 
ATOM     66  C   UNL     1      -6.828   2.485 -18.742  1.00  0.00     0.029 A 
ATOM     67  N   UNL     1      -7.580   2.744 -16.665  1.00  0.00    -0.354 N 
ATOM     68  N   UNL     1      -9.449   3.713 -14.619  1.00  0.00    -0.248 NA
ATOM     69  C   UNL     1     -11.201   5.118 -13.978  1.00  0.00     0.031 C 
ATOM     70  C   UNL     1      -7.895   3.389 -18.767  1.00  0.00     0.029 A 
ATOM     71  C   UNL     1      -8.373   3.539 -17.475  1.00  0.00     0.049 A 
ATOM     72  H   UNL     1      -7.687   2.646 -15.691  1.00  0.00     0.167 HD
ATOM     73  C   UNL     1      -9.910   4.404 -15.732  1.00  0.00     0.074 A 
ATOM     74  C   UNL     1     -11.008   5.236 -15.285  1.00  0.00     0.031 C 
ATOM     75  C   UNL     1      -9.463   4.358 -17.011  1.00  0.00     0.037 A 
BRANCH  62  76
ATOM     76  C   UNL     1      -4.587   0.667 -17.849  1.00  0.00     0.057 A 
ATOM     77  C   UNL     1      -4.611  -0.681 -18.229  1.00  0.00     0.134 A 
ATOM     78  C   UNL     1      -3.608   1.485 -18.427  1.00  0.00     0.134 A 
ATOM     79  F   UNL     1      -5.515  -1.520 -17.701  1.00  0.00    -0.206 F 
ATOM     80  C   UNL     1      -3.687  -1.198 -19.138  1.00  0.00     0.040 A 
ATOM     81  C   UNL     1      -2.693   0.984 -19.354  1.00  0.00     0.040 A 
ATOM     82  F   UNL     1      -3.533   2.786 -18.108  1.00  0.00    -0.206 F 
ATOM     83  C   UNL     1      -2.729  -0.362 -19.709  1.00  0.00     0.006 A 
ENDBRANCH  62  76
BRANCH  63  84
ATOM     84  C   UNL     1     -11.104   4.253 -11.188  1.00  0.00     0.057 A 
ATOM     85  C   UNL     1     -12.467   3.944 -11.237  1.00  0.00     0.134 A 
ATOM     86  C   UNL     1     -10.680   5.145 -10.195  1.00  0.00     0.134 A 
ATOM     87  F   UNL     1     -12.938   3.117 -12.182  1.00  0.00    -0.206 F 
ATOM     88  C   UNL     1     -13.378   4.514 -10.346  1.00  0.00     0.040 A 
ATOM     89  C   UNL     1     -11.575   5.702  -9.282  1.00  0.00     0.040 A 
ATOM     90  F   UNL     1      -9.386   5.485 -10.098  1.00  0.00    -0.206 F 
ATOM     91  C   UNL     1     -12.931   5.393  -9.361  1.00  0.00     0.006 A 
ENDBRANCH  63  84
BRANCH  75  92
ATOM     92  C   UNL     1     -10.170   5.214 -18.020  1.00  0.00     0.057 A 
ATOM     93  C   UNL     1      -9.985   6.601 -18.064  1.00  0.00     0.134 A 
ATOM     94  C   UNL     1     -10.999   4.638 -18.990  1.00  0.00     0.134 A 
ATOM     95  F   UNL     1      -9.213   7.213 -17.154  1.00  0.00    -0.206 F 
ATOM     96  C   UNL     1     -10.612   7.388 -19.032  1.00  0.00     0.040 A 
ATOM     97  C   UNL     1     -11.613   5.411 -19.977  1.00  0.00     0.040 A 
ATOM     98  F   UNL     1     -11.211   3.313 -19.007  1.00  0.00    -0.206 F 
ATOM     99  C   UNL     1     -11.422   6.792 -19.997  1.00  0.00     0.006 A 
ENDBRANCH  75  92
ENDBRANCH  49  50
ENDBRANCH  42  44
ENDBRANCH  41  42
ENDBRANCH  40  41
ENDBRANCH  39  40
ENDBRANCH  38  39
ENDBRANCH  37  38
ENDBRANCH   1  37
TORSDOF 25
