REMARK SMILES C[NH2+][C@@]1(C(=O)OCCOCCOC(=O)c2ccc(-c3c4nc(c(-c5c(F)cccc5F)c5ccc([nH]5)c(-c5c(F)cccc5F)c5nc(c(-c6c(F)cccc6F)c6ccc3[nH]6)C=C5)C=C4)cc2)C=CC=C(c2ccccc2)C1
REMARK SMILES IDX 10 1 9 2 8 3 7 4 6 5 4 6 5 7 3 8 69 9 79 10 70 11 72 12
REMARK SMILES IDX 71 13 2 14 1 15 73 18 74 19 78 20 75 21 77 22 76 23 11 24
REMARK SMILES IDX 12 25 13 26 14 27 15 28 16 29 68 30 17 31 67 32 18 33 19 34
REMARK SMILES IDX 20 35 61 36 21 37 66 38 60 39 62 40 22 41 65 42 59 43 58 44
REMARK SMILES IDX 23 46 49 47 32 48 48 49 33 50 36 51 47 52 63 53 34 54 35 55
REMARK SMILES IDX 46 57 64 58 37 59 24 60 25 61 30 62 26 63 27 64 29 65 31 66
REMARK SMILES IDX 28 67 50 68 51 69 56 70 52 71 53 72 55 73 57 74 54 75 38 76
REMARK SMILES IDX 39 77 44 78 40 79 41 80 43 81 45 82 42 83
REMARK H PARENT 2 16 2 17 62 45 36 56
REMARK Flexibility Score: inf
ROOT
ATOM      1  C   UNL     1      -1.155  -0.332   2.318  1.00  0.00     0.202 C 
ENDROOT
BRANCH   1   2
ATOM      2  O   UNL     1      -1.678   0.942   2.692  1.00  0.00    -0.374 OA
BRANCH   2   3
ATOM      3  C   UNL     1      -2.929   1.334   2.129  1.00  0.00     0.202 C 
BRANCH   3   4
ATOM      4  C   UNL     1      -2.900   1.786   0.668  1.00  0.00     0.261 C 
BRANCH   4   5
ATOM      5  O   UNL     1      -2.510   0.707  -0.200  1.00  0.00    -0.458 OA
BRANCH   5   6
ATOM      6  C   UNL     1      -1.411   0.939  -0.968  1.00  0.00     0.372 C 
ATOM      7  O   UNL     1      -0.852   2.033  -1.048  1.00  0.00    -0.244 OA
BRANCH   6   8
ATOM      8  C   UNL     1      -0.932  -0.311  -1.780  1.00  0.00     0.217 C 
ATOM      9  C   UNL     1      -1.397   0.009  -3.199  1.00  0.00     0.053 C 
ATOM     10  C   UNL     1      -1.497  -1.698  -1.296  1.00  0.00     0.122 C 
ATOM     11  C   UNL     1      -1.899  -0.908  -4.036  1.00  0.00     0.003 C 
ATOM     12  C   UNL     1      -1.716  -2.704  -2.412  1.00  0.00    -0.034 C 
ATOM     13  C   UNL     1      -1.930  -2.299  -3.676  1.00  0.00     0.004 C 
BRANCH   8  14
ATOM     14  N   UNL     1       0.572  -0.305  -1.829  1.00  0.00    -0.331 N 
ATOM     15  C   UNL     1       1.230  -0.349  -0.526  1.00  0.00     0.332 C 
ATOM     16  H   UNL     1       0.874  -1.119  -2.364  1.00  0.00     0.347 HD
ATOM     17  H   UNL     1       0.841   0.582  -2.256  1.00  0.00     0.347 HD
ENDBRANCH   8  14
BRANCH  12  18
ATOM     18  C   UNL     1      -1.700  -4.150  -2.125  1.00  0.00    -0.022 A 
ATOM     19  C   UNL     1      -0.789  -4.983  -2.796  1.00  0.00     0.008 A 
ATOM     20  C   UNL     1      -2.619  -4.729  -1.243  1.00  0.00     0.008 A 
ATOM     21  C   UNL     1      -0.816  -6.367  -2.615  1.00  0.00     0.001 A 
ATOM     22  C   UNL     1      -2.648  -6.117  -1.065  1.00  0.00     0.001 A 
ATOM     23  C   UNL     1      -1.753  -6.934  -1.756  1.00  0.00     0.000 A 
ENDBRANCH  12  18
ENDBRANCH   6   8
ENDBRANCH   5   6
ENDBRANCH   4   5
ENDBRANCH   3   4
ENDBRANCH   2   3
ENDBRANCH   1   2
BRANCH   1  24
ATOM     24  C   UNL     1      -1.785  -1.560   2.985  1.00  0.00     0.261 C 
BRANCH  24  25
ATOM     25  O   UNL     1      -3.173  -1.715   2.640  1.00  0.00    -0.460 OA
BRANCH  25  26
ATOM     26  C   UNL     1      -4.033  -1.517   3.665  1.00  0.00     0.338 C 
ATOM     27  O   UNL     1      -3.754  -1.324   4.843  1.00  0.00    -0.246 OA
BRANCH  26  28
ATOM     28  C   UNL     1      -5.409  -1.380   3.158  1.00  0.00     0.060 A 
ATOM     29  C   UNL     1      -6.129  -0.244   3.552  1.00  0.00     0.016 A 
ATOM     30  C   UNL     1      -6.012  -2.370   2.379  1.00  0.00     0.016 A 
ATOM     31  C   UNL     1      -7.473  -0.120   3.217  1.00  0.00     0.010 A 
ATOM     32  C   UNL     1      -7.367  -2.249   2.052  1.00  0.00     0.010 A 
ATOM     33  C   UNL     1      -8.111  -1.143   2.503  1.00  0.00    -0.014 A 
BRANCH  33  34
ATOM     34  C   UNL     1      -9.587  -1.123   2.379  1.00  0.00     0.031 A 
ATOM     35  C   UNL     1     -10.408  -1.925   3.351  1.00  0.00     0.074 A 
ATOM     36  C   UNL     1     -10.191  -0.366   1.447  1.00  0.00     0.049 A 
ATOM     37  N   UNL     1     -11.707  -2.061   3.428  1.00  0.00    -0.248 NA
ATOM     38  C   UNL     1      -9.662  -2.674   4.375  1.00  0.00     0.031 C 
ATOM     39  C   UNL     1      -9.505   0.484   0.476  1.00  0.00     0.029 A 
ATOM     40  N   UNL     1     -11.523  -0.195   1.167  1.00  0.00    -0.354 N 
ATOM     41  C   UNL     1     -11.934  -2.906   4.507  1.00  0.00     0.074 A 
ATOM     42  C   UNL     1     -10.639  -3.280   5.033  1.00  0.00     0.031 C 
ATOM     43  C   UNL     1     -10.424   1.079  -0.305  1.00  0.00     0.029 A 
ATOM     44  C   UNL     1     -11.757   0.632   0.097  1.00  0.00     0.049 A 
ATOM     45  H   UNL     1     -12.242  -0.625   1.684  1.00  0.00     0.167 HD
ATOM     46  C   UNL     1     -13.115  -3.324   5.020  1.00  0.00     0.037 A 
ATOM     47  C   UNL     1     -12.915   0.973  -0.500  1.00  0.00     0.037 A 
ATOM     48  C   UNL     1     -14.402  -2.958   4.492  1.00  0.00     0.049 A 
ATOM     49  C   UNL     1     -14.213   0.441   0.045  1.00  0.00     0.074 A 
ATOM     50  C   UNL     1     -15.657  -3.326   4.944  1.00  0.00     0.029 A 
ATOM     51  N   UNL     1     -14.597  -2.142   3.388  1.00  0.00    -0.354 N 
ATOM     52  N   UNL     1     -14.418  -0.343   1.077  1.00  0.00    -0.248 NA
ATOM     53  C   UNL     1     -15.441   0.844  -0.655  1.00  0.00     0.031 C 
ATOM     54  C   UNL     1     -16.611  -2.766   4.087  1.00  0.00     0.029 A 
ATOM     55  C   UNL     1     -15.951  -2.013   3.129  1.00  0.00     0.049 A 
ATOM     56  H   UNL     1     -13.879  -1.718   2.865  1.00  0.00     0.167 HD
ATOM     57  C   UNL     1     -15.794  -0.508   1.164  1.00  0.00     0.074 A 
ATOM     58  C   UNL     1     -16.377   0.268   0.088  1.00  0.00     0.031 C 
ATOM     59  C   UNL     1     -16.513  -1.235   2.055  1.00  0.00     0.037 A 
BRANCH  46  60
ATOM     60  C   UNL     1     -13.061  -4.244   6.203  1.00  0.00     0.057 A 
ATOM     61  C   UNL     1     -12.692  -3.790   7.476  1.00  0.00     0.134 A 
ATOM     62  C   UNL     1     -13.399  -5.597   6.072  1.00  0.00     0.134 A 
ATOM     63  F   UNL     1     -12.341  -2.509   7.665  1.00  0.00    -0.206 F 
ATOM     64  C   UNL     1     -12.637  -4.653   8.572  1.00  0.00     0.040 A 
ATOM     65  C   UNL     1     -13.371  -6.465   7.165  1.00  0.00     0.040 A 
ATOM     66  F   UNL     1     -13.763  -6.096   4.881  1.00  0.00    -0.206 F 
ATOM     67  C   UNL     1     -12.983  -5.995   8.418  1.00  0.00     0.006 A 
ENDBRANCH  46  60
BRANCH  47  68
ATOM     68  C   UNL     1     -12.899   1.854  -1.694  1.00  0.00     0.057 A 
ATOM     69  C   UNL     1     -13.383   3.166  -1.638  1.00  0.00     0.134 A 
ATOM     70  C   UNL     1     -12.406   1.399  -2.923  1.00  0.00     0.134 A 
ATOM     71  F   UNL     1     -13.889   3.650  -0.494  1.00  0.00    -0.206 F 
ATOM     72  C   UNL     1     -13.391   3.990  -2.764  1.00  0.00     0.040 A 
ATOM     73  C   UNL     1     -12.386   2.220  -4.052  1.00  0.00     0.040 A 
ATOM     74  F   UNL     1     -11.928   0.152  -3.041  1.00  0.00    -0.206 F 
ATOM     75  C   UNL     1     -12.886   3.518  -3.975  1.00  0.00     0.006 A 
ENDBRANCH  47  68
BRANCH  59  76
ATOM     76  C   UNL     1     -18.007  -1.204   1.921  1.00  0.00     0.057 A 
ATOM     77  C   UNL     1     -18.671  -1.888   0.895  1.00  0.00     0.134 A 
ATOM     78  C   UNL     1     -18.792  -0.517   2.856  1.00  0.00     0.134 A 
ATOM     79  F   UNL     1     -17.975  -2.555  -0.038  1.00  0.00    -0.206 F 
ATOM     80  C   UNL     1     -20.063  -1.874   0.792  1.00  0.00     0.040 A 
ATOM     81  C   UNL     1     -20.186  -0.515   2.777  1.00  0.00     0.040 A 
ATOM     82  F   UNL     1     -18.219   0.151   3.868  1.00  0.00    -0.206 F 
ATOM     83  C   UNL     1     -20.824  -1.191   1.740  1.00  0.00     0.006 A 
ENDBRANCH  59  76
ENDBRANCH  33  34
ENDBRANCH  26  28
ENDBRANCH  25  26
ENDBRANCH  24  25
ENDBRANCH   1  24
TORSDOF 16
