REMARK SMILES CC1=C(C(=O)OCCOCCOC(=O)c2ccc(-c3c4nc(c(-c5c(F)cccc5F)c5ccc([nH]5)c(-c5c(F)cccc5F)c5nc(c(-c6c(F)cccc6F)c6ccc3[nH]6)C=C5)C=C4)cc2)N2C(=O)[C@@H](NC(=O)c3ccn(C)n3)[C@H]2SC1
REMARK SMILES IDX 9 1 8 2 7 3 6 4 4 5 5 6 3 7 1 8 2 9 84 10 69 11 83 12 70 13
REMARK SMILES IDX 82 14 71 15 72 16 73 17 74 18 75 20 76 21 77 22 81 23 78 24
REMARK SMILES IDX 79 25 80 26 10 27 11 28 12 29 13 30 14 31 15 32 16 33 68 34
REMARK SMILES IDX 17 35 67 36 18 37 19 38 20 39 61 40 21 41 66 42 60 43 62 44
REMARK SMILES IDX 22 45 65 46 59 47 58 48 23 50 49 51 32 52 48 53 33 54 36 55
REMARK SMILES IDX 47 56 63 57 34 58 35 59 46 61 64 62 37 63 24 64 25 65 30 66
REMARK SMILES IDX 26 67 27 68 29 69 31 70 28 71 50 72 51 73 56 74 52 75 53 76
REMARK SMILES IDX 55 77 57 78 54 79 38 80 39 81 44 82 40 83 41 84 43 85 45 86
REMARK SMILES IDX 42 87
REMARK H PARENT 73 19 62 49 36 60
REMARK Flexibility Score: inf
ROOT
ATOM      1  O   UNL     1      -1.001  -5.117   1.291  1.00  0.00    -0.374 OA
ENDROOT
BRANCH   1   2
ATOM      2  C   UNL     1       0.237  -5.518   0.699  1.00  0.00     0.202 C 
BRANCH   2   3
ATOM      3  C   UNL     1       0.573  -4.837  -0.628  1.00  0.00     0.261 C 
BRANCH   3   4
ATOM      4  O   UNL     1       1.015  -3.492  -0.371  1.00  0.00    -0.459 OA
BRANCH   4   5
ATOM      5  C   UNL     1       0.620  -2.583  -1.293  1.00  0.00     0.355 C 
ATOM      6  O   UNL     1       0.109  -2.826  -2.377  1.00  0.00    -0.244 OA
BRANCH   5   7
ATOM      7  C   UNL     1       0.808  -1.186  -0.791  1.00  0.00     0.131 C 
ATOM      8  C   UNL     1       3.262  -1.448  -0.230  1.00  0.00     0.043 C 
ATOM      9  C   UNL     1       1.968  -0.678  -0.312  1.00  0.00    -0.032 C 
ATOM     10  C   UNL     1       2.115   0.751   0.203  1.00  0.00     0.105 C 
ATOM     11  N   UNL     1      -0.269  -0.374  -0.937  1.00  0.00    -0.289 N 
ATOM     12  S   UNL     1       0.542   1.622   0.524  1.00  0.00    -0.129 SA
ATOM     13  C   UNL     1      -1.610  -0.491  -0.901  1.00  0.00     0.253 C 
ATOM     14  C   UNL     1      -0.197   1.060  -1.030  1.00  0.00     0.181 C 
ATOM     15  O   UNL     1      -2.344  -1.423  -0.662  1.00  0.00    -0.272 OA
ATOM     16  C   UNL     1      -1.744   1.041  -1.167  1.00  0.00     0.206 C 
BRANCH  16  17
ATOM     17  N   UNL     1      -2.530   1.851  -0.209  1.00  0.00    -0.336 N 
ATOM     18  C   UNL     1      -3.733   2.474  -0.479  1.00  0.00     0.272 C 
ATOM     19  H   UNL     1      -2.165   1.953   0.700  1.00  0.00     0.164 HD
ATOM     20  O   UNL     1      -4.231   3.233   0.349  1.00  0.00    -0.267 OA
BRANCH  18  21
ATOM     21  C   UNL     1      -4.348   2.178  -1.778  1.00  0.00     0.150 A 
ATOM     22  C   UNL     1      -4.911   0.942  -2.194  1.00  0.00     0.056 A 
ATOM     23  N   UNL     1      -4.335   3.064  -2.793  1.00  0.00    -0.168 NA
ATOM     24  C   UNL     1      -5.263   1.126  -3.509  1.00  0.00     0.109 A 
ATOM     25  N   UNL     1      -4.929   2.413  -3.808  1.00  0.00    -0.275 N 
ATOM     26  C   UNL     1      -5.105   3.066  -5.084  1.00  0.00     0.173 C 
ENDBRANCH  18  21
ENDBRANCH  16  17
ENDBRANCH   5   7
ENDBRANCH   4   5
ENDBRANCH   3   4
ENDBRANCH   2   3
ENDBRANCH   1   2
BRANCH   1  27
ATOM     27  C   UNL     1      -1.088  -3.782   1.787  1.00  0.00     0.202 C 
BRANCH  27  28
ATOM     28  C   UNL     1      -0.542  -3.569   3.205  1.00  0.00     0.261 C 
BRANCH  28  29
ATOM     29  O   UNL     1       0.827  -3.987   3.346  1.00  0.00    -0.460 OA
BRANCH  29  30
ATOM     30  C   UNL     1       0.985  -5.171   3.988  1.00  0.00     0.338 C 
ATOM     31  O   UNL     1       0.121  -5.857   4.508  1.00  0.00    -0.246 OA
BRANCH  30  32
ATOM     32  C   UNL     1       2.381  -5.633   3.864  1.00  0.00     0.060 A 
ATOM     33  C   UNL     1       2.591  -6.941   3.410  1.00  0.00     0.016 A 
ATOM     34  C   UNL     1       3.459  -4.837   4.259  1.00  0.00     0.016 A 
ATOM     35  C   UNL     1       3.877  -7.474   3.390  1.00  0.00     0.010 A 
ATOM     36  C   UNL     1       4.749  -5.378   4.248  1.00  0.00     0.010 A 
ATOM     37  C   UNL     1       4.959  -6.708   3.844  1.00  0.00    -0.014 A 
BRANCH  37  38
ATOM     38  C   UNL     1       6.282  -7.352   4.025  1.00  0.00     0.031 A 
ATOM     39  C   UNL     1       6.675  -7.847   5.388  1.00  0.00     0.074 A 
ATOM     40  C   UNL     1       7.112  -7.521   2.981  1.00  0.00     0.049 A 
ATOM     41  N   UNL     1       7.781  -8.433   5.772  1.00  0.00    -0.248 NA
ATOM     42  C   UNL     1       5.689  -7.657   6.464  1.00  0.00     0.031 C 
ATOM     43  C   UNL     1       6.834  -7.113   1.605  1.00  0.00     0.029 A 
ATOM     44  N   UNL     1       8.364  -8.080   2.921  1.00  0.00    -0.354 N 
ATOM     45  C   UNL     1       7.625  -8.681   7.129  1.00  0.00     0.074 A 
ATOM     46  C   UNL     1       6.331  -8.156   7.510  1.00  0.00     0.031 C 
ATOM     47  C   UNL     1       7.890  -7.429   0.836  1.00  0.00     0.029 A 
ATOM     48  C   UNL     1       8.925  -8.039   1.669  1.00  0.00     0.049 A 
ATOM     49  H   UNL     1       8.816  -8.474   3.702  1.00  0.00     0.167 HD
ATOM     50  C   UNL     1       8.477  -9.300   7.980  1.00  0.00     0.037 A 
ATOM     51  C   UNL     1      10.141  -8.437   1.248  1.00  0.00     0.037 A 
ATOM     52  C   UNL     1       9.764  -9.823   7.605  1.00  0.00     0.049 A 
ATOM     53  C   UNL     1      11.097  -9.065   2.226  1.00  0.00     0.074 A 
ATOM     54  C   UNL     1      10.688 -10.488   8.391  1.00  0.00     0.029 A 
ATOM     55  N   UNL     1      10.310  -9.732   6.334  1.00  0.00    -0.354 N 
ATOM     56  N   UNL     1      10.926  -9.322   3.500  1.00  0.00    -0.248 NA
ATOM     57  C   UNL     1      12.414  -9.461   1.705  1.00  0.00     0.031 C 
ATOM     58  C   UNL     1      11.813 -10.763   7.605  1.00  0.00     0.029 A 
ATOM     59  C   UNL     1      11.571 -10.306   6.320  1.00  0.00     0.049 A 
ATOM     60  H   UNL     1       9.868  -9.321   5.557  1.00  0.00     0.167 HD
ATOM     61  C   UNL     1      12.101  -9.929   3.928  1.00  0.00     0.074 A 
ATOM     62  C   UNL     1      12.973 -10.011   2.774  1.00  0.00     0.031 C 
ATOM     63  C   UNL     1      12.427 -10.380   5.164  1.00  0.00     0.037 A 
BRANCH  50  64
ATOM     64  C   UNL     1       8.047  -9.425   9.411  1.00  0.00     0.057 A 
ATOM     65  C   UNL     1       7.054 -10.330   9.807  1.00  0.00     0.134 A 
ATOM     66  C   UNL     1       8.648  -8.646  10.407  1.00  0.00     0.134 A 
ATOM     67  F   UNL     1       6.429 -11.094   8.899  1.00  0.00    -0.206 F 
ATOM     68  C   UNL     1       6.658 -10.439  11.141  1.00  0.00     0.040 A 
ATOM     69  C   UNL     1       8.276  -8.762  11.747  1.00  0.00     0.040 A 
ATOM     70  F   UNL     1       9.608  -7.762  10.094  1.00  0.00    -0.206 F 
ATOM     71  C   UNL     1       7.274  -9.657  12.117  1.00  0.00     0.006 A 
ENDBRANCH  50  64
BRANCH  51  72
ATOM     72  C   UNL     1      10.530  -8.247  -0.170  1.00  0.00     0.057 A 
ATOM     73  C   UNL     1      10.653  -9.335  -1.040  1.00  0.00     0.134 A 
ATOM     74  C   UNL     1      10.798  -6.973  -0.685  1.00  0.00     0.134 A 
ATOM     75  F   UNL     1      10.432 -10.582  -0.598  1.00  0.00    -0.206 F 
ATOM     76  C   UNL     1      11.041  -9.166  -2.370  1.00  0.00     0.040 A 
ATOM     77  C   UNL     1      11.167  -6.787  -2.018  1.00  0.00     0.040 A 
ATOM     78  F   UNL     1      10.696  -5.890   0.099  1.00  0.00    -0.206 F 
ATOM     79  C   UNL     1      11.294  -7.887  -2.864  1.00  0.00     0.006 A 
ENDBRANCH  51  72
BRANCH  63  80
ATOM     80  C   UNL     1      13.771 -11.024   5.328  1.00  0.00     0.057 A 
ATOM     81  C   UNL     1      14.951 -10.271   5.353  1.00  0.00     0.134 A 
ATOM     82  C   UNL     1      13.883 -12.409   5.503  1.00  0.00     0.134 A 
ATOM     83  F   UNL     1      14.912  -8.941   5.178  1.00  0.00    -0.206 F 
ATOM     84  C   UNL     1      16.197 -10.875   5.529  1.00  0.00     0.040 A 
ATOM     85  C   UNL     1      15.120 -13.022   5.702  1.00  0.00     0.040 A 
ATOM     86  F   UNL     1      12.790 -13.187   5.496  1.00  0.00    -0.206 F 
ATOM     87  C   UNL     1      16.283 -12.254   5.711  1.00  0.00     0.006 A 
ENDBRANCH  63  80
ENDBRANCH  37  38
ENDBRANCH  30  32
ENDBRANCH  29  30
ENDBRANCH  28  29
ENDBRANCH  27  28
ENDBRANCH   1  27
TORSDOF 16
