REMARK SMILES O=C(OCCOCCOC(=O)C1(O)CCC(F)(F)CC1)c1ccc(-c2c3nc(c(-c4c(F)cccc4F)c4ccc([nH]4)c(-c4c(F)cccc4F)c4nc(c(-c5c(F)cccc5F)c5ccc2[nH]5)C=C4)C=C3)cc1
REMARK SMILES IDX 5 1 4 2 3 3 2 4 1 5 21 6 22 7 74 8 23 9 73 10 24 11 25 12
REMARK SMILES IDX 26 13 67 14 27 15 72 16 66 17 68 18 28 19 71 20 65 21 64 22
REMARK SMILES IDX 29 24 55 25 38 26 54 27 39 28 42 29 53 30 69 31 40 32 41 33
REMARK SMILES IDX 52 35 70 36 43 37 30 38 31 39 36 40 32 41 33 42 35 43 37 44
REMARK SMILES IDX 34 45 56 46 57 47 62 48 58 49 59 50 61 51 63 52 60 53 44 54
REMARK SMILES IDX 45 55 50 56 46 57 47 58 49 59 51 60 48 61 6 62 7 63 8 64
REMARK SMILES IDX 9 65 10 66 11 67 12 68 14 69 20 70 15 71 19 72 16 73 17 74
REMARK SMILES IDX 18 75 13 76
REMARK H PARENT 68 23 42 34 13 77
REMARK Flexibility Score: inf
ROOT
ATOM      1  C   UNL     1       4.397  -0.838   1.116  1.00  0.00     0.202 C 
ENDROOT
BRANCH   1   2
ATOM      2  C   UNL     1       4.192   0.679   1.181  1.00  0.00     0.261 C 
BRANCH   2   3
ATOM      3  O   UNL     1       2.819   1.025   0.960  1.00  0.00    -0.460 OA
BRANCH   3   4
ATOM      4  C   UNL     1       2.232   1.325  -0.221  1.00  0.00     0.338 C 
ATOM      5  O   UNL     1       1.015   1.496  -0.250  1.00  0.00    -0.246 OA
BRANCH   4   6
ATOM      6  C   UNL     1       2.987   1.482  -1.502  1.00  0.00     0.060 A 
ATOM      7  C   UNL     1       4.167   0.810  -1.831  1.00  0.00     0.016 A 
ATOM      8  C   UNL     1       2.405   2.305  -2.478  1.00  0.00     0.016 A 
ATOM      9  C   UNL     1       4.773   0.955  -3.061  1.00  0.00     0.010 A 
ATOM     10  C   UNL     1       2.998   2.451  -3.732  1.00  0.00     0.010 A 
ATOM     11  C   UNL     1       4.189   1.775  -4.012  1.00  0.00    -0.014 A 
BRANCH  11  12
ATOM     12  C   UNL     1       4.955   2.004  -5.237  1.00  0.00     0.031 A 
ATOM     13  C   UNL     1       5.736   3.269  -5.334  1.00  0.00     0.074 A 
ATOM     14  C   UNL     1       5.053   1.018  -6.142  1.00  0.00     0.049 A 
ATOM     15  N   UNL     1       6.423   3.741  -6.334  1.00  0.00    -0.248 NA
ATOM     16  C   UNL     1       5.755   4.115  -4.127  1.00  0.00     0.031 C 
ATOM     17  C   UNL     1       4.444  -0.309  -6.012  1.00  0.00     0.029 A 
ATOM     18  N   UNL     1       5.716   0.968  -7.334  1.00  0.00    -0.354 N 
ATOM     19  C   UNL     1       6.918   4.961  -5.896  1.00  0.00     0.074 A 
ATOM     20  C   UNL     1       6.464   5.154  -4.538  1.00  0.00     0.031 C 
ATOM     21  C   UNL     1       4.754  -1.040  -7.094  1.00  0.00     0.029 A 
ATOM     22  C   UNL     1       5.513  -0.205  -8.017  1.00  0.00     0.049 A 
ATOM     23  H   UNL     1       6.282   1.700  -7.670  1.00  0.00     0.167 HD
ATOM     24  C   UNL     1       7.667   5.842  -6.593  1.00  0.00     0.037 A 
ATOM     25  C   UNL     1       5.855  -0.525  -9.276  1.00  0.00     0.037 A 
ATOM     26  C   UNL     1       8.081   5.598  -7.948  1.00  0.00     0.049 A 
ATOM     27  C   UNL     1       6.598   0.510 -10.074  1.00  0.00     0.074 A 
ATOM     28  C   UNL     1       8.789   6.419  -8.802  1.00  0.00     0.029 A 
ATOM     29  N   UNL     1       7.807   4.425  -8.645  1.00  0.00    -0.354 N 
ATOM     30  N   UNL     1       7.003   1.702  -9.698  1.00  0.00    -0.248 NA
ATOM     31  C   UNL     1       6.917   0.174 -11.464  1.00  0.00     0.031 C 
ATOM     32  C   UNL     1       8.893   5.763 -10.035  1.00  0.00     0.029 A 
ATOM     33  C   UNL     1       8.307   4.508  -9.930  1.00  0.00     0.049 A 
ATOM     34  H   UNL     1       7.327   3.648  -8.276  1.00  0.00     0.167 HD
ATOM     35  C   UNL     1       7.638   2.257 -10.799  1.00  0.00     0.074 A 
ATOM     36  C   UNL     1       7.575   1.259 -11.852  1.00  0.00     0.031 C 
ATOM     37  C   UNL     1       8.218   3.476 -10.936  1.00  0.00     0.037 A 
BRANCH  24  38
ATOM     38  C   UNL     1       7.958   7.154  -5.929  1.00  0.00     0.057 A 
ATOM     39  C   UNL     1       8.809   7.269  -4.821  1.00  0.00     0.134 A 
ATOM     40  C   UNL     1       7.299   8.315  -6.356  1.00  0.00     0.134 A 
ATOM     41  F   UNL     1       9.443   6.190  -4.335  1.00  0.00    -0.206 F 
ATOM     42  C   UNL     1       8.959   8.478  -4.136  1.00  0.00     0.040 A 
ATOM     43  C   UNL     1       7.463   9.535  -5.698  1.00  0.00     0.040 A 
ATOM     44  F   UNL     1       6.461   8.276  -7.403  1.00  0.00    -0.206 F 
ATOM     45  C   UNL     1       8.284   9.615  -4.576  1.00  0.00     0.006 A 
ENDBRANCH  24  38
BRANCH  25  46
ATOM     46  C   UNL     1       5.427  -1.824  -9.854  1.00  0.00     0.057 A 
ATOM     47  C   UNL     1       6.350  -2.815 -10.204  1.00  0.00     0.134 A 
ATOM     48  C   UNL     1       4.068  -2.118 -10.046  1.00  0.00     0.134 A 
ATOM     49  F   UNL     1       7.664  -2.594 -10.059  1.00  0.00    -0.206 F 
ATOM     50  C   UNL     1       5.941  -4.045 -10.727  1.00  0.00     0.040 A 
ATOM     51  C   UNL     1       3.644  -3.352 -10.542  1.00  0.00     0.040 A 
ATOM     52  F   UNL     1       3.128  -1.216  -9.729  1.00  0.00    -0.206 F 
ATOM     53  C   UNL     1       4.583  -4.319 -10.890  1.00  0.00     0.006 A 
ENDBRANCH  25  46
BRANCH  37  54
ATOM     54  C   UNL     1       8.855   3.772 -12.259  1.00  0.00     0.057 A 
ATOM     55  C   UNL     1       8.093   4.060 -13.396  1.00  0.00     0.134 A 
ATOM     56  C   UNL     1      10.249   3.845 -12.368  1.00  0.00     0.134 A 
ATOM     57  F   UNL     1       6.753   3.992 -13.354  1.00  0.00    -0.206 F 
ATOM     58  C   UNL     1       8.699   4.401 -14.605  1.00  0.00     0.040 A 
ATOM     59  C   UNL     1      10.864   4.214 -13.562  1.00  0.00     0.040 A 
ATOM     60  F   UNL     1      11.030   3.590 -11.307  1.00  0.00    -0.206 F 
ATOM     61  C   UNL     1      10.088   4.490 -14.686  1.00  0.00     0.006 A 
ENDBRANCH  37  54
ENDBRANCH  11  12
ENDBRANCH   4   6
ENDBRANCH   3   4
ENDBRANCH   2   3
ENDBRANCH   1   2
BRANCH   1  62
ATOM     62  O   UNL     1       3.914  -1.476  -0.069  1.00  0.00    -0.374 OA
BRANCH  62  63
ATOM     63  C   UNL     1       2.524  -1.825  -0.074  1.00  0.00     0.202 C 
BRANCH  63  64
ATOM     64  C   UNL     1       2.366  -3.332  -0.264  1.00  0.00     0.261 C 
BRANCH  64  65
ATOM     65  O   UNL     1       2.959  -3.977   0.870  1.00  0.00    -0.461 OA
BRANCH  65  66
ATOM     66  C   UNL     1       4.305  -4.149   0.759  1.00  0.00     0.338 C 
ATOM     67  O   UNL     1       4.915  -4.216  -0.305  1.00  0.00    -0.249 OA
BRANCH  66  68
ATOM     68  C   UNL     1       4.967  -4.276   2.152  1.00  0.00     0.162 C 
ATOM     69  C   UNL     1       4.880  -5.739   2.585  1.00  0.00     0.053 C 
ATOM     70  C   UNL     1       6.434  -3.803   2.118  1.00  0.00     0.053 C 
ATOM     71  C   UNL     1       5.728  -6.638   1.688  1.00  0.00     0.080 C 
ATOM     72  C   UNL     1       7.357  -4.701   1.297  1.00  0.00     0.080 C 
ATOM     73  C   UNL     1       7.176  -6.171   1.637  1.00  0.00     0.248 C 
ATOM     74  F   UNL     1       7.866  -6.929   0.753  1.00  0.00    -0.207 F 
ATOM     75  F   UNL     1       7.735  -6.393   2.858  1.00  0.00    -0.207 F 
BRANCH  68  76
ATOM     76  O   UNL     1       4.282  -3.474   3.121  1.00  0.00    -0.378 OA
ATOM     77  H   UNL     1       3.352  -3.747   3.167  1.00  0.00     0.212 HD
ENDBRANCH  68  76
ENDBRANCH  66  68
ENDBRANCH  65  66
ENDBRANCH  64  65
ENDBRANCH  63  64
ENDBRANCH  62  63
ENDBRANCH   1  62
TORSDOF 15
