REMARK SMILES O=C(OCCOCCOC(=O)c1ccc(-c2c3nc(c(-c4c(F)cccc4F)c4ccc([nH]4)c(-c4c(F)cccc4F)c4nc(c(-c5c(F)cccc5F)c5ccc2[nH]5)C=C4)C=C3)cc1)C1=Cc2cc(Cl)cc(-c3ccccc3)c2O[C@@H]1C(F)(F)F
REMARK SMILES IDX 7 1 6 2 5 3 4 4 3 5 2 6 1 7 66 8 67 9 82 10 68 11 81 12
REMARK SMILES IDX 69 13 80 14 70 15 73 16 71 17 72 18 83 19 84 20 85 21 86 22
REMARK SMILES IDX 74 23 75 24 79 25 76 26 78 27 77 28 8 29 9 30 10 31 11 32
REMARK SMILES IDX 12 33 13 34 65 35 14 36 64 37 15 38 16 39 17 40 58 41 18 42
REMARK SMILES IDX 63 43 57 44 59 45 19 46 62 47 56 48 55 49 20 51 46 52 29 53
REMARK SMILES IDX 45 54 30 55 33 56 44 57 60 58 31 59 32 60 43 62 61 63 34 64
REMARK SMILES IDX 21 65 22 66 27 67 23 68 24 69 26 70 28 71 25 72 47 73 48 74
REMARK SMILES IDX 53 75 49 76 50 77 52 78 54 79 51 80 35 81 36 82 41 83 37 84
REMARK SMILES IDX 38 85 40 86 42 87 39 88
REMARK H PARENT 59 50 33 61
REMARK Flexibility Score: inf
ROOT
ATOM      1  C   UNL     1       2.526  -1.998  -2.346  1.00  0.00     0.202 C 
ENDROOT
BRANCH   1   2
ATOM      2  O   UNL     1       3.684  -1.124  -2.269  1.00  0.00    -0.374 OA
BRANCH   2   3
ATOM      3  C   UNL     1       4.281  -0.093  -1.133  1.00  0.00     0.202 C 
BRANCH   3   4
ATOM      4  C   UNL     1       3.416   0.570   0.750  1.00  0.00     0.261 C 
BRANCH   4   5
ATOM      5  O   UNL     1       2.469   1.811   0.933  1.00  0.00    -0.460 OA
BRANCH   5   6
ATOM      6  C   UNL     1       2.634   2.754  -0.002  1.00  0.00     0.338 C 
ATOM      7  O   UNL     1       2.050   3.789  -0.196  1.00  0.00    -0.246 OA
BRANCH   6   8
ATOM      8  C   UNL     1       3.502   1.952  -0.822  1.00  0.00     0.087 C 
ATOM      9  C   UNL     1       4.863   1.960  -0.284  1.00  0.00     0.027 C 
ATOM     10  C   UNL     1       2.367   0.391  -0.954  1.00  0.00     0.316 C 
ATOM     11  C   UNL     1       5.624   0.529   0.503  1.00  0.00     0.019 A 
ATOM     12  O   UNL     1       3.169  -1.155  -0.067  1.00  0.00    -0.475 OA
ATOM     13  C   UNL     1       6.830   0.790   1.097  1.00  0.00     0.032 A 
ATOM     14  C   UNL     1       4.809  -1.010   0.739  1.00  0.00     0.135 A 
ATOM     15  C   UNL     1       7.311  -0.233   1.899  1.00  0.00     0.042 A 
ATOM     16  C   UNL     1       5.425  -2.019   1.521  1.00  0.00     0.026 A 
ATOM     17  Cl  UNL     1       8.819   0.030   2.711  1.00  0.00    -0.084 Cl
ATOM     18  C   UNL     1       6.648  -1.501   2.103  1.00  0.00     0.033 A 
BRANCH  10  19
ATOM     19  C   UNL     1       1.901   0.729  -2.466  1.00  0.00     0.430 C 
ATOM     20  F   UNL     1       0.888  -0.019  -2.938  1.00  0.00    -0.167 F 
ATOM     21  F   UNL     1       1.381   1.999  -2.457  1.00  0.00    -0.167 F 
ATOM     22  F   UNL     1       2.888   0.795  -3.389  1.00  0.00    -0.167 F 
ENDBRANCH  10  19
BRANCH  16  23
ATOM     23  C   UNL     1       5.155  -3.558   1.941  1.00  0.00    -0.015 A 
ATOM     24  C   UNL     1       4.587  -3.536   3.665  1.00  0.00     0.009 A 
ATOM     25  C   UNL     1       5.331  -5.404   1.101  1.00  0.00     0.009 A 
ATOM     26  C   UNL     1       4.236  -5.066   4.487  1.00  0.00     0.001 A 
ATOM     27  C   UNL     1       4.873  -6.864   2.043  1.00  0.00     0.001 A 
ATOM     28  C   UNL     1       4.368  -6.655   3.704  1.00  0.00     0.000 A 
ENDBRANCH  16  23
ENDBRANCH   6   8
ENDBRANCH   5   6
ENDBRANCH   4   5
ENDBRANCH   3   4
ENDBRANCH   2   3
ENDBRANCH   1   2
BRANCH   1  29
ATOM     29  C   UNL     1       2.746  -3.416  -2.876  1.00  0.00     0.261 C 
BRANCH  29  30
ATOM     30  O   UNL     1       3.475  -4.177  -1.949  1.00  0.00    -0.460 OA
BRANCH  30  31
ATOM     31  C   UNL     1       4.718  -3.701  -1.769  1.00  0.00     0.338 C 
ATOM     32  O   UNL     1       5.505  -3.277  -2.589  1.00  0.00    -0.246 OA
BRANCH  31  33
ATOM     33  C   UNL     1       4.937  -3.834  -0.340  1.00  0.00     0.060 A 
ATOM     34  C   UNL     1       6.638  -3.887   0.163  1.00  0.00     0.016 A 
ATOM     35  C   UNL     1       3.575  -4.325   0.682  1.00  0.00     0.016 A 
ATOM     36  C   UNL     1       7.145  -4.493   1.727  1.00  0.00     0.010 A 
ATOM     37  C   UNL     1       3.960  -4.987   2.305  1.00  0.00     0.010 A 
ATOM     38  C   UNL     1       5.907  -5.098   2.889  1.00  0.00    -0.014 A 
BRANCH  38  39
ATOM     39  C   UNL     1       6.838  -5.749   4.075  1.00  0.00     0.031 A 
ATOM     40  C   UNL     1       7.420  -7.171   3.966  1.00  0.00     0.074 A 
ATOM     41  C   UNL     1       7.258  -5.061   5.163  1.00  0.00     0.049 A 
ATOM     42  N   UNL     1       7.847  -7.986   4.910  1.00  0.00    -0.248 NA
ATOM     43  C   UNL     1       7.513  -7.761   2.626  1.00  0.00     0.031 C 
ATOM     44  C   UNL     1       7.067  -3.642   5.414  1.00  0.00     0.029 A 
ATOM     45  N   UNL     1       7.886  -5.503   6.314  1.00  0.00    -0.354 N 
ATOM     46  C   UNL     1       8.134  -9.201   4.282  1.00  0.00     0.074 A 
ATOM     47  C   UNL     1       7.757  -9.035   2.896  1.00  0.00     0.031 C 
ATOM     48  C   UNL     1       7.403  -3.353   6.679  1.00  0.00     0.029 A 
ATOM     49  C   UNL     1       7.891  -4.564   7.323  1.00  0.00     0.049 A 
ATOM     50  H   UNL     1       8.289  -6.397   6.404  1.00  0.00     0.167 HD
ATOM     51  C   UNL     1       8.713 -10.333   4.770  1.00  0.00     0.037 A 
ATOM     52  C   UNL     1       8.226  -4.643   8.626  1.00  0.00     0.037 A 
ATOM     53  C   UNL     1       9.290 -10.457   6.089  1.00  0.00     0.049 A 
ATOM     54  C   UNL     1       8.844  -5.896   9.173  1.00  0.00     0.074 A 
ATOM     55  C   UNL     1       9.992 -11.525   6.628  1.00  0.00     0.029 A 
ATOM     56  N   UNL     1       9.291  -9.463   7.053  1.00  0.00    -0.354 N 
ATOM     57  N   UNL     1       9.043  -7.047   8.582  1.00  0.00    -0.248 NA
ATOM     58  C   UNL     1       9.346  -5.835  10.554  1.00  0.00     0.031 C 
ATOM     59  C   UNL     1      10.389 -11.190   7.927  1.00  0.00     0.029 A 
ATOM     60  C   UNL     1       9.979  -9.893   8.179  1.00  0.00     0.049 A 
ATOM     61  H   UNL     1       8.866  -8.580   6.954  1.00  0.00     0.167 HD
ATOM     62  C   UNL     1       9.747  -7.823   9.495  1.00  0.00     0.074 A 
ATOM     63  C   UNL     1       9.946  -7.010  10.674  1.00  0.00     0.031 C 
ATOM     64  C   UNL     1      10.196  -9.093   9.356  1.00  0.00     0.037 A 
BRANCH  51  65
ATOM     65  C   UNL     1       8.810 -11.541   3.863  1.00  0.00     0.057 A 
ATOM     66  C   UNL     1       9.607 -11.557   2.710  1.00  0.00     0.134 A 
ATOM     67  C   UNL     1       8.144 -12.734   4.188  1.00  0.00     0.134 A 
ATOM     68  F   UNL     1      10.290 -10.463   2.340  1.00  0.00    -0.206 F 
ATOM     69  C   UNL     1       9.690 -12.683   1.886  1.00  0.00     0.040 A 
ATOM     70  C   UNL     1       8.257 -13.882   3.397  1.00  0.00     0.040 A 
ATOM     71  F   UNL     1       7.391 -12.817   5.295  1.00  0.00    -0.206 F 
ATOM     72  C   UNL     1       9.020 -13.853   2.233  1.00  0.00     0.006 A 
ENDBRANCH  51  65
BRANCH  52  73
ATOM     73  C   UNL     1       8.019  -3.467   9.511  1.00  0.00     0.057 A 
ATOM     74  C   UNL     1       9.101  -2.713   9.980  1.00  0.00     0.134 A 
ATOM     75  C   UNL     1       6.737  -3.086   9.927  1.00  0.00     0.134 A 
ATOM     76  F   UNL     1      10.353  -3.041   9.627  1.00  0.00    -0.206 F 
ATOM     77  C   UNL     1       8.922  -1.646  10.861  1.00  0.00     0.040 A 
ATOM     78  C   UNL     1       6.541  -2.003  10.787  1.00  0.00     0.040 A 
ATOM     79  F   UNL     1       5.657  -3.758   9.502  1.00  0.00    -0.206 F 
ATOM     80  C   UNL     1       7.638  -1.287  11.265  1.00  0.00     0.006 A 
ENDBRANCH  52  73
BRANCH  64  81
ATOM     81  C   UNL     1      11.005  -9.668  10.487  1.00  0.00     0.057 A 
ATOM     82  C   UNL     1      10.442  -9.948  11.740  1.00  0.00     0.134 A 
ATOM     83  C   UNL     1      12.371  -9.934  10.325  1.00  0.00     0.134 A 
ATOM     84  F   UNL     1       9.143  -9.705  11.970  1.00  0.00    -0.206 F 
ATOM     85  C   UNL     1      11.215 -10.427  12.800  1.00  0.00     0.040 A 
ATOM     86  C   UNL     1      13.147 -10.447  11.366  1.00  0.00     0.040 A 
ATOM     87  F   UNL     1      12.978  -9.701   9.151  1.00  0.00    -0.206 F 
ATOM     88  C   UNL     1      12.572 -10.682  12.613  1.00  0.00     0.006 A 
ENDBRANCH  64  81
ENDBRANCH  38  39
ENDBRANCH  31  33
ENDBRANCH  30  31
ENDBRANCH  29  30
ENDBRANCH   1  29
TORSDOF 16
