REMARK SMILES Cc1coc2cc3c(cc12)[C@@H](C)[C@H](CCC(=O)N[C@@H](Cc1c[nH]c2ccccc12)C(=O)OCCOCCOC(=O)c1ccc(-c2c4nc(c(-c5c(F)cccc5F)c5ccc([nH]5)c(-c5c(F)cccc5F)c5nc(c(-c6c(F)cccc6F)c6ccc2[nH]6)C=C5)C=C4)cc1)C(=O)O3
REMARK SMILES IDX 34 1 33 2 32 3 30 4 31 5 19 6 18 7 16 8 17 9 15 11 14 12
REMARK SMILES IDX 13 13 1 14 2 15 3 16 10 17 4 18 5 19 9 20 6 21 8 22 7 23
REMARK SMILES IDX 11 24 97 25 12 26 95 27 96 28 20 29 21 30 22 31 29 32 23 33
REMARK SMILES IDX 24 34 28 35 25 37 27 38 26 39 35 40 36 41 37 42 38 43 39 44
REMARK SMILES IDX 40 45 41 46 42 47 94 48 43 49 93 50 44 51 45 52 46 53 87 54
REMARK SMILES IDX 47 55 92 56 86 57 88 58 48 59 91 60 85 61 84 62 49 64 75 65
REMARK SMILES IDX 58 66 74 67 59 68 62 69 73 70 89 71 60 72 61 73 72 75 90 76
REMARK SMILES IDX 63 77 50 78 51 79 56 80 52 81 53 82 55 83 57 84 54 85 76 86
REMARK SMILES IDX 77 87 82 88 78 89 79 90 81 91 83 92 80 93 64 94 65 95 70 96
REMARK SMILES IDX 66 97 67 98 69 99 71 100 68 101
REMARK H PARENT 18 10 23 36 88 63 62 74
REMARK Flexibility Score: inf
ROOT
ATOM      1  C   UNL     1       1.503 -11.572   3.510  1.00  0.00     0.202 C 
ENDROOT
BRANCH   1   2
ATOM      2  C   UNL     1       1.666 -10.360   4.418  1.00  0.00     0.261 C 
BRANCH   2   3
ATOM      3  O   UNL     1       1.552  -9.175   3.644  1.00  0.00    -0.462 OA
BRANCH   3   4
ATOM      4  C   UNL     1       2.738  -8.804   3.105  1.00  0.00     0.329 C 
ATOM      5  O   UNL     1       3.804  -9.387   3.260  1.00  0.00    -0.250 OA
BRANCH   4   6
ATOM      6  C   UNL     1       2.572  -7.575   2.240  1.00  0.00     0.196 C 
BRANCH   6   7
ATOM      7  N   UNL     1       2.309  -7.623   0.762  1.00  0.00    -0.342 N 
ATOM      8  C   UNL     1       3.058  -7.422  -0.377  1.00  0.00     0.220 C 
ATOM      9  O   UNL     1       2.434  -7.505  -1.444  1.00  0.00    -0.275 OA
ATOM     10  H   UNL     1       1.373  -7.853   0.557  1.00  0.00     0.164 HD
BRANCH   8  11
ATOM     11  C   UNL     1       4.588  -7.118  -0.434  1.00  0.00     0.101 C 
BRANCH  11  12
ATOM     12  C   UNL     1       5.116  -5.616  -0.660  1.00  0.00     0.026 C 
BRANCH  12  13
ATOM     13  C   UNL     1       5.436  -4.755   0.633  1.00  0.00     0.107 C 
ATOM     14  C   UNL     1       0.688   0.582  -0.101  1.00  0.00     0.048 C 
ATOM     15  C   UNL     1       0.568  -0.867  -0.370  1.00  0.00    -0.005 A 
ATOM     16  C   UNL     1      -0.541  -1.542  -0.840  1.00  0.00     0.199 A 
ATOM     17  C   UNL     1       1.564  -1.859  -0.144  1.00  0.00     0.024 A 
ATOM     18  O   UNL     1      -0.335  -2.882  -0.824  1.00  0.00    -0.464 OA
ATOM     19  C   UNL     1       0.923  -3.078  -0.351  1.00  0.00     0.137 A 
ATOM     20  C   UNL     1       2.919  -1.850   0.263  1.00  0.00     0.020 A 
ATOM     21  C   UNL     1       1.475  -4.304  -0.034  1.00  0.00     0.095 A 
ATOM     22  C   UNL     1       3.545  -3.069   0.501  1.00  0.00    -0.001 A 
ATOM     23  C   UNL     1       2.760  -4.210   0.493  1.00  0.00     0.138 A 
ATOM     24  C   UNL     1       4.988  -3.260   0.907  1.00  0.00     0.034 C 
ATOM     25  O   UNL     1       3.266  -5.284   1.253  1.00  0.00    -0.426 OA
ATOM     26  C   UNL     1       5.060  -2.919   2.436  1.00  0.00     0.014 C 
ATOM     27  C   UNL     1       4.610  -5.390   1.647  1.00  0.00     0.314 C 
ATOM     28  O   UNL     1       5.032  -5.931   2.658  1.00  0.00    -0.251 OA
ENDBRANCH  12  13
ENDBRANCH  11  12
ENDBRANCH   8  11
ENDBRANCH   6   7
BRANCH   6  29
ATOM     29  C   UNL     1       1.900  -6.495   3.155  1.00  0.00     0.074 C 
BRANCH  29  30
ATOM     30  C   UNL     1       0.469  -6.052   3.040  1.00  0.00    -0.020 A 
ATOM     31  C   UNL     1       0.044  -4.877   3.651  1.00  0.00     0.087 A 
ATOM     32  C   UNL     1      -0.694  -6.614   2.420  1.00  0.00     0.003 A 
ATOM     33  N   UNL     1      -1.306  -4.765   3.516  1.00  0.00    -0.361 N 
ATOM     34  C   UNL     1      -1.784  -5.806   2.765  1.00  0.00     0.046 A 
ATOM     35  C   UNL     1      -0.963  -7.737   1.616  1.00  0.00     0.010 A 
ATOM     36  H   UNL     1      -1.855  -4.043   3.900  1.00  0.00     0.166 HD
ATOM     37  C   UNL     1      -3.103  -6.083   2.385  1.00  0.00     0.026 A 
ATOM     38  C   UNL     1      -2.253  -7.946   1.111  1.00  0.00     0.001 A 
ATOM     39  C   UNL     1      -3.316  -7.159   1.528  1.00  0.00     0.002 A 
ENDBRANCH  29  30
ENDBRANCH   6  29
ENDBRANCH   4   6
ENDBRANCH   3   4
ENDBRANCH   2   3
ENDBRANCH   1   2
BRANCH   1  40
ATOM     40  O   UNL     1       2.408 -11.804   2.435  1.00  0.00    -0.374 OA
BRANCH  40  41
ATOM     41  C   UNL     1       2.152 -11.149   1.184  1.00  0.00     0.202 C 
BRANCH  41  42
ATOM     42  C   UNL     1       0.918 -11.563   0.360  1.00  0.00     0.261 C 
BRANCH  42  43
ATOM     43  O   UNL     1      -0.307 -11.241   1.048  1.00  0.00    -0.460 OA
BRANCH  43  44
ATOM     44  C   UNL     1      -1.115 -12.295   1.351  1.00  0.00     0.338 C 
ATOM     45  O   UNL     1      -1.151 -13.377   0.783  1.00  0.00    -0.246 OA
BRANCH  44  46
ATOM     46  C   UNL     1      -1.661 -12.055   2.711  1.00  0.00     0.060 A 
ATOM     47  C   UNL     1      -2.126 -10.796   3.079  1.00  0.00     0.016 A 
ATOM     48  C   UNL     1      -1.379 -13.010   3.700  1.00  0.00     0.016 A 
ATOM     49  C   UNL     1      -2.201 -10.449   4.421  1.00  0.00     0.010 A 
ATOM     50  C   UNL     1      -1.477 -12.673   5.054  1.00  0.00     0.010 A 
ATOM     51  C   UNL     1      -1.867 -11.383   5.422  1.00  0.00    -0.014 A 
BRANCH  51  52
ATOM     52  C   UNL     1      -2.279 -11.055   6.799  1.00  0.00     0.031 A 
ATOM     53  C   UNL     1      -3.740 -10.747   6.838  1.00  0.00     0.074 A 
ATOM     54  C   UNL     1      -1.559 -11.146   7.942  1.00  0.00     0.049 A 
ATOM     55  N   UNL     1      -4.303  -9.641   7.193  1.00  0.00    -0.248 NA
ATOM     56  C   UNL     1      -4.665 -11.719   6.221  1.00  0.00     0.031 C 
ATOM     57  C   UNL     1      -0.199 -11.664   8.096  1.00  0.00     0.029 A 
ATOM     58  N   UNL     1      -1.927 -10.886   9.243  1.00  0.00    -0.354 N 
ATOM     59  C   UNL     1      -5.671  -9.856   7.040  1.00  0.00     0.074 A 
ATOM     60  C   UNL     1      -5.822 -11.060   6.273  1.00  0.00     0.031 C 
ATOM     61  C   UNL     1       0.046 -11.908   9.405  1.00  0.00     0.029 A 
ATOM     62  C   UNL     1      -1.085 -11.457  10.200  1.00  0.00     0.049 A 
ATOM     63  H   UNL     1      -2.715 -10.344   9.479  1.00  0.00     0.167 HD
ATOM     64  C   UNL     1      -6.557  -9.208   7.840  1.00  0.00     0.037 A 
ATOM     65  C   UNL     1      -1.312 -11.593  11.536  1.00  0.00     0.037 A 
ATOM     66  C   UNL     1      -5.957  -8.043   8.431  1.00  0.00     0.049 A 
ATOM     67  C   UNL     1      -2.333 -10.600  11.927  1.00  0.00     0.074 A 
ATOM     68  C   UNL     1      -5.562  -6.788   8.025  1.00  0.00     0.029 A 
ATOM     69  N   UNL     1      -5.335  -8.306   9.617  1.00  0.00    -0.354 N 
ATOM     70  N   UNL     1      -2.113  -9.319  11.988  1.00  0.00    -0.248 NA
ATOM     71  C   UNL     1      -3.732 -11.005  12.004  1.00  0.00     0.031 C 
ATOM     72  C   UNL     1      -4.561  -6.369   8.951  1.00  0.00     0.029 A 
ATOM     73  C   UNL     1      -4.399  -7.361   9.915  1.00  0.00     0.049 A 
ATOM     74  H   UNL     1      -5.538  -9.082  10.188  1.00  0.00     0.167 HD
ATOM     75  C   UNL     1      -3.325  -8.760  11.649  1.00  0.00     0.074 A 
ATOM     76  C   UNL     1      -4.312  -9.811  11.867  1.00  0.00     0.031 C 
ATOM     77  C   UNL     1      -3.369  -7.630  10.890  1.00  0.00     0.037 A 
BRANCH  64  78
ATOM     78  C   UNL     1      -7.698  -9.924   8.542  1.00  0.00     0.057 A 
ATOM     79  C   UNL     1      -8.579  -9.171   9.341  1.00  0.00     0.134 A 
ATOM     80  C   UNL     1      -7.756 -11.320   8.749  1.00  0.00     0.134 A 
ATOM     81  F   UNL     1      -8.598  -7.832   9.269  1.00  0.00    -0.206 F 
ATOM     82  C   UNL     1      -9.403  -9.758  10.312  1.00  0.00     0.040 A 
ATOM     83  C   UNL     1      -8.610 -11.918   9.679  1.00  0.00     0.040 A 
ATOM     84  F   UNL     1      -6.918 -12.175   8.154  1.00  0.00    -0.206 F 
ATOM     85  C   UNL     1      -9.417 -11.136  10.486  1.00  0.00     0.006 A 
ENDBRANCH  64  78
BRANCH  65  86
ATOM     86  C   UNL     1      -0.875 -12.630  12.511  1.00  0.00     0.057 A 
ATOM     87  C   UNL     1      -1.049 -12.447  13.898  1.00  0.00     0.134 A 
ATOM     88  C   UNL     1      -0.577 -13.941  12.108  1.00  0.00     0.134 A 
ATOM     89  F   UNL     1      -1.357 -11.240  14.396  1.00  0.00    -0.206 F 
ATOM     90  C   UNL     1      -0.994 -13.508  14.813  1.00  0.00     0.040 A 
ATOM     91  C   UNL     1      -0.511 -15.009  13.014  1.00  0.00     0.040 A 
ATOM     92  F   UNL     1      -0.434 -14.249  10.812  1.00  0.00    -0.206 F 
ATOM     93  C   UNL     1      -0.744 -14.800  14.368  1.00  0.00     0.006 A 
ENDBRANCH  65  86
BRANCH  77  94
ATOM     94  C   UNL     1      -2.196  -6.709  10.938  1.00  0.00     0.057 A 
ATOM     95  C   UNL     1      -0.921  -7.008  10.442  1.00  0.00     0.134 A 
ATOM     96  C   UNL     1      -2.415  -5.410  11.414  1.00  0.00     0.134 A 
ATOM     97  F   UNL     1      -0.643  -8.206   9.909  1.00  0.00    -0.206 F 
ATOM     98  C   UNL     1       0.098  -6.051  10.440  1.00  0.00     0.040 A 
ATOM     99  C   UNL     1      -1.418  -4.438  11.384  1.00  0.00     0.040 A 
ATOM    100  F   UNL     1      -3.625  -5.055  11.875  1.00  0.00    -0.206 F 
ATOM    101  C   UNL     1      -0.153  -4.759  10.900  1.00  0.00     0.006 A 
ENDBRANCH  77  94
ENDBRANCH  51  52
ENDBRANCH  44  46
ENDBRANCH  43  44
ENDBRANCH  42  43
ENDBRANCH  41  42
ENDBRANCH  40  41
ENDBRANCH   1  40
TORSDOF 20
