REMARK SMILES C[C@H]1CCC[C@@H](S[C@H](F)C(=O)OCCOCCOC(=O)c2ccc(-c3c4nc(c(-c5c(F)cccc5F)c5ccc([nH]5)c(-c5c(F)cccc5F)c5nc(c(-c6c(F)cccc6F)c6ccc3[nH]6)C=C5)C=C4)cc2)C1
REMARK SMILES IDX 15 1 14 2 13 3 12 4 10 5 11 6 8 7 9 8 7 9 6 10 1 11 2 12
REMARK SMILES IDX 3 13 75 14 4 15 5 16 16 17 17 18 18 19 19 20 20 21 21 22
REMARK SMILES IDX 22 23 74 24 23 25 73 26 24 27 25 28 26 29 67 30 27 31 72 32
REMARK SMILES IDX 66 33 68 34 28 35 71 36 65 37 64 38 29 40 55 41 38 42 54 43
REMARK SMILES IDX 39 44 42 45 53 46 69 47 40 48 41 49 52 51 70 52 43 53 30 54
REMARK SMILES IDX 31 55 36 56 32 57 33 58 35 59 37 60 34 61 56 62 57 63 62 64
REMARK SMILES IDX 58 65 59 66 61 67 63 68 60 69 44 70 45 71 50 72 46 73 47 74
REMARK SMILES IDX 49 75 51 76 48 77
REMARK H PARENT 68 39 42 50
REMARK Flexibility Score: inf
ROOT
ATOM      1  O   UNL     1       0.870  -6.060  -2.211  1.00  0.00    -0.374 OA
ENDROOT
BRANCH   1   2
ATOM      2  C   UNL     1       1.989  -5.191  -2.383  1.00  0.00     0.202 C 
BRANCH   2   3
ATOM      3  C   UNL     1       1.762  -3.975  -3.280  1.00  0.00     0.261 C 
BRANCH   3   4
ATOM      4  O   UNL     1       0.723  -3.139  -2.750  1.00  0.00    -0.460 OA
BRANCH   4   5
ATOM      5  C   UNL     1      -0.398  -3.044  -3.522  1.00  0.00     0.351 C 
ATOM      6  O   UNL     1      -0.472  -3.483  -4.665  1.00  0.00    -0.248 OA
BRANCH   5   7
ATOM      7  C   UNL     1      -1.564  -2.419  -2.753  1.00  0.00     0.334 C 
ATOM      8  F   UNL     1      -1.233  -2.132  -1.455  1.00  0.00    -0.223 F 
BRANCH   7   9
ATOM      9  S   UNL     1      -2.123  -0.873  -3.535  1.00  0.00    -0.110 SA
BRANCH   9  10
ATOM     10  C   UNL     1      -3.469  -1.455  -4.644  1.00  0.00     0.050 C 
ATOM     11  C   UNL     1      -3.719  -4.125  -7.443  1.00  0.00     0.007 C 
ATOM     12  C   UNL     1      -4.166  -2.956  -6.565  1.00  0.00    -0.013 C 
ATOM     13  C   UNL     1      -5.459  -3.297  -5.814  1.00  0.00     0.003 C 
ATOM     14  C   UNL     1      -3.054  -2.593  -5.576  1.00  0.00     0.018 C 
ATOM     15  C   UNL     1      -5.868  -2.187  -4.845  1.00  0.00     0.001 C 
ATOM     16  C   UNL     1      -4.742  -1.822  -3.873  1.00  0.00     0.014 C 
ENDBRANCH   9  10
ENDBRANCH   7   9
ENDBRANCH   5   7
ENDBRANCH   4   5
ENDBRANCH   3   4
ENDBRANCH   2   3
ENDBRANCH   1   2
BRANCH   1  17
ATOM     17  C   UNL     1      -0.144  -5.670  -1.282  1.00  0.00     0.202 C 
BRANCH  17  18
ATOM     18  C   UNL     1       0.216  -5.740   0.207  1.00  0.00     0.261 C 
BRANCH  18  19
ATOM     19  O   UNL     1       1.135  -4.698   0.583  1.00  0.00    -0.460 OA
BRANCH  19  20
ATOM     20  C   UNL     1       2.338  -5.128   1.028  1.00  0.00     0.338 C 
ATOM     21  O   UNL     1       2.691  -6.285   1.213  1.00  0.00    -0.246 OA
BRANCH  20  22
ATOM     22  C   UNL     1       3.283  -3.999   1.088  1.00  0.00     0.060 A 
ATOM     23  C   UNL     1       4.488  -4.125   0.385  1.00  0.00     0.016 A 
ATOM     24  C   UNL     1       3.035  -2.876   1.879  1.00  0.00     0.016 A 
ATOM     25  C   UNL     1       5.473  -3.148   0.508  1.00  0.00     0.010 A 
ATOM     26  C   UNL     1       4.031  -1.903   2.013  1.00  0.00     0.010 A 
ATOM     27  C   UNL     1       5.266  -2.053   1.356  1.00  0.00    -0.014 A 
BRANCH  27  28
ATOM     28  C   UNL     1       6.399  -1.152   1.670  1.00  0.00     0.031 A 
ATOM     29  C   UNL     1       7.179  -1.377   2.935  1.00  0.00     0.074 A 
ATOM     30  C   UNL     1       6.751  -0.169   0.824  1.00  0.00     0.049 A 
ATOM     31  N   UNL     1       8.190  -0.702   3.418  1.00  0.00    -0.248 NA
ATOM     32  C   UNL     1       6.762  -2.517   3.767  1.00  0.00     0.031 C 
ATOM     33  C   UNL     1       6.097   0.124  -0.450  1.00  0.00     0.029 A 
ATOM     34  N   UNL     1       7.747   0.770   0.917  1.00  0.00    -0.354 N 
ATOM     35  C   UNL     1       8.528  -1.331   4.610  1.00  0.00     0.074 A 
ATOM     36  C   UNL     1       7.598  -2.425   4.791  1.00  0.00     0.031 C 
ATOM     37  C   UNL     1       6.704   1.181  -1.017  1.00  0.00     0.029 A 
ATOM     38  C   UNL     1       7.768   1.654  -0.133  1.00  0.00     0.049 A 
ATOM     39  H   UNL     1       8.385   0.807   1.666  1.00  0.00     0.167 HD
ATOM     40  C   UNL     1       9.529  -1.030   5.471  1.00  0.00     0.037 A 
ATOM     41  C   UNL     1       8.547   2.732  -0.344  1.00  0.00     0.037 A 
ATOM     42  C   UNL     1      10.453   0.058   5.291  1.00  0.00     0.049 A 
ATOM     43  C   UNL     1       9.608   3.088   0.662  1.00  0.00     0.074 A 
ATOM     44  C   UNL     1      11.512   0.433   6.099  1.00  0.00     0.029 A 
ATOM     45  N   UNL     1      10.422   0.950   4.230  1.00  0.00    -0.354 N 
ATOM     46  N   UNL     1       9.936   2.472   1.773  1.00  0.00    -0.248 NA
ATOM     47  C   UNL     1      10.409   4.289   0.384  1.00  0.00     0.031 C 
ATOM     48  C   UNL     1      12.096   1.579   5.549  1.00  0.00     0.029 A 
ATOM     49  C   UNL     1      11.429   1.890   4.375  1.00  0.00     0.049 A 
ATOM     50  H   UNL     1       9.780   0.920   3.485  1.00  0.00     0.167 HD
ATOM     51  C   UNL     1      10.994   3.193   2.311  1.00  0.00     0.074 A 
ATOM     52  C   UNL     1      11.261   4.287   1.400  1.00  0.00     0.031 C 
ATOM     53  C   UNL     1      11.685   2.969   3.455  1.00  0.00     0.037 A 
BRANCH  40  54
ATOM     54  C   UNL     1       9.659  -1.880   6.699  1.00  0.00     0.057 A 
ATOM     55  C   UNL     1      10.149  -3.191   6.642  1.00  0.00     0.134 A 
ATOM     56  C   UNL     1       9.316  -1.372   7.958  1.00  0.00     0.134 A 
ATOM     57  F   UNL     1      10.481  -3.742   5.464  1.00  0.00    -0.206 F 
ATOM     58  C   UNL     1      10.274  -3.973   7.791  1.00  0.00     0.040 A 
ATOM     59  C   UNL     1       9.457  -2.136   9.117  1.00  0.00     0.040 A 
ATOM     60  F   UNL     1       8.843  -0.122   8.082  1.00  0.00    -0.206 F 
ATOM     61  C   UNL     1       9.933  -3.443   9.034  1.00  0.00     0.006 A 
ENDBRANCH  40  54
BRANCH  41  62
ATOM     62  C   UNL     1       8.346   3.566  -1.555  1.00  0.00     0.057 A 
ATOM     63  C   UNL     1       9.292   3.588  -2.586  1.00  0.00     0.134 A 
ATOM     64  C   UNL     1       7.213   4.375  -1.700  1.00  0.00     0.134 A 
ATOM     65  F   UNL     1      10.410   2.853  -2.492  1.00  0.00    -0.206 F 
ATOM     66  C   UNL     1       9.126   4.396  -3.712  1.00  0.00     0.040 A 
ATOM     67  C   UNL     1       7.023   5.170  -2.831  1.00  0.00     0.040 A 
ATOM     68  F   UNL     1       6.271   4.399  -0.746  1.00  0.00    -0.206 F 
ATOM     69  C   UNL     1       7.985   5.186  -3.839  1.00  0.00     0.006 A 
ENDBRANCH  41  62
BRANCH  53  70
ATOM     70  C   UNL     1      12.816   3.903   3.771  1.00  0.00     0.057 A 
ATOM     71  C   UNL     1      12.592   5.210   4.219  1.00  0.00     0.134 A 
ATOM     72  C   UNL     1      14.145   3.473   3.664  1.00  0.00     0.134 A 
ATOM     73  F   UNL     1      11.342   5.686   4.330  1.00  0.00    -0.206 F 
ATOM     74  C   UNL     1      13.651   6.064   4.532  1.00  0.00     0.040 A 
ATOM     75  C   UNL     1      15.211   4.310   3.997  1.00  0.00     0.040 A 
ATOM     76  F   UNL     1      14.428   2.229   3.249  1.00  0.00    -0.206 F 
ATOM     77  C   UNL     1      14.965   5.612   4.427  1.00  0.00     0.006 A 
ENDBRANCH  53  70
ENDBRANCH  27  28
ENDBRANCH  20  22
ENDBRANCH  19  20
ENDBRANCH  18  19
ENDBRANCH  17  18
ENDBRANCH   1  17
TORSDOF 16
