REMARK SMILES C[C@@H](CC(=O)OCCOCCOC(=O)c1ccc(-c2c3nc(c(-c4c(F)cccc4F)c4ccc([nH]4)c(-c4c(F)cccc4F)c4nc(c(-c5c(F)cccc5F)c5ccc2[nH]5)C=C4)C=C3)cc1)NC(=O)CCCN1C(=O)CN(C)C1=O
REMARK SMILES IDX 7 1 6 2 4 3 5 4 3 5 2 6 1 7 69 8 70 9 71 11 72 12 73 13
REMARK SMILES IDX 74 14 75 15 76 16 81 17 77 18 78 19 79 20 82 21 80 22 8 23
REMARK SMILES IDX 9 24 10 25 11 26 12 27 13 28 14 29 15 30 16 31 68 32 17 33
REMARK SMILES IDX 67 34 18 35 19 36 20 37 61 38 21 39 66 40 60 41 62 42 22 43
REMARK SMILES IDX 65 44 59 45 58 46 23 48 49 49 32 50 48 51 33 52 36 53 47 54
REMARK SMILES IDX 63 55 34 56 35 57 46 59 64 60 37 61 24 62 25 63 30 64 26 65
REMARK SMILES IDX 27 66 29 67 31 68 28 69 50 70 51 71 56 72 52 73 53 74 55 75
REMARK SMILES IDX 57 76 54 77 38 78 39 79 44 80 40 81 41 82 43 83 45 84 42 85
REMARK H PARENT 69 10 62 47 36 58
REMARK Flexibility Score: inf
ROOT
ATOM      1  C   UNL     1       0.586   3.376   3.122  1.00  0.00     0.261 C 
ENDROOT
BRANCH   1   2
ATOM      2  O   UNL     1       0.728   2.094   2.495  1.00  0.00    -0.463 OA
BRANCH   2   3
ATOM      3  C   UNL     1       1.124   1.071   3.279  1.00  0.00     0.307 C 
ATOM      4  O   UNL     1       1.546   1.184   4.424  1.00  0.00    -0.252 OA
BRANCH   3   5
ATOM      5  C   UNL     1       0.926  -0.280   2.637  1.00  0.00     0.147 C 
BRANCH   5   6
ATOM      6  C   UNL     1       0.531  -0.423   1.160  1.00  0.00     0.090 C 
ATOM      7  C   UNL     1       0.949   0.649   0.163  1.00  0.00     0.031 C 
BRANCH   6   8
ATOM      8  N   UNL     1      -0.865  -0.777   0.940  1.00  0.00    -0.353 N 
ATOM      9  C   UNL     1      -1.407  -2.007   0.705  1.00  0.00     0.220 C 
ATOM     10  H   UNL     1      -1.503  -0.028   0.964  1.00  0.00     0.163 HD
ATOM     11  O   UNL     1      -2.599  -2.074   0.402  1.00  0.00    -0.275 OA
BRANCH   9  12
ATOM     12  C   UNL     1      -0.552  -3.256   0.832  1.00  0.00     0.102 C 
BRANCH  12  13
ATOM     13  C   UNL     1       0.134  -3.693  -0.468  1.00  0.00     0.032 C 
BRANCH  13  14
ATOM     14  C   UNL     1       1.566  -3.190  -0.722  1.00  0.00     0.131 C 
BRANCH  14  15
ATOM     15  N   UNL     1       2.501  -3.289   0.393  1.00  0.00    -0.263 N 
ATOM     16  C   UNL     1       3.436  -2.333   0.696  1.00  0.00     0.250 C 
ATOM     17  C   UNL     1       2.652  -4.364   1.221  1.00  0.00     0.326 C 
ATOM     18  O   UNL     1       3.599  -1.263   0.124  1.00  0.00    -0.272 OA
ATOM     19  C   UNL     1       4.228  -2.773   1.912  1.00  0.00     0.221 C 
ATOM     20  N   UNL     1       3.636  -4.063   2.144  1.00  0.00    -0.318 N 
ATOM     21  O   UNL     1       2.023  -5.413   1.177  1.00  0.00    -0.248 OA
ATOM     22  C   UNL     1       4.079  -4.929   3.208  1.00  0.00     0.149 C 
ENDBRANCH  14  15
ENDBRANCH  13  14
ENDBRANCH  12  13
ENDBRANCH   9  12
ENDBRANCH   6   8
ENDBRANCH   5   6
ENDBRANCH   3   5
ENDBRANCH   2   3
ENDBRANCH   1   2
BRANCH   1  23
ATOM     23  C   UNL     1      -0.851   3.860   2.936  1.00  0.00     0.202 C 
BRANCH  23  24
ATOM     24  O   UNL     1      -1.842   3.119   3.648  1.00  0.00    -0.374 OA
BRANCH  24  25
ATOM     25  C   UNL     1      -2.240   1.849   3.125  1.00  0.00     0.202 C 
BRANCH  25  26
ATOM     26  C   UNL     1      -3.094   1.881   1.851  1.00  0.00     0.261 C 
BRANCH  26  27
ATOM     27  O   UNL     1      -2.304   2.239   0.694  1.00  0.00    -0.460 OA
BRANCH  27  28
ATOM     28  C   UNL     1      -2.735   3.342   0.038  1.00  0.00     0.338 C 
ATOM     29  O   UNL     1      -3.758   3.982   0.262  1.00  0.00    -0.246 OA
BRANCH  28  30
ATOM     30  C   UNL     1      -1.712   3.844  -0.897  1.00  0.00     0.060 A 
ATOM     31  C   UNL     1      -1.207   5.131  -0.665  1.00  0.00     0.016 A 
ATOM     32  C   UNL     1      -1.364   3.148  -2.054  1.00  0.00     0.016 A 
ATOM     33  C   UNL     1      -0.396   5.752  -1.615  1.00  0.00     0.010 A 
ATOM     34  C   UNL     1      -0.555   3.777  -3.012  1.00  0.00     0.010 A 
ATOM     35  C   UNL     1      -0.102   5.097  -2.817  1.00  0.00    -0.014 A 
BRANCH  35  36
ATOM     36  C   UNL     1       0.527   5.851  -3.933  1.00  0.00     0.031 A 
ATOM     37  C   UNL     1      -0.340   6.335  -5.066  1.00  0.00     0.074 A 
ATOM     38  C   UNL     1       1.842   6.133  -3.937  1.00  0.00     0.049 A 
ATOM     39  N   UNL     1       0.004   6.913  -6.189  1.00  0.00    -0.248 NA
ATOM     40  C   UNL     1      -1.790   6.143  -4.907  1.00  0.00     0.031 C 
ATOM     41  C   UNL     1       2.782   5.796  -2.871  1.00  0.00     0.029 A 
ATOM     42  N   UNL     1       2.615   6.761  -4.883  1.00  0.00    -0.354 N 
ATOM     43  C   UNL     1      -1.182   7.134  -6.879  1.00  0.00     0.074 A 
ATOM     44  C   UNL     1      -2.253   6.614  -6.056  1.00  0.00     0.031 C 
ATOM     45  C   UNL     1       4.012   6.201  -3.233  1.00  0.00     0.029 A 
ATOM     46  C   UNL     1       3.953   6.782  -4.573  1.00  0.00     0.049 A 
ATOM     47  H   UNL     1       2.246   7.157  -5.705  1.00  0.00     0.167 HD
ATOM     48  C   UNL     1      -1.364   7.719  -8.088  1.00  0.00     0.037 A 
ATOM     49  C   UNL     1       5.012   7.186  -5.303  1.00  0.00     0.037 A 
ATOM     50  C   UNL     1      -0.301   8.246  -8.903  1.00  0.00     0.049 A 
ATOM     51  C   UNL     1       4.798   7.741  -6.688  1.00  0.00     0.074 A 
ATOM     52  C   UNL     1      -0.390   8.866 -10.137  1.00  0.00     0.029 A 
ATOM     53  N   UNL     1       1.044   8.210  -8.569  1.00  0.00    -0.354 N 
ATOM     54  N   UNL     1       3.675   7.942  -7.334  1.00  0.00    -0.248 NA
ATOM     55  C   UNL     1       5.999   8.119  -7.448  1.00  0.00     0.031 C 
ATOM     56  C   UNL     1       0.906   9.154 -10.576  1.00  0.00     0.029 A 
ATOM     57  C   UNL     1       1.797   8.770  -9.588  1.00  0.00     0.049 A 
ATOM     58  H   UNL     1       1.409   7.841  -7.733  1.00  0.00     0.167 HD
ATOM     59  C   UNL     1       4.032   8.503  -8.555  1.00  0.00     0.074 A 
ATOM     60  C   UNL     1       5.474   8.612  -8.562  1.00  0.00     0.031 C 
ATOM     61  C   UNL     1       3.232   8.897  -9.576  1.00  0.00     0.037 A 
BRANCH  48  62
ATOM     62  C   UNL     1      -2.764   7.788  -8.624  1.00  0.00     0.057 A 
ATOM     63  C   UNL     1      -3.726   8.651  -8.085  1.00  0.00     0.134 A 
ATOM     64  C   UNL     1      -3.140   7.008  -9.725  1.00  0.00     0.134 A 
ATOM     65  F   UNL     1      -3.434   9.417  -7.023  1.00  0.00    -0.206 F 
ATOM     66  C   UNL     1      -5.019   8.719  -8.608  1.00  0.00     0.040 A 
ATOM     67  C   UNL     1      -4.421   7.088 -10.275  1.00  0.00     0.040 A 
ATOM     68  F   UNL     1      -2.264   6.167 -10.295  1.00  0.00    -0.206 F 
ATOM     69  C   UNL     1      -5.367   7.941  -9.711  1.00  0.00     0.006 A 
ENDBRANCH  48  62
BRANCH  49  70
ATOM     70  C   UNL     1       6.387   7.048  -4.756  1.00  0.00     0.057 A 
ATOM     71  C   UNL     1       7.161   8.170  -4.442  1.00  0.00     0.134 A 
ATOM     72  C   UNL     1       6.971   5.789  -4.565  1.00  0.00     0.134 A 
ATOM     73  F   UNL     1       6.669   9.403  -4.629  1.00  0.00    -0.206 F 
ATOM     74  C   UNL     1       8.471   8.048  -3.973  1.00  0.00     0.040 A 
ATOM     75  C   UNL     1       8.269   5.651  -4.070  1.00  0.00     0.040 A 
ATOM     76  F   UNL     1       6.284   4.673  -4.850  1.00  0.00    -0.206 F 
ATOM     77  C   UNL     1       9.026   6.784  -3.781  1.00  0.00     0.006 A 
ENDBRANCH  49  70
BRANCH  61  78
ATOM     78  C   UNL     1       3.880   9.540 -10.769  1.00  0.00     0.057 A 
ATOM     79  C   UNL     1       4.612   8.801 -11.706  1.00  0.00     0.134 A 
ATOM     80  C   UNL     1       3.698  10.906 -11.023  1.00  0.00     0.134 A 
ATOM     81  F   UNL     1       4.833   7.492 -11.518  1.00  0.00    -0.206 F 
ATOM     82  C   UNL     1       5.148   9.401 -12.848  1.00  0.00     0.040 A 
ATOM     83  C   UNL     1       4.206  11.511 -12.173  1.00  0.00     0.040 A 
ATOM     84  F   UNL     1       2.999  11.670 -10.170  1.00  0.00    -0.206 F 
ATOM     85  C   UNL     1       4.936  10.757 -13.089  1.00  0.00     0.006 A 
ENDBRANCH  61  78
ENDBRANCH  35  36
ENDBRANCH  28  30
ENDBRANCH  27  28
ENDBRANCH  26  27
ENDBRANCH  25  26
ENDBRANCH  24  25
ENDBRANCH  23  24
ENDBRANCH   1  23
TORSDOF 20
