REMARK SMILES CN(C)S(=O)(=O)c1c[nH]c(C(=O)OCCOCCOC(=O)c2ccc(-c3c4nc(c(-c5c(F)cccc5F)c5ccc([nH]5)c(-c5c(F)cccc5F)c5nc(c(-c6c(F)cccc6F)c6ccc3[nH]6)C=C5)C=C4)cc2)c1
REMARK SMILES IDX 16 1 15 2 14 3 13 4 11 5 12 6 10 7 7 8 8 9 76 10 9 11 4 13
REMARK SMILES IDX 5 14 6 15 2 16 1 17 3 18 17 19 18 20 19 21 20 22 21 23 22 24
REMARK SMILES IDX 23 25 75 26 24 27 74 28 25 29 26 30 27 31 68 32 28 33 73 34
REMARK SMILES IDX 67 35 69 36 29 37 72 38 66 39 65 40 30 42 56 43 39 44 55 45
REMARK SMILES IDX 40 46 43 47 54 48 70 49 41 50 42 51 53 53 71 54 44 55 31 56
REMARK SMILES IDX 32 57 37 58 33 59 34 60 36 61 38 62 35 63 57 64 58 65 63 66
REMARK SMILES IDX 59 67 60 68 62 69 64 70 61 71 45 72 46 73 51 74 47 75 48 76
REMARK SMILES IDX 50 77 52 78 49 79
REMARK H PARENT 9 12 69 41 43 52
REMARK Flexibility Score: inf
ROOT
ATOM      1  O   UNL     1       0.105  -5.389   8.848  1.00  0.00    -0.374 OA
ENDROOT
BRANCH   1   2
ATOM      2  C   UNL     1      -0.038  -6.580   8.073  1.00  0.00     0.202 C 
BRANCH   2   3
ATOM      3  C   UNL     1      -1.077  -6.564   6.947  1.00  0.00     0.261 C 
BRANCH   3   4
ATOM      4  O   UNL     1      -0.711  -5.670   5.885  1.00  0.00    -0.459 OA
BRANCH   4   5
ATOM      5  C   UNL     1      -1.388  -4.483   5.891  1.00  0.00     0.354 C 
ATOM      6  O   UNL     1      -2.300  -4.187   6.626  1.00  0.00    -0.244 OA
BRANCH   5   7
ATOM      7  C   UNL     1      -0.722  -3.538   5.020  1.00  0.00     0.126 A 
ATOM      8  C   UNL     1       0.337  -2.392   3.390  1.00  0.00     0.100 A 
ATOM      9  C   UNL     1      -0.058  -1.490   4.357  1.00  0.00     0.105 A 
ATOM     10  C   UNL     1       0.005  -3.693   3.854  1.00  0.00     0.057 A 
ATOM     11  N   UNL     1      -0.735  -2.190   5.315  1.00  0.00    -0.354 N 
ATOM     12  H   UNL     1      -1.169  -1.790   6.102  1.00  0.00     0.166 HD
BRANCH   8  13
ATOM     13  S   UNL     1       1.036  -2.006   1.858  1.00  0.00     0.244 S 
ATOM     14  O   UNL     1       0.545  -3.037   0.968  1.00  0.00    -0.207 OA
ATOM     15  O   UNL     1       2.445  -1.841   2.137  1.00  0.00    -0.207 OA
BRANCH  13  16
ATOM     16  N   UNL     1       0.397  -0.506   1.331  1.00  0.00    -0.204 NA
ATOM     17  C   UNL     1       1.020  -0.041   0.070  1.00  0.00     0.124 C 
ATOM     18  C   UNL     1      -1.080  -0.453   1.244  1.00  0.00     0.124 C 
ENDBRANCH  13  16
ENDBRANCH   8  13
ENDBRANCH   5   7
ENDBRANCH   4   5
ENDBRANCH   3   4
ENDBRANCH   2   3
ENDBRANCH   1   2
BRANCH   1  19
ATOM     19  C   UNL     1       0.805  -4.280   8.300  1.00  0.00     0.202 C 
BRANCH  19  20
ATOM     20  C   UNL     1       2.322  -4.330   8.154  1.00  0.00     0.261 C 
BRANCH  20  21
ATOM     21  O   UNL     1       2.826  -5.478   7.487  1.00  0.00    -0.460 OA
BRANCH  21  22
ATOM     22  C   UNL     1       3.137  -6.455   8.366  1.00  0.00     0.338 C 
ATOM     23  O   UNL     1       2.692  -6.610   9.492  1.00  0.00    -0.246 OA
BRANCH  22  24
ATOM     24  C   UNL     1       4.258  -7.246   7.874  1.00  0.00     0.060 A 
ATOM     25  C   UNL     1       4.450  -8.485   8.490  1.00  0.00     0.016 A 
ATOM     26  C   UNL     1       5.240  -6.638   7.081  1.00  0.00     0.016 A 
ATOM     27  C   UNL     1       5.692  -9.069   8.417  1.00  0.00     0.010 A 
ATOM     28  C   UNL     1       6.496  -7.208   7.034  1.00  0.00     0.010 A 
ATOM     29  C   UNL     1       6.713  -8.407   7.725  1.00  0.00    -0.014 A 
BRANCH  29  30
ATOM     30  C   UNL     1       7.968  -9.141   7.547  1.00  0.00     0.031 A 
ATOM     31  C   UNL     1       7.818 -10.089   6.326  1.00  0.00     0.074 A 
ATOM     32  C   UNL     1       8.935  -8.901   8.492  1.00  0.00     0.049 A 
ATOM     33  N   UNL     1       8.411 -11.210   6.066  1.00  0.00    -0.248 NA
ATOM     34  C   UNL     1       6.805  -9.787   5.264  1.00  0.00     0.031 C 
ATOM     35  C   UNL     1       8.850  -7.888   9.578  1.00  0.00     0.029 A 
ATOM     36  N   UNL     1      10.174  -9.448   8.756  1.00  0.00    -0.354 N 
ATOM     37  C   UNL     1       8.050 -11.598   4.754  1.00  0.00     0.074 A 
ATOM     38  C   UNL     1       6.964 -10.760   4.366  1.00  0.00     0.031 C 
ATOM     39  C   UNL     1       9.915  -7.966  10.412  1.00  0.00     0.029 A 
ATOM     40  C   UNL     1      10.814  -9.009   9.956  1.00  0.00     0.049 A 
ATOM     41  H   UNL     1      10.594 -10.102   8.152  1.00  0.00     0.167 HD
ATOM     42  C   UNL     1       8.791 -12.481   4.021  1.00  0.00     0.037 A 
ATOM     43  C   UNL     1      11.959  -9.496  10.544  1.00  0.00     0.037 A 
ATOM     44  C   UNL     1       9.854 -12.976   4.826  1.00  0.00     0.049 A 
ATOM     45  C   UNL     1      12.492 -10.429   9.548  1.00  0.00     0.074 A 
ATOM     46  C   UNL     1       9.852 -13.807   5.915  1.00  0.00     0.029 A 
ATOM     47  N   UNL     1      11.020 -12.251   4.797  1.00  0.00    -0.354 N 
ATOM     48  N   UNL     1      13.063 -10.074   8.437  1.00  0.00    -0.248 NA
ATOM     49  C   UNL     1      12.267 -11.864   9.751  1.00  0.00     0.031 C 
ATOM     50  C   UNL     1      10.754 -13.164   6.784  1.00  0.00     0.029 A 
ATOM     51  C   UNL     1      11.485 -12.195   6.083  1.00  0.00     0.049 A 
ATOM     52  H   UNL     1      11.441 -11.849   4.003  1.00  0.00     0.167 HD
ATOM     53  C   UNL     1      12.931 -11.211   7.682  1.00  0.00     0.074 A 
ATOM     54  C   UNL     1      12.778 -12.314   8.610  1.00  0.00     0.031 C 
ATOM     55  C   UNL     1      12.388 -11.131   6.440  1.00  0.00     0.037 A 
BRANCH  42  56
ATOM     56  C   UNL     1       8.869 -12.779   2.551  1.00  0.00     0.057 A 
ATOM     57  C   UNL     1       9.588 -13.932   2.151  1.00  0.00     0.134 A 
ATOM     58  C   UNL     1       8.645 -11.826   1.554  1.00  0.00     0.134 A 
ATOM     59  F   UNL     1       9.811 -14.941   3.010  1.00  0.00    -0.206 F 
ATOM     60  C   UNL     1      10.190 -14.047   0.898  1.00  0.00     0.040 A 
ATOM     61  C   UNL     1       9.202 -11.957   0.274  1.00  0.00     0.040 A 
ATOM     62  F   UNL     1       7.972 -10.695   1.805  1.00  0.00    -0.206 F 
ATOM     63  C   UNL     1      10.018 -13.041  -0.040  1.00  0.00     0.006 A 
ENDBRANCH  42  56
BRANCH  43  64
ATOM     64  C   UNL     1      12.743  -9.431  11.846  1.00  0.00     0.057 A 
ATOM     65  C   UNL     1      12.545  -8.539  12.900  1.00  0.00     0.134 A 
ATOM     66  C   UNL     1      13.753 -10.407  12.120  1.00  0.00     0.134 A 
ATOM     67  F   UNL     1      11.732  -7.484  12.768  1.00  0.00    -0.206 F 
ATOM     68  C   UNL     1      13.200  -8.684  14.149  1.00  0.00     0.040 A 
ATOM     69  C   UNL     1      14.361 -10.600  13.364  1.00  0.00     0.040 A 
ATOM     70  F   UNL     1      14.214 -11.240  11.178  1.00  0.00    -0.206 F 
ATOM     71  C   UNL     1      14.070  -9.743  14.400  1.00  0.00     0.006 A 
ENDBRANCH  43  64
BRANCH  55  72
ATOM     72  C   UNL     1      12.515  -9.780   5.758  1.00  0.00     0.057 A 
ATOM     73  C   UNL     1      13.782  -9.250   5.488  1.00  0.00     0.134 A 
ATOM     74  C   UNL     1      11.438  -8.939   5.434  1.00  0.00     0.134 A 
ATOM     75  F   UNL     1      14.880  -9.980   5.735  1.00  0.00    -0.206 F 
ATOM     76  C   UNL     1      13.964  -7.967   4.950  1.00  0.00     0.040 A 
ATOM     77  C   UNL     1      11.598  -7.651   4.899  1.00  0.00     0.040 A 
ATOM     78  F   UNL     1      10.183  -9.335   5.620  1.00  0.00    -0.206 F 
ATOM     79  C   UNL     1      12.871  -7.158   4.659  1.00  0.00     0.006 A 
ENDBRANCH  55  72
ENDBRANCH  29  30
ENDBRANCH  22  24
ENDBRANCH  21  22
ENDBRANCH  20  21
ENDBRANCH  19  20
ENDBRANCH   1  19
TORSDOF 16
