REMARK SMILES Cc1ccccc1-c1nc(CC(=O)OCCOCCOC(=O)c2ccc(-c3c4nc(c(-c5c(F)cccc5F)c5ccc([nH]5)c(-c5c(F)cccc5F)c5nc(c(-c6c(F)cccc6F)c6ccc3[nH]6)C=C5)C=C4)cc2)cs1
REMARK SMILES IDX 17 1 16 2 15 3 14 4 12 5 13 6 11 7 10 8 8 9 9 10 78 11 77 12
REMARK SMILES IDX 7 13 1 14 2 15 3 16 4 17 6 18 5 19 18 20 19 21 20 22 21 23
REMARK SMILES IDX 22 24 23 25 24 26 76 27 25 28 75 29 26 30 27 31 28 32 69 33
REMARK SMILES IDX 29 34 74 35 68 36 70 37 30 38 73 39 67 40 66 41 31 43 57 44
REMARK SMILES IDX 40 45 56 46 41 47 44 48 55 49 71 50 42 51 43 52 54 54 72 55
REMARK SMILES IDX 45 56 32 57 33 58 38 59 34 60 35 61 37 62 39 63 36 64 58 65
REMARK SMILES IDX 59 66 64 67 60 68 61 69 63 70 65 71 62 72 46 73 47 74 52 75
REMARK SMILES IDX 48 76 49 77 51 78 53 79 50 80
REMARK H PARENT 70 42 44 53
REMARK Flexibility Score: inf
ROOT
ATOM      1  O   UNL     1       1.576   6.981  -0.489  1.00  0.00    -0.374 OA
ENDROOT
BRANCH   1   2
ATOM      2  C   UNL     1       0.535   6.093  -0.847  1.00  0.00     0.202 C 
BRANCH   2   3
ATOM      3  C   UNL     1       0.882   5.517  -2.193  1.00  0.00     0.261 C 
BRANCH   3   4
ATOM      4  O   UNL     1       2.048   4.666  -2.182  1.00  0.00    -0.463 OA
BRANCH   4   5
ATOM      5  C   UNL     1       3.281   5.087  -1.745  1.00  0.00     0.311 C 
ATOM      6  O   UNL     1       3.753   6.201  -1.845  1.00  0.00    -0.252 OA
BRANCH   5   7
ATOM      7  C   UNL     1       3.985   3.937  -1.065  1.00  0.00     0.179 C 
BRANCH   7   8
ATOM      8  C   UNL     1       3.011   3.355  -0.102  1.00  0.00     0.063 A 
ATOM      9  C   UNL     1       1.248   2.086   0.310  1.00  0.00     0.123 A 
ATOM     10  N   UNL     1       2.159   2.385  -0.585  1.00  0.00    -0.240 NA
ATOM     11  S   UNL     1       1.323   2.994   1.766  1.00  0.00    -0.122 S 
ATOM     12  C   UNL     1       2.730   3.787   1.179  1.00  0.00     0.091 A 
BRANCH   9  13
ATOM     13  C   UNL     1       0.372   0.929   0.189  1.00  0.00     0.013 A 
ATOM     14  C   UNL     1       2.443  -0.581   0.088  1.00  0.00     0.045 C 
ATOM     15  C   UNL     1       0.951  -0.356   0.106  1.00  0.00    -0.041 A 
ATOM     16  C   UNL     1       0.114  -1.473   0.003  1.00  0.00     0.004 A 
ATOM     17  C   UNL     1      -1.272  -1.323  -0.026  1.00  0.00     0.000 A 
ATOM     18  C   UNL     1      -1.024   1.074   0.128  1.00  0.00     0.011 A 
ATOM     19  C   UNL     1      -1.841  -0.052   0.025  1.00  0.00     0.001 A 
ENDBRANCH   9  13
ENDBRANCH   7   8
ENDBRANCH   5   7
ENDBRANCH   4   5
ENDBRANCH   3   4
ENDBRANCH   2   3
ENDBRANCH   1   2
BRANCH   1  20
ATOM     20  C   UNL     1       1.542   7.489   0.829  1.00  0.00     0.202 C 
BRANCH  20  21
ATOM     21  C   UNL     1       0.267   8.284   1.135  1.00  0.00     0.261 C 
BRANCH  21  22
ATOM     22  O   UNL     1       0.211   9.485   0.333  1.00  0.00    -0.460 OA
BRANCH  22  23
ATOM     23  C   UNL     1      -0.514   9.401  -0.816  1.00  0.00     0.338 C 
ATOM     24  O   UNL     1      -1.692   9.066  -0.882  1.00  0.00    -0.246 OA
BRANCH  23  25
ATOM     25  C   UNL     1       0.389   9.492  -1.998  1.00  0.00     0.060 A 
ATOM     26  C   UNL     1      -0.072   9.109  -3.274  1.00  0.00     0.016 A 
ATOM     27  C   UNL     1       1.753   9.592  -1.756  1.00  0.00     0.016 A 
ATOM     28  C   UNL     1       0.835   8.651  -4.245  1.00  0.00     0.010 A 
ATOM     29  C   UNL     1       2.612   8.991  -2.646  1.00  0.00     0.010 A 
ATOM     30  C   UNL     1       2.173   8.510  -3.892  1.00  0.00    -0.014 A 
BRANCH  30  31
ATOM     31  C   UNL     1       3.234   7.879  -4.684  1.00  0.00     0.031 A 
ATOM     32  C   UNL     1       4.397   8.716  -5.059  1.00  0.00     0.074 A 
ATOM     33  C   UNL     1       3.334   6.535  -4.827  1.00  0.00     0.049 A 
ATOM     34  N   UNL     1       5.302   8.356  -5.901  1.00  0.00    -0.248 NA
ATOM     35  C   UNL     1       4.609  10.071  -4.559  1.00  0.00     0.031 C 
ATOM     36  C   UNL     1       4.560   5.752  -4.995  1.00  0.00     0.029 A 
ATOM     37  N   UNL     1       2.340   5.555  -4.816  1.00  0.00    -0.354 N 
ATOM     38  C   UNL     1       6.359   9.225  -5.769  1.00  0.00     0.074 A 
ATOM     39  C   UNL     1       5.816  10.348  -5.053  1.00  0.00     0.031 C 
ATOM     40  C   UNL     1       4.245   4.484  -5.307  1.00  0.00     0.029 A 
ATOM     41  C   UNL     1       2.811   4.428  -5.510  1.00  0.00     0.049 A 
ATOM     42  H   UNL     1       1.456   5.640  -4.391  1.00  0.00     0.167 HD
ATOM     43  C   UNL     1       7.597   8.801  -6.156  1.00  0.00     0.037 A 
ATOM     44  C   UNL     1       2.126   3.950  -6.584  1.00  0.00     0.037 A 
ATOM     45  C   UNL     1       7.522   7.450  -6.746  1.00  0.00     0.049 A 
ATOM     46  C   UNL     1       2.921   4.172  -7.841  1.00  0.00     0.074 A 
ATOM     47  C   UNL     1       7.875   6.180  -6.318  1.00  0.00     0.029 A 
ATOM     48  N   UNL     1       6.722   7.251  -7.861  1.00  0.00    -0.354 N 
ATOM     49  N   UNL     1       4.125   4.671  -7.825  1.00  0.00    -0.248 NA
ATOM     50  C   UNL     1       2.444   3.937  -9.199  1.00  0.00     0.031 C 
ATOM     51  C   UNL     1       7.270   5.228  -7.198  1.00  0.00     0.029 A 
ATOM     52  C   UNL     1       6.567   5.915  -8.173  1.00  0.00     0.049 A 
ATOM     53  H   UNL     1       6.309   7.983  -8.374  1.00  0.00     0.167 HD
ATOM     54  C   UNL     1       4.548   4.925  -9.086  1.00  0.00     0.074 A 
ATOM     55  C   UNL     1       3.463   4.438  -9.924  1.00  0.00     0.031 C 
ATOM     56  C   UNL     1       5.740   5.545  -9.320  1.00  0.00     0.037 A 
BRANCH  43  57
ATOM     57  C   UNL     1       8.916   9.483  -5.824  1.00  0.00     0.057 A 
ATOM     58  C   UNL     1      10.133   8.812  -6.065  1.00  0.00     0.134 A 
ATOM     59  C   UNL     1       9.090  10.758  -5.246  1.00  0.00     0.134 A 
ATOM     60  F   UNL     1      10.173   7.625  -6.684  1.00  0.00    -0.206 F 
ATOM     61  C   UNL     1      11.386   9.326  -5.697  1.00  0.00     0.040 A 
ATOM     62  C   UNL     1      10.334  11.277  -4.857  1.00  0.00     0.040 A 
ATOM     63  F   UNL     1       8.088  11.613  -5.055  1.00  0.00    -0.206 F 
ATOM     64  C   UNL     1      11.491  10.556  -5.072  1.00  0.00     0.006 A 
ENDBRANCH  43  57
BRANCH  44  65
ATOM     65  C   UNL     1       0.652   4.068  -6.383  1.00  0.00     0.057 A 
ATOM     66  C   UNL     1       0.055   3.199  -5.447  1.00  0.00     0.134 A 
ATOM     67  C   UNL     1      -0.026   5.262  -6.655  1.00  0.00     0.134 A 
ATOM     68  F   UNL     1       0.657   2.044  -5.121  1.00  0.00    -0.206 F 
ATOM     69  C   UNL     1      -1.091   3.555  -4.726  1.00  0.00     0.040 A 
ATOM     70  C   UNL     1      -1.162   5.638  -5.924  1.00  0.00     0.040 A 
ATOM     71  F   UNL     1       0.485   6.150  -7.520  1.00  0.00    -0.206 F 
ATOM     72  C   UNL     1      -1.677   4.800  -4.934  1.00  0.00     0.006 A 
ENDBRANCH  44  65
BRANCH  56  73
ATOM     73  C   UNL     1       6.203   5.855 -10.703  1.00  0.00     0.057 A 
ATOM     74  C   UNL     1       6.146   4.906 -11.729  1.00  0.00     0.134 A 
ATOM     75  C   UNL     1       6.801   7.087 -11.029  1.00  0.00     0.134 A 
ATOM     76  F   UNL     1       5.677   3.669 -11.502  1.00  0.00    -0.206 F 
ATOM     77  C   UNL     1       6.580   5.192 -13.024  1.00  0.00     0.040 A 
ATOM     78  C   UNL     1       7.300   7.360 -12.300  1.00  0.00     0.040 A 
ATOM     79  F   UNL     1       6.899   8.087 -10.142  1.00  0.00    -0.206 F 
ATOM     80  C   UNL     1       7.166   6.421 -13.311  1.00  0.00     0.006 A 
ENDBRANCH  56  73
ENDBRANCH  30  31
ENDBRANCH  23  25
ENDBRANCH  22  23
ENDBRANCH  21  22
ENDBRANCH  20  21
ENDBRANCH   1  20
TORSDOF 16
