REMARK SMILES Cc1c(I)cccc1[C@H]([NH3+])C(=O)OCCOCCOC(=O)c1ccc(-c2c3nc(c(-c4c(F)cccc4F)c4ccc([nH]4)c(-c4c(F)cccc4F)c4nc(c(-c5c(F)cccc5F)c5ccc2[nH]5)C=C4)C=C3)cc1
REMARK SMILES IDX 17 1 16 2 15 3 14 4 13 5 11 6 12 7 9 8 8 9 1 10 2 11 3 12
REMARK SMILES IDX 4 13 5 14 7 15 6 16 10 17 18 21 19 22 20 23 21 24 22 25
REMARK SMILES IDX 23 26 75 27 24 28 74 29 25 30 26 31 27 32 68 33 28 34 73 35
REMARK SMILES IDX 67 36 69 37 29 38 72 39 66 40 65 41 30 43 56 44 39 45 55 46
REMARK SMILES IDX 40 47 43 48 54 49 70 50 41 51 42 52 53 54 71 55 44 56 31 57
REMARK SMILES IDX 32 58 37 59 33 60 34 61 36 62 38 63 35 64 57 65 58 66 63 67
REMARK SMILES IDX 59 68 60 69 62 70 64 71 61 72 45 73 46 74 51 75 47 76 48 77
REMARK SMILES IDX 50 78 52 79 49 80
REMARK H PARENT 10 18 10 19 10 20 69 42 43 53
REMARK Flexibility Score: inf
ROOT
ATOM      1  C   UNL     1      -0.798   3.378   1.741  1.00  0.00     0.202 C 
ENDROOT
BRANCH   1   2
ATOM      2  O   UNL     1      -0.447   4.563   2.451  1.00  0.00    -0.374 OA
BRANCH   2   3
ATOM      3  C   UNL     1      -0.086   5.717   1.704  1.00  0.00     0.202 C 
BRANCH   3   4
ATOM      4  C   UNL     1       1.286   5.748   1.029  1.00  0.00     0.261 C 
BRANCH   4   5
ATOM      5  O   UNL     1       1.526   4.679   0.106  1.00  0.00    -0.459 OA
BRANCH   5   6
ATOM      6  C   UNL     1       2.282   3.646   0.589  1.00  0.00     0.369 C 
ATOM      7  O   UNL     1       2.627   3.526   1.761  1.00  0.00    -0.245 OA
BRANCH   6   8
ATOM      8  C   UNL     1       2.659   2.630  -0.503  1.00  0.00     0.323 C 
BRANCH   8   9
ATOM      9  C   UNL     1       3.819   3.009  -1.443  1.00  0.00     0.025 A 
ATOM     10  C   UNL     1       4.688   5.037  -0.128  1.00  0.00     0.046 C 
ATOM     11  C   UNL     1       4.663   4.153  -1.348  1.00  0.00    -0.028 A 
ATOM     12  C   UNL     1       5.532   4.440  -2.431  1.00  0.00     0.016 A 
ATOM     13  I   UNL     1       6.611   6.253  -2.617  1.00  0.00    -0.044 I 
ATOM     14  C   UNL     1       5.703   3.542  -3.487  1.00  0.00     0.015 A 
ATOM     15  C   UNL     1       4.083   2.087  -2.490  1.00  0.00     0.011 A 
ATOM     16  C   UNL     1       5.012   2.343  -3.492  1.00  0.00     0.002 A 
ENDBRANCH   8   9
BRANCH   8  17
ATOM     17  N   UNL     1       1.420   2.283  -1.260  1.00  0.00    -0.342 N 
ATOM     18  H   UNL     1       1.066   3.114  -1.733  1.00  0.00     0.345 HD
ATOM     19  H   UNL     1       0.713   1.932  -0.614  1.00  0.00     0.345 HD
ATOM     20  H   UNL     1       1.634   1.564  -1.952  1.00  0.00     0.345 HD
ENDBRANCH   8  17
ENDBRANCH   6   8
ENDBRANCH   5   6
ENDBRANCH   4   5
ENDBRANCH   3   4
ENDBRANCH   2   3
ENDBRANCH   1   2
BRANCH   1  21
ATOM     21  C   UNL     1      -2.107   3.373   0.944  1.00  0.00     0.261 C 
BRANCH  21  22
ATOM     22  O   UNL     1      -2.070   4.245  -0.198  1.00  0.00    -0.460 OA
BRANCH  22  23
ATOM     23  C   UNL     1      -2.878   5.330  -0.127  1.00  0.00     0.338 C 
ATOM     24  O   UNL     1      -3.638   5.634   0.779  1.00  0.00    -0.246 OA
BRANCH  23  25
ATOM     25  C   UNL     1      -2.573   6.229  -1.252  1.00  0.00     0.060 A 
ATOM     26  C   UNL     1      -2.731   5.800  -2.570  1.00  0.00     0.016 A 
ATOM     27  C   UNL     1      -2.169   7.542  -0.971  1.00  0.00     0.016 A 
ATOM     28  C   UNL     1      -2.502   6.699  -3.612  1.00  0.00     0.010 A 
ATOM     29  C   UNL     1      -1.937   8.437  -2.014  1.00  0.00     0.010 A 
ATOM     30  C   UNL     1      -2.120   8.026  -3.342  1.00  0.00    -0.014 A 
BRANCH  30  31
ATOM     31  C   UNL     1      -2.021   9.008  -4.447  1.00  0.00     0.031 A 
ATOM     32  C   UNL     1      -0.693   9.484  -4.951  1.00  0.00     0.074 A 
ATOM     33  C   UNL     1      -3.160   9.479  -4.990  1.00  0.00     0.049 A 
ATOM     34  N   UNL     1      -0.432  10.295  -5.945  1.00  0.00    -0.248 NA
ATOM     35  C   UNL     1       0.497   8.991  -4.244  1.00  0.00     0.031 C 
ATOM     36  C   UNL     1      -4.510   9.111  -4.560  1.00  0.00     0.029 A 
ATOM     37  N   UNL     1      -3.365  10.361  -6.019  1.00  0.00    -0.354 N 
ATOM     38  C   UNL     1       0.951  10.395  -6.001  1.00  0.00     0.074 A 
ATOM     39  C   UNL     1       1.472   9.603  -4.904  1.00  0.00     0.031 C 
ATOM     40  C   UNL     1      -5.404   9.740  -5.339  1.00  0.00     0.029 A 
ATOM     41  C   UNL     1      -4.692  10.580  -6.297  1.00  0.00     0.049 A 
ATOM     42  H   UNL     1      -2.632  10.796  -6.512  1.00  0.00     0.167 HD
ATOM     43  C   UNL     1       1.714  11.069  -6.896  1.00  0.00     0.037 A 
ATOM     44  C   UNL     1      -5.269  11.373  -7.219  1.00  0.00     0.037 A 
ATOM     45  C   UNL     1       1.186  11.881  -7.965  1.00  0.00     0.049 A 
ATOM     46  C   UNL     1      -4.397  12.168  -8.150  1.00  0.00     0.074 A 
ATOM     47  C   UNL     1       1.877  12.586  -8.936  1.00  0.00     0.029 A 
ATOM     48  N   UNL     1      -0.163  12.115  -8.191  1.00  0.00    -0.354 N 
ATOM     49  N   UNL     1      -3.090  12.195  -8.242  1.00  0.00    -0.248 NA
ATOM     50  C   UNL     1      -5.085  13.041  -9.112  1.00  0.00     0.031 C 
ATOM     51  C   UNL     1       0.950  13.293  -9.710  1.00  0.00     0.029 A 
ATOM     52  C   UNL     1      -0.323  12.977  -9.265  1.00  0.00     0.049 A 
ATOM     53  H   UNL     1      -0.899  11.726  -7.665  1.00  0.00     0.167 HD
ATOM     54  C   UNL     1      -2.800  13.058  -9.292  1.00  0.00     0.074 A 
ATOM     55  C   UNL     1      -4.069  13.521  -9.814  1.00  0.00     0.031 C 
ATOM     56  C   UNL     1      -1.591  13.430  -9.780  1.00  0.00     0.037 A 
BRANCH  43  57
ATOM     57  C   UNL     1       3.206  10.966  -6.746  1.00  0.00     0.057 A 
ATOM     58  C   UNL     1       3.970  12.080  -6.375  1.00  0.00     0.134 A 
ATOM     59  C   UNL     1       3.892   9.771  -6.999  1.00  0.00     0.134 A 
ATOM     60  F   UNL     1       3.381  13.260  -6.129  1.00  0.00    -0.206 F 
ATOM     61  C   UNL     1       5.359  12.007  -6.256  1.00  0.00     0.040 A 
ATOM     62  C   UNL     1       5.278   9.677  -6.855  1.00  0.00     0.040 A 
ATOM     63  F   UNL     1       3.222   8.664  -7.356  1.00  0.00    -0.206 F 
ATOM     64  C   UNL     1       6.016  10.800  -6.487  1.00  0.00     0.006 A 
ENDBRANCH  43  57
BRANCH  44  65
ATOM     65  C   UNL     1      -6.749  11.451  -7.318  1.00  0.00     0.057 A 
ATOM     66  C   UNL     1      -7.517  12.044  -6.309  1.00  0.00     0.134 A 
ATOM     67  C   UNL     1      -7.426  10.964  -8.442  1.00  0.00     0.134 A 
ATOM     68  F   UNL     1      -6.930  12.523  -5.203  1.00  0.00    -0.206 F 
ATOM     69  C   UNL     1      -8.904  12.153  -6.416  1.00  0.00     0.040 A 
ATOM     70  C   UNL     1      -8.809  11.093  -8.576  1.00  0.00     0.040 A 
ATOM     71  F   UNL     1      -6.743  10.399  -9.449  1.00  0.00    -0.206 F 
ATOM     72  C   UNL     1      -9.552  11.688  -7.558  1.00  0.00     0.006 A 
ENDBRANCH  44  65
BRANCH  56  73
ATOM     73  C   UNL     1      -1.587  14.349 -10.970  1.00  0.00     0.057 A 
ATOM     74  C   UNL     1      -1.165  13.886 -12.223  1.00  0.00     0.134 A 
ATOM     75  C   UNL     1      -1.980  15.690 -10.879  1.00  0.00     0.134 A 
ATOM     76  F   UNL     1      -0.768  12.614 -12.382  1.00  0.00    -0.206 F 
ATOM     77  C   UNL     1      -1.132  14.722 -13.340  1.00  0.00     0.040 A 
ATOM     78  C   UNL     1      -1.982  16.529 -11.996  1.00  0.00     0.040 A 
ATOM     79  F   UNL     1      -2.411  16.195  -9.713  1.00  0.00    -0.206 F 
ATOM     80  C   UNL     1      -1.551  16.046 -13.229  1.00  0.00     0.006 A 
ENDBRANCH  56  73
ENDBRANCH  30  31
ENDBRANCH  23  25
ENDBRANCH  22  23
ENDBRANCH  21  22
ENDBRANCH   1  21
TORSDOF 16
