REMARK SMILES CCCC[N@H+](CC)[C@H]1CCC[C@]([NH3+])(C(=O)OCCOCCOC(=O)c2ccc(-c3c4nc(c(-c5c(F)cccc5F)c5ccc([nH]5)c(-c5c(F)cccc5F)c5nc(c(-c6c(F)cccc6F)c6ccc3[nH]6)C=C5)C=C4)cc2)C1
REMARK SMILES IDX 18 1 17 2 16 3 14 4 15 5 12 6 8 7 9 8 79 9 10 10 11 11 5 12
REMARK SMILES IDX 4 14 3 15 2 16 1 17 6 18 7 19 13 20 19 24 20 25 21 26 22 27
REMARK SMILES IDX 23 28 24 29 25 30 26 31 78 32 27 33 77 34 28 35 29 36 30 37
REMARK SMILES IDX 71 38 31 39 76 40 70 41 72 42 32 43 75 44 69 45 68 46 33 48
REMARK SMILES IDX 59 49 42 50 58 51 43 52 46 53 57 54 73 55 44 56 45 57 56 59
REMARK SMILES IDX 74 60 47 61 34 62 35 63 40 64 36 65 37 66 39 67 41 68 38 69
REMARK SMILES IDX 60 70 61 71 66 72 62 73 63 74 65 75 67 76 64 77 48 78 49 79
REMARK SMILES IDX 54 80 50 81 51 82 53 83 55 84 52 85
REMARK H PARENT 5 13 13 21 13 22 13 23 72 47 46 58
REMARK Flexibility Score: inf
ROOT
ATOM      1  C   UNL     1      -1.905  -0.893  -7.632  1.00  0.00     0.202 C 
ENDROOT
BRANCH   1   2
ATOM      2  C   UNL     1      -3.322  -1.006  -7.067  1.00  0.00     0.261 C 
BRANCH   2   3
ATOM      3  O   UNL     1      -3.371  -0.695  -5.658  1.00  0.00    -0.459 OA
BRANCH   3   4
ATOM      4  C   UNL     1      -3.734  -1.726  -4.850  1.00  0.00     0.368 C 
ATOM      5  O   UNL     1      -4.013  -2.851  -5.256  1.00  0.00    -0.245 OA
BRANCH   4   6
ATOM      6  C   UNL     1      -3.894  -1.326  -3.352  1.00  0.00     0.198 C 
ATOM      7  C   UNL     1      -1.719  -0.017  -2.680  1.00  0.00     0.190 C 
ATOM      8  C   UNL     1      -1.196  -1.313  -2.026  1.00  0.00     0.065 C 
ATOM      9  C   UNL     1      -3.257   0.003  -2.892  1.00  0.00     0.145 C 
ATOM     10  C   UNL     1      -1.860  -2.590  -2.516  1.00  0.00     0.013 C 
ATOM     11  C   UNL     1      -3.378  -2.484  -2.478  1.00  0.00     0.081 C 
BRANCH   7  12
ATOM     12  N   UNL     1      -1.188   1.175  -1.982  1.00  0.00    -0.333 N 
ATOM     13  H   UNL     1      -1.616   1.909  -2.546  1.00  0.00     0.348 HD
BRANCH  12  14
ATOM     14  C   UNL     1       0.228   1.476  -2.196  1.00  0.00     0.262 C 
BRANCH  14  15
ATOM     15  C   UNL     1       1.045   2.312  -1.187  1.00  0.00     0.061 C 
BRANCH  15  16
ATOM     16  C   UNL     1       1.242   1.753   0.226  1.00  0.00     0.002 C 
ATOM     17  C   UNL     1       1.728   0.314   0.283  1.00  0.00     0.004 C 
ENDBRANCH  15  16
ENDBRANCH  14  15
ENDBRANCH  12  14
BRANCH  12  18
ATOM     18  C   UNL     1      -1.912   1.770  -0.869  1.00  0.00     0.258 C 
ATOM     19  C   UNL     1      -2.158   0.852   0.326  1.00  0.00     0.071 C 
ENDBRANCH  12  18
ENDBRANCH   7  12
BRANCH   6  20
ATOM     20  N   UNL     1      -5.365  -1.215  -3.116  1.00  0.00    -0.343 N 
ATOM     21  H   UNL     1      -5.535  -0.953  -2.145  1.00  0.00     0.345 HD
ATOM     22  H   UNL     1      -5.809  -2.112  -3.308  1.00  0.00     0.345 HD
ATOM     23  H   UNL     1      -5.756  -0.503  -3.733  1.00  0.00     0.345 HD
ENDBRANCH   6  20
ENDBRANCH   4   6
ENDBRANCH   3   4
ENDBRANCH   2   3
ENDBRANCH   1   2
BRANCH   1  24
ATOM     24  O   UNL     1      -0.977  -1.896  -7.220  1.00  0.00    -0.374 OA
BRANCH  24  25
ATOM     25  C   UNL     1      -0.433  -1.764  -5.909  1.00  0.00     0.202 C 
BRANCH  25  26
ATOM     26  C   UNL     1       0.737  -0.787  -5.759  1.00  0.00     0.261 C 
BRANCH  26  27
ATOM     27  O   UNL     1       0.314   0.568  -5.995  1.00  0.00    -0.460 OA
BRANCH  27  28
ATOM     28  C   UNL     1       0.792   1.115  -7.135  1.00  0.00     0.338 C 
ATOM     29  O   UNL     1       1.648   0.651  -7.877  1.00  0.00    -0.246 OA
BRANCH  28  30
ATOM     30  C   UNL     1      -0.007   2.298  -7.504  1.00  0.00     0.060 A 
ATOM     31  C   UNL     1      -0.469   2.364  -8.826  1.00  0.00     0.016 A 
ATOM     32  C   UNL     1      -0.250   3.345  -6.613  1.00  0.00     0.016 A 
ATOM     33  C   UNL     1      -1.103   3.512  -9.289  1.00  0.00     0.010 A 
ATOM     34  C   UNL     1      -0.878   4.504  -7.082  1.00  0.00     0.010 A 
ATOM     35  C   UNL     1      -1.257   4.609  -8.434  1.00  0.00    -0.014 A 
BRANCH  35  36
ATOM     36  C   UNL     1      -1.602   5.928  -9.014  1.00  0.00     0.031 A 
ATOM     37  C   UNL     1      -0.487   6.900  -9.289  1.00  0.00     0.074 A 
ATOM     38  C   UNL     1      -2.868   6.242  -9.338  1.00  0.00     0.049 A 
ATOM     39  N   UNL     1      -0.543   8.125  -9.745  1.00  0.00    -0.248 NA
ATOM     40  C   UNL     1       0.877   6.423  -9.009  1.00  0.00     0.031 C 
ATOM     41  C   UNL     1      -4.023   5.362  -9.178  1.00  0.00     0.029 A 
ATOM     42  N   UNL     1      -3.389   7.397  -9.864  1.00  0.00    -0.354 N 
ATOM     43  C   UNL     1       0.773   8.568  -9.791  1.00  0.00     0.074 A 
ATOM     44  C   UNL     1       1.602   7.492  -9.293  1.00  0.00     0.031 C 
ATOM     45  C   UNL     1      -5.125   6.018  -9.583  1.00  0.00     0.029 A 
ATOM     46  C   UNL     1      -4.754   7.371  -9.996  1.00  0.00     0.049 A 
ATOM     47  H   UNL     1      -2.836   8.169 -10.122  1.00  0.00     0.167 HD
ATOM     48  C   UNL     1       1.250   9.761 -10.217  1.00  0.00     0.037 A 
ATOM     49  C   UNL     1      -5.608   8.340 -10.379  1.00  0.00     0.037 A 
ATOM     50  C   UNL     1       0.422  10.827 -10.714  1.00  0.00     0.049 A 
ATOM     51  C   UNL     1      -5.066   9.688 -10.777  1.00  0.00     0.074 A 
ATOM     52  C   UNL     1       0.805  12.072 -11.180  1.00  0.00     0.029 A 
ATOM     53  N   UNL     1      -0.961  10.774 -10.802  1.00  0.00    -0.354 N 
ATOM     54  N   UNL     1      -3.821  10.098 -10.824  1.00  0.00    -0.248 NA
ATOM     55  C   UNL     1      -6.048  10.707 -11.176  1.00  0.00     0.031 C 
ATOM     56  C   UNL     1      -0.351  12.792 -11.500  1.00  0.00     0.029 A 
ATOM     57  C   UNL     1      -1.450  11.974 -11.290  1.00  0.00     0.049 A 
ATOM     58  H   UNL     1      -1.514   9.997 -10.555  1.00  0.00     0.167 HD
ATOM     59  C   UNL     1      -3.866  11.407 -11.288  1.00  0.00     0.074 A 
ATOM     60  C   UNL     1      -5.263  11.723 -11.509  1.00  0.00     0.031 C 
ATOM     61  C   UNL     1      -2.843  12.267 -11.516  1.00  0.00     0.037 A 
BRANCH  48  62
ATOM     62  C   UNL     1       2.731   9.983 -10.119  1.00  0.00     0.057 A 
ATOM     63  C   UNL     1       3.642   9.314 -10.947  1.00  0.00     0.134 A 
ATOM     64  C   UNL     1       3.253  10.881  -9.179  1.00  0.00     0.134 A 
ATOM     65  F   UNL     1       3.210   8.427 -11.857  1.00  0.00    -0.206 F 
ATOM     66  C   UNL     1       5.020   9.504 -10.821  1.00  0.00     0.040 A 
ATOM     67  C   UNL     1       4.626  11.101  -9.063  1.00  0.00     0.040 A 
ATOM     68  F   UNL     1       2.437  11.557  -8.357  1.00  0.00    -0.206 F 
ATOM     69  C   UNL     1       5.515  10.404  -9.880  1.00  0.00     0.006 A 
ENDBRANCH  48  62
BRANCH  49  70
ATOM     70  C   UNL     1      -7.067   8.072 -10.386  1.00  0.00     0.057 A 
ATOM     71  C   UNL     1      -7.783   7.970 -11.583  1.00  0.00     0.134 A 
ATOM     72  C   UNL     1      -7.779   7.902  -9.192  1.00  0.00     0.134 A 
ATOM     73  F   UNL     1      -7.161   8.146 -12.758  1.00  0.00    -0.206 F 
ATOM     74  C   UNL     1      -9.156   7.715 -11.594  1.00  0.00     0.040 A 
ATOM     75  C   UNL     1      -9.147   7.623  -9.188  1.00  0.00     0.040 A 
ATOM     76  F   UNL     1      -7.150   7.987  -8.010  1.00  0.00    -0.206 F 
ATOM     77  C   UNL     1      -9.840   7.534 -10.393  1.00  0.00     0.006 A 
ENDBRANCH  49  70
BRANCH  61  78
ATOM     78  C   UNL     1      -3.183  13.617 -12.079  1.00  0.00     0.057 A 
ATOM     79  C   UNL     1      -3.783  14.616 -11.303  1.00  0.00     0.134 A 
ATOM     80  C   UNL     1      -2.843  13.939 -13.399  1.00  0.00     0.134 A 
ATOM     81  F   UNL     1      -4.142  14.369 -10.034  1.00  0.00    -0.206 F 
ATOM     82  C   UNL     1      -4.046  15.884 -11.826  1.00  0.00     0.040 A 
ATOM     83  C   UNL     1      -3.078  15.210 -13.925  1.00  0.00     0.040 A 
ATOM     84  F   UNL     1      -2.257  13.030 -14.193  1.00  0.00    -0.206 F 
ATOM     85  C   UNL     1      -3.685  16.186 -13.138  1.00  0.00     0.006 A 
ENDBRANCH  61  78
ENDBRANCH  35  36
ENDBRANCH  28  30
ENDBRANCH  27  28
ENDBRANCH  26  27
ENDBRANCH  25  26
ENDBRANCH  24  25
ENDBRANCH   1  24
TORSDOF 20
