REMARK SMILES Cc1cccc2c1[C@H]1c3c(C)cccc3[C@H](CC(=O)OCCOCCOC(=O)c3ccc(-c4c5nc(c(-c6c(F)cccc6F)c6ccc([nH]6)c(-c6c(F)cccc6F)c6nc(c(-c7c(F)cccc7F)c7ccc4[nH]7)C=C6)C=C5)cc3)C[C@H]1CC2
REMARK SMILES IDX 24 1 23 2 22 3 21 4 20 5 18 6 19 7 17 8 16 9 1 10 2 11 3 12
REMARK SMILES IDX 7 13 4 14 6 15 8 16 5 17 86 18 9 19 84 20 85 21 10 22 15 23
REMARK SMILES IDX 83 24 12 25 11 26 14 27 13 28 25 29 26 30 27 31 28 32 29 33
REMARK SMILES IDX 30 34 82 35 31 36 81 37 32 38 33 39 34 40 75 41 35 42 80 43
REMARK SMILES IDX 74 44 76 45 36 46 79 47 73 48 72 49 37 51 63 52 46 53 62 54
REMARK SMILES IDX 47 55 50 56 61 57 77 58 48 59 49 60 60 62 78 63 51 64 38 65
REMARK SMILES IDX 39 66 44 67 40 68 41 69 43 70 45 71 42 72 64 73 65 74 70 75
REMARK SMILES IDX 66 76 67 77 69 78 71 79 68 80 52 81 53 82 58 83 54 84 55 85
REMARK SMILES IDX 57 86 59 87 56 88
REMARK H PARENT 76 50 50 61
REMARK Flexibility Score: inf
ROOT
ATOM      1  C   UNL     1      -7.915  -2.378   1.448  1.00  0.00     0.202 C 
ENDROOT
BRANCH   1   2
ATOM      2  O   UNL     1      -8.535  -3.098   2.514  1.00  0.00    -0.374 OA
BRANCH   2   3
ATOM      3  C   UNL     1      -7.975  -2.934   3.820  1.00  0.00     0.202 C 
BRANCH   3   4
ATOM      4  C   UNL     1      -6.716  -3.763   4.081  1.00  0.00     0.261 C 
BRANCH   4   5
ATOM      5  O   UNL     1      -5.629  -3.197   3.332  1.00  0.00    -0.463 OA
BRANCH   5   6
ATOM      6  C   UNL     1      -5.000  -3.999   2.437  1.00  0.00     0.306 C 
ATOM      7  O   UNL     1      -5.158  -5.208   2.345  1.00  0.00    -0.252 OA
BRANCH   6   8
ATOM      8  C   UNL     1      -4.169  -3.197   1.451  1.00  0.00     0.131 C 
BRANCH   8   9
ATOM      9  C   UNL     1      -3.713  -1.788   1.910  1.00  0.00     0.031 C 
ATOM     10  C   UNL     1       1.171   0.329  -0.456  1.00  0.00     0.044 C 
ATOM     11  C   UNL     1       0.655   1.387   0.487  1.00  0.00    -0.047 A 
ATOM     12  C   UNL     1       1.439   2.541   0.663  1.00  0.00     0.004 A 
ATOM     13  C   UNL     1      -0.596   1.286   1.149  1.00  0.00    -0.034 A 
ATOM     14  C   UNL     1       0.990   3.596   1.450  1.00  0.00     0.001 A 
ATOM     15  C   UNL     1      -1.101   2.423   1.823  1.00  0.00    -0.044 A 
ATOM     16  C   UNL     1      -1.409  -0.007   1.152  1.00  0.00     0.053 C 
ATOM     17  C   UNL     1      -0.286   3.552   1.997  1.00  0.00     0.004 A 
ATOM     18  C   UNL     1      -2.548   2.537   2.244  1.00  0.00     0.036 C 
ATOM     19  C   UNL     1      -1.278  -0.967   2.370  1.00  0.00    -0.034 A 
ATOM     20  C   UNL     1      -2.881   0.401   0.907  1.00  0.00     0.002 C 
ATOM     21  C   UNL     1      -3.401   1.286   2.050  1.00  0.00     0.009 C 
ATOM     22  C   UNL     1      -0.106  -1.113   3.173  1.00  0.00    -0.047 A 
ATOM     23  C   UNL     1      -2.386  -1.821   2.673  1.00  0.00    -0.040 A 
ATOM     24  C   UNL     1      -3.706  -0.860   0.688  1.00  0.00     0.013 C 
ATOM     25  C   UNL     1      -0.078  -2.050   4.229  1.00  0.00     0.004 A 
ATOM     26  C   UNL     1       1.171  -0.334   3.018  1.00  0.00     0.044 C 
ATOM     27  C   UNL     1      -2.320  -2.699   3.778  1.00  0.00     0.004 A 
ATOM     28  C   UNL     1      -1.174  -2.829   4.538  1.00  0.00     0.001 A 
ENDBRANCH   8   9
ENDBRANCH   6   8
ENDBRANCH   5   6
ENDBRANCH   4   5
ENDBRANCH   3   4
ENDBRANCH   2   3
ENDBRANCH   1   2
BRANCH   1  29
ATOM     29  C   UNL     1      -8.377  -0.929   1.279  1.00  0.00     0.261 C 
BRANCH  29  30
ATOM     30  O   UNL     1      -7.902  -0.102   2.357  1.00  0.00    -0.460 OA
BRANCH  30  31
ATOM     31  C   UNL     1      -8.863   0.310   3.212  1.00  0.00     0.338 C 
ATOM     32  O   UNL     1     -10.070   0.130   3.119  1.00  0.00    -0.246 OA
BRANCH  31  33
ATOM     33  C   UNL     1      -8.258   0.912   4.410  1.00  0.00     0.060 A 
ATOM     34  C   UNL     1      -8.622   0.374   5.651  1.00  0.00     0.016 A 
ATOM     35  C   UNL     1      -7.478   2.068   4.332  1.00  0.00     0.016 A 
ATOM     36  C   UNL     1      -8.274   1.035   6.824  1.00  0.00     0.010 A 
ATOM     37  C   UNL     1      -7.144   2.742   5.511  1.00  0.00     0.010 A 
ATOM     38  C   UNL     1      -7.591   2.256   6.753  1.00  0.00    -0.014 A 
BRANCH  38  39
ATOM     39  C   UNL     1      -7.585   3.135   7.945  1.00  0.00     0.031 A 
ATOM     40  C   UNL     1      -8.708   4.125   8.102  1.00  0.00     0.074 A 
ATOM     41  C   UNL     1      -6.643   3.023   8.895  1.00  0.00     0.049 A 
ATOM     42  N   UNL     1      -8.934   4.984   9.062  1.00  0.00    -0.248 NA
ATOM     43  C   UNL     1      -9.719   4.140   7.031  1.00  0.00     0.031 C 
ATOM     44  C   UNL     1      -5.545   2.060   8.890  1.00  0.00     0.029 A 
ATOM     45  N   UNL     1      -6.471   3.731  10.056  1.00  0.00    -0.354 N 
ATOM     46  C   UNL     1     -10.111   5.636   8.714  1.00  0.00     0.074 A 
ATOM     47  C   UNL     1     -10.536   5.096   7.441  1.00  0.00     0.031 C 
ATOM     48  C   UNL     1      -4.808   2.239  10.001  1.00  0.00     0.029 A 
ATOM     49  C   UNL     1      -5.369   3.344  10.776  1.00  0.00     0.049 A 
ATOM     50  H   UNL     1      -7.079   4.449  10.345  1.00  0.00     0.167 HD
ATOM     51  C   UNL     1     -10.784   6.593   9.396  1.00  0.00     0.037 A 
ATOM     52  C   UNL     1      -4.870   3.840  11.924  1.00  0.00     0.037 A 
ATOM     53  C   UNL     1     -10.352   7.146  10.651  1.00  0.00     0.049 A 
ATOM     54  C   UNL     1      -5.568   4.990  12.600  1.00  0.00     0.074 A 
ATOM     55  C   UNL     1     -10.964   8.114  11.426  1.00  0.00     0.029 A 
ATOM     56  N   UNL     1      -9.185   6.785  11.306  1.00  0.00    -0.354 N 
ATOM     57  N   UNL     1      -6.691   5.585  12.277  1.00  0.00    -0.248 NA
ATOM     58  C   UNL     1      -4.920   5.542  13.799  1.00  0.00     0.031 C 
ATOM     59  C   UNL     1     -10.140   8.376  12.527  1.00  0.00     0.029 A 
ATOM     60  C   UNL     1      -9.039   7.537  12.460  1.00  0.00     0.049 A 
ATOM     61  H   UNL     1      -8.553   6.097  10.997  1.00  0.00     0.167 HD
ATOM     62  C   UNL     1      -6.903   6.554  13.251  1.00  0.00     0.074 A 
ATOM     63  C   UNL     1      -5.792   6.467  14.176  1.00  0.00     0.031 C 
ATOM     64  C   UNL     1      -7.929   7.433  13.373  1.00  0.00     0.037 A 
BRANCH  51  65
ATOM     65  C   UNL     1     -12.035   7.124   8.761  1.00  0.00     0.057 A 
ATOM     66  C   UNL     1     -12.057   8.403   8.194  1.00  0.00     0.134 A 
ATOM     67  C   UNL     1     -13.210   6.363   8.691  1.00  0.00     0.134 A 
ATOM     68  F   UNL     1     -10.965   9.182   8.227  1.00  0.00    -0.206 F 
ATOM     69  C   UNL     1     -13.200   8.905   7.571  1.00  0.00     0.040 A 
ATOM     70  C   UNL     1     -14.352   6.845   8.048  1.00  0.00     0.040 A 
ATOM     71  F   UNL     1     -13.247   5.122   9.198  1.00  0.00    -0.206 F 
ATOM     72  C   UNL     1     -14.349   8.121   7.488  1.00  0.00     0.006 A 
ENDBRANCH  51  65
BRANCH  52  73
ATOM     73  C   UNL     1      -3.641   3.257  12.516  1.00  0.00     0.057 A 
ATOM     74  C   UNL     1      -2.386   3.442  11.925  1.00  0.00     0.134 A 
ATOM     75  C   UNL     1      -3.693   2.526  13.707  1.00  0.00     0.134 A 
ATOM     76  F   UNL     1      -2.271   4.140  10.785  1.00  0.00    -0.206 F 
ATOM     77  C   UNL     1      -1.226   2.914  12.493  1.00  0.00     0.040 A 
ATOM     78  C   UNL     1      -2.539   2.009  14.298  1.00  0.00     0.040 A 
ATOM     79  F   UNL     1      -4.864   2.338  14.333  1.00  0.00    -0.206 F 
ATOM     80  C   UNL     1      -1.301   2.199  13.687  1.00  0.00     0.006 A 
ENDBRANCH  52  73
BRANCH  64  81
ATOM     81  C   UNL     1      -7.918   8.339  14.568  1.00  0.00     0.057 A 
ATOM     82  C   UNL     1      -8.825   8.141  15.618  1.00  0.00     0.134 A 
ATOM     83  C   UNL     1      -7.039   9.424  14.668  1.00  0.00     0.134 A 
ATOM     84  F   UNL     1      -9.700   7.125  15.580  1.00  0.00    -0.206 F 
ATOM     85  C   UNL     1      -8.859   8.993  16.723  1.00  0.00     0.040 A 
ATOM     86  C   UNL     1      -7.047  10.268  15.780  1.00  0.00     0.040 A 
ATOM     87  F   UNL     1      -6.137   9.659  13.703  1.00  0.00    -0.206 F 
ATOM     88  C   UNL     1      -7.964  10.057  16.808  1.00  0.00     0.006 A 
ENDBRANCH  64  81
ENDBRANCH  38  39
ENDBRANCH  31  33
ENDBRANCH  30  31
ENDBRANCH  29  30
ENDBRANCH   1  29
TORSDOF 15
