REMARK SMILES Cc1cc(-c2cc(C(=O)OCCOCCOC(=O)c3ccc(-c4c5nc(c(-c6c(F)cccc6F)c6ccc([nH]6)c(-c6c(F)cccc6F)c6nc(c(-c7c(F)cccc7F)c7ccc4[nH]7)C=C6)C=C5)cc3)c[nH]c2=O)ccc1Cl
REMARK SMILES IDX 14 1 13 2 12 3 11 4 10 5 8 6 9 7 7 8 5 9 6 10 75 11 74 12
REMARK SMILES IDX 76 13 73 14 4 16 1 17 2 18 3 19 79 20 78 21 80 22 77 23
REMARK SMILES IDX 15 24 16 25 17 26 18 27 19 28 20 29 72 30 21 31 71 32 22 33
REMARK SMILES IDX 23 34 24 35 65 36 25 37 70 38 64 39 66 40 26 41 69 42 63 43
REMARK SMILES IDX 62 44 27 46 53 47 36 48 52 49 37 50 40 51 51 52 67 53 38 54
REMARK SMILES IDX 39 55 50 57 68 58 41 59 28 60 29 61 34 62 30 63 31 64 33 65
REMARK SMILES IDX 35 66 32 67 54 68 55 69 60 70 56 71 57 72 59 73 61 74 58 75
REMARK SMILES IDX 42 76 43 77 48 78 44 79 45 80 47 81 49 82 46 83
REMARK H PARENT 74 15 66 45 40 56
REMARK Flexibility Score: inf
ROOT
ATOM      1  C   UNL     1      -7.926   0.628   3.311  1.00  0.00     0.202 C 
ENDROOT
BRANCH   1   2
ATOM      2  O   UNL     1      -8.699  -0.431   3.879  1.00  0.00    -0.374 OA
BRANCH   2   3
ATOM      3  C   UNL     1      -7.973  -1.543   4.407  1.00  0.00     0.202 C 
BRANCH   3   4
ATOM      4  C   UNL     1      -7.564  -2.599   3.376  1.00  0.00     0.261 C 
BRANCH   4   5
ATOM      5  O   UNL     1      -6.597  -2.062   2.455  1.00  0.00    -0.460 OA
BRANCH   5   6
ATOM      6  C   UNL     1      -7.024  -1.935   1.173  1.00  0.00     0.339 C 
ATOM      7  O   UNL     1      -8.060  -2.385   0.708  1.00  0.00    -0.246 OA
BRANCH   6   8
ATOM      8  C   UNL     1      -6.116  -1.028   0.423  1.00  0.00     0.077 A 
ATOM      9  C   UNL     1      -3.896  -0.156  -0.135  1.00  0.00     0.048 A 
ATOM     10  C   UNL     1      -4.677  -0.976   0.604  1.00  0.00     0.031 A 
ATOM     11  C   UNL     1      -4.579   0.770  -1.118  1.00  0.00     0.255 A 
ATOM     12  N   UNL     1      -5.948   0.667  -1.198  1.00  0.00    -0.328 N 
ATOM     13  O   UNL     1      -3.972   1.575  -1.817  1.00  0.00    -0.269 OA
ATOM     14  C   UNL     1      -6.701  -0.210  -0.465  1.00  0.00     0.101 A 
ATOM     15  H   UNL     1      -6.418   1.265  -1.824  1.00  0.00     0.169 HD
BRANCH   9  16
ATOM     16  C   UNL     1      -2.419  -0.184  -0.012  1.00  0.00    -0.012 A 
ATOM     17  C   UNL     1       0.502   2.281   0.043  1.00  0.00     0.046 C 
ATOM     18  C   UNL     1      -0.258   0.984   0.058  1.00  0.00    -0.032 A 
ATOM     19  C   UNL     1      -1.666   1.002   0.018  1.00  0.00     0.014 A 
ATOM     20  C   UNL     1       0.398  -0.255   0.080  1.00  0.00     0.044 A 
ATOM     21  C   UNL     1      -0.335  -1.442   0.059  1.00  0.00     0.021 A 
ATOM     22  Cl  UNL     1       2.120  -0.370   0.117  1.00  0.00    -0.084 Cl
ATOM     23  C   UNL     1      -1.731  -1.407   0.008  1.00  0.00     0.010 A 
ENDBRANCH   9  16
ENDBRANCH   6   8
ENDBRANCH   5   6
ENDBRANCH   4   5
ENDBRANCH   3   4
ENDBRANCH   2   3
ENDBRANCH   1   2
BRANCH   1  24
ATOM     24  C   UNL     1      -7.358   1.644   4.307  1.00  0.00     0.261 C 
BRANCH  24  25
ATOM     25  O   UNL     1      -6.365   1.046   5.160  1.00  0.00    -0.460 OA
BRANCH  25  26
ATOM     26  C   UNL     1      -6.741   0.902   6.451  1.00  0.00     0.338 C 
ATOM     27  O   UNL     1      -7.768   1.314   6.974  1.00  0.00    -0.246 OA
BRANCH  26  28
ATOM     28  C   UNL     1      -5.807   0.005   7.157  1.00  0.00     0.060 A 
ATOM     29  C   UNL     1      -6.367  -1.033   7.912  1.00  0.00     0.016 A 
ATOM     30  C   UNL     1      -4.424   0.204   7.143  1.00  0.00     0.016 A 
ATOM     31  C   UNL     1      -5.551  -1.839   8.702  1.00  0.00     0.010 A 
ATOM     32  C   UNL     1      -3.606  -0.606   7.941  1.00  0.00     0.010 A 
ATOM     33  C   UNL     1      -4.170  -1.606   8.752  1.00  0.00    -0.014 A 
BRANCH  33  34
ATOM     34  C   UNL     1      -3.355  -2.334   9.755  1.00  0.00     0.031 A 
ATOM     35  C   UNL     1      -3.001  -1.655  11.049  1.00  0.00     0.074 A 
ATOM     36  C   UNL     1      -2.987  -3.609   9.541  1.00  0.00     0.049 A 
ATOM     37  N   UNL     1      -2.352  -2.127  12.084  1.00  0.00    -0.248 NA
ATOM     38  C   UNL     1      -3.436  -0.257  11.198  1.00  0.00     0.031 C 
ATOM     39  C   UNL     1      -3.290  -4.386   8.340  1.00  0.00     0.029 A 
ATOM     40  N   UNL     1      -2.284  -4.478  10.337  1.00  0.00    -0.354 N 
ATOM     41  C   UNL     1      -2.300  -1.088  13.004  1.00  0.00     0.074 A 
ATOM     42  C   UNL     1      -2.954   0.050  12.394  1.00  0.00     0.031 C 
ATOM     43  C   UNL     1      -2.781  -5.622   8.481  1.00  0.00     0.029 A 
ATOM     44  C   UNL     1      -2.101  -5.716   9.772  1.00  0.00     0.049 A 
ATOM     45  H   UNL     1      -1.944  -4.237  11.228  1.00  0.00     0.167 HD
ATOM     46  C   UNL     1      -1.768  -1.085  14.250  1.00  0.00     0.037 A 
ATOM     47  C   UNL     1      -1.456  -6.800  10.243  1.00  0.00     0.037 A 
ATOM     48  C   UNL     1      -1.123  -2.217  14.861  1.00  0.00     0.049 A 
ATOM     49  C   UNL     1      -0.828  -6.753  11.610  1.00  0.00     0.074 A 
ATOM     50  C   UNL     1      -0.586  -2.321  16.133  1.00  0.00     0.029 A 
ATOM     51  N   UNL     1      -0.918  -3.439  14.240  1.00  0.00    -0.354 N 
ATOM     52  N   UNL     1      -0.827  -5.781  12.489  1.00  0.00    -0.248 NA
ATOM     53  C   UNL     1      -0.117  -7.962  12.051  1.00  0.00     0.031 C 
ATOM     54  C   UNL     1      -0.014  -3.592  16.264  1.00  0.00     0.029 A 
ATOM     55  C   UNL     1      -0.237  -4.295  15.091  1.00  0.00     0.049 A 
ATOM     56  H   UNL     1      -1.213  -3.666  13.329  1.00  0.00     0.167 HD
ATOM     57  C   UNL     1      -0.141  -6.268  13.595  1.00  0.00     0.074 A 
ATOM     58  C   UNL     1       0.245  -7.628  13.281  1.00  0.00     0.031 C 
ATOM     59  C   UNL     1       0.143  -5.646  14.766  1.00  0.00     0.037 A 
BRANCH  46  60
ATOM     60  C   UNL     1      -1.843   0.196  15.028  1.00  0.00     0.057 A 
ATOM     61  C   UNL     1      -3.047   0.665  15.570  1.00  0.00     0.134 A 
ATOM     62  C   UNL     1      -0.690   0.956  15.261  1.00  0.00     0.134 A 
ATOM     63  F   UNL     1      -4.190  -0.009  15.370  1.00  0.00    -0.206 F 
ATOM     64  C   UNL     1      -3.105   1.855  16.297  1.00  0.00     0.040 A 
ATOM     65  C   UNL     1      -0.731   2.135  16.007  1.00  0.00     0.040 A 
ATOM     66  F   UNL     1       0.496   0.561  14.774  1.00  0.00    -0.206 F 
ATOM     67  C   UNL     1      -1.943   2.590  16.523  1.00  0.00     0.006 A 
ENDBRANCH  46  60
BRANCH  47  68
ATOM     68  C   UNL     1      -1.374  -8.032   9.420  1.00  0.00     0.057 A 
ATOM     69  C   UNL     1      -2.068  -9.192   9.781  1.00  0.00     0.134 A 
ATOM     70  C   UNL     1      -0.580  -8.086   8.268  1.00  0.00     0.134 A 
ATOM     71  F   UNL     1      -2.826  -9.207  10.888  1.00  0.00    -0.206 F 
ATOM     72  C   UNL     1      -1.964 -10.368   9.037  1.00  0.00     0.040 A 
ATOM     73  C   UNL     1      -0.484  -9.248   7.501  1.00  0.00     0.040 A 
ATOM     74  F   UNL     1       0.110  -7.007   7.869  1.00  0.00    -0.206 F 
ATOM     75  C   UNL     1      -1.172 -10.396   7.890  1.00  0.00     0.006 A 
ENDBRANCH  47  68
BRANCH  59  76
ATOM     76  C   UNL     1       0.884  -6.443  15.800  1.00  0.00     0.057 A 
ATOM     77  C   UNL     1       2.239  -6.766  15.655  1.00  0.00     0.134 A 
ATOM     78  C   UNL     1       0.236  -6.880  16.963  1.00  0.00     0.134 A 
ATOM     79  F   UNL     1       2.914  -6.388  14.558  1.00  0.00    -0.206 F 
ATOM     80  C   UNL     1       2.915  -7.522  16.613  1.00  0.00     0.040 A 
ATOM     81  C   UNL     1       0.909  -7.614  17.941  1.00  0.00     0.040 A 
ATOM     82  F   UNL     1      -1.059  -6.597  17.170  1.00  0.00    -0.206 F 
ATOM     83  C   UNL     1       2.251  -7.945  17.763  1.00  0.00     0.006 A 
ENDBRANCH  59  76
ENDBRANCH  33  34
ENDBRANCH  26  28
ENDBRANCH  25  26
ENDBRANCH  24  25
ENDBRANCH   1  24
TORSDOF 15
