REMARK SMILES COc1ccc(F)cc1[C@H](C)NC(=O)[C@H]1CC=CC[C@@H]1C(=O)OCCOCCOC(=O)c1ccc(-c2c3nc(c(-c4c(F)cccc4F)c4ccc([nH]4)c(-c4c(F)cccc4F)c4nc(c(-c5c(F)cccc5F)c5ccc2[nH]5)C=C4)C=C3)cc1
REMARK SMILES IDX 25 1 24 2 23 3 21 4 22 5 20 6 15 7 16 8 17 9 19 10 18 11
REMARK SMILES IDX 13 12 12 13 14 15 10 16 11 17 9 18 3 19 4 20 5 21 8 22 6 23
REMARK SMILES IDX 7 24 2 25 1 26 26 27 27 28 28 29 29 30 30 31 31 32 32 33
REMARK SMILES IDX 33 34 85 35 34 36 84 37 35 38 36 39 37 40 78 41 38 42 83 43
REMARK SMILES IDX 77 44 79 45 39 46 82 47 76 48 75 49 40 51 66 52 49 53 65 54
REMARK SMILES IDX 50 55 53 56 64 57 80 58 51 59 52 60 63 62 81 63 54 64 41 65
REMARK SMILES IDX 42 66 47 67 43 68 44 69 46 70 48 71 45 72 67 73 68 74 73 75
REMARK SMILES IDX 69 76 70 77 72 78 74 79 71 80 55 81 56 82 61 83 57 84 58 85
REMARK SMILES IDX 60 86 62 87 59 88
REMARK H PARENT 12 14 79 50 53 61
REMARK Flexibility Score: inf
ROOT
ATOM      1  C   UNL     1      -3.873  -3.548   2.242  1.00  0.00     0.202 C 
ENDROOT
BRANCH   1   2
ATOM      2  C   UNL     1      -2.434  -3.466   1.742  1.00  0.00     0.261 C 
BRANCH   2   3
ATOM      3  O   UNL     1      -2.310  -2.417   0.772  1.00  0.00    -0.463 OA
BRANCH   3   4
ATOM      4  C   UNL     1      -2.005  -2.807  -0.499  1.00  0.00     0.310 C 
ATOM      5  O   UNL     1      -1.857  -3.969  -0.850  1.00  0.00    -0.252 OA
BRANCH   4   6
ATOM      6  C   UNL     1      -1.933  -1.587  -1.420  1.00  0.00     0.115 C 
ATOM      7  C   UNL     1      -1.640  -2.064  -2.860  1.00  0.00     0.097 C 
ATOM      8  C   UNL     1      -0.174  -2.450  -3.099  1.00  0.00     0.041 C 
ATOM      9  C   UNL     1       0.826  -1.706  -2.267  1.00  0.00    -0.030 C 
ATOM     10  C   UNL     1      -0.898  -0.631  -0.807  1.00  0.00     0.043 C 
ATOM     11  C   UNL     1       0.508  -0.885  -1.257  1.00  0.00    -0.030 C 
BRANCH   7  12
ATOM     12  C   UNL     1      -2.249  -1.312  -4.050  1.00  0.00     0.224 C 
ATOM     13  N   UNL     1      -1.842  -0.099  -4.493  1.00  0.00    -0.349 N 
ATOM     14  H   UNL     1      -2.035   0.075  -5.442  1.00  0.00     0.164 HD
ATOM     15  O   UNL     1      -3.124  -1.861  -4.732  1.00  0.00    -0.275 OA
BRANCH  13  16
ATOM     16  C   UNL     1      -1.168   0.988  -3.805  1.00  0.00     0.113 C 
ATOM     17  C   UNL     1      -0.037   1.567  -4.654  1.00  0.00     0.036 C 
BRANCH  16  18
ATOM     18  C   UNL     1      -2.156   2.042  -3.309  1.00  0.00     0.019 A 
ATOM     19  C   UNL     1      -1.780   2.981  -2.325  1.00  0.00     0.124 A 
ATOM     20  C   UNL     1      -2.684   3.961  -1.885  1.00  0.00     0.050 A 
ATOM     21  C   UNL     1      -3.987   3.990  -2.378  1.00  0.00     0.043 A 
ATOM     22  C   UNL     1      -3.481   2.096  -3.791  1.00  0.00     0.049 A 
ATOM     23  C   UNL     1      -4.375   3.052  -3.320  1.00  0.00     0.123 A 
ATOM     24  F   UNL     1      -5.631   3.065  -3.785  1.00  0.00    -0.207 F 
BRANCH  19  25
ATOM     25  O   UNL     1      -0.496   2.907  -1.848  1.00  0.00    -0.496 OA
ATOM     26  C   UNL     1      -0.377   3.140  -0.445  1.00  0.00     0.278 C 
ENDBRANCH  19  25
ENDBRANCH  16  18
ENDBRANCH  13  16
ENDBRANCH   7  12
ENDBRANCH   4   6
ENDBRANCH   3   4
ENDBRANCH   2   3
ENDBRANCH   1   2
BRANCH   1  27
ATOM     27  O   UNL     1      -4.826  -4.049   1.307  1.00  0.00    -0.374 OA
BRANCH  27  28
ATOM     28  C   UNL     1      -5.269  -3.172   0.270  1.00  0.00     0.202 C 
BRANCH  28  29
ATOM     29  C   UNL     1      -6.317  -2.128   0.670  1.00  0.00     0.261 C 
BRANCH  29  30
ATOM     30  O   UNL     1      -5.770  -1.101   1.519  1.00  0.00    -0.460 OA
BRANCH  30  31
ATOM     31  C   UNL     1      -6.169  -1.158   2.809  1.00  0.00     0.338 C 
ATOM     32  O   UNL     1      -6.944  -1.962   3.315  1.00  0.00    -0.246 OA
BRANCH  31  33
ATOM     33  C   UNL     1      -5.415  -0.191   3.620  1.00  0.00     0.060 A 
ATOM     34  C   UNL     1      -4.699  -0.676   4.722  1.00  0.00     0.016 A 
ATOM     35  C   UNL     1      -5.510   1.181   3.380  1.00  0.00     0.016 A 
ATOM     36  C   UNL     1      -4.119   0.213   5.623  1.00  0.00     0.010 A 
ATOM     37  C   UNL     1      -4.938   2.072   4.292  1.00  0.00     0.010 A 
ATOM     38  C   UNL     1      -4.276   1.591   5.436  1.00  0.00    -0.014 A 
BRANCH  38  39
ATOM     39  C   UNL     1      -3.890   2.529   6.516  1.00  0.00     0.031 A 
ATOM     40  C   UNL     1      -4.958   3.058   7.432  1.00  0.00     0.074 A 
ATOM     41  C   UNL     1      -2.608   2.899   6.680  1.00  0.00     0.049 A 
ATOM     42  N   UNL     1      -4.868   3.962   8.372  1.00  0.00    -0.248 NA
ATOM     43  C   UNL     1      -6.309   2.494   7.266  1.00  0.00     0.031 C 
ATOM     44  C   UNL     1      -1.481   2.411   5.888  1.00  0.00     0.029 A 
ATOM     45  N   UNL     1      -2.043   3.786   7.562  1.00  0.00    -0.354 N 
ATOM     46  C   UNL     1      -6.148   4.088   8.897  1.00  0.00     0.074 A 
ATOM     47  C   UNL     1      -7.002   3.180   8.164  1.00  0.00     0.031 C 
ATOM     48  C   UNL     1      -0.360   3.025   6.303  1.00  0.00     0.029 A 
ATOM     49  C   UNL     1      -0.698   3.975   7.362  1.00  0.00     0.049 A 
ATOM     50  H   UNL     1      -2.553   4.242   8.270  1.00  0.00     0.167 HD
ATOM     51  C   UNL     1      -6.568   4.889   9.903  1.00  0.00     0.037 A 
ATOM     52  C   UNL     1       0.156   4.841   7.944  1.00  0.00     0.037 A 
ATOM     53  C   UNL     1      -5.708   5.771  10.644  1.00  0.00     0.049 A 
ATOM     54  C   UNL     1      -0.349   5.768   9.018  1.00  0.00     0.074 A 
ATOM     55  C   UNL     1      -6.035   6.591  11.709  1.00  0.00     0.029 A 
ATOM     56  N   UNL     1      -4.357   5.950  10.396  1.00  0.00    -0.354 N 
ATOM     57  N   UNL     1      -1.557   5.868   9.518  1.00  0.00    -0.248 NA
ATOM     58  C   UNL     1       0.621   6.704   9.606  1.00  0.00     0.031 C 
ATOM     59  C   UNL     1      -4.891   7.306  12.073  1.00  0.00     0.029 A 
ATOM     60  C   UNL     1      -3.842   6.892  11.268  1.00  0.00     0.049 A 
ATOM     61  H   UNL     1      -3.841   5.477   9.704  1.00  0.00     0.167 HD
ATOM     62  C   UNL     1      -1.488   6.858  10.490  1.00  0.00     0.074 A 
ATOM     63  C   UNL     1      -0.118   7.324  10.517  1.00  0.00     0.031 C 
ATOM     64  C   UNL     1      -2.472   7.337  11.289  1.00  0.00     0.037 A 
BRANCH  51  65
ATOM     65  C   UNL     1      -8.022   4.871  10.263  1.00  0.00     0.057 A 
ATOM     66  C   UNL     1      -8.837   5.973   9.972  1.00  0.00     0.134 A 
ATOM     67  C   UNL     1      -8.591   3.816  10.986  1.00  0.00     0.134 A 
ATOM     68  F   UNL     1      -8.349   7.018   9.287  1.00  0.00    -0.206 F 
ATOM     69  C   UNL     1     -10.161   6.036  10.406  1.00  0.00     0.040 A 
ATOM     70  C   UNL     1      -9.922   3.858  11.407  1.00  0.00     0.040 A 
ATOM     71  F   UNL     1      -7.866   2.729  11.286  1.00  0.00    -0.206 F 
ATOM     72  C   UNL     1     -10.706   4.976  11.128  1.00  0.00     0.006 A 
ENDBRANCH  51  65
BRANCH  52  73
ATOM     73  C   UNL     1       1.570   4.892   7.495  1.00  0.00     0.057 A 
ATOM     74  C   UNL     1       1.912   5.373   6.225  1.00  0.00     0.134 A 
ATOM     75  C   UNL     1       2.612   4.455   8.320  1.00  0.00     0.134 A 
ATOM     76  F   UNL     1       0.960   5.804   5.384  1.00  0.00    -0.206 F 
ATOM     77  C   UNL     1       3.236   5.401   5.784  1.00  0.00     0.040 A 
ATOM     78  C   UNL     1       3.943   4.500   7.902  1.00  0.00     0.040 A 
ATOM     79  F   UNL     1       2.350   4.004   9.556  1.00  0.00    -0.206 F 
ATOM     80  C   UNL     1       4.257   4.967   6.627  1.00  0.00     0.006 A 
ENDBRANCH  52  73
BRANCH  64  81
ATOM     81  C   UNL     1      -2.119   8.405  12.280  1.00  0.00     0.057 A 
ATOM     82  C   UNL     1      -2.093   8.122  13.652  1.00  0.00     0.134 A 
ATOM     83  C   UNL     1      -1.926   9.734  11.887  1.00  0.00     0.134 A 
ATOM     84  F   UNL     1      -2.285   6.869  14.093  1.00  0.00    -0.206 F 
ATOM     85  C   UNL     1      -1.913   9.128  14.601  1.00  0.00     0.040 A 
ATOM     86  C   UNL     1      -1.722  10.746  12.826  1.00  0.00     0.040 A 
ATOM     87  F   UNL     1      -1.933  10.067  10.588  1.00  0.00    -0.206 F 
ATOM     88  C   UNL     1      -1.729  10.446  14.188  1.00  0.00     0.006 A 
ENDBRANCH  64  81
ENDBRANCH  38  39
ENDBRANCH  31  33
ENDBRANCH  30  31
ENDBRANCH  29  30
ENDBRANCH  28  29
ENDBRANCH  27  28
ENDBRANCH   1  27
TORSDOF 18
