REMARK SMILES COCCC(=O)N[C@H](C)CC(=O)OCCOCCOC(=O)c1ccc(-c2c3nc(c(-c4c(F)cccc4F)c4ccc([nH]4)c(-c4c(F)cccc4F)c4nc(c(-c5c(F)cccc5F)c5ccc2[nH]5)C=C4)C=C3)cc1
REMARK SMILES IDX 14 1 13 2 11 3 12 4 10 5 8 6 9 7 7 8 5 9 6 10 4 12 3 13 2 14
REMARK SMILES IDX 1 15 15 16 16 17 17 18 18 19 19 20 20 21 21 22 22 23 23 24
REMARK SMILES IDX 75 25 24 26 74 27 25 28 26 29 27 30 68 31 28 32 73 33 67 34
REMARK SMILES IDX 69 35 29 36 72 37 66 38 65 39 30 41 56 42 39 43 55 44 40 45
REMARK SMILES IDX 43 46 54 47 70 48 41 49 42 50 53 52 71 53 44 54 31 55 32 56
REMARK SMILES IDX 37 57 33 58 34 59 36 60 38 61 35 62 57 63 58 64 63 65 59 66
REMARK SMILES IDX 60 67 62 68 64 69 61 70 45 71 46 72 51 73 47 74 48 75 50 76
REMARK SMILES IDX 52 77 49 78
REMARK H PARENT 7 11 69 40 43 51
REMARK Flexibility Score: inf
ROOT
ATOM      1  C   UNL     1      -3.137  -2.809   2.618  1.00  0.00     0.261 C 
ENDROOT
BRANCH   1   2
ATOM      2  O   UNL     1      -2.020  -2.596   1.731  1.00  0.00    -0.463 OA
BRANCH   2   3
ATOM      3  C   UNL     1      -2.288  -2.654   0.406  1.00  0.00     0.307 C 
ATOM      4  O   UNL     1      -3.385  -2.917  -0.075  1.00  0.00    -0.252 OA
BRANCH   3   5
ATOM      5  C   UNL     1      -1.077  -2.425  -0.469  1.00  0.00     0.147 C 
BRANCH   5   6
ATOM      6  C   UNL     1       0.098  -1.610   0.095  1.00  0.00     0.090 C 
ATOM      7  C   UNL     1       0.961  -2.447   1.043  1.00  0.00     0.031 C 
BRANCH   6   8
ATOM      8  N   UNL     1       0.917  -1.146  -1.044  1.00  0.00    -0.353 N 
ATOM      9  C   UNL     1       1.831  -0.144  -1.146  1.00  0.00     0.222 C 
ATOM     10  O   UNL     1       2.319   0.087  -2.255  1.00  0.00    -0.275 OA
ATOM     11  H   UNL     1       0.775  -1.651  -1.877  1.00  0.00     0.163 HD
BRANCH   9  12
ATOM     12  C   UNL     1       2.220   0.675   0.057  1.00  0.00     0.128 C 
BRANCH  12  13
ATOM     13  C   UNL     1       1.560   2.041   0.015  1.00  0.00     0.169 C 
BRANCH  13  14
ATOM     14  O   UNL     1       0.167   1.914   0.309  1.00  0.00    -0.384 OA
ATOM     15  C   UNL     1      -0.648   2.206  -0.819  1.00  0.00     0.194 C 
ENDBRANCH  13  14
ENDBRANCH  12  13
ENDBRANCH   9  12
ENDBRANCH   6   8
ENDBRANCH   5   6
ENDBRANCH   3   5
ENDBRANCH   2   3
ENDBRANCH   1   2
BRANCH   1  16
ATOM     16  C   UNL     1      -3.328  -1.612   3.549  1.00  0.00     0.202 C 
BRANCH  16  17
ATOM     17  O   UNL     1      -3.859  -0.448   2.915  1.00  0.00    -0.374 OA
BRANCH  17  18
ATOM     18  C   UNL     1      -2.949   0.350   2.155  1.00  0.00     0.202 C 
BRANCH  18  19
ATOM     19  C   UNL     1      -2.056   1.270   2.992  1.00  0.00     0.261 C 
BRANCH  19  20
ATOM     20  O   UNL     1      -1.075   0.511   3.725  1.00  0.00    -0.460 OA
BRANCH  20  21
ATOM     21  C   UNL     1      -1.093   0.712   5.060  1.00  0.00     0.338 C 
ATOM     22  O   UNL     1      -1.753   1.537   5.682  1.00  0.00    -0.246 OA
BRANCH  21  23
ATOM     23  C   UNL     1      -0.320  -0.336   5.747  1.00  0.00     0.060 A 
ATOM     24  C   UNL     1      -0.986  -1.077   6.729  1.00  0.00     0.016 A 
ATOM     25  C   UNL     1       1.046  -0.523   5.517  1.00  0.00     0.016 A 
ATOM     26  C   UNL     1      -0.275  -1.962   7.532  1.00  0.00     0.010 A 
ATOM     27  C   UNL     1       1.759  -1.415   6.329  1.00  0.00     0.010 A 
ATOM     28  C   UNL     1       1.110  -2.105   7.368  1.00  0.00    -0.014 A 
BRANCH  28  29
ATOM     29  C   UNL     1       1.866  -2.882   8.381  1.00  0.00     0.031 A 
ATOM     30  C   UNL     1       2.589  -2.160   9.484  1.00  0.00     0.074 A 
ATOM     31  C   UNL     1       1.842  -4.226   8.364  1.00  0.00     0.049 A 
ATOM     32  N   UNL     1       3.215  -2.649  10.525  1.00  0.00    -0.248 NA
ATOM     33  C   UNL     1       2.609  -0.692   9.404  1.00  0.00     0.031 C 
ATOM     34  C   UNL     1       1.175  -5.045   7.354  1.00  0.00     0.029 A 
ATOM     35  N   UNL     1       2.389  -5.137   9.232  1.00  0.00    -0.354 N 
ATOM     36  C   UNL     1       3.699  -1.551  11.225  1.00  0.00     0.074 A 
ATOM     37  C   UNL     1       3.329  -0.373  10.470  1.00  0.00     0.031 C 
ATOM     38  C   UNL     1       1.352  -6.341   7.659  1.00  0.00     0.029 A 
ATOM     39  C   UNL     1       2.152  -6.441   8.879  1.00  0.00     0.049 A 
ATOM     40  H   UNL     1       2.902  -4.879  10.032  1.00  0.00     0.167 HD
ATOM     41  C   UNL     1       4.375  -1.524  12.399  1.00  0.00     0.037 A 
ATOM     42  C   UNL     1       2.537  -7.588   9.471  1.00  0.00     0.037 A 
ATOM     43  C   UNL     1       4.746  -2.693  13.153  1.00  0.00     0.049 A 
ATOM     44  C   UNL     1       3.306  -7.537  10.762  1.00  0.00     0.074 A 
ATOM     45  C   UNL     1       5.398  -2.765  14.372  1.00  0.00     0.029 A 
ATOM     46  N   UNL     1       4.509  -3.999  12.751  1.00  0.00    -0.354 N 
ATOM     47  N   UNL     1       3.705  -6.492  11.446  1.00  0.00    -0.248 NA
ATOM     48  C   UNL     1       3.664  -8.825  11.371  1.00  0.00     0.031 C 
ATOM     49  C   UNL     1       5.596  -4.116  14.684  1.00  0.00     0.029 A 
ATOM     50  C   UNL     1       5.026  -4.885  13.683  1.00  0.00     0.049 A 
ATOM     51  H   UNL     1       4.041  -4.259  11.924  1.00  0.00     0.167 HD
ATOM     52  C   UNL     1       4.349  -6.994  12.570  1.00  0.00     0.074 A 
ATOM     53  C   UNL     1       4.266  -8.438  12.487  1.00  0.00     0.031 C 
ATOM     54  C   UNL     1       4.955  -6.321  13.579  1.00  0.00     0.037 A 
BRANCH  41  55
ATOM     55  C   UNL     1       4.778  -0.177  12.925  1.00  0.00     0.057 A 
ATOM     56  C   UNL     1       3.841   0.725  13.449  1.00  0.00     0.134 A 
ATOM     57  C   UNL     1       6.120   0.222  12.913  1.00  0.00     0.134 A 
ATOM     58  F   UNL     1       2.537   0.410  13.476  1.00  0.00    -0.206 F 
ATOM     59  C   UNL     1       4.221   1.985  13.914  1.00  0.00     0.040 A 
ATOM     60  C   UNL     1       6.516   1.469  13.398  1.00  0.00     0.040 A 
ATOM     61  F   UNL     1       7.069  -0.594  12.430  1.00  0.00    -0.206 F 
ATOM     62  C   UNL     1       5.564   2.359  13.893  1.00  0.00     0.006 A 
ENDBRANCH  41  55
BRANCH  42  63
ATOM     63  C   UNL     1       2.192  -8.886   8.841  1.00  0.00     0.057 A 
ATOM     64  C   UNL     1       1.225  -9.733   9.394  1.00  0.00     0.134 A 
ATOM     65  C   UNL     1       2.817  -9.300   7.660  1.00  0.00     0.134 A 
ATOM     66  F   UNL     1       0.608  -9.398  10.536  1.00  0.00    -0.206 F 
ATOM     67  C   UNL     1       0.898 -10.952   8.798  1.00  0.00     0.040 A 
ATOM     68  C   UNL     1       2.485 -10.506   7.041  1.00  0.00     0.040 A 
ATOM     69  F   UNL     1       3.749  -8.529   7.081  1.00  0.00    -0.206 F 
ATOM     70  C   UNL     1       1.524 -11.337   7.614  1.00  0.00     0.006 A 
ENDBRANCH  42  63
BRANCH  54  71
ATOM     71  C   UNL     1       5.571  -7.143  14.674  1.00  0.00     0.057 A 
ATOM     72  C   UNL     1       6.744  -7.882  14.470  1.00  0.00     0.134 A 
ATOM     73  C   UNL     1       4.994  -7.188  15.950  1.00  0.00     0.134 A 
ATOM     74  F   UNL     1       7.340  -7.892  13.268  1.00  0.00    -0.206 F 
ATOM     75  C   UNL     1       7.304  -8.660  15.485  1.00  0.00     0.040 A 
ATOM     76  C   UNL     1       5.558  -7.942  16.980  1.00  0.00     0.040 A 
ATOM     77  F   UNL     1       3.876  -6.498  16.216  1.00  0.00    -0.206 F 
ATOM     78  C   UNL     1       6.712  -8.688  16.747  1.00  0.00     0.006 A 
ENDBRANCH  54  71
ENDBRANCH  28  29
ENDBRANCH  21  23
ENDBRANCH  20  21
ENDBRANCH  19  20
ENDBRANCH  18  19
ENDBRANCH  17  18
ENDBRANCH  16  17
ENDBRANCH   1  16
TORSDOF 19
