REMARK SMILES O=C(OCCOCCOC(=O)c1cccc(Nc2ccc([N+](=O)[O-])cc2)c1)c1ccc(-c2c3nc(c(-c4c(F)cccc4F)c4ccc([nH]4)c(-c4c(F)cccc4F)c4nc(c(-c5c(F)cccc5F)c5ccc2[nH]5)C=C4)C=C3)cc1
REMARK SMILES IDX 7 1 6 2 5 3 4 4 3 5 2 6 1 7 28 8 29 9 81 10 30 11 80 12
REMARK SMILES IDX 31 13 32 14 33 15 74 16 34 17 79 18 73 19 75 20 35 21 78 22
REMARK SMILES IDX 72 23 71 24 36 26 62 27 45 28 61 29 46 30 49 31 60 32 76 33
REMARK SMILES IDX 47 34 48 35 59 37 77 38 50 39 37 40 38 41 43 42 39 43 40 44
REMARK SMILES IDX 42 45 44 46 41 47 63 48 64 49 69 50 65 51 66 52 68 53 70 54
REMARK SMILES IDX 67 55 51 56 52 57 57 58 53 59 54 60 56 61 58 62 55 63 8 64
REMARK SMILES IDX 9 65 10 66 11 67 12 68 13 69 27 70 14 71 16 72 15 73 17 74
REMARK SMILES IDX 18 76 19 77 26 78 20 79 25 80 21 81 22 82 23 83 24 84
REMARK H PARENT 75 25 49 36 17 75
REMARK Flexibility Score: inf
ROOT
ATOM      1  C   UNL     1       2.607   1.912  -1.185  1.00  0.00     0.202 C 
ENDROOT
BRANCH   1   2
ATOM      2  O   UNL     1       3.931   1.383  -1.055  1.00  0.00    -0.374 OA
BRANCH   2   3
ATOM      3  C   UNL     1       4.172   0.127  -1.690  1.00  0.00     0.202 C 
BRANCH   3   4
ATOM      4  C   UNL     1       3.843  -1.093  -0.825  1.00  0.00     0.261 C 
BRANCH   4   5
ATOM      5  O   UNL     1       2.467  -1.061  -0.414  1.00  0.00    -0.460 OA
BRANCH   5   6
ATOM      6  C   UNL     1       1.958  -0.692   0.784  1.00  0.00     0.338 C 
ATOM      7  O   UNL     1       0.742  -0.760   0.954  1.00  0.00    -0.246 OA
BRANCH   6   8
ATOM      8  C   UNL     1       2.792  -0.210   1.926  1.00  0.00     0.060 A 
ATOM      9  C   UNL     1       4.015   0.449   1.798  1.00  0.00     0.016 A 
ATOM     10  C   UNL     1       2.257  -0.354   3.218  1.00  0.00     0.016 A 
ATOM     11  C   UNL     1       4.720   0.899   2.899  1.00  0.00     0.010 A 
ATOM     12  C   UNL     1       2.939   0.134   4.336  1.00  0.00     0.010 A 
ATOM     13  C   UNL     1       4.183   0.750   4.172  1.00  0.00    -0.014 A 
BRANCH  13  14
ATOM     14  C   UNL     1       5.029   1.161   5.303  1.00  0.00     0.031 A 
ATOM     15  C   UNL     1       5.744   0.097   6.071  1.00  0.00     0.074 A 
ATOM     16  C   UNL     1       5.276   2.469   5.495  1.00  0.00     0.049 A 
ATOM     17  N   UNL     1       6.550   0.211   7.090  1.00  0.00    -0.248 NA
ATOM     18  C   UNL     1       5.539  -1.289   5.613  1.00  0.00     0.031 C 
ATOM     19  C   UNL     1       4.727   3.558   4.681  1.00  0.00     0.029 A 
ATOM     20  N   UNL     1       6.085   3.102   6.396  1.00  0.00    -0.354 N 
ATOM     21  C   UNL     1       6.924  -1.085   7.414  1.00  0.00     0.074 A 
ATOM     22  C   UNL     1       6.259  -1.972   6.487  1.00  0.00     0.031 C 
ATOM     23  C   UNL     1       5.245   4.723   5.100  1.00  0.00     0.029 A 
ATOM     24  C   UNL     1       6.098   4.469   6.254  1.00  0.00     0.049 A 
ATOM     25  H   UNL     1       6.609   2.626   7.080  1.00  0.00     0.167 HD
ATOM     26  C   UNL     1       7.746  -1.488   8.409  1.00  0.00     0.037 A 
ATOM     27  C   UNL     1       6.712   5.402   7.003  1.00  0.00     0.037 A 
ATOM     28  C   UNL     1       8.387  -0.572   9.313  1.00  0.00     0.049 A 
ATOM     29  C   UNL     1       7.530   4.927   8.173  1.00  0.00     0.074 A 
ATOM     30  C   UNL     1       9.180  -0.845  10.410  1.00  0.00     0.029 A 
ATOM     31  N   UNL     1       8.299   0.812   9.211  1.00  0.00    -0.354 N 
ATOM     32  N   UNL     1       7.817   3.697   8.535  1.00  0.00    -0.248 NA
ATOM     33  C   UNL     1       8.090   5.960   9.050  1.00  0.00     0.031 C 
ATOM     34  C   UNL     1       9.534   0.375  11.000  1.00  0.00     0.029 A 
ATOM     35  C   UNL     1       9.007   1.409  10.238  1.00  0.00     0.049 A 
ATOM     36  H   UNL     1       7.806   1.297   8.511  1.00  0.00     0.167 HD
ATOM     37  C   UNL     1       8.606   3.807   9.670  1.00  0.00     0.074 A 
ATOM     38  C   UNL     1       8.768   5.227   9.922  1.00  0.00     0.031 C 
ATOM     39  C   UNL     1       9.146   2.831  10.441  1.00  0.00     0.037 A 
BRANCH  26  40
ATOM     40  C   UNL     1       7.900  -2.967   8.603  1.00  0.00     0.057 A 
ATOM     41  C   UNL     1       8.606  -3.774   7.700  1.00  0.00     0.134 A 
ATOM     42  C   UNL     1       7.271  -3.604   9.680  1.00  0.00     0.134 A 
ATOM     43  F   UNL     1       9.204  -3.233   6.628  1.00  0.00    -0.206 F 
ATOM     44  C   UNL     1       8.651  -5.163   7.843  1.00  0.00     0.040 A 
ATOM     45  C   UNL     1       7.330  -4.988   9.848  1.00  0.00     0.040 A 
ATOM     46  F   UNL     1       6.570  -2.893  10.576  1.00  0.00    -0.206 F 
ATOM     47  C   UNL     1       8.012  -5.773   8.921  1.00  0.00     0.006 A 
ENDBRANCH  26  40
BRANCH  27  48
ATOM     48  C   UNL     1       6.536   6.848   6.709  1.00  0.00     0.057 A 
ATOM     49  C   UNL     1       7.614   7.655   6.329  1.00  0.00     0.134 A 
ATOM     50  C   UNL     1       5.283   7.467   6.821  1.00  0.00     0.134 A 
ATOM     51  F   UNL     1       8.845   7.131   6.222  1.00  0.00    -0.206 F 
ATOM     52  C   UNL     1       7.458   9.022   6.086  1.00  0.00     0.040 A 
ATOM     53  C   UNL     1       5.106   8.826   6.553  1.00  0.00     0.040 A 
ATOM     54  F   UNL     1       4.205   6.756   7.182  1.00  0.00    -0.206 F 
ATOM     55  C   UNL     1       6.199   9.610   6.194  1.00  0.00     0.006 A 
ENDBRANCH  27  48
BRANCH  39  56
ATOM     56  C   UNL     1       9.988   3.278  11.596  1.00  0.00     0.057 A 
ATOM     57  C   UNL     1       9.425   3.841  12.747  1.00  0.00     0.134 A 
ATOM     58  C   UNL     1      11.377   3.104  11.567  1.00  0.00     0.134 A 
ATOM     59  F   UNL     1       8.101   4.046  12.827  1.00  0.00    -0.206 F 
ATOM     60  C   UNL     1      10.219   4.238  13.823  1.00  0.00     0.040 A 
ATOM     61  C   UNL     1      12.178   3.470  12.647  1.00  0.00     0.040 A 
ATOM     62  F   UNL     1      11.974   2.562  10.494  1.00  0.00    -0.206 F 
ATOM     63  C   UNL     1      11.599   4.045  13.777  1.00  0.00     0.006 A 
ENDBRANCH  39  56
ENDBRANCH  13  14
ENDBRANCH   6   8
ENDBRANCH   5   6
ENDBRANCH   4   5
ENDBRANCH   3   4
ENDBRANCH   2   3
ENDBRANCH   1   2
BRANCH   1  64
ATOM     64  C   UNL     1       2.688   3.365  -1.661  1.00  0.00     0.261 C 
BRANCH  64  65
ATOM     65  O   UNL     1       3.300   3.381  -2.959  1.00  0.00    -0.460 OA
BRANCH  65  66
ATOM     66  C   UNL     1       4.658   3.383  -2.948  1.00  0.00     0.338 C 
ATOM     67  O   UNL     1       5.395   3.762  -2.054  1.00  0.00    -0.246 OA
BRANCH  66  68
ATOM     68  C   UNL     1       5.106   2.622  -4.131  1.00  0.00     0.062 A 
ATOM     69  C   UNL     1       6.190   1.750  -4.001  1.00  0.00     0.016 A 
ATOM     70  C   UNL     1       4.407   2.707  -5.338  1.00  0.00     0.041 A 
ATOM     71  C   UNL     1       6.539   0.925  -5.065  1.00  0.00     0.003 A 
ATOM     72  C   UNL     1       4.793   1.937  -6.436  1.00  0.00     0.039 A 
ATOM     73  C   UNL     1       5.842   1.020  -6.273  1.00  0.00     0.026 A 
BRANCH  72  74
ATOM     74  N   UNL     1       4.106   2.111  -7.654  1.00  0.00    -0.355 N 
ATOM     75  H   UNL     1       3.201   2.496  -7.606  1.00  0.00     0.167 HD
BRANCH  74  76
ATOM     76  C   UNL     1       4.594   1.785  -8.929  1.00  0.00     0.039 A 
ATOM     77  C   UNL     1       5.189   2.785  -9.708  1.00  0.00     0.033 A 
ATOM     78  C   UNL     1       4.576   0.466  -9.392  1.00  0.00     0.033 A 
ATOM     79  C   UNL     1       5.774   2.474 -10.935  1.00  0.00     0.088 A 
ATOM     80  C   UNL     1       5.151   0.142 -10.623  1.00  0.00     0.088 A 
ATOM     81  C   UNL     1       5.756   1.149 -11.386  1.00  0.00     0.269 A 
BRANCH  81  82
ATOM     82  N   UNL     1       6.394   0.810 -12.663  1.00  0.00     0.062 N 
ATOM     83  O   UNL     1       6.903   1.733 -13.315  1.00  0.00    -0.258 OA
ATOM     84  O   UNL     1       6.390  -0.379 -13.011  1.00  0.00    -0.258 OA
ENDBRANCH  81  82
ENDBRANCH  74  76
ENDBRANCH  72  74
ENDBRANCH  66  68
ENDBRANCH  65  66
ENDBRANCH  64  65
ENDBRANCH   1  64
TORSDOF 17
