REMARK SMILES C[C@H]1CC[C@@](Nc2ccc(C(N)=O)nn2)(C(=O)OCCOCCOC(=O)c2ccc(-c3c4nc(c(-c5c(F)cccc5F)c5ccc([nH]5)c(-c5c(F)cccc5F)c5nc(c(-c6c(F)cccc6F)c6ccc3[nH]6)C=C5)C=C4)cc2)CC1
REMARK SMILES IDX 20 1 19 2 18 3 16 4 17 5 5 6 1 7 2 8 82 9 3 10 81 11 4 12
REMARK SMILES IDX 6 13 7 15 8 16 15 17 9 18 14 19 10 20 11 21 12 22 13 23
REMARK SMILES IDX 21 26 22 27 23 28 24 29 25 30 26 31 27 32 28 33 80 34 29 35
REMARK SMILES IDX 79 36 30 37 31 38 32 39 73 40 33 41 78 42 72 43 74 44 34 45
REMARK SMILES IDX 77 46 71 47 70 48 35 50 61 51 44 52 60 53 45 54 48 55 59 56
REMARK SMILES IDX 75 57 46 58 47 59 58 61 76 62 49 63 36 64 37 65 42 66 38 67
REMARK SMILES IDX 39 68 41 69 43 70 40 71 62 72 63 73 68 74 64 75 65 76 67 77
REMARK SMILES IDX 69 78 66 79 50 80 51 81 56 82 52 83 53 84 55 85 57 86 54 87
REMARK H PARENT 6 14 12 24 12 25 74 49 48 60
REMARK Flexibility Score: inf
ROOT
ATOM      1  C   UNL     1      -1.550   0.523  -4.804  1.00  0.00     0.202 C 
ENDROOT
BRANCH   1   2
ATOM      2  C   UNL     1      -2.631   0.157  -3.785  1.00  0.00     0.261 C 
BRANCH   2   3
ATOM      3  O   UNL     1      -2.301   0.493  -2.423  1.00  0.00    -0.461 OA
BRANCH   3   4
ATOM      4  C   UNL     1      -2.090  -0.580  -1.604  1.00  0.00     0.331 C 
ATOM      5  O   UNL     1      -1.948  -1.729  -2.016  1.00  0.00    -0.249 OA
BRANCH   4   6
ATOM      6  C   UNL     1      -2.179  -0.219  -0.088  1.00  0.00     0.137 C 
ATOM      7  C   UNL     1       2.193  -0.006   0.441  1.00  0.00     0.007 C 
ATOM      8  C   UNL     1       0.707   0.000   0.803  1.00  0.00    -0.014 C 
ATOM      9  C   UNL     1       0.060  -1.338   0.439  1.00  0.00     0.006 C 
ATOM     10  C   UNL     1      -0.001   1.177   0.122  1.00  0.00     0.006 C 
ATOM     11  C   UNL     1      -1.449  -1.327   0.706  1.00  0.00     0.041 C 
ATOM     12  C   UNL     1      -1.522   1.142   0.260  1.00  0.00     0.041 C 
BRANCH   6  13
ATOM     13  N   UNL     1      -3.594  -0.167   0.406  1.00  0.00    -0.353 N 
ATOM     14  H   UNL     1      -3.768  -0.120   1.374  1.00  0.00     0.163 HD
BRANCH  13  15
ATOM     15  C   UNL     1      -4.660  -0.184  -0.479  1.00  0.00     0.149 A 
ATOM     16  C   UNL     1      -4.938  -1.280  -1.286  1.00  0.00     0.051 A 
ATOM     17  N   UNL     1      -5.405   0.937  -0.578  1.00  0.00    -0.132 NA
ATOM     18  C   UNL     1      -5.927  -1.186  -2.260  1.00  0.00     0.040 A 
ATOM     19  N   UNL     1      -6.388   1.046  -1.533  1.00  0.00    -0.143 NA
ATOM     20  C   UNL     1      -6.620   0.003  -2.364  1.00  0.00     0.150 A 
BRANCH  20  21
ATOM     21  C   UNL     1      -7.635   0.207  -3.433  1.00  0.00     0.269 C 
ATOM     22  N   UNL     1      -8.296   1.407  -3.422  1.00  0.00    -0.364 N 
ATOM     23  O   UNL     1      -7.864  -0.641  -4.287  1.00  0.00    -0.268 OA
ATOM     24  H   UNL     1      -8.095   2.073  -2.725  1.00  0.00     0.160 HD
ATOM     25  H   UNL     1      -8.971   1.603  -4.111  1.00  0.00     0.160 HD
ENDBRANCH  20  21
ENDBRANCH  13  15
ENDBRANCH   6  13
ENDBRANCH   4   6
ENDBRANCH   3   4
ENDBRANCH   2   3
ENDBRANCH   1   2
BRANCH   1  26
ATOM     26  O   UNL     1      -0.336  -0.223  -4.766  1.00  0.00    -0.374 OA
BRANCH  26  27
ATOM     27  C   UNL     1       0.544  -0.005  -3.667  1.00  0.00     0.202 C 
BRANCH  27  28
ATOM     28  C   UNL     1       1.312   1.321  -3.664  1.00  0.00     0.261 C 
BRANCH  28  29
ATOM     29  O   UNL     1       0.426   2.454  -3.654  1.00  0.00    -0.460 OA
BRANCH  29  30
ATOM     30  C   UNL     1       0.696   3.374  -4.612  1.00  0.00     0.338 C 
ATOM     31  O   UNL     1       1.677   3.433  -5.331  1.00  0.00    -0.246 OA
BRANCH  30  32
ATOM     32  C   UNL     1      -0.468   4.254  -4.810  1.00  0.00     0.060 A 
ATOM     33  C   UNL     1      -1.165   4.142  -6.020  1.00  0.00     0.016 A 
ATOM     34  C   UNL     1      -0.787   5.254  -3.891  1.00  0.00     0.016 A 
ATOM     35  C   UNL     1      -2.159   5.064  -6.336  1.00  0.00     0.010 A 
ATOM     36  C   UNL     1      -1.779   6.187  -4.217  1.00  0.00     0.010 A 
ATOM     37  C   UNL     1      -2.443   6.116  -5.455  1.00  0.00    -0.014 A 
BRANCH  37  38
ATOM     38  C   UNL     1      -3.341   7.209  -5.898  1.00  0.00     0.031 A 
ATOM     39  C   UNL     1      -2.745   8.453  -6.497  1.00  0.00     0.074 A 
ATOM     40  C   UNL     1      -4.675   7.074  -5.809  1.00  0.00     0.049 A 
ATOM     41  N   UNL     1      -3.345   9.518  -6.963  1.00  0.00    -0.248 NA
ATOM     42  C   UNL     1      -1.276   8.502  -6.584  1.00  0.00     0.031 C 
ATOM     43  C   UNL     1      -5.370   5.903  -5.279  1.00  0.00     0.029 A 
ATOM     44  N   UNL     1      -5.682   7.935  -6.163  1.00  0.00    -0.354 N 
ATOM     45  C   UNL     1      -2.332  10.360  -7.404  1.00  0.00     0.074 A 
ATOM     46  C   UNL     1      -1.077   9.696  -7.124  1.00  0.00     0.031 C 
ATOM     47  C   UNL     1      -6.695   6.123  -5.335  1.00  0.00     0.029 A 
ATOM     48  C   UNL     1      -6.937   7.457  -5.882  1.00  0.00     0.049 A 
ATOM     49  H   UNL     1      -5.520   8.813  -6.580  1.00  0.00     0.167 HD
ATOM     50  C   UNL     1      -2.439  11.573  -7.997  1.00  0.00     0.037 A 
ATOM     51  C   UNL     1      -8.143   8.038  -6.033  1.00  0.00     0.037 A 
ATOM     52  C   UNL     1      -3.686  12.236  -8.273  1.00  0.00     0.049 A 
ATOM     53  C   UNL     1      -8.231   9.417  -6.628  1.00  0.00     0.074 A 
ATOM     54  C   UNL     1      -3.898  13.453  -8.897  1.00  0.00     0.029 A 
ATOM     55  N   UNL     1      -4.934  11.740  -7.929  1.00  0.00    -0.354 N 
ATOM     56  N   UNL     1      -7.269  10.188  -7.074  1.00  0.00    -0.248 NA
ATOM     57  C   UNL     1      -9.573  10.007  -6.740  1.00  0.00     0.031 C 
ATOM     58  C   UNL     1      -5.272  13.714  -8.890  1.00  0.00     0.029 A 
ATOM     59  C   UNL     1      -5.919  12.641  -8.299  1.00  0.00     0.049 A 
ATOM     60  H   UNL     1      -5.096  10.875  -7.488  1.00  0.00     0.167 HD
ATOM     61  C   UNL     1      -7.888  11.343  -7.534  1.00  0.00     0.074 A 
ATOM     62  C   UNL     1      -9.310  11.167  -7.327  1.00  0.00     0.031 C 
ATOM     63  C   UNL     1      -7.329  12.452  -8.078  1.00  0.00     0.037 A 
BRANCH  50  64
ATOM     64  C   UNL     1      -1.167  12.273  -8.371  1.00  0.00     0.057 A 
ATOM     65  C   UNL     1      -0.398  11.869  -9.469  1.00  0.00     0.134 A 
ATOM     66  C   UNL     1      -0.726  13.388  -7.646  1.00  0.00     0.134 A 
ATOM     67  F   UNL     1      -0.760  10.801 -10.196  1.00  0.00    -0.206 F 
ATOM     68  C   UNL     1       0.774  12.539  -9.824  1.00  0.00     0.040 A 
ATOM     69  C   UNL     1       0.433  14.078  -8.003  1.00  0.00     0.040 A 
ATOM     70  F   UNL     1      -1.420  13.827  -6.585  1.00  0.00    -0.206 F 
ATOM     71  C   UNL     1       1.189  13.651  -9.093  1.00  0.00     0.006 A 
ENDBRANCH  50  64
BRANCH  51  72
ATOM     72  C   UNL     1      -9.367   7.324  -5.596  1.00  0.00     0.057 A 
ATOM     73  C   UNL     1     -10.293   6.832  -6.523  1.00  0.00     0.134 A 
ATOM     74  C   UNL     1      -9.646   7.129  -4.238  1.00  0.00     0.134 A 
ATOM     75  F   UNL     1     -10.092   7.010  -7.836  1.00  0.00    -0.206 F 
ATOM     76  C   UNL     1     -11.459   6.182  -6.114  1.00  0.00     0.040 A 
ATOM     77  C   UNL     1     -10.797   6.462  -3.816  1.00  0.00     0.040 A 
ATOM     78  F   UNL     1      -8.797   7.578  -3.301  1.00  0.00    -0.206 F 
ATOM     79  C   UNL     1     -11.710   5.991  -4.756  1.00  0.00     0.006 A 
ENDBRANCH  51  72
BRANCH  63  80
ATOM     80  C   UNL     1      -8.258  13.553  -8.494  1.00  0.00     0.057 A 
ATOM     81  C   UNL     1      -8.873  14.389  -7.554  1.00  0.00     0.134 A 
ATOM     82  C   UNL     1      -8.509  13.805  -9.849  1.00  0.00     0.134 A 
ATOM     83  F   UNL     1      -8.682  14.191  -6.241  1.00  0.00    -0.206 F 
ATOM     84  C   UNL     1      -9.721  15.426  -7.947  1.00  0.00     0.040 A 
ATOM     85  C   UNL     1      -9.338  14.852 -10.254  1.00  0.00     0.040 A 
ATOM     86  F   UNL     1      -7.944  13.045 -10.799  1.00  0.00    -0.206 F 
ATOM     87  C   UNL     1      -9.950  15.663  -9.301  1.00  0.00     0.006 A 
ENDBRANCH  63  80
ENDBRANCH  37  38
ENDBRANCH  30  32
ENDBRANCH  29  30
ENDBRANCH  28  29
ENDBRANCH  27  28
ENDBRANCH  26  27
ENDBRANCH   1  26
TORSDOF 17
