REMARK SMILES CC1=NN(c2ccccc2)C(=O)/C1=C\c1ccc(-c2cc(C(=O)OCCOCCOC(=O)c3ccc(-c4c5nc(c(-c6c(F)cccc6F)c6ccc([nH]6)c(-c6c(F)cccc6F)c6nc(c(-c7c(F)cccc7F)c7ccc4[nH]7)C=C6)C=C5)cc3)ccc2Cl)o1
REMARK SMILES IDX 26 1 25 2 24 3 22 4 23 5 21 6 19 7 20 8 89 9 88 10 90 11
REMARK SMILES IDX 87 12 18 13 15 14 16 15 91 16 17 17 14 18 1 19 2 20 3 21
REMARK SMILES IDX 13 22 4 23 11 24 12 25 5 26 6 27 10 28 7 29 9 30 8 31 27 32
REMARK SMILES IDX 28 33 29 34 30 35 31 36 32 37 33 38 34 39 86 40 35 41 85 42
REMARK SMILES IDX 36 43 37 44 38 45 79 46 39 47 84 48 78 49 80 50 40 51 83 52
REMARK SMILES IDX 77 53 76 54 41 56 67 57 50 58 66 59 51 60 54 61 65 62 81 63
REMARK SMILES IDX 52 64 53 65 64 67 82 68 55 69 42 70 43 71 48 72 44 73 45 74
REMARK SMILES IDX 47 75 49 76 46 77 68 78 69 79 74 80 70 81 71 82 73 83 75 84
REMARK SMILES IDX 72 85 56 86 57 87 62 88 58 89 59 90 61 91 63 92 60 93
REMARK H PARENT 80 55 54 66
REMARK Flexibility Score: inf
ROOT
ATOM      1  C   UNL     1       4.838  -5.910  -7.424  1.00  0.00     0.202 C 
ENDROOT
BRANCH   1   2
ATOM      2  C   UNL     1       6.166  -5.519  -6.764  1.00  0.00     0.261 C 
BRANCH   2   3
ATOM      3  O   UNL     1       6.162  -5.821  -5.359  1.00  0.00    -0.460 OA
BRANCH   3   4
ATOM      4  C   UNL     1       6.163  -4.747  -4.529  1.00  0.00     0.338 C 
ATOM      5  O   UNL     1       6.318  -3.579  -4.837  1.00  0.00    -0.246 OA
BRANCH   4   6
ATOM      6  C   UNL     1       5.732  -5.188  -3.180  1.00  0.00     0.060 A 
ATOM      7  C   UNL     1       4.384  -4.750  -1.195  1.00  0.00     0.037 A 
ATOM      8  C   UNL     1       4.861  -4.357  -2.455  1.00  0.00     0.029 A 
ATOM      9  C   UNL     1       4.805  -5.987  -0.672  1.00  0.00     0.052 A 
ATOM     10  C   UNL     1       5.666  -6.816  -1.401  1.00  0.00     0.022 A 
ATOM     11  Cl  UNL     1       4.290  -6.560   0.879  1.00  0.00    -0.084 Cl
ATOM     12  C   UNL     1       6.127  -6.423  -2.657  1.00  0.00     0.017 A 
BRANCH   7  13
ATOM     13  C   UNL     1       3.546  -3.841  -0.429  1.00  0.00     0.136 A 
ATOM     14  C   UNL     1       1.695  -2.678  -0.040  1.00  0.00     0.128 A 
ATOM     15  C   UNL     1       2.564  -2.486   1.032  1.00  0.00     0.051 A 
ATOM     16  O   UNL     1       2.305  -3.546  -0.924  1.00  0.00    -0.457 OA
ATOM     17  C   UNL     1       3.749  -3.195   0.767  1.00  0.00     0.051 A 
BRANCH  14  18
ATOM     18  C   UNL     1       0.399  -2.105  -0.202  1.00  0.00     0.063 C 
ATOM     19  C   UNL     1      -2.362  -0.600   0.055  1.00  0.00     0.069 C 
ATOM     20  C   UNL     1      -0.997   0.001  -0.001  1.00  0.00     0.071 C 
ATOM     21  N   UNL     1      -0.762   1.277   0.167  1.00  0.00    -0.169 NA
ATOM     22  C   UNL     1       0.243  -0.773  -0.210  1.00  0.00     0.068 C 
ATOM     23  N   UNL     1       0.604   1.438  -0.039  1.00  0.00    -0.196 N 
ATOM     24  C   UNL     1       1.300   0.259  -0.312  1.00  0.00     0.280 C 
ATOM     25  O   UNL     1       2.478   0.080  -0.571  1.00  0.00    -0.267 OA
BRANCH  23  26
ATOM     26  C   UNL     1       1.160   2.731  -0.062  1.00  0.00     0.069 A 
ATOM     27  C   UNL     1       0.702   3.725   0.808  1.00  0.00     0.028 A 
ATOM     28  C   UNL     1       2.204   3.031  -0.949  1.00  0.00     0.028 A 
ATOM     29  C   UNL     1       1.315   4.983   0.821  1.00  0.00     0.002 A 
ATOM     30  C   UNL     1       2.780   4.300  -0.971  1.00  0.00     0.002 A 
ATOM     31  C   UNL     1       2.346   5.271  -0.074  1.00  0.00     0.000 A 
ENDBRANCH  23  26
ENDBRANCH  14  18
ENDBRANCH   7  13
ENDBRANCH   4   6
ENDBRANCH   3   4
ENDBRANCH   2   3
ENDBRANCH   1   2
BRANCH   1  32
ATOM     32  O   UNL     1       3.665  -5.200  -7.025  1.00  0.00    -0.374 OA
BRANCH  32  33
ATOM     33  C   UNL     1       3.100  -5.500  -5.751  1.00  0.00     0.202 C 
BRANCH  33  34
ATOM     34  C   UNL     1       2.282  -6.789  -5.606  1.00  0.00     0.261 C 
BRANCH  34  35
ATOM     35  O   UNL     1       3.018  -7.971  -5.960  1.00  0.00    -0.460 OA
BRANCH  35  36
ATOM     36  C   UNL     1       2.689  -8.478  -7.173  1.00  0.00     0.338 C 
ATOM     37  O   UNL     1       1.824  -8.078  -7.934  1.00  0.00    -0.246 OA
BRANCH  36  38
ATOM     38  C   UNL     1       3.645  -9.529  -7.564  1.00  0.00     0.060 A 
ATOM     39  C   UNL     1       4.266  -9.396  -8.812  1.00  0.00     0.016 A 
ATOM     40  C   UNL     1       3.847 -10.669  -6.785  1.00  0.00     0.016 A 
ATOM     41  C   UNL     1       5.035 -10.437  -9.319  1.00  0.00     0.010 A 
ATOM     42  C   UNL     1       4.622 -11.716  -7.298  1.00  0.00     0.010 A 
ATOM     43  C   UNL     1       5.179 -11.623  -8.587  1.00  0.00    -0.014 A 
BRANCH  43  44
ATOM     44  C   UNL     1       5.778 -12.809  -9.247  1.00  0.00     0.031 A 
ATOM     45  C   UNL     1       4.878 -13.915  -9.730  1.00  0.00     0.074 A 
ATOM     46  C   UNL     1       7.103 -12.872  -9.472  1.00  0.00     0.049 A 
ATOM     47  N   UNL     1       5.186 -15.028 -10.347  1.00  0.00    -0.248 NA
ATOM     48  C   UNL     1       3.437 -13.745  -9.482  1.00  0.00     0.031 C 
ATOM     49  C   UNL     1       8.074 -11.851  -9.084  1.00  0.00     0.029 A 
ATOM     50  N   UNL     1       7.857 -13.839 -10.087  1.00  0.00    -0.354 N 
ATOM     51  C   UNL     1       3.982 -15.691 -10.555  1.00  0.00     0.074 A 
ATOM     52  C   UNL     1       2.944 -14.877  -9.961  1.00  0.00     0.031 C 
ATOM     53  C   UNL     1       9.298 -12.244  -9.474  1.00  0.00     0.029 A 
ATOM     54  C   UNL     1       9.200 -13.557 -10.108  1.00  0.00     0.049 A 
ATOM     55  H   UNL     1       7.471 -14.657 -10.477  1.00  0.00     0.167 HD
ATOM     56  C   UNL     1       3.760 -16.865 -11.194  1.00  0.00     0.037 A 
ATOM     57  C   UNL     1      10.234 -14.284 -10.573  1.00  0.00     0.037 A 
ATOM     58  C   UNL     1       4.795 -17.672 -11.788  1.00  0.00     0.049 A 
ATOM     59  C   UNL     1       9.967 -15.617 -11.222  1.00  0.00     0.074 A 
ATOM     60  C   UNL     1       4.669 -18.865 -12.479  1.00  0.00     0.029 A 
ATOM     61  N   UNL     1       6.149 -17.373 -11.752  1.00  0.00    -0.354 N 
ATOM     62  N   UNL     1       8.822 -16.218 -11.443  1.00  0.00    -0.248 NA
ATOM     63  C   UNL     1      11.139 -16.368 -11.693  1.00  0.00     0.031 C 
ATOM     64  C   UNL     1       5.950 -19.318 -12.807  1.00  0.00     0.029 A 
ATOM     65  C   UNL     1       6.872 -18.375 -12.380  1.00  0.00     0.049 A 
ATOM     66  H   UNL     1       6.539 -16.568 -11.341  1.00  0.00     0.167 HD
ATOM     67  C   UNL     1       9.134 -17.402 -12.102  1.00  0.00     0.074 A 
ATOM     68  C   UNL     1      10.573 -17.421 -12.264  1.00  0.00     0.031 C 
ATOM     69  C   UNL     1       8.305 -18.385 -12.533  1.00  0.00     0.037 A 
BRANCH  56  70
ATOM     70  C   UNL     1       2.342 -17.360 -11.262  1.00  0.00     0.057 A 
ATOM     71  C   UNL     1       1.369 -16.726 -12.047  1.00  0.00     0.134 A 
ATOM     72  C   UNL     1       1.954 -18.506 -10.556  1.00  0.00     0.134 A 
ATOM     73  F   UNL     1       1.669 -15.616 -12.739  1.00  0.00    -0.206 F 
ATOM     74  C   UNL     1       0.056 -17.198 -12.104  1.00  0.00     0.040 A 
ATOM     75  C   UNL     1       0.652 -19.004 -10.630  1.00  0.00     0.040 A 
ATOM     76  F   UNL     1       2.835 -19.166  -9.790  1.00  0.00    -0.206 F 
ATOM     77  C   UNL     1      -0.303 -18.345 -11.400  1.00  0.00     0.006 A 
ENDBRANCH  56  70
BRANCH  57  78
ATOM     78  C   UNL     1      11.623 -13.775 -10.437  1.00  0.00     0.057 A 
ATOM     79  C   UNL     1      12.382 -13.419 -11.559  1.00  0.00     0.134 A 
ATOM     80  C   UNL     1      12.236 -13.660  -9.183  1.00  0.00     0.134 A 
ATOM     81  F   UNL     1      11.860 -13.529 -12.789  1.00  0.00    -0.206 F 
ATOM     82  C   UNL     1      13.705 -12.991 -11.441  1.00  0.00     0.040 A 
ATOM     83  C   UNL     1      13.548 -13.204  -9.048  1.00  0.00     0.040 A 
ATOM     84  F   UNL     1      11.563 -13.982  -8.068  1.00  0.00    -0.206 F 
ATOM     85  C   UNL     1      14.290 -12.878 -10.181  1.00  0.00     0.006 A 
ENDBRANCH  57  78
BRANCH  69  86
ATOM     86  C   UNL     1       8.934 -19.547 -13.251  1.00  0.00     0.057 A 
ATOM     87  C   UNL     1       9.748 -20.477 -12.591  1.00  0.00     0.134 A 
ATOM     88  C   UNL     1       8.708 -19.747 -14.620  1.00  0.00     0.134 A 
ATOM     89  F   UNL     1      10.014 -20.341 -11.283  1.00  0.00    -0.206 F 
ATOM     90  C   UNL     1      10.346 -21.539 -13.273  1.00  0.00     0.040 A 
ATOM     91  C   UNL     1       9.273 -20.824 -15.305  1.00  0.00     0.040 A 
ATOM     92  F   UNL     1       7.929 -18.903 -15.313  1.00  0.00    -0.206 F 
ATOM     93  C   UNL     1      10.104 -21.717 -14.634  1.00  0.00     0.006 A 
ENDBRANCH  69  86
ENDBRANCH  43  44
ENDBRANCH  36  38
ENDBRANCH  35  36
ENDBRANCH  34  35
ENDBRANCH  33  34
ENDBRANCH  32  33
ENDBRANCH   1  32
TORSDOF 17
