REMARK SMILES C[N@H+]1CC[C@@H](Cc2nccnc2C(=O)OCCOCCOC(=O)c2ccc(-c3c4nc(c(-c5c(F)cccc5F)c5ccc([nH]5)c(-c5c(F)cccc5F)c5nc(c(-c6c(F)cccc6F)c6ccc3[nH]6)C=C5)C=C4)cc2)C1
REMARK SMILES IDX 18 1 17 2 16 3 15 4 13 5 14 6 12 7 7 8 8 9 9 10 11 11 10 12
REMARK SMILES IDX 6 13 5 14 1 15 2 16 3 17 78 18 4 20 19 21 20 22 21 23 22 24
REMARK SMILES IDX 23 25 24 26 25 27 77 28 26 29 76 30 27 31 28 32 29 33 70 34
REMARK SMILES IDX 30 35 75 36 69 37 71 38 31 39 74 40 68 41 67 42 32 44 58 45
REMARK SMILES IDX 41 46 57 47 42 48 45 49 56 50 72 51 43 52 44 53 55 55 73 56
REMARK SMILES IDX 46 57 33 58 34 59 39 60 35 61 36 62 38 63 40 64 37 65 59 66
REMARK SMILES IDX 60 67 65 68 61 69 62 70 64 71 66 72 63 73 47 74 48 75 53 76
REMARK SMILES IDX 49 77 50 78 52 79 54 80 51 81
REMARK H PARENT 2 19 71 43 45 54
REMARK Flexibility Score: inf
ROOT
ATOM      1  O   UNL     1      -0.015  -2.381   5.286  1.00  0.00    -0.374 OA
ENDROOT
BRANCH   1   2
ATOM      2  C   UNL     1       0.789  -1.202   5.258  1.00  0.00     0.202 C 
BRANCH   2   3
ATOM      3  C   UNL     1       2.268  -1.436   4.954  1.00  0.00     0.261 C 
BRANCH   3   4
ATOM      4  O   UNL     1       2.411  -1.883   3.593  1.00  0.00    -0.458 OA
BRANCH   4   5
ATOM      5  C   UNL     1       3.001  -3.089   3.419  1.00  0.00     0.358 C 
ATOM      6  O   UNL     1       3.571  -3.719   4.298  1.00  0.00    -0.244 OA
BRANCH   5   7
ATOM      7  C   UNL     1       2.748  -3.640   2.047  1.00  0.00     0.169 A 
ATOM      8  C   UNL     1       2.598  -2.910   0.861  1.00  0.00     0.074 A 
ATOM      9  N   UNL     1       2.438  -3.566  -0.331  1.00  0.00    -0.257 NA
ATOM     10  C   UNL     1       2.369  -4.912  -0.306  1.00  0.00     0.131 A 
ATOM     11  N   UNL     1       2.658  -5.008   2.053  1.00  0.00    -0.246 NA
ATOM     12  C   UNL     1       2.461  -5.619   0.869  1.00  0.00     0.132 A 
BRANCH   8  13
ATOM     13  C   UNL     1       2.633  -1.406   0.727  1.00  0.00     0.068 C 
BRANCH  13  14
ATOM     14  C   UNL     1       1.739  -0.873  -0.415  1.00  0.00     0.056 C 
ATOM     15  C   UNL     1      -1.886  -0.248  -0.507  1.00  0.00     0.332 C 
ATOM     16  N   UNL     1      -0.468  -0.175  -0.820  1.00  0.00    -0.337 N 
ATOM     17  C   UNL     1       0.203   0.987  -0.247  1.00  0.00     0.262 C 
ATOM     18  C   UNL     1       0.274  -1.317  -0.284  1.00  0.00     0.266 C 
ATOM     19  H   UNL     1      -0.459  -0.140  -1.840  1.00  0.00     0.347 HD
ATOM     20  C   UNL     1       1.673   0.662  -0.452  1.00  0.00     0.071 C 
ENDBRANCH  13  14
ENDBRANCH   8  13
ENDBRANCH   5   7
ENDBRANCH   4   5
ENDBRANCH   3   4
ENDBRANCH   2   3
ENDBRANCH   1   2
BRANCH   1  21
ATOM     21  C   UNL     1      -0.486  -2.867   4.028  1.00  0.00     0.202 C 
BRANCH  21  22
ATOM     22  C   UNL     1      -1.741  -2.175   3.483  1.00  0.00     0.261 C 
BRANCH  22  23
ATOM     23  O   UNL     1      -1.503  -0.794   3.152  1.00  0.00    -0.460 OA
BRANCH  23  24
ATOM     24  C   UNL     1      -2.003   0.115   4.024  1.00  0.00     0.338 C 
ATOM     25  O   UNL     1      -2.662  -0.096   5.029  1.00  0.00    -0.246 OA
BRANCH  24  26
ATOM     26  C   UNL     1      -1.495   1.447   3.654  1.00  0.00     0.060 A 
ATOM     27  C   UNL     1      -0.716   2.163   4.569  1.00  0.00     0.016 A 
ATOM     28  C   UNL     1      -1.804   1.998   2.413  1.00  0.00     0.016 A 
ATOM     29  C   UNL     1      -0.256   3.442   4.244  1.00  0.00     0.010 A 
ATOM     30  C   UNL     1      -1.297   3.251   2.068  1.00  0.00     0.010 A 
ATOM     31  C   UNL     1      -0.558   4.006   2.996  1.00  0.00    -0.014 A 
BRANCH  31  32
ATOM     32  C   UNL     1      -0.281   5.439   2.702  1.00  0.00     0.031 A 
ATOM     33  C   UNL     1      -1.454   6.367   2.502  1.00  0.00     0.074 A 
ATOM     34  C   UNL     1       0.973   5.913   2.585  1.00  0.00     0.049 A 
ATOM     35  N   UNL     1      -1.476   7.611   2.096  1.00  0.00    -0.248 NA
ATOM     36  C   UNL     1      -2.788   5.800   2.763  1.00  0.00     0.031 C 
ATOM     37  C   UNL     1       2.199   5.137   2.760  1.00  0.00     0.029 A 
ATOM     38  N   UNL     1       1.419   7.176   2.273  1.00  0.00    -0.354 N 
ATOM     39  C   UNL     1      -2.820   7.955   2.014  1.00  0.00     0.074 A 
ATOM     40  C   UNL     1      -3.583   6.776   2.356  1.00  0.00     0.031 C 
ATOM     41  C   UNL     1       3.259   5.941   2.560  1.00  0.00     0.029 A 
ATOM     42  C   UNL     1       2.788   7.277   2.201  1.00  0.00     0.049 A 
ATOM     43  H   UNL     1       0.815   7.936   2.116  1.00  0.00     0.167 HD
ATOM     44  C   UNL     1      -3.375   9.151   1.709  1.00  0.00     0.037 A 
ATOM     45  C   UNL     1       3.569   8.324   1.865  1.00  0.00     0.037 A 
ATOM     46  C   UNL     1      -2.619  10.338   1.419  1.00  0.00     0.049 A 
ATOM     47  C   UNL     1       2.930   9.642   1.505  1.00  0.00     0.074 A 
ATOM     48  C   UNL     1      -3.087  11.611   1.147  1.00  0.00     0.029 A 
ATOM     49  N   UNL     1      -1.235  10.399   1.372  1.00  0.00    -0.354 N 
ATOM     50  N   UNL     1       1.660   9.963   1.460  1.00  0.00    -0.248 NA
ATOM     51  C   UNL     1       3.837  10.746   1.152  1.00  0.00     0.031 C 
ATOM     52  C   UNL     1      -1.986  12.432   0.886  1.00  0.00     0.029 A 
ATOM     53  C   UNL     1      -0.832  11.685   1.057  1.00  0.00     0.049 A 
ATOM     54  H   UNL     1      -0.630   9.640   1.537  1.00  0.00     0.167 HD
ATOM     55  C   UNL     1       1.617  11.310   1.115  1.00  0.00     0.074 A 
ATOM     56  C   UNL     1       2.988  11.747   0.968  1.00  0.00     0.031 C 
ATOM     57  C   UNL     1       0.538  12.113   0.941  1.00  0.00     0.037 A 
BRANCH  44  58
ATOM     58  C   UNL     1      -4.875   9.228   1.669  1.00  0.00     0.057 A 
ATOM     59  C   UNL     1      -5.658   9.112   2.826  1.00  0.00     0.134 A 
ATOM     60  C   UNL     1      -5.545   9.438   0.457  1.00  0.00     0.134 A 
ATOM     61  F   UNL     1      -5.082   8.894   4.019  1.00  0.00    -0.206 F 
ATOM     62  C   UNL     1      -7.052   9.166   2.774  1.00  0.00     0.040 A 
ATOM     63  C   UNL     1      -6.936   9.529   0.397  1.00  0.00     0.040 A 
ATOM     64  F   UNL     1      -4.858   9.564  -0.688  1.00  0.00    -0.206 F 
ATOM     65  C   UNL     1      -7.694   9.383   1.557  1.00  0.00     0.006 A 
ENDBRANCH  44  58
BRANCH  45  66
ATOM     66  C   UNL     1       5.050   8.182   1.855  1.00  0.00     0.057 A 
ATOM     67  C   UNL     1       5.848   8.860   2.784  1.00  0.00     0.134 A 
ATOM     68  C   UNL     1       5.704   7.395   0.900  1.00  0.00     0.134 A 
ATOM     69  F   UNL     1       5.284   9.649   3.710  1.00  0.00    -0.206 F 
ATOM     70  C   UNL     1       7.242   8.780   2.751  1.00  0.00     0.040 A 
ATOM     71  C   UNL     1       7.096   7.283   0.872  1.00  0.00     0.040 A 
ATOM     72  F   UNL     1       4.999   6.716  -0.018  1.00  0.00    -0.206 F 
ATOM     73  C   UNL     1       7.869   7.985   1.794  1.00  0.00     0.006 A 
ENDBRANCH  45  66
BRANCH  57  74
ATOM     74  C   UNL     1       0.787  13.563   0.637  1.00  0.00     0.057 A 
ATOM     75  C   UNL     1       1.270  13.994  -0.604  1.00  0.00     0.134 A 
ATOM     76  C   UNL     1       0.473  14.546   1.585  1.00  0.00     0.134 A 
ATOM     77  F   UNL     1       1.599  13.104  -1.553  1.00  0.00    -0.206 F 
ATOM     78  C   UNL     1       1.450  15.350  -0.885  1.00  0.00     0.040 A 
ATOM     79  C   UNL     1       0.621  15.905   1.306  1.00  0.00     0.040 A 
ATOM     80  F   UNL     1      -0.005  14.203   2.791  1.00  0.00    -0.206 F 
ATOM     81  C   UNL     1       1.116  16.310   0.068  1.00  0.00     0.006 A 
ENDBRANCH  57  74
ENDBRANCH  31  32
ENDBRANCH  24  26
ENDBRANCH  23  24
ENDBRANCH  22  23
ENDBRANCH  21  22
ENDBRANCH   1  21
TORSDOF 16
