REMARK SMILES Cc1cc(C(=O)N[C@@H]2C(=O)N3C(C(=O)OCCOCCOC(=O)c4ccc(-c5c6nc(c(-c7c(F)cccc7F)c7ccc([nH]7)c(-c7c(F)cccc7F)c7nc(c(-c8c(F)cccc8F)c8ccc5[nH]8)C=C7)C=C6)cc4)=C(CSc4nnc(C)s4)CS[C@H]23)n(C)n1
REMARK SMILES IDX 17 1 16 2 15 3 13 4 14 5 12 6 8 7 9 8 89 9 10 10 11 11 88 12
REMARK SMILES IDX 87 13 78 14 7 15 5 16 6 17 4 19 1 20 2 21 3 22 92 23 90 24
REMARK SMILES IDX 91 25 79 26 80 27 81 28 82 29 86 30 83 31 84 32 85 33 18 34
REMARK SMILES IDX 19 35 20 36 21 37 22 38 23 39 24 40 25 41 77 42 26 43 76 44
REMARK SMILES IDX 27 45 28 46 29 47 70 48 30 49 75 50 69 51 71 52 31 53 74 54
REMARK SMILES IDX 68 55 67 56 32 58 58 59 41 60 57 61 42 62 45 63 56 64 72 65
REMARK SMILES IDX 43 66 44 67 55 69 73 70 46 71 33 72 34 73 39 74 35 75 36 76
REMARK SMILES IDX 38 77 40 78 37 79 59 80 60 81 65 82 61 83 62 84 64 85 66 86
REMARK SMILES IDX 63 87 47 88 48 89 53 90 49 91 50 92 52 93 54 94 51 95
REMARK H PARENT 7 18 71 57 45 68
REMARK Flexibility Score: inf
ROOT
ATOM      1  C   UNL     1      -3.757   1.671  -2.583  1.00  0.00     0.202 C 
ENDROOT
BRANCH   1   2
ATOM      2  C   UNL     1      -3.029   0.815  -3.615  1.00  0.00     0.261 C 
BRANCH   2   3
ATOM      3  O   UNL     1      -3.289  -0.581  -3.383  1.00  0.00    -0.459 OA
BRANCH   3   4
ATOM      4  C   UNL     1      -2.201  -1.309  -3.057  1.00  0.00     0.355 C 
ATOM      5  O   UNL     1      -1.041  -0.916  -3.098  1.00  0.00    -0.244 OA
BRANCH   4   6
ATOM      6  C   UNL     1      -2.526  -2.698  -2.595  1.00  0.00     0.132 C 
ATOM      7  C   UNL     1      -0.299  -4.107  -0.430  1.00  0.00     0.206 C 
ATOM      8  C   UNL     1      -1.100  -2.768  -0.499  1.00  0.00     0.253 C 
ATOM      9  C   UNL     1      -1.226  -4.535  -1.609  1.00  0.00     0.181 C 
ATOM     10  O   UNL     1      -1.229  -1.777   0.175  1.00  0.00    -0.272 OA
ATOM     11  N   UNL     1      -1.652  -3.172  -1.668  1.00  0.00    -0.289 N 
ATOM     12  S   UNL     1      -2.708  -5.505  -1.256  1.00  0.00    -0.129 SA
ATOM     13  C   UNL     1      -3.461  -5.042  -2.836  1.00  0.00     0.106 C 
ATOM     14  C   UNL     1      -3.450  -3.538  -3.133  1.00  0.00    -0.019 C 
BRANCH   7  15
ATOM     15  N   UNL     1      -0.293  -4.946   0.791  1.00  0.00    -0.336 N 
ATOM     16  C   UNL     1       0.020  -6.294   0.882  1.00  0.00     0.270 C 
ATOM     17  O   UNL     1      -0.032  -6.818   1.992  1.00  0.00    -0.268 OA
ATOM     18  H   UNL     1      -0.539  -4.497   1.631  1.00  0.00     0.164 HD
BRANCH  16  19
ATOM     19  C   UNL     1       0.313  -7.026  -0.337  1.00  0.00     0.126 A 
ATOM     20  C   UNL     1       0.410  -7.380  -3.963  1.00  0.00     0.069 C 
ATOM     21  C   UNL     1       0.449  -7.549  -2.490  1.00  0.00     0.060 A 
ATOM     22  C   UNL     1       0.921  -6.636  -1.523  1.00  0.00     0.059 A 
ATOM     23  N   UNL     1      -0.087  -8.621  -1.908  1.00  0.00    -0.178 NA
ATOM     24  N   UNL     1      -0.030  -8.337  -0.586  1.00  0.00    -0.263 N 
ATOM     25  C   UNL     1      -0.344  -9.398   0.340  1.00  0.00     0.174 C 
ENDBRANCH  16  19
ENDBRANCH   7  15
BRANCH  14  26
ATOM     26  C   UNL     1      -4.496  -3.171  -4.155  1.00  0.00     0.111 C 
BRANCH  26  27
ATOM     27  S   UNL     1      -6.010  -2.399  -3.530  1.00  0.00    -0.089 SA
BRANCH  27  28
ATOM     28  C   UNL     1      -6.506  -3.236  -2.079  1.00  0.00     0.174 A 
ATOM     29  N   UNL     1      -5.791  -4.132  -1.443  1.00  0.00    -0.132 NA
ATOM     30  S   UNL     1      -7.982  -2.881  -1.278  1.00  0.00    -0.091 S 
ATOM     31  N   UNL     1      -6.311  -4.460  -0.205  1.00  0.00    -0.143 NA
ATOM     32  C   UNL     1      -7.410  -3.788   0.054  1.00  0.00     0.115 A 
ATOM     33  C   UNL     1      -8.112  -3.753   1.362  1.00  0.00     0.081 C 
ENDBRANCH  27  28
ENDBRANCH  26  27
ENDBRANCH  14  26
ENDBRANCH   4   6
ENDBRANCH   3   4
ENDBRANCH   2   3
ENDBRANCH   1   2
BRANCH   1  34
ATOM     34  O   UNL     1      -3.293   1.633  -1.236  1.00  0.00    -0.374 OA
BRANCH  34  35
ATOM     35  C   UNL     1      -3.473   0.431  -0.492  1.00  0.00     0.202 C 
BRANCH  35  36
ATOM     36  C   UNL     1      -4.879   0.102   0.030  1.00  0.00     0.261 C 
BRANCH  36  37
ATOM     37  O   UNL     1      -5.907   0.180  -0.969  1.00  0.00    -0.460 OA
BRANCH  37  38
ATOM     38  C   UNL     1      -6.632   1.327  -0.952  1.00  0.00     0.338 C 
ATOM     39  O   UNL     1      -6.548   2.255  -0.169  1.00  0.00    -0.246 OA
BRANCH  38  40
ATOM     40  C   UNL     1      -7.491   1.360  -2.149  1.00  0.00     0.060 A 
ATOM     41  C   UNL     1      -7.302   2.365  -3.102  1.00  0.00     0.016 A 
ATOM     42  C   UNL     1      -8.514   0.431  -2.300  1.00  0.00     0.016 A 
ATOM     43  C   UNL     1      -8.154   2.444  -4.203  1.00  0.00     0.010 A 
ATOM     44  C   UNL     1      -9.330   0.471  -3.429  1.00  0.00     0.010 A 
ATOM     45  C   UNL     1      -9.190   1.511  -4.361  1.00  0.00    -0.014 A 
BRANCH  45  46
ATOM     46  C   UNL     1     -10.241   1.715  -5.388  1.00  0.00     0.031 A 
ATOM     47  C   UNL     1     -11.632   2.080  -4.940  1.00  0.00     0.074 A 
ATOM     48  C   UNL     1      -9.966   1.575  -6.697  1.00  0.00     0.049 A 
ATOM     49  N   UNL     1     -12.719   2.247  -5.651  1.00  0.00    -0.248 NA
ATOM     50  C   UNL     1     -11.831   2.262  -3.492  1.00  0.00     0.031 C 
ATOM     51  C   UNL     1      -8.660   1.227  -7.256  1.00  0.00     0.029 A 
ATOM     52  N   UNL     1     -10.778   1.703  -7.795  1.00  0.00    -0.354 N 
ATOM     53  C   UNL     1     -13.726   2.531  -4.736  1.00  0.00     0.074 A 
ATOM     54  C   UNL     1     -13.138   2.457  -3.418  1.00  0.00     0.031 C 
ATOM     55  C   UNL     1      -8.758   1.179  -8.595  1.00  0.00     0.029 A 
ATOM     56  C   UNL     1     -10.139   1.453  -8.985  1.00  0.00     0.049 A 
ATOM     57  H   UNL     1     -11.729   1.951  -7.736  1.00  0.00     0.167 HD
ATOM     58  C   UNL     1     -15.021   2.849  -4.972  1.00  0.00     0.037 A 
ATOM     59  C   UNL     1     -10.621   1.432 -10.242  1.00  0.00     0.037 A 
ATOM     60  C   UNL     1     -15.598   2.942  -6.286  1.00  0.00     0.049 A 
ATOM     61  C   UNL     1     -12.076   1.743 -10.479  1.00  0.00     0.074 A 
ATOM     62  C   UNL     1     -16.887   3.298  -6.638  1.00  0.00     0.029 A 
ATOM     63  N   UNL     1     -14.920   2.669  -7.465  1.00  0.00    -0.354 N 
ATOM     64  N   UNL     1     -13.009   2.055  -9.611  1.00  0.00    -0.248 NA
ATOM     65  C   UNL     1     -12.544   1.702 -11.871  1.00  0.00     0.031 C 
ATOM     66  C   UNL     1     -17.007   3.182  -8.027  1.00  0.00     0.029 A 
ATOM     67  C   UNL     1     -15.774   2.819  -8.545  1.00  0.00     0.049 A 
ATOM     68  H   UNL     1     -13.973   2.408  -7.525  1.00  0.00     0.167 HD
ATOM     69  C   UNL     1     -14.162   2.280 -10.353  1.00  0.00     0.074 A 
ATOM     70  C   UNL     1     -13.808   2.081 -11.743  1.00  0.00     0.031 C 
ATOM     71  C   UNL     1     -15.402   2.623  -9.924  1.00  0.00     0.037 A 
BRANCH  58  72
ATOM     72  C   UNL     1     -15.901   3.105  -3.780  1.00  0.00     0.057 A 
ATOM     73  C   UNL     1     -15.729   4.224  -2.953  1.00  0.00     0.134 A 
ATOM     74  C   UNL     1     -16.948   2.230  -3.467  1.00  0.00     0.134 A 
ATOM     75  F   UNL     1     -14.736   5.097  -3.187  1.00  0.00    -0.206 F 
ATOM     76  C   UNL     1     -16.544   4.444  -1.841  1.00  0.00     0.040 A 
ATOM     77  C   UNL     1     -17.791   2.457  -2.377  1.00  0.00     0.040 A 
ATOM     78  F   UNL     1     -17.174   1.141  -4.217  1.00  0.00    -0.206 F 
ATOM     79  C   UNL     1     -17.584   3.562  -1.555  1.00  0.00     0.006 A 
ENDBRANCH  58  72
BRANCH  59  80
ATOM     80  C   UNL     1      -9.719   1.112 -11.379  1.00  0.00     0.057 A 
ATOM     81  C   UNL     1      -9.380   2.082 -12.330  1.00  0.00     0.134 A 
ATOM     82  C   UNL     1      -9.183  -0.171 -11.548  1.00  0.00     0.134 A 
ATOM     83  F   UNL     1      -9.877   3.323 -12.235  1.00  0.00    -0.206 F 
ATOM     84  C   UNL     1      -8.557   1.784 -13.418  1.00  0.00     0.040 A 
ATOM     85  C   UNL     1      -8.336  -0.475 -12.615  1.00  0.00     0.040 A 
ATOM     86  F   UNL     1      -9.464  -1.144 -10.670  1.00  0.00    -0.206 F 
ATOM     87  C   UNL     1      -8.027   0.503 -13.559  1.00  0.00     0.006 A 
ENDBRANCH  59  80
BRANCH  71  88
ATOM     88  C   UNL     1     -16.459   2.847 -10.969  1.00  0.00     0.057 A 
ATOM     89  C   UNL     1     -17.006   1.794 -11.712  1.00  0.00     0.134 A 
ATOM     90  C   UNL     1     -16.967   4.133 -11.201  1.00  0.00     0.134 A 
ATOM     91  F   UNL     1     -16.558   0.540 -11.547  1.00  0.00    -0.206 F 
ATOM     92  C   UNL     1     -18.001   2.014 -12.666  1.00  0.00     0.040 A 
ATOM     93  C   UNL     1     -17.984   4.361 -12.128  1.00  0.00     0.040 A 
ATOM     94  F   UNL     1     -16.496   5.186 -10.515  1.00  0.00    -0.206 F 
ATOM     95  C   UNL     1     -18.498   3.300 -12.870  1.00  0.00     0.006 A 
ENDBRANCH  71  88
ENDBRANCH  45  46
ENDBRANCH  38  40
ENDBRANCH  37  38
ENDBRANCH  36  37
ENDBRANCH  35  36
ENDBRANCH  34  35
ENDBRANCH   1  34
TORSDOF 19
