REMARK SMILES O=C(OCCOCCOC(=O)c1ccc(-c2c3nc(c(-c4c(F)cccc4F)c4ccc([nH]4)c(-c4c(F)cccc4F)c4nc(c(-c5c(F)cccc5F)c5ccc2[nH]5)C=C4)C=C3)cc1)C1=Cc2cc(OC(F)(F)F)ccc2O[C@@H]1C(F)(F)F
REMARK SMILES IDX 6 1 5 2 4 3 3 4 2 5 1 6 66 7 67 8 80 9 68 10 79 11 69 12
REMARK SMILES IDX 78 13 70 14 77 15 76 16 81 17 82 18 83 19 84 20 71 21 72 22
REMARK SMILES IDX 73 23 74 24 75 25 7 26 8 27 9 28 10 29 11 30 12 31 13 32
REMARK SMILES IDX 65 33 14 34 64 35 15 36 16 37 17 38 58 39 18 40 63 41 57 42
REMARK SMILES IDX 59 43 19 44 62 45 56 46 55 47 20 49 46 50 29 51 45 52 30 53
REMARK SMILES IDX 33 54 44 55 60 56 31 57 32 58 43 60 61 61 34 62 21 63 22 64
REMARK SMILES IDX 27 65 23 66 24 67 26 68 28 69 25 70 47 71 48 72 53 73 49 74
REMARK SMILES IDX 50 75 52 76 54 77 51 78 35 79 36 80 41 81 37 82 38 83 40 84
REMARK SMILES IDX 42 85 39 86
REMARK H PARENT 59 48 33 59
REMARK Flexibility Score: inf
ROOT
ATOM      1  O   UNL     1       3.954   2.207  -1.213  1.00  0.00    -0.374 OA
ENDROOT
BRANCH   1   2
ATOM      2  C   UNL     1       4.265   1.273   0.081  1.00  0.00     0.202 C 
BRANCH   2   3
ATOM      3  C   UNL     1       3.347  -0.572   0.763  1.00  0.00     0.261 C 
BRANCH   3   4
ATOM      4  O   UNL     1       2.316  -0.720   1.896  1.00  0.00    -0.460 OA
BRANCH   4   5
ATOM      5  C   UNL     1       2.455   0.217   2.838  1.00  0.00     0.338 C 
ATOM      6  O   UNL     1       1.787   0.426   3.817  1.00  0.00    -0.246 OA
BRANCH   5   7
ATOM      7  C   UNL     1       3.385   1.040   2.097  1.00  0.00     0.087 C 
ATOM      8  C   UNL     1       4.760   0.498   2.163  1.00  0.00     0.027 C 
ATOM      9  C   UNL     1       2.323   1.156   0.483  1.00  0.00     0.316 C 
ATOM     10  C   UNL     1       5.561  -0.364   0.791  1.00  0.00     0.021 A 
ATOM     11  O   UNL     1       3.138   0.189  -0.981  1.00  0.00    -0.475 OA
ATOM     12  C   UNL     1       6.738  -1.021   1.021  1.00  0.00     0.058 A 
ATOM     13  C   UNL     1       4.766  -0.601  -0.727  1.00  0.00     0.128 A 
ATOM     14  C   UNL     1       7.178  -1.881  -0.004  1.00  0.00     0.130 A 
ATOM     15  C   UNL     1       5.199  -1.537  -1.621  1.00  0.00     0.051 A 
ATOM     16  C   UNL     1       6.430  -2.152  -1.228  1.00  0.00     0.050 A 
BRANCH   9  17
ATOM     17  C   UNL     1       1.896   2.685   0.636  1.00  0.00     0.430 C 
ATOM     18  F   UNL     1       1.035   3.147  -0.288  1.00  0.00    -0.167 F 
ATOM     19  F   UNL     1       1.221   2.794   1.821  1.00  0.00    -0.167 F 
ATOM     20  F   UNL     1       2.922   3.558   0.749  1.00  0.00    -0.167 F 
ENDBRANCH   9  17
BRANCH  14  21
ATOM     21  O   UNL     1       8.361  -2.490   0.350  1.00  0.00    -0.406 OA
BRANCH  21  22
ATOM     22  C   UNL     1       9.200  -3.007  -0.665  1.00  0.00     0.573 C 
ATOM     23  F   UNL     1       8.720  -4.184  -1.112  1.00  0.00    -0.132 F 
ATOM     24  F   UNL     1       9.325  -2.144  -1.694  1.00  0.00    -0.132 F 
ATOM     25  F   UNL     1      10.426  -3.218  -0.137  1.00  0.00    -0.132 F 
ENDBRANCH  21  22
ENDBRANCH  14  21
ENDBRANCH   5   7
ENDBRANCH   4   5
ENDBRANCH   3   4
ENDBRANCH   2   3
ENDBRANCH   1   2
BRANCH   1  26
ATOM     26  C   UNL     1       2.769   2.421  -2.005  1.00  0.00     0.202 C 
BRANCH  26  27
ATOM     27  C   UNL     1       2.930   2.313  -3.517  1.00  0.00     0.261 C 
BRANCH  27  28
ATOM     28  O   UNL     1       3.468   1.064  -3.921  1.00  0.00    -0.460 OA
BRANCH  28  29
ATOM     29  C   UNL     1       4.800   1.088  -4.147  1.00  0.00     0.338 C 
ATOM     30  O   UNL     1       5.585   1.992  -3.926  1.00  0.00    -0.246 OA
BRANCH  29  31
ATOM     31  C   UNL     1       5.178  -0.214  -4.719  1.00  0.00     0.060 A 
ATOM     32  C   UNL     1       6.440  -0.728  -4.407  1.00  0.00     0.016 A 
ATOM     33  C   UNL     1       4.277  -0.944  -5.505  1.00  0.00     0.016 A 
ATOM     34  C   UNL     1       6.776  -2.012  -4.821  1.00  0.00     0.010 A 
ATOM     35  C   UNL     1       4.623  -2.215  -5.941  1.00  0.00     0.010 A 
ATOM     36  C   UNL     1       5.867  -2.755  -5.586  1.00  0.00    -0.014 A 
BRANCH  36  37
ATOM     37  C   UNL     1       6.264  -4.057  -6.146  1.00  0.00     0.031 A 
ATOM     38  C   UNL     1       6.905  -4.066  -7.496  1.00  0.00     0.074 A 
ATOM     39  C   UNL     1       6.014  -5.193  -5.474  1.00  0.00     0.049 A 
ATOM     40  N   UNL     1       7.264  -5.083  -8.229  1.00  0.00    -0.248 NA
ATOM     41  C   UNL     1       7.172  -2.751  -8.105  1.00  0.00     0.031 C 
ATOM     42  C   UNL     1       5.411  -5.278  -4.144  1.00  0.00     0.029 A 
ATOM     43  N   UNL     1       6.216  -6.500  -5.835  1.00  0.00    -0.354 N 
ATOM     44  C   UNL     1       7.800  -4.534  -9.385  1.00  0.00     0.074 A 
ATOM     45  C   UNL     1       7.704  -3.097  -9.267  1.00  0.00     0.031 C 
ATOM     46  C   UNL     1       5.271  -6.573  -3.811  1.00  0.00     0.029 A 
ATOM     47  C   UNL     1       5.736  -7.404  -4.919  1.00  0.00     0.049 A 
ATOM     48  H   UNL     1       6.664  -6.765  -6.672  1.00  0.00     0.167 HD
ATOM     49  C   UNL     1       8.322  -5.182 -10.449  1.00  0.00     0.037 A 
ATOM     50  C   UNL     1       5.650  -8.747  -4.997  1.00  0.00     0.037 A 
ATOM     51  C   UNL     1       8.386  -6.613 -10.559  1.00  0.00     0.049 A 
ATOM     52  C   UNL     1       6.162  -9.434  -6.241  1.00  0.00     0.074 A 
ATOM     53  C   UNL     1       8.924  -7.370 -11.583  1.00  0.00     0.029 A 
ATOM     54  N   UNL     1       7.875  -7.500  -9.624  1.00  0.00    -0.354 N 
ATOM     55  N   UNL     1       6.737  -8.914  -7.300  1.00  0.00    -0.248 NA
ATOM     56  C   UNL     1       6.009 -10.895  -6.305  1.00  0.00     0.031 C 
ATOM     57  C   UNL     1       8.666  -8.714 -11.306  1.00  0.00     0.029 A 
ATOM     58  C   UNL     1       8.039  -8.798 -10.073  1.00  0.00     0.049 A 
ATOM     59  H   UNL     1       7.458  -7.245  -8.770  1.00  0.00     0.167 HD
ATOM     60  C   UNL     1       7.037  -9.982  -8.137  1.00  0.00     0.074 A 
ATOM     61  C   UNL     1       6.606 -11.182  -7.452  1.00  0.00     0.031 C 
ATOM     62  C   UNL     1       7.609  -9.977  -9.366  1.00  0.00     0.037 A 
BRANCH  49  63
ATOM     63  C   UNL     1       8.823  -4.358 -11.593  1.00  0.00     0.057 A 
ATOM     64  C   UNL     1      10.000  -3.605 -11.507  1.00  0.00     0.134 A 
ATOM     65  C   UNL     1       8.150  -4.375 -12.821  1.00  0.00     0.134 A 
ATOM     66  F   UNL     1      10.678  -3.531 -10.351  1.00  0.00    -0.206 F 
ATOM     67  C   UNL     1      10.490  -2.896 -12.604  1.00  0.00     0.040 A 
ATOM     68  C   UNL     1       8.645  -3.693 -13.932  1.00  0.00     0.040 A 
ATOM     69  F   UNL     1       7.013  -5.072 -12.966  1.00  0.00    -0.206 F 
ATOM     70  C   UNL     1       9.819  -2.950 -13.824  1.00  0.00     0.006 A 
ENDBRANCH  49  63
BRANCH  50  71
ATOM     71  C   UNL     1       5.012  -9.538  -3.910  1.00  0.00     0.057 A 
ATOM     72  C   UNL     1       5.729 -10.501  -3.190  1.00  0.00     0.134 A 
ATOM     73  C   UNL     1       3.646  -9.413  -3.623  1.00  0.00     0.134 A 
ATOM     74  F   UNL     1       7.036 -10.688  -3.429  1.00  0.00    -0.206 F 
ATOM     75  C   UNL     1       5.107 -11.340  -2.262  1.00  0.00     0.040 A 
ATOM     76  C   UNL     1       3.018 -10.219  -2.672  1.00  0.00     0.040 A 
ATOM     77  F   UNL     1       2.896  -8.509  -4.271  1.00  0.00    -0.206 F 
ATOM     78  C   UNL     1       3.746 -11.199  -2.001  1.00  0.00     0.006 A 
ENDBRANCH  50  71
BRANCH  62  79
ATOM     79  C   UNL     1       7.827 -11.303 -10.037  1.00  0.00     0.057 A 
ATOM     80  C   UNL     1       6.761 -12.067 -10.528  1.00  0.00     0.134 A 
ATOM     81  C   UNL     1       9.124 -11.788 -10.254  1.00  0.00     0.134 A 
ATOM     82  F   UNL     1       5.494 -11.665 -10.347  1.00  0.00    -0.206 F 
ATOM     83  C   UNL     1       6.976 -13.277 -11.191  1.00  0.00     0.040 A 
ATOM     84  C   UNL     1       9.353 -12.977 -10.946  1.00  0.00     0.040 A 
ATOM     85  F   UNL     1      10.191 -11.098  -9.822  1.00  0.00    -0.206 F 
ATOM     86  C   UNL     1       8.276 -13.728 -11.411  1.00  0.00     0.006 A 
ENDBRANCH  62  79
ENDBRANCH  36  37
ENDBRANCH  29  31
ENDBRANCH  28  29
ENDBRANCH  27  28
ENDBRANCH  26  27
ENDBRANCH   1  26
TORSDOF 17
