REMARK SMILES C[C@@H]1CCCN(C(=O)c2ccc(=O)n([C@H](C)C(=O)OCCOCCOC(=O)c3ccc(-c4c5nc(c(-c6c(F)cccc6F)c6ccc([nH]6)c(-c6c(F)cccc6F)c6nc(c(-c7c(F)cccc7F)c7ccc4[nH]7)C=C6)C=C5)cc3)n2)C1
REMARK SMILES IDX 21 1 20 2 19 3 17 4 18 5 15 6 16 7 14 8 9 9 10 10 82 11
REMARK SMILES IDX 11 12 12 13 13 14 7 15 8 16 6 17 1 18 2 19 3 20 83 21 4 22
REMARK SMILES IDX 5 23 22 24 23 25 24 26 25 27 26 28 27 29 28 30 29 31 81 32
REMARK SMILES IDX 30 33 80 34 31 35 32 36 33 37 74 38 34 39 79 40 73 41 75 42
REMARK SMILES IDX 35 43 78 44 72 45 71 46 36 48 62 49 45 50 61 51 46 52 49 53
REMARK SMILES IDX 60 54 76 55 47 56 48 57 59 59 77 60 50 61 37 62 38 63 43 64
REMARK SMILES IDX 39 65 40 66 42 67 44 68 41 69 63 70 64 71 69 72 65 73 66 74
REMARK SMILES IDX 68 75 70 76 67 77 51 78 52 79 57 80 53 81 54 82 56 83 58 84
REMARK SMILES IDX 55 85
REMARK H PARENT 75 47 49 58
REMARK Flexibility Score: inf
ROOT
ATOM      1  C   UNL     1       8.009  -2.555  -1.220  1.00  0.00     0.202 C 
ENDROOT
BRANCH   1   2
ATOM      2  C   UNL     1       8.343  -1.778  -2.496  1.00  0.00     0.261 C 
BRANCH   2   3
ATOM      3  O   UNL     1       7.407  -0.721  -2.744  1.00  0.00    -0.462 OA
BRANCH   3   4
ATOM      4  C   UNL     1       6.572  -0.928  -3.804  1.00  0.00     0.330 C 
ATOM      5  O   UNL     1       6.686  -1.870  -4.581  1.00  0.00    -0.250 OA
BRANCH   4   6
ATOM      6  C   UNL     1       5.522   0.180  -3.965  1.00  0.00     0.218 C 
ATOM      7  C   UNL     1       5.178   0.967  -2.694  1.00  0.00     0.046 C 
BRANCH   6   8
ATOM      8  N   UNL     1       5.987   1.011  -5.075  1.00  0.00    -0.215 N 
ATOM      9  C   UNL     1       7.056   2.917  -5.736  1.00  0.00     0.149 A 
ATOM     10  C   UNL     1       7.017   2.532  -7.157  1.00  0.00     0.042 A 
ATOM     11  N   UNL     1       6.600   2.205  -4.754  1.00  0.00    -0.164 NA
ATOM     12  C   UNL     1       6.402   1.385  -7.444  1.00  0.00     0.076 A 
ATOM     13  C   UNL     1       5.788   0.565  -6.380  1.00  0.00     0.267 A 
ATOM     14  O   UNL     1       5.160  -0.440  -6.696  1.00  0.00    -0.268 OA
BRANCH   9  15
ATOM     15  C   UNL     1       7.662   4.273  -5.438  1.00  0.00     0.274 C 
ATOM     16  O   UNL     1       7.109   5.243  -5.948  1.00  0.00    -0.267 OA
BRANCH  15  17
ATOM     17  N   UNL     1       8.802   4.330  -4.646  1.00  0.00    -0.337 N 
ATOM     18  C   UNL     1      10.240   7.146  -2.524  1.00  0.00     0.009 C 
ATOM     19  C   UNL     1       9.557   5.815  -2.825  1.00  0.00     0.005 C 
ATOM     20  C   UNL     1      10.348   4.639  -2.231  1.00  0.00     0.007 C 
ATOM     21  C   UNL     1       9.380   5.634  -4.338  1.00  0.00     0.123 C 
ATOM     22  C   UNL     1       9.691   3.307  -2.595  1.00  0.00     0.022 C 
ATOM     23  C   UNL     1       9.518   3.177  -4.105  1.00  0.00     0.120 C 
ENDBRANCH  15  17
ENDBRANCH   9  15
ENDBRANCH   6   8
ENDBRANCH   4   6
ENDBRANCH   3   4
ENDBRANCH   2   3
ENDBRANCH   1   2
BRANCH   1  24
ATOM     24  O   UNL     1       6.712  -3.128  -1.104  1.00  0.00    -0.374 OA
BRANCH  24  25
ATOM     25  C   UNL     1       5.596  -2.269  -0.886  1.00  0.00     0.202 C 
BRANCH  25  26
ATOM     26  C   UNL     1       5.492  -1.529   0.455  1.00  0.00     0.261 C 
BRANCH  26  27
ATOM     27  O   UNL     1       6.551  -0.577   0.658  1.00  0.00    -0.460 OA
BRANCH  27  28
ATOM     28  C   UNL     1       7.422  -0.895   1.647  1.00  0.00     0.338 C 
ATOM     29  O   UNL     1       7.376  -1.864   2.391  1.00  0.00    -0.246 OA
BRANCH  28  30
ATOM     30  C   UNL     1       8.594  -0.003   1.582  1.00  0.00     0.060 A 
ATOM     31  C   UNL     1       8.460   1.383   1.656  1.00  0.00     0.016 A 
ATOM     32  C   UNL     1       9.863  -0.592   1.502  1.00  0.00     0.016 A 
ATOM     33  C   UNL     1       9.609   2.179   1.685  1.00  0.00     0.010 A 
ATOM     34  C   UNL     1      11.008   0.203   1.530  1.00  0.00     0.010 A 
ATOM     35  C   UNL     1      10.890   1.595   1.646  1.00  0.00    -0.014 A 
BRANCH  35  36
ATOM     36  C   UNL     1      12.099   2.428   1.861  1.00  0.00     0.031 A 
ATOM     37  C   UNL     1      13.043   2.749   0.743  1.00  0.00     0.074 A 
ATOM     38  C   UNL     1      12.354   2.878   3.105  1.00  0.00     0.049 A 
ATOM     39  N   UNL     1      14.083   3.544   0.745  1.00  0.00    -0.248 NA
ATOM     40  C   UNL     1      12.792   2.089  -0.545  1.00  0.00     0.031 C 
ATOM     41  C   UNL     1      11.542   2.586   4.288  1.00  0.00     0.029 A 
ATOM     42  N   UNL     1      13.364   3.674   3.581  1.00  0.00    -0.354 N 
ATOM     43  C   UNL     1      14.592   3.510  -0.546  1.00  0.00     0.074 A 
ATOM     44  C   UNL     1      13.778   2.571  -1.291  1.00  0.00     0.031 C 
ATOM     45  C   UNL     1      12.067   3.221   5.347  1.00  0.00     0.029 A 
ATOM     46  C   UNL     1      13.267   3.937   4.926  1.00  0.00     0.049 A 
ATOM     47  H   UNL     1      14.089   4.023   3.014  1.00  0.00     0.167 HD
ATOM     48  C   UNL     1      15.633   4.207  -1.064  1.00  0.00     0.037 A 
ATOM     49  C   UNL     1      14.056   4.675   5.728  1.00  0.00     0.037 A 
ATOM     50  C   UNL     1      16.480   5.091  -0.302  1.00  0.00     0.049 A 
ATOM     51  C   UNL     1      15.250   5.376   5.141  1.00  0.00     0.074 A 
ATOM     52  C   UNL     1      17.546   5.858  -0.742  1.00  0.00     0.029 A 
ATOM     53  N   UNL     1      16.381   5.300   1.066  1.00  0.00    -0.354 N 
ATOM     54  N   UNL     1      15.655   5.423   3.895  1.00  0.00    -0.248 NA
ATOM     55  C   UNL     1      16.092   6.135   6.076  1.00  0.00     0.031 C 
ATOM     56  C   UNL     1      18.128   6.481   0.368  1.00  0.00     0.029 A 
ATOM     57  C   UNL     1      17.387   6.155   1.492  1.00  0.00     0.049 A 
ATOM     58  H   UNL     1      15.695   4.901   1.650  1.00  0.00     0.167 HD
ATOM     59  C   UNL     1      16.781   6.237   3.893  1.00  0.00     0.074 A 
ATOM     60  C   UNL     1      16.979   6.680   5.257  1.00  0.00     0.031 C 
ATOM     61  C   UNL     1      17.581   6.585   2.854  1.00  0.00     0.037 A 
BRANCH  48  62
ATOM     62  C   UNL     1      15.919   4.028  -2.527  1.00  0.00     0.057 A 
ATOM     63  C   UNL     1      17.087   3.386  -2.961  1.00  0.00     0.134 A 
ATOM     64  C   UNL     1      15.052   4.521  -3.512  1.00  0.00     0.134 A 
ATOM     65  F   UNL     1      17.966   2.898  -2.073  1.00  0.00    -0.206 F 
ATOM     66  C   UNL     1      17.379   3.240  -4.318  1.00  0.00     0.040 A 
ATOM     67  C   UNL     1      15.320   4.357  -4.872  1.00  0.00     0.040 A 
ATOM     68  F   UNL     1      13.911   5.138  -3.167  1.00  0.00    -0.206 F 
ATOM     69  C   UNL     1      16.490   3.719  -5.278  1.00  0.00     0.006 A 
ENDBRANCH  48  62
BRANCH  49  70
ATOM     70  C   UNL     1      13.744   4.805   7.174  1.00  0.00     0.057 A 
ATOM     71  C   UNL     1      13.865   3.718   8.048  1.00  0.00     0.134 A 
ATOM     72  C   UNL     1      13.358   6.034   7.722  1.00  0.00     0.134 A 
ATOM     73  F   UNL     1      14.223   2.512   7.584  1.00  0.00    -0.206 F 
ATOM     74  C   UNL     1      13.618   3.849   9.415  1.00  0.00     0.040 A 
ATOM     75  C   UNL     1      13.137   6.186   9.091  1.00  0.00     0.040 A 
ATOM     76  F   UNL     1      13.241   7.116   6.938  1.00  0.00    -0.206 F 
ATOM     77  C   UNL     1      13.265   5.090   9.942  1.00  0.00     0.006 A 
ENDBRANCH  49  70
BRANCH  61  78
ATOM     78  C   UNL     1      18.723   7.515   3.155  1.00  0.00     0.057 A 
ATOM     79  C   UNL     1      18.718   8.831   2.674  1.00  0.00     0.134 A 
ATOM     80  C   UNL     1      19.829   7.113   3.916  1.00  0.00     0.134 A 
ATOM     81  F   UNL     1      17.695   9.282   1.932  1.00  0.00    -0.206 F 
ATOM     82  C   UNL     1      19.767   9.712   2.942  1.00  0.00     0.040 A 
ATOM     83  C   UNL     1      20.869   7.995   4.218  1.00  0.00     0.040 A 
ATOM     84  F   UNL     1      19.892   5.871   4.422  1.00  0.00    -0.206 F 
ATOM     85  C   UNL     1      20.842   9.298   3.725  1.00  0.00     0.006 A 
ENDBRANCH  61  78
ENDBRANCH  35  36
ENDBRANCH  28  30
ENDBRANCH  27  28
ENDBRANCH  26  27
ENDBRANCH  25  26
ENDBRANCH  24  25
ENDBRANCH   1  24
TORSDOF 17
