REMARK SMILES Cc1cc2c(=O)c3ccccc3oc2c(C(=O)OCCOCCOC(=O)c2ccc(-c3c4nc(c(-c5c(F)cccc5F)c5ccc([nH]5)c(-c5c(F)cccc5F)c5nc(c(-c6c(F)cccc6F)c6ccc3[nH]6)C=C5)C=C4)cc2)c1C
REMARK SMILES IDX 22 1 21 2 20 3 19 4 18 5 16 6 17 7 15 8 1 9 2 10 3 11 81 12
REMARK SMILES IDX 4 13 82 14 5 15 14 16 6 17 7 18 13 19 8 20 12 21 9 22 11 23
REMARK SMILES IDX 10 24 23 25 24 26 25 27 26 28 27 29 28 30 80 31 29 32 79 33
REMARK SMILES IDX 30 34 31 35 32 36 73 37 33 38 78 39 72 40 74 41 34 42 77 43
REMARK SMILES IDX 71 44 70 45 35 47 61 48 44 49 60 50 45 51 48 52 59 53 75 54
REMARK SMILES IDX 46 55 47 56 58 58 76 59 49 60 36 61 37 62 42 63 38 64 39 65
REMARK SMILES IDX 41 66 43 67 40 68 62 69 63 70 68 71 64 72 65 73 67 74 69 75
REMARK SMILES IDX 66 76 50 77 51 78 56 79 52 80 53 81 55 82 57 83 54 84
REMARK H PARENT 74 46 48 57
REMARK Flexibility Score: inf
ROOT
ATOM      1  C   UNL     1      -0.274  -6.516   0.688  1.00  0.00     0.202 C 
ENDROOT
BRANCH   1   2
ATOM      2  O   UNL     1       0.738  -7.519   0.758  1.00  0.00    -0.374 OA
BRANCH   2   3
ATOM      3  C   UNL     1       1.998  -7.168   1.328  1.00  0.00     0.202 C 
BRANCH   3   4
ATOM      4  C   UNL     1       2.906  -6.269   0.491  1.00  0.00     0.261 C 
BRANCH   4   5
ATOM      5  O   UNL     1       2.282  -4.995   0.275  1.00  0.00    -0.460 OA
BRANCH   5   6
ATOM      6  C   UNL     1       2.105  -4.644  -1.019  1.00  0.00     0.342 C 
ATOM      7  O   UNL     1       2.550  -5.234  -1.990  1.00  0.00    -0.246 OA
BRANCH   6   8
ATOM      8  C   UNL     1       1.202  -3.464  -1.136  1.00  0.00     0.106 A 
ATOM      9  C   UNL     1       0.838   0.197  -0.027  1.00  0.00     0.044 C 
ATOM     10  C   UNL     1       0.652  -1.123  -0.728  1.00  0.00    -0.046 A 
ATOM     11  C   UNL     1      -0.268  -1.182  -1.786  1.00  0.00     0.019 A 
ATOM     12  C   UNL     1       1.373  -2.285  -0.361  1.00  0.00    -0.030 A 
ATOM     13  C   UNL     1      -0.501  -2.379  -2.464  1.00  0.00     0.067 A 
ATOM     14  C   UNL     1       2.265  -2.282   0.857  1.00  0.00     0.046 C 
ATOM     15  C   UNL     1      -1.496  -2.432  -3.546  1.00  0.00     0.200 A 
ATOM     16  C   UNL     1       0.210  -3.527  -2.137  1.00  0.00     0.153 A 
ATOM     17  O   UNL     1      -2.099  -1.432  -3.911  1.00  0.00    -0.288 OA
ATOM     18  C   UNL     1      -1.746  -3.745  -4.153  1.00  0.00     0.065 A 
ATOM     19  O   UNL     1      -0.057  -4.751  -2.713  1.00  0.00    -0.455 OA
ATOM     20  C   UNL     1      -2.689  -3.897  -5.173  1.00  0.00     0.016 A 
ATOM     21  C   UNL     1      -1.036  -4.839  -3.670  1.00  0.00     0.138 A 
ATOM     22  C   UNL     1      -2.939  -5.165  -5.696  1.00  0.00     0.001 A 
ATOM     23  C   UNL     1      -1.304  -6.111  -4.181  1.00  0.00     0.048 A 
ATOM     24  C   UNL     1      -2.257  -6.273  -5.191  1.00  0.00     0.004 A 
ENDBRANCH   6   8
ENDBRANCH   5   6
ENDBRANCH   4   5
ENDBRANCH   3   4
ENDBRANCH   2   3
ENDBRANCH   1   2
BRANCH   1  25
ATOM     25  C   UNL     1      -1.001  -6.147   1.987  1.00  0.00     0.261 C 
BRANCH  25  26
ATOM     26  O   UNL     1      -0.133  -5.580   2.982  1.00  0.00    -0.460 OA
BRANCH  26  27
ATOM     27  C   UNL     1       0.169  -6.405   4.014  1.00  0.00     0.338 C 
ATOM     28  O   UNL     1      -0.231  -7.546   4.194  1.00  0.00    -0.246 OA
BRANCH  27  29
ATOM     29  C   UNL     1       1.228  -5.791   4.837  1.00  0.00     0.060 A 
ATOM     30  C   UNL     1       1.085  -4.505   5.356  1.00  0.00     0.016 A 
ATOM     31  C   UNL     1       2.374  -6.549   5.117  1.00  0.00     0.016 A 
ATOM     32  C   UNL     1       2.088  -3.985   6.178  1.00  0.00     0.010 A 
ATOM     33  C   UNL     1       3.372  -6.028   5.941  1.00  0.00     0.010 A 
ATOM     34  C   UNL     1       3.230  -4.747   6.492  1.00  0.00    -0.014 A 
BRANCH  34  35
ATOM     35  C   UNL     1       4.212  -4.233   7.479  1.00  0.00     0.031 A 
ATOM     36  C   UNL     1       5.572  -3.757   7.059  1.00  0.00     0.074 A 
ATOM     37  C   UNL     1       3.859  -4.195   8.778  1.00  0.00     0.049 A 
ATOM     38  N   UNL     1       6.501  -3.180   7.780  1.00  0.00    -0.248 NA
ATOM     39  C   UNL     1       5.940  -3.961   5.651  1.00  0.00     0.031 C 
ATOM     40  C   UNL     1       2.585  -4.674   9.317  1.00  0.00     0.029 A 
ATOM     41  N   UNL     1       4.530  -3.722   9.876  1.00  0.00    -0.354 N 
ATOM     42  C   UNL     1       7.554  -2.928   6.912  1.00  0.00     0.074 A 
ATOM     43  C   UNL     1       7.172  -3.470   5.624  1.00  0.00     0.031 C 
ATOM     44  C   UNL     1       2.550  -4.433  10.637  1.00  0.00     0.029 A 
ATOM     45  C   UNL     1       3.808  -3.812  11.041  1.00  0.00     0.049 A 
ATOM     46  H   UNL     1       5.442  -3.354   9.834  1.00  0.00     0.167 HD
ATOM     47  C   UNL     1       8.723  -2.286   7.162  1.00  0.00     0.037 A 
ATOM     48  C   UNL     1       4.122  -3.432  12.293  1.00  0.00     0.037 A 
ATOM     49  C   UNL     1       9.115  -1.780   8.454  1.00  0.00     0.049 A 
ATOM     50  C   UNL     1       5.449  -2.772  12.550  1.00  0.00     0.074 A 
ATOM     51  C   UNL     1      10.268  -1.095   8.801  1.00  0.00     0.029 A 
ATOM     52  N   UNL     1       8.376  -1.924   9.620  1.00  0.00    -0.354 N 
ATOM     53  N   UNL     1       6.399  -2.459  11.703  1.00  0.00    -0.248 NA
ATOM     54  C   UNL     1       5.739  -2.404  13.942  1.00  0.00     0.031 C 
ATOM     55  C   UNL     1      10.252  -0.875  10.183  1.00  0.00     0.029 A 
ATOM     56  C   UNL     1       9.060  -1.365  10.690  1.00  0.00     0.049 A 
ATOM     57  H   UNL     1       7.495  -2.359   9.679  1.00  0.00     0.167 HD
ATOM     58  C   UNL     1       7.382  -1.826  12.453  1.00  0.00     0.074 A 
ATOM     59  C   UNL     1       6.901  -1.781  13.818  1.00  0.00     0.031 C 
ATOM     60  C   UNL     1       8.576  -1.325  12.047  1.00  0.00     0.037 A 
BRANCH  47  61
ATOM     61  C   UNL     1       9.667  -2.101   6.006  1.00  0.00     0.057 A 
ATOM     62  C   UNL     1      10.900  -2.763   5.970  1.00  0.00     0.134 A 
ATOM     63  C   UNL     1       9.368  -1.238   4.942  1.00  0.00     0.134 A 
ATOM     64  F   UNL     1      11.258  -3.595   6.960  1.00  0.00    -0.206 F 
ATOM     65  C   UNL     1      11.799  -2.578   4.917  1.00  0.00     0.040 A 
ATOM     66  C   UNL     1      10.245  -1.068   3.869  1.00  0.00     0.040 A 
ATOM     67  F   UNL     1       8.201  -0.577   4.910  1.00  0.00    -0.206 F 
ATOM     68  C   UNL     1      11.468  -1.736   3.858  1.00  0.00     0.006 A 
ENDBRANCH  47  61
BRANCH  48  69
ATOM     69  C   UNL     1       3.160  -3.643  13.405  1.00  0.00     0.057 A 
ATOM     70  C   UNL     1       2.852  -4.927  13.869  1.00  0.00     0.134 A 
ATOM     71  C   UNL     1       2.566  -2.559  14.064  1.00  0.00     0.134 A 
ATOM     72  F   UNL     1       3.381  -6.007  13.275  1.00  0.00    -0.206 F 
ATOM     73  C   UNL     1       1.993  -5.127  14.950  1.00  0.00     0.040 A 
ATOM     74  C   UNL     1       1.730  -2.743  15.167  1.00  0.00     0.040 A 
ATOM     75  F   UNL     1       2.835  -1.304  13.677  1.00  0.00    -0.206 F 
ATOM     76  C   UNL     1       1.441  -4.031  15.611  1.00  0.00     0.006 A 
ENDBRANCH  48  69
BRANCH  60  77
ATOM     77  C   UNL     1       9.419  -0.645  13.091  1.00  0.00     0.057 A 
ATOM     78  C   UNL     1       9.625   0.740  13.046  1.00  0.00     0.134 A 
ATOM     79  C   UNL     1      10.018  -1.350  14.144  1.00  0.00     0.134 A 
ATOM     80  F   UNL     1       9.090   1.478  12.061  1.00  0.00    -0.206 F 
ATOM     81  C   UNL     1      10.385   1.399  14.014  1.00  0.00     0.040 A 
ATOM     82  C   UNL     1      10.752  -0.697  15.137  1.00  0.00     0.040 A 
ATOM     83  F   UNL     1       9.851  -2.676  14.257  1.00  0.00    -0.206 F 
ATOM     84  C   UNL     1      10.940   0.682  15.071  1.00  0.00     0.006 A 
ENDBRANCH  60  77
ENDBRANCH  34  35
ENDBRANCH  27  29
ENDBRANCH  26  27
ENDBRANCH  25  26
ENDBRANCH   1  25
TORSDOF 14
