REMARK SMILES CCOC(=O)c1c(NC(=O)[C@@H]2[C@@H](C(=O)OCCOCCOC(=O)c3ccc(-c4c5nc(c(-c6c(F)cccc6F)c6ccc([nH]6)c(-c6c(F)cccc6F)c6nc(c(-c7c(F)cccc7F)c7ccc4[nH]7)C=C6)C=C5)cc3)[C@@H]3C=C[C@H]2CC3)sc2c1CCC2
REMARK SMILES IDX 16 1 15 2 13 3 14 4 12 5 11 6 81 7 78 8 80 9 82 10 79 11
REMARK SMILES IDX 83 12 9 13 8 14 10 16 7 17 6 18 86 19 84 20 85 21 87 22
REMARK SMILES IDX 89 23 88 24 4 25 5 26 3 27 2 28 1 29 17 30 18 31 19 32 20 33
REMARK SMILES IDX 21 34 22 35 23 36 24 37 25 38 77 39 26 40 76 41 27 42 28 43
REMARK SMILES IDX 29 44 70 45 30 46 75 47 69 48 71 49 31 50 74 51 68 52 67 53
REMARK SMILES IDX 32 55 58 56 41 57 57 58 42 59 45 60 56 61 72 62 43 63 44 64
REMARK SMILES IDX 55 66 73 67 46 68 33 69 34 70 39 71 35 72 36 73 38 74 40 75
REMARK SMILES IDX 37 76 59 77 60 78 65 79 61 80 62 81 64 82 66 83 63 84 47 85
REMARK SMILES IDX 48 86 53 87 49 88 50 89 52 90 54 91 51 92
REMARK H PARENT 8 15 71 54 45 65
REMARK Flexibility Score: inf
ROOT
ATOM      1  C   UNL     1       8.488  -0.933   7.200  1.00  0.00     0.261 C 
ENDROOT
BRANCH   1   2
ATOM      2  O   UNL     1       7.497  -0.221   6.447  1.00  0.00    -0.463 OA
BRANCH   2   3
ATOM      3  C   UNL     1       6.602   0.438   7.240  1.00  0.00     0.310 C 
ATOM      4  O   UNL     1       6.501   0.252   8.447  1.00  0.00    -0.252 OA
BRANCH   3   5
ATOM      5  C   UNL     1       5.686   1.371   6.436  1.00  0.00     0.119 C 
ATOM      6  C   UNL     1       5.982   2.438   5.377  1.00  0.00     0.100 C 
ATOM      7  C   UNL     1       5.260   3.771   5.790  1.00  0.00     0.025 C 
ATOM      8  C   UNL     1       4.546   1.846   7.351  1.00  0.00     0.026 C 
ATOM      9  C   UNL     1       3.778   3.498   5.763  1.00  0.00    -0.027 C 
ATOM     10  C   UNL     1       5.590   4.115   7.277  1.00  0.00     0.009 C 
ATOM     11  C   UNL     1       3.413   2.480   6.555  1.00  0.00    -0.027 C 
ATOM     12  C   UNL     1       5.150   2.965   8.208  1.00  0.00     0.009 C 
BRANCH   6  13
ATOM     13  C   UNL     1       5.620   2.024   3.899  1.00  0.00     0.229 C 
ATOM     14  N   UNL     1       4.687   1.105   3.455  1.00  0.00    -0.317 N 
ATOM     15  H   UNL     1       4.654   1.018   2.475  1.00  0.00     0.170 HD
ATOM     16  O   UNL     1       6.190   2.672   3.001  1.00  0.00    -0.274 OA
BRANCH  14  17
ATOM     17  C   UNL     1       3.785   0.278   4.117  1.00  0.00     0.110 A 
ATOM     18  C   UNL     1       2.527  -0.251   3.793  1.00  0.00     0.098 A 
ATOM     19  C   UNL     1       1.927  -0.659   5.034  1.00  0.00    -0.017 A 
ATOM     20  S   UNL     1       4.293  -1.066   5.170  1.00  0.00    -0.122 S 
ATOM     21  C   UNL     1       2.882  -0.655   6.024  1.00  0.00     0.011 A 
ATOM     22  C   UNL     1       0.731  -1.343   5.582  1.00  0.00     0.038 C 
ATOM     23  C   UNL     1       2.410  -0.914   7.394  1.00  0.00     0.047 C 
ATOM     24  C   UNL     1       0.901  -1.154   7.130  1.00  0.00     0.010 C 
BRANCH  18  25
ATOM     25  C   UNL     1       2.121  -0.447   2.431  1.00  0.00     0.341 C 
ATOM     26  O   UNL     1       2.951  -0.631   1.548  1.00  0.00    -0.246 OA
BRANCH  25  27
ATOM     27  O   UNL     1       0.775  -0.488   2.260  1.00  0.00    -0.462 OA
BRANCH  27  28
ATOM     28  C   UNL     1       0.374  -0.891   0.945  1.00  0.00     0.230 C 
ATOM     29  C   UNL     1       0.766   0.119  -0.124  1.00  0.00     0.049 C 
ENDBRANCH  27  28
ENDBRANCH  25  27
ENDBRANCH  18  25
ENDBRANCH  14  17
ENDBRANCH   6  13
ENDBRANCH   3   5
ENDBRANCH   2   3
ENDBRANCH   1   2
BRANCH   1  30
ATOM     30  C   UNL     1       9.726  -0.067   7.463  1.00  0.00     0.202 C 
BRANCH  30  31
ATOM     31  O   UNL     1       9.593   1.277   7.938  1.00  0.00    -0.374 OA
BRANCH  31  32
ATOM     32  C   UNL     1       8.986   2.280   7.131  1.00  0.00     0.202 C 
BRANCH  32  33
ATOM     33  C   UNL     1       9.658   2.784   5.874  1.00  0.00     0.261 C 
BRANCH  33  34
ATOM     34  O   UNL     1       9.819   1.693   4.996  1.00  0.00    -0.460 OA
BRANCH  34  35
ATOM     35  C   UNL     1      11.062   1.190   4.980  1.00  0.00     0.338 C 
ATOM     36  O   UNL     1      11.987   1.434   5.759  1.00  0.00    -0.246 OA
BRANCH  35  37
ATOM     37  C   UNL     1      11.189   0.394   3.775  1.00  0.00     0.060 A 
ATOM     38  C   UNL     1      12.449  -0.133   3.516  1.00  0.00     0.016 A 
ATOM     39  C   UNL     1      10.354   0.785   2.741  1.00  0.00     0.016 A 
ATOM     40  C   UNL     1      13.054   0.297   2.334  1.00  0.00     0.010 A 
ATOM     41  C   UNL     1      10.928   0.842   1.510  1.00  0.00     0.010 A 
ATOM     42  C   UNL     1      12.300   1.076   1.416  1.00  0.00    -0.014 A 
BRANCH  42  43
ATOM     43  C   UNL     1      12.713   1.410   0.008  1.00  0.00     0.031 A 
ATOM     44  C   UNL     1      12.896  -0.024  -0.604  1.00  0.00     0.074 A 
ATOM     45  C   UNL     1      12.790   2.687  -0.588  1.00  0.00     0.049 A 
ATOM     46  N   UNL     1      14.028  -0.670  -0.599  1.00  0.00    -0.248 NA
ATOM     47  C   UNL     1      11.784  -1.031  -0.785  1.00  0.00     0.031 C 
ATOM     48  C   UNL     1      12.595   4.101  -0.083  1.00  0.00     0.029 A 
ATOM     49  N   UNL     1      13.172   3.041  -1.905  1.00  0.00    -0.354 N 
ATOM     50  C   UNL     1      13.784  -1.890  -1.240  1.00  0.00     0.074 A 
ATOM     51  C   UNL     1      12.422  -2.189  -0.996  1.00  0.00     0.031 C 
ATOM     52  C   UNL     1      12.544   5.027  -1.103  1.00  0.00     0.029 A 
ATOM     53  C   UNL     1      12.830   4.382  -2.374  1.00  0.00     0.049 A 
ATOM     54  H   UNL     1      13.650   2.405  -2.484  1.00  0.00     0.167 HD
ATOM     55  C   UNL     1      14.566  -2.233  -2.303  1.00  0.00     0.037 A 
ATOM     56  C   UNL     1      13.075   4.961  -3.628  1.00  0.00     0.037 A 
ATOM     57  C   UNL     1      15.756  -1.418  -2.249  1.00  0.00     0.049 A 
ATOM     58  C   UNL     1      14.066   4.068  -4.272  1.00  0.00     0.074 A 
ATOM     59  C   UNL     1      16.804  -1.301  -1.361  1.00  0.00     0.029 A 
ATOM     60  N   UNL     1      15.555  -0.181  -2.804  1.00  0.00    -0.354 N 
ATOM     61  N   UNL     1      15.283   3.974  -3.816  1.00  0.00    -0.248 NA
ATOM     62  C   UNL     1      13.490   2.888  -4.900  1.00  0.00     0.031 C 
ATOM     63  C   UNL     1      17.061   0.096  -1.243  1.00  0.00     0.029 A 
ATOM     64  C   UNL     1      16.329   0.770  -2.213  1.00  0.00     0.049 A 
ATOM     65  H   UNL     1      14.927  -0.002  -3.540  1.00  0.00     0.167 HD
ATOM     66  C   UNL     1      15.439   2.615  -3.612  1.00  0.00     0.074 A 
ATOM     67  C   UNL     1      14.300   1.990  -4.327  1.00  0.00     0.031 C 
ATOM     68  C   UNL     1      16.221   2.152  -2.585  1.00  0.00     0.037 A 
BRANCH  55  69
ATOM     69  C   UNL     1      14.060  -2.783  -3.630  1.00  0.00     0.057 A 
ATOM     70  C   UNL     1      15.019  -3.133  -4.598  1.00  0.00     0.134 A 
ATOM     71  C   UNL     1      12.734  -2.717  -4.113  1.00  0.00     0.134 A 
ATOM     72  F   UNL     1      16.317  -3.220  -4.272  1.00  0.00    -0.206 F 
ATOM     73  C   UNL     1      14.696  -3.344  -5.946  1.00  0.00     0.040 A 
ATOM     74  C   UNL     1      12.394  -2.973  -5.450  1.00  0.00     0.040 A 
ATOM     75  F   UNL     1      11.706  -2.322  -3.354  1.00  0.00    -0.206 F 
ATOM     76  C   UNL     1      13.380  -3.263  -6.378  1.00  0.00     0.006 A 
ENDBRANCH  55  69
BRANCH  56  77
ATOM     77  C   UNL     1      12.277   5.886  -4.562  1.00  0.00     0.057 A 
ATOM     78  C   UNL     1      12.748   6.561  -5.732  1.00  0.00     0.134 A 
ATOM     79  C   UNL     1      10.882   5.809  -4.492  1.00  0.00     0.134 A 
ATOM     80  F   UNL     1      14.060   6.656  -6.002  1.00  0.00    -0.206 F 
ATOM     81  C   UNL     1      11.880   7.124  -6.716  1.00  0.00     0.040 A 
ATOM     82  C   UNL     1      10.014   6.338  -5.470  1.00  0.00     0.040 A 
ATOM     83  F   UNL     1      10.312   5.112  -3.502  1.00  0.00    -0.206 F 
ATOM     84  C   UNL     1      10.502   7.000  -6.588  1.00  0.00     0.006 A 
ENDBRANCH  56  77
BRANCH  68  85
ATOM     85  C   UNL     1      17.070   3.127  -1.806  1.00  0.00     0.057 A 
ATOM     86  C   UNL     1      16.653   3.972  -0.759  1.00  0.00     0.134 A 
ATOM     87  C   UNL     1      18.442   3.062  -2.032  1.00  0.00     0.134 A 
ATOM     88  F   UNL     1      15.389   3.971  -0.325  1.00  0.00    -0.206 F 
ATOM     89  C   UNL     1      17.553   4.788  -0.054  1.00  0.00     0.040 A 
ATOM     90  C   UNL     1      19.354   3.827  -1.307  1.00  0.00     0.040 A 
ATOM     91  F   UNL     1      18.927   2.183  -2.921  1.00  0.00    -0.206 F 
ATOM     92  C   UNL     1      18.912   4.721  -0.338  1.00  0.00     0.006 A 
ENDBRANCH  68  85
ENDBRANCH  42  43
ENDBRANCH  35  37
ENDBRANCH  34  35
ENDBRANCH  33  34
ENDBRANCH  32  33
ENDBRANCH  31  32
ENDBRANCH  30  31
ENDBRANCH   1  30
TORSDOF 19
