REMARK SMILES O=C(OCCOCCOC(=O)c1ncccc1-c1cc(Cl)cc(Cl)c1)c1ccc(-c2c3nc(c(-c4c(F)cccc4F)c4ccc([nH]4)c(-c4c(F)cccc4F)c4nc(c(-c5c(F)cccc5F)c5ccc2[nH]5)C=C4)C=C3)cc1
REMARK SMILES IDX 5 1 4 2 3 3 2 4 1 5 26 6 27 7 79 8 28 9 78 10 29 11 30 12
REMARK SMILES IDX 31 13 72 14 32 15 77 16 71 17 73 18 33 19 76 20 70 21 69 22
REMARK SMILES IDX 34 24 60 25 43 26 59 27 44 28 47 29 58 30 74 31 45 32 46 33
REMARK SMILES IDX 57 35 75 36 48 37 35 38 36 39 41 40 37 41 38 42 40 43 42 44
REMARK SMILES IDX 39 45 61 46 62 47 67 48 63 49 64 50 66 51 68 52 65 53 49 54
REMARK SMILES IDX 50 55 55 56 51 57 52 58 54 59 56 60 53 61 6 62 7 63 8 64
REMARK SMILES IDX 9 65 10 66 11 67 12 68 13 69 17 70 14 71 16 72 15 73 18 74
REMARK SMILES IDX 19 75 25 76 20 77 23 78 21 79 22 80 24 81
REMARK H PARENT 73 23 47 34
REMARK Flexibility Score: inf
ROOT
ATOM      1  C   UNL     1       4.318   1.197  -0.966  1.00  0.00     0.202 C 
ENDROOT
BRANCH   1   2
ATOM      2  C   UNL     1       4.060  -0.222  -1.486  1.00  0.00     0.261 C 
BRANCH   2   3
ATOM      3  O   UNL     1       2.721  -0.651  -1.179  1.00  0.00    -0.460 OA
BRANCH   3   4
ATOM      4  C   UNL     1       2.263  -1.346  -0.111  1.00  0.00     0.338 C 
ATOM      5  O   UNL     1       1.057  -1.588  -0.058  1.00  0.00    -0.246 OA
BRANCH   4   6
ATOM      6  C   UNL     1       3.114  -1.839   1.023  1.00  0.00     0.060 A 
ATOM      7  C   UNL     1       4.396  -1.388   1.332  1.00  0.00     0.016 A 
ATOM      8  C   UNL     1       2.532  -2.782   1.895  1.00  0.00     0.016 A 
ATOM      9  C   UNL     1       5.082  -1.839   2.446  1.00  0.00     0.010 A 
ATOM     10  C   UNL     1       3.214  -3.244   3.029  1.00  0.00     0.010 A 
ATOM     11  C   UNL     1       4.498  -2.770   3.298  1.00  0.00    -0.014 A 
BRANCH  11  12
ATOM     12  C   UNL     1       5.357  -3.290   4.372  1.00  0.00     0.031 A 
ATOM     13  C   UNL     1       6.082  -4.575   4.130  1.00  0.00     0.074 A 
ATOM     14  C   UNL     1       5.650  -2.491   5.414  1.00  0.00     0.049 A 
ATOM     15  N   UNL     1       6.977  -5.172   4.868  1.00  0.00    -0.248 NA
ATOM     16  C   UNL     1       5.785  -5.265   2.861  1.00  0.00     0.031 C 
ATOM     17  C   UNL     1       5.088  -1.155   5.633  1.00  0.00     0.029 A 
ATOM     18  N   UNL     1       6.535  -2.655   6.445  1.00  0.00    -0.354 N 
ATOM     19  C   UNL     1       7.351  -6.303   4.157  1.00  0.00     0.074 A 
ATOM     20  C   UNL     1       6.578  -6.322   2.936  1.00  0.00     0.031 C 
ATOM     21  C   UNL     1       5.664  -0.611   6.717  1.00  0.00     0.029 A 
ATOM     22  C   UNL     1       6.591  -1.577   7.295  1.00  0.00     0.049 A 
ATOM     23  H   UNL     1       7.078  -3.467   6.566  1.00  0.00     0.167 HD
ATOM     24  C   UNL     1       8.264  -7.239   4.500  1.00  0.00     0.037 A 
ATOM     25  C   UNL     1       7.301  -1.411   8.425  1.00  0.00     0.037 A 
ATOM     26  C   UNL     1       9.000  -7.203   5.734  1.00  0.00     0.049 A 
ATOM     27  C   UNL     1       8.221  -2.526   8.844  1.00  0.00     0.074 A 
ATOM     28  C   UNL     1       9.860  -8.147   6.261  1.00  0.00     0.029 A 
ATOM     29  N   UNL     1       8.955  -6.147   6.636  1.00  0.00    -0.354 N 
ATOM     30  N   UNL     1       8.503  -3.644   8.215  1.00  0.00    -0.248 NA
ATOM     31  C   UNL     1       8.912  -2.368  10.128  1.00  0.00     0.031 C 
ATOM     32  C   UNL     1      10.309  -7.676   7.501  1.00  0.00     0.029 A 
ATOM     33  C   UNL     1       9.765  -6.419   7.723  1.00  0.00     0.049 A 
ATOM     34  H   UNL     1       8.425  -5.325   6.519  1.00  0.00     0.167 HD
ATOM     35  C   UNL     1       9.406  -4.320   9.021  1.00  0.00     0.074 A 
ATOM     36  C   UNL     1       9.650  -3.468  10.170  1.00  0.00     0.031 C 
ATOM     37  C   UNL     1       9.976  -5.537   8.844  1.00  0.00     0.037 A 
BRANCH  24  38
ATOM     38  C   UNL     1       8.440  -8.389   3.558  1.00  0.00     0.057 A 
ATOM     39  C   UNL     1       9.101  -8.250   2.330  1.00  0.00     0.134 A 
ATOM     40  C   UNL     1       7.894  -9.643   3.859  1.00  0.00     0.134 A 
ATOM     41  F   UNL     1       9.616  -7.066   1.966  1.00  0.00    -0.206 F 
ATOM     42  C   UNL     1       9.194  -9.311   1.427  1.00  0.00     0.040 A 
ATOM     43  C   UNL     1       7.998 -10.717   2.973  1.00  0.00     0.040 A 
ATOM     44  F   UNL     1       7.237  -9.840   5.012  1.00  0.00    -0.206 F 
ATOM     45  C   UNL     1       8.643 -10.550   1.749  1.00  0.00     0.006 A 
ENDBRANCH  24  38
BRANCH  25  46
ATOM     46  C   UNL     1       7.123  -0.194   9.261  1.00  0.00     0.057 A 
ATOM     47  C   UNL     1       8.170   0.703   9.498  1.00  0.00     0.134 A 
ATOM     48  C   UNL     1       5.894   0.081   9.878  1.00  0.00     0.134 A 
ATOM     49  F   UNL     1       9.379   0.490   8.958  1.00  0.00    -0.206 F 
ATOM     50  C   UNL     1       8.010   1.812  10.334  1.00  0.00     0.040 A 
ATOM     51  C   UNL     1       5.711   1.201  10.690  1.00  0.00     0.040 A 
ATOM     52  F   UNL     1       4.847  -0.738   9.698  1.00  0.00    -0.206 F 
ATOM     53  C   UNL     1       6.775   2.066  10.929  1.00  0.00     0.006 A 
ENDBRANCH  25  46
BRANCH  37  54
ATOM     54  C   UNL     1      10.923  -5.994   9.911  1.00  0.00     0.057 A 
ATOM     55  C   UNL     1      10.468  -6.411  11.168  1.00  0.00     0.134 A 
ATOM     56  C   UNL     1      12.300  -6.045   9.665  1.00  0.00     0.134 A 
ATOM     57  F   UNL     1       9.160  -6.371  11.465  1.00  0.00    -0.206 F 
ATOM     58  C   UNL     1      11.355  -6.839  12.155  1.00  0.00     0.040 A 
ATOM     59  C   UNL     1      13.194  -6.497  10.635  1.00  0.00     0.040 A 
ATOM     60  F   UNL     1      12.795  -5.668   8.477  1.00  0.00    -0.206 F 
ATOM     61  C   UNL     1      12.722  -6.888  11.886  1.00  0.00     0.006 A 
ENDBRANCH  37  54
ENDBRANCH  11  12
ENDBRANCH   4   6
ENDBRANCH   3   4
ENDBRANCH   2   3
ENDBRANCH   1   2
BRANCH   1  62
ATOM     62  O   UNL     1       4.095   1.316   0.441  1.00  0.00    -0.374 OA
BRANCH  62  63
ATOM     63  C   UNL     1       2.786   1.748   0.823  1.00  0.00     0.202 C 
BRANCH  63  64
ATOM     64  C   UNL     1       2.883   3.148   1.407  1.00  0.00     0.261 C 
BRANCH  64  65
ATOM     65  O   UNL     1       3.435   3.982   0.385  1.00  0.00    -0.458 OA
BRANCH  65  66
ATOM     66  C   UNL     1       4.766   4.244   0.453  1.00  0.00     0.357 C 
ATOM     67  O   UNL     1       5.511   4.020   1.392  1.00  0.00    -0.244 OA
BRANCH  66  68
ATOM     68  C   UNL     1       5.185   4.771  -0.884  1.00  0.00     0.156 A 
ATOM     69  N   UNL     1       6.288   4.151  -1.397  1.00  0.00    -0.249 NA
ATOM     70  C   UNL     1       4.420   5.735  -1.572  1.00  0.00     0.015 A 
ATOM     71  C   UNL     1       6.642   4.470  -2.654  1.00  0.00     0.112 A 
ATOM     72  C   UNL     1       4.844   6.031  -2.876  1.00  0.00     0.013 A 
ATOM     73  C   UNL     1       5.956   5.390  -3.426  1.00  0.00     0.021 A 
BRANCH  70  74
ATOM     74  C   UNL     1       3.187   6.325  -1.011  1.00  0.00    -0.013 A 
ATOM     75  C   UNL     1       1.958   6.138  -1.666  1.00  0.00     0.029 A 
ATOM     76  C   UNL     1       3.171   6.893   0.278  1.00  0.00     0.029 A 
ATOM     77  C   UNL     1       0.755   6.423  -1.016  1.00  0.00     0.043 A 
ATOM     78  C   UNL     1       1.960   7.141   0.928  1.00  0.00     0.043 A 
ATOM     79  Cl  UNL     1      -0.736   6.107  -1.815  1.00  0.00    -0.084 Cl
ATOM     80  C   UNL     1       0.748   6.900   0.290  1.00  0.00     0.041 A 
ATOM     81  Cl  UNL     1       1.969   7.661   2.569  1.00  0.00    -0.084 Cl
ENDBRANCH  70  74
ENDBRANCH  66  68
ENDBRANCH  65  66
ENDBRANCH  64  65
ENDBRANCH  63  64
ENDBRANCH  62  63
ENDBRANCH   1  62
TORSDOF 15
