REMARK SMILES Cc1cc(C)c(C(N)=O)c(N[C@H]2C=C[C@H](C(=O)OCCOCCOC(=O)c3ccc(-c4c5nc(c(-c6c(F)cccc6F)c6ccc([nH]6)c(-c6c(F)cccc6F)c6nc(c(-c7c(F)cccc7F)c7ccc4[nH]7)C=C6)C=C5)cc3)C2)n1
REMARK SMILES IDX 20 1 19 2 18 3 16 4 17 5 15 6 12 7 13 8 81 9 14 10 11 11
REMARK SMILES IDX 10 13 1 14 2 15 3 16 82 17 4 18 5 19 6 20 7 21 8 22 9 23
REMARK SMILES IDX 21 26 22 27 23 28 24 29 25 30 26 31 27 32 28 33 80 34 29 35
REMARK SMILES IDX 79 36 30 37 31 38 32 39 73 40 33 41 78 42 72 43 74 44 34 45
REMARK SMILES IDX 77 46 71 47 70 48 35 50 61 51 44 52 60 53 45 54 48 55 59 56
REMARK SMILES IDX 75 57 46 58 47 59 58 61 76 62 49 63 36 64 37 65 42 66 38 67
REMARK SMILES IDX 39 68 41 69 43 70 40 71 62 72 63 73 68 74 64 75 65 76 67 77
REMARK SMILES IDX 69 78 66 79 50 80 51 81 56 82 52 83 53 84 55 85 57 86 54 87
REMARK H PARENT 11 12 8 24 8 25 74 49 48 60
REMARK Flexibility Score: inf
ROOT
ATOM      1  C   UNL     1      -6.604  -5.773  -2.844  1.00  0.00     0.202 C 
ENDROOT
BRANCH   1   2
ATOM      2  C   UNL     1      -6.199  -5.976  -1.383  1.00  0.00     0.261 C 
BRANCH   2   3
ATOM      3  O   UNL     1      -5.668  -4.753  -0.853  1.00  0.00    -0.463 OA
BRANCH   3   4
ATOM      4  C   UNL     1      -4.422  -4.840  -0.312  1.00  0.00     0.312 C 
ATOM      5  O   UNL     1      -3.840  -5.883  -0.040  1.00  0.00    -0.252 OA
BRANCH   4   6
ATOM      6  C   UNL     1      -3.806  -3.454  -0.197  1.00  0.00     0.124 C 
ATOM      7  C   UNL     1      -1.418  -3.699   0.146  1.00  0.00     0.104 C 
ATOM      8  C   UNL     1      -2.107  -3.293   1.410  1.00  0.00    -0.006 C 
ATOM      9  C   UNL     1      -2.462  -3.438  -0.944  1.00  0.00     0.048 C 
ATOM     10  C   UNL     1      -3.426  -3.156   1.221  1.00  0.00    -0.014 C 
BRANCH   7  11
ATOM     11  N   UNL     1      -0.159  -3.015  -0.064  1.00  0.00    -0.363 N 
ATOM     12  H   UNL     1       0.635  -3.570  -0.240  1.00  0.00     0.162 HD
BRANCH  11  13
ATOM     13  C   UNL     1       0.016  -1.637  -0.038  1.00  0.00     0.139 A 
ATOM     14  C   UNL     1      -2.249   1.267   0.094  1.00  0.00     0.067 C 
ATOM     15  C   UNL     1      -0.978   0.476   0.071  1.00  0.00     0.040 A 
ATOM     16  C   UNL     1       0.252   1.112   0.074  1.00  0.00     0.028 A 
ATOM     17  N   UNL     1      -1.093  -0.867   0.035  1.00  0.00    -0.236 NA
ATOM     18  C   UNL     1       1.421   0.344   0.037  1.00  0.00    -0.033 A 
ATOM     19  C   UNL     1       2.737   1.071   0.058  1.00  0.00     0.045 C 
ATOM     20  C   UNL     1       1.301  -1.060  -0.045  1.00  0.00     0.084 A 
BRANCH  20  21
ATOM     21  C   UNL     1       2.520  -1.909  -0.172  1.00  0.00     0.252 C 
ATOM     22  N   UNL     1       2.531  -3.097   0.505  1.00  0.00    -0.365 N 
ATOM     23  O   UNL     1       3.481  -1.576  -0.855  1.00  0.00    -0.269 OA
ATOM     24  H   UNL     1       1.756  -3.359   1.052  1.00  0.00     0.159 HD
ATOM     25  H   UNL     1       3.315  -3.691   0.445  1.00  0.00     0.159 HD
ENDBRANCH  20  21
ENDBRANCH  11  13
ENDBRANCH   7  11
ENDBRANCH   4   6
ENDBRANCH   3   4
ENDBRANCH   2   3
ENDBRANCH   1   2
BRANCH   1  26
ATOM     26  O   UNL     1      -5.530  -5.509  -3.748  1.00  0.00    -0.374 OA
BRANCH  26  27
ATOM     27  C   UNL     1      -4.993  -4.185  -3.773  1.00  0.00     0.202 C 
BRANCH  27  28
ATOM     28  C   UNL     1      -5.827  -3.127  -4.505  1.00  0.00     0.261 C 
BRANCH  28  29
ATOM     29  O   UNL     1      -7.026  -2.799  -3.777  1.00  0.00    -0.460 OA
BRANCH  29  30
ATOM     30  C   UNL     1      -8.178  -3.153  -4.391  1.00  0.00     0.338 C 
ATOM     31  O   UNL     1      -8.306  -3.639  -5.507  1.00  0.00    -0.246 OA
BRANCH  30  32
ATOM     32  C   UNL     1      -9.308  -3.042  -3.453  1.00  0.00     0.060 A 
ATOM     33  C   UNL     1     -10.117  -4.173  -3.282  1.00  0.00     0.016 A 
ATOM     34  C   UNL     1      -9.630  -1.835  -2.829  1.00  0.00     0.016 A 
ATOM     35  C   UNL     1     -11.289  -4.085  -2.535  1.00  0.00     0.010 A 
ATOM     36  C   UNL     1     -10.814  -1.745  -2.088  1.00  0.00     0.010 A 
ATOM     37  C   UNL     1     -11.668  -2.858  -1.976  1.00  0.00    -0.014 A 
BRANCH  37  38
ATOM     38  C   UNL     1     -13.040  -2.703  -1.440  1.00  0.00     0.031 A 
ATOM     39  C   UNL     1     -14.098  -2.105  -2.327  1.00  0.00     0.074 A 
ATOM     40  C   UNL     1     -13.354  -3.127  -0.204  1.00  0.00     0.049 A 
ATOM     41  N   UNL     1     -15.358  -1.860  -2.069  1.00  0.00    -0.248 NA
ATOM     42  C   UNL     1     -13.678  -1.733  -3.688  1.00  0.00     0.031 C 
ATOM     43  C   UNL     1     -12.428  -3.761   0.733  1.00  0.00     0.029 A 
ATOM     44  N   UNL     1     -14.546  -3.083   0.474  1.00  0.00    -0.354 N 
ATOM     45  C   UNL     1     -15.878  -1.303  -3.231  1.00  0.00     0.074 A 
ATOM     46  C   UNL     1     -14.793  -1.219  -4.185  1.00  0.00     0.031 C 
ATOM     47  C   UNL     1     -13.086  -4.039   1.872  1.00  0.00     0.029 A 
ATOM     48  C   UNL     1     -14.469  -3.580   1.751  1.00  0.00     0.049 A 
ATOM     49  H   UNL     1     -15.376  -2.728   0.082  1.00  0.00     0.167 HD
ATOM     50  C   UNL     1     -17.147  -0.906  -3.484  1.00  0.00     0.037 A 
ATOM     51  C   UNL     1     -15.407  -3.642   2.716  1.00  0.00     0.037 A 
ATOM     52  C   UNL     1     -18.227  -0.993  -2.538  1.00  0.00     0.049 A 
ATOM     53  C   UNL     1     -16.797  -3.137   2.431  1.00  0.00     0.074 A 
ATOM     54  C   UNL     1     -19.551  -0.627  -2.703  1.00  0.00     0.029 A 
ATOM     55  N   UNL     1     -18.103  -1.478  -1.245  1.00  0.00    -0.354 N 
ATOM     56  N   UNL     1     -17.282  -2.629   1.324  1.00  0.00    -0.248 NA
ATOM     57  C   UNL     1     -17.770  -3.218   3.530  1.00  0.00     0.031 C 
ATOM     58  C   UNL     1     -20.221  -0.854  -1.496  1.00  0.00     0.029 A 
ATOM     59  C   UNL     1     -19.323  -1.403  -0.595  1.00  0.00     0.049 A 
ATOM     60  H   UNL     1     -17.271  -1.824  -0.849  1.00  0.00     0.167 HD
ATOM     61  C   UNL     1     -18.621  -2.359   1.583  1.00  0.00     0.074 A 
ATOM     62  C   UNL     1     -18.873  -2.766   2.950  1.00  0.00     0.031 C 
ATOM     63  C   UNL     1     -19.558  -1.824   0.763  1.00  0.00     0.037 A 
BRANCH  50  64
ATOM     64  C   UNL     1     -17.428  -0.320  -4.836  1.00  0.00     0.057 A 
ATOM     65  C   UNL     1     -17.482  -1.114  -5.989  1.00  0.00     0.134 A 
ATOM     66  C   UNL     1     -17.668   1.052  -4.982  1.00  0.00     0.134 A 
ATOM     67  F   UNL     1     -17.244  -2.432  -5.918  1.00  0.00    -0.206 F 
ATOM     68  C   UNL     1     -17.745  -0.560  -7.243  1.00  0.00     0.040 A 
ATOM     69  C   UNL     1     -17.955   1.613  -6.227  1.00  0.00     0.040 A 
ATOM     70  F   UNL     1     -17.632   1.867  -3.917  1.00  0.00    -0.206 F 
ATOM     71  C   UNL     1     -17.988   0.807  -7.363  1.00  0.00     0.006 A 
ENDBRANCH  50  64
BRANCH  51  72
ATOM     72  C   UNL     1     -15.065  -4.196   4.049  1.00  0.00     0.057 A 
ATOM     73  C   UNL     1     -15.583  -5.422   4.481  1.00  0.00     0.134 A 
ATOM     74  C   UNL     1     -14.230  -3.501   4.932  1.00  0.00     0.134 A 
ATOM     75  F   UNL     1     -16.409  -6.122   3.689  1.00  0.00    -0.206 F 
ATOM     76  C   UNL     1     -15.296  -5.931   5.748  1.00  0.00     0.040 A 
ATOM     77  C   UNL     1     -13.915  -4.009   6.193  1.00  0.00     0.040 A 
ATOM     78  F   UNL     1     -13.702  -2.320   4.577  1.00  0.00    -0.206 F 
ATOM     79  C   UNL     1     -14.455  -5.225   6.607  1.00  0.00     0.006 A 
ENDBRANCH  51  72
BRANCH  63  80
ATOM     80  C   UNL     1     -20.950  -1.686   1.305  1.00  0.00     0.057 A 
ATOM     81  C   UNL     1     -21.284  -0.700   2.241  1.00  0.00     0.134 A 
ATOM     82  C   UNL     1     -21.977  -2.522   0.848  1.00  0.00     0.134 A 
ATOM     83  F   UNL     1     -20.343   0.124   2.726  1.00  0.00    -0.206 F 
ATOM     84  C   UNL     1     -22.588  -0.564   2.720  1.00  0.00     0.040 A 
ATOM     85  C   UNL     1     -23.289  -2.380   1.301  1.00  0.00     0.040 A 
ATOM     86  F   UNL     1     -21.724  -3.480  -0.056  1.00  0.00    -0.206 F 
ATOM     87  C   UNL     1     -23.596  -1.401   2.244  1.00  0.00     0.006 A 
ENDBRANCH  63  80
ENDBRANCH  37  38
ENDBRANCH  30  32
ENDBRANCH  29  30
ENDBRANCH  28  29
ENDBRANCH  27  28
ENDBRANCH  26  27
ENDBRANCH   1  26
TORSDOF 17
