REMARK SMILES C[C@@H](C(=O)OCCOCCOC(=O)c1ccc(-c2c3nc(c(-c4c(F)cccc4F)c4ccc([nH]4)c(-c4c(F)cccc4F)c4nc(c(-c5c(F)cccc5F)c5ccc2[nH]5)C=C4)C=C3)cc1)c1ccc(-c2cccc(OC(=O)Nc3ccccc3)c2)c(F)c1
REMARK SMILES IDX 6 1 5 2 3 3 4 4 2 5 1 6 68 7 69 8 90 9 70 10 88 11 71 12
REMARK SMILES IDX 89 13 72 14 73 15 87 16 74 17 76 18 75 19 77 20 78 21 79 22
REMARK SMILES IDX 80 23 81 25 82 26 86 27 83 28 85 29 84 30 7 31 8 32 9 33
REMARK SMILES IDX 10 34 11 35 12 36 13 37 14 38 15 39 67 40 16 41 66 42 17 43
REMARK SMILES IDX 18 44 19 45 60 46 20 47 65 48 59 49 61 50 21 51 64 52 58 53
REMARK SMILES IDX 57 54 22 56 48 57 31 58 47 59 32 60 35 61 46 62 62 63 33 64
REMARK SMILES IDX 34 65 45 67 63 68 36 69 23 70 24 71 29 72 25 73 26 74 28 75
REMARK SMILES IDX 30 76 27 77 49 78 50 79 55 80 51 81 52 82 54 83 56 84 53 85
REMARK SMILES IDX 37 86 38 87 43 88 39 89 40 90 42 91 44 92 41 93
REMARK H PARENT 80 24 61 55 35 66
REMARK Flexibility Score: inf
ROOT
ATOM      1  C   UNL     1       2.333   4.127  -0.943  1.00  0.00     0.261 C 
ENDROOT
BRANCH   1   2
ATOM      2  O   UNL     1       2.033   2.848  -0.371  1.00  0.00    -0.463 OA
BRANCH   2   3
ATOM      3  C   UNL     1       1.355   2.873   0.809  1.00  0.00     0.313 C 
ATOM      4  O   UNL     1       1.228   3.873   1.508  1.00  0.00    -0.252 OA
BRANCH   3   5
ATOM      5  C   UNL     1       0.680   1.534   1.119  1.00  0.00     0.126 C 
ATOM      6  C   UNL     1       1.474   0.359   0.525  1.00  0.00     0.025 C 
BRANCH   5   7
ATOM      7  C   UNL     1      -0.823   1.496   0.802  1.00  0.00    -0.031 A 
ATOM      8  C   UNL     1      -1.605   2.665   0.757  1.00  0.00     0.005 A 
ATOM      9  C   UNL     1      -1.501   0.275   0.664  1.00  0.00     0.044 A 
ATOM     10  C   UNL     1      -3.002   2.611   0.621  1.00  0.00     0.012 A 
ATOM     11  C   UNL     1      -2.892   0.228   0.531  1.00  0.00     0.131 A 
ATOM     12  C   UNL     1      -3.677   1.386   0.542  1.00  0.00     0.018 A 
ATOM     13  F   UNL     1      -3.472  -0.980   0.442  1.00  0.00    -0.206 F 
BRANCH  12  14
ATOM     14  C   UNL     1      -5.146   1.326   0.624  1.00  0.00    -0.012 A 
ATOM     15  C   UNL     1      -5.982   2.028  -0.259  1.00  0.00     0.009 A 
ATOM     16  C   UNL     1      -5.744   0.605   1.674  1.00  0.00     0.056 A 
ATOM     17  C   UNL     1      -7.372   2.013  -0.091  1.00  0.00     0.004 A 
ATOM     18  C   UNL     1      -7.124   0.615   1.858  1.00  0.00     0.133 A 
ATOM     19  C   UNL     1      -7.944   1.311   0.971  1.00  0.00     0.047 A 
BRANCH  18  20
ATOM     20  O   UNL     1      -7.789  -0.019   2.937  1.00  0.00    -0.410 OA
BRANCH  20  21
ATOM     21  C   UNL     1      -7.181  -0.518   4.090  1.00  0.00     0.417 C 
ATOM     22  O   UNL     1      -5.971  -0.596   4.287  1.00  0.00    -0.224 OA
ATOM     23  N   UNL     1      -8.040  -0.843   5.108  1.00  0.00    -0.291 N 
ATOM     24  H   UNL     1      -7.597  -1.067   5.958  1.00  0.00     0.173 HD
BRANCH  23  25
ATOM     25  C   UNL     1      -9.439  -0.910   5.148  1.00  0.00     0.044 A 
ATOM     26  C   UNL     1     -10.037  -0.860   6.413  1.00  0.00     0.026 A 
ATOM     27  C   UNL     1     -10.248  -1.055   4.021  1.00  0.00     0.026 A 
ATOM     28  C   UNL     1     -11.425  -0.906   6.547  1.00  0.00     0.002 A 
ATOM     29  C   UNL     1     -11.638  -1.121   4.156  1.00  0.00     0.002 A 
ATOM     30  C   UNL     1     -12.227  -1.036   5.416  1.00  0.00     0.000 A 
ENDBRANCH  23  25
ENDBRANCH  20  21
ENDBRANCH  18  20
ENDBRANCH  12  14
ENDBRANCH   5   7
ENDBRANCH   3   5
ENDBRANCH   2   3
ENDBRANCH   1   2
BRANCH   1  31
ATOM     31  C   UNL     1       2.095   4.114  -2.456  1.00  0.00     0.202 C 
BRANCH  31  32
ATOM     32  O   UNL     1       0.791   3.736  -2.894  1.00  0.00    -0.374 OA
BRANCH  32  33
ATOM     33  C   UNL     1       0.408   2.366  -2.759  1.00  0.00     0.202 C 
BRANCH  33  34
ATOM     34  C   UNL     1       1.120   1.342  -3.654  1.00  0.00     0.261 C 
BRANCH  34  35
ATOM     35  O   UNL     1       2.528   1.228  -3.372  1.00  0.00    -0.460 OA
BRANCH  35  36
ATOM     36  C   UNL     1       3.340   1.540  -4.413  1.00  0.00     0.338 C 
ATOM     37  O   UNL     1       3.009   1.835  -5.549  1.00  0.00    -0.246 OA
BRANCH  36  38
ATOM     38  C   UNL     1       4.738   1.653  -3.959  1.00  0.00     0.060 A 
ATOM     39  C   UNL     1       5.380   2.885  -4.140  1.00  0.00     0.016 A 
ATOM     40  C   UNL     1       5.444   0.548  -3.480  1.00  0.00     0.016 A 
ATOM     41  C   UNL     1       6.744   3.006  -3.883  1.00  0.00     0.010 A 
ATOM     42  C   UNL     1       6.817   0.669  -3.232  1.00  0.00     0.010 A 
ATOM     43  C   UNL     1       7.480   1.889  -3.465  1.00  0.00    -0.014 A 
BRANCH  43  44
ATOM     44  C   UNL     1       8.960   1.968  -3.415  1.00  0.00     0.031 A 
ATOM     45  C   UNL     1       9.765   1.411  -4.558  1.00  0.00     0.074 A 
ATOM     46  C   UNL     1       9.583   2.565  -2.383  1.00  0.00     0.049 A 
ATOM     47  N   UNL     1      11.063   1.351  -4.708  1.00  0.00    -0.248 NA
ATOM     48  C   UNL     1       9.001   0.847  -5.682  1.00  0.00     0.031 C 
ATOM     49  C   UNL     1       8.916   3.181  -1.237  1.00  0.00     0.029 A 
ATOM     50  N   UNL     1      10.920   2.746  -2.133  1.00  0.00    -0.354 N 
ATOM     51  C   UNL     1      11.273   0.742  -5.939  1.00  0.00     0.074 A 
ATOM     52  C   UNL     1       9.970   0.422  -6.481  1.00  0.00     0.031 C 
ATOM     53  C   UNL     1       9.850   3.661  -0.397  1.00  0.00     0.029 A 
ATOM     54  C   UNL     1      11.176   3.360  -0.932  1.00  0.00     0.049 A 
ATOM     55  H   UNL     1      11.628   2.462  -2.755  1.00  0.00     0.167 HD
ATOM     56  C   UNL     1      12.445   0.482  -6.567  1.00  0.00     0.037 A 
ATOM     57  C   UNL     1      12.348   3.628  -0.324  1.00  0.00     0.037 A 
ATOM     58  C   UNL     1      13.742   0.798  -6.028  1.00  0.00     0.049 A 
ATOM     59  C   UNL     1      13.639   3.264  -1.009  1.00  0.00     0.074 A 
ATOM     60  C   UNL     1      14.987   0.583  -6.593  1.00  0.00     0.029 A 
ATOM     61  N   UNL     1      13.961   1.393  -4.795  1.00  0.00    -0.354 N 
ATOM     62  N   UNL     1      13.825   2.705  -2.180  1.00  0.00    -0.248 NA
ATOM     63  C   UNL     1      14.883   3.571  -0.287  1.00  0.00     0.031 C 
ATOM     64  C   UNL     1      15.961   1.004  -5.681  1.00  0.00     0.029 A 
ATOM     65  C   UNL     1      15.321   1.530  -4.571  1.00  0.00     0.049 A 
ATOM     66  H   UNL     1      13.254   1.675  -4.170  1.00  0.00     0.167 HD
ATOM     67  C   UNL     1      15.203   2.619  -2.348  1.00  0.00     0.074 A 
ATOM     68  C   UNL     1      15.804   3.195  -1.163  1.00  0.00     0.031 C 
ATOM     69  C   UNL     1      15.906   2.111  -3.389  1.00  0.00     0.037 A 
BRANCH  56  70
ATOM     70  C   UNL     1      12.377  -0.199  -7.902  1.00  0.00     0.057 A 
ATOM     71  C   UNL     1      11.930   0.467  -9.051  1.00  0.00     0.134 A 
ATOM     72  C   UNL     1      12.794  -1.528  -8.048  1.00  0.00     0.134 A 
ATOM     73  F   UNL     1      11.504   1.737  -8.977  1.00  0.00    -0.206 F 
ATOM     74  C   UNL     1      11.879  -0.171 -10.291  1.00  0.00     0.040 A 
ATOM     75  C   UNL     1      12.772  -2.169  -9.288  1.00  0.00     0.040 A 
ATOM     76  F   UNL     1      13.238  -2.223  -6.989  1.00  0.00    -0.206 F 
ATOM     77  C   UNL     1      12.308  -1.491 -10.413  1.00  0.00     0.006 A 
ENDBRANCH  56  70
BRANCH  57  78
ATOM     78  C   UNL     1      12.359   4.261   1.019  1.00  0.00     0.057 A 
ATOM     79  C   UNL     1      12.823   5.568   1.204  1.00  0.00     0.134 A 
ATOM     80  C   UNL     1      11.926   3.563   2.153  1.00  0.00     0.134 A 
ATOM     81  F   UNL     1      13.274   6.279   0.161  1.00  0.00    -0.206 F 
ATOM     82  C   UNL     1      12.871   6.154   2.471  1.00  0.00     0.040 A 
ATOM     83  C   UNL     1      11.945   4.144   3.421  1.00  0.00     0.040 A 
ATOM     84  F   UNL     1      11.471   2.307   2.042  1.00  0.00    -0.206 F 
ATOM     85  C   UNL     1      12.426   5.442   3.584  1.00  0.00     0.006 A 
ENDBRANCH  57  78
BRANCH  69  86
ATOM     86  C   UNL     1      17.403   2.185  -3.312  1.00  0.00     0.057 A 
ATOM     87  C   UNL     1      18.142   1.365  -2.451  1.00  0.00     0.134 A 
ATOM     88  C   UNL     1      18.116   3.060  -4.142  1.00  0.00     0.134 A 
ATOM     89  F   UNL     1      17.520   0.513  -1.622  1.00  0.00    -0.206 F 
ATOM     90  C   UNL     1      19.536   1.428  -2.401  1.00  0.00     0.040 A 
ATOM     91  C   UNL     1      19.511   3.114  -4.120  1.00  0.00     0.040 A 
ATOM     92  F   UNL     1      17.470   3.867  -4.997  1.00  0.00    -0.206 F 
ATOM     93  C   UNL     1      20.224   2.300  -3.243  1.00  0.00     0.006 A 
ENDBRANCH  69  86
ENDBRANCH  43  44
ENDBRANCH  36  38
ENDBRANCH  35  36
ENDBRANCH  34  35
ENDBRANCH  33  34
ENDBRANCH  32  33
ENDBRANCH  31  32
ENDBRANCH   1  31
TORSDOF 19
