REMARK SMILES O=C(OCCOCCOC(=O)c1[nH]ncc1C[N@H+]1CCC[C@@H](C(=O)c2ccc(Oc3ccccc3)cc2)C1)c1ccc(-c2c3nc(c(-c4c(F)cccc4F)c4ccc([nH]4)c(-c4c(F)cccc4F)c4nc(c(-c5c(F)cccc5F)c5ccc2[nH]5)C=C4)C=C3)cc1
REMARK SMILES IDX 8 1 7 2 6 3 5 4 4 5 3 6 2 7 1 8 39 9 40 10 92 11 41 12 91 13
REMARK SMILES IDX 42 14 43 15 44 16 85 17 45 18 90 19 84 20 86 21 46 22 89 23
REMARK SMILES IDX 83 24 82 25 47 27 73 28 56 29 72 30 57 31 60 32 71 33 87 34
REMARK SMILES IDX 58 35 59 36 70 38 88 39 61 40 48 41 49 42 54 43 50 44 51 45
REMARK SMILES IDX 53 46 55 47 52 48 74 49 75 50 80 51 76 52 77 53 79 54 81 55
REMARK SMILES IDX 78 56 62 57 63 58 68 59 64 60 65 61 67 62 69 63 66 64 9 65
REMARK SMILES IDX 10 66 11 67 12 68 13 69 16 70 14 71 15 73 17 74 18 75 19 76
REMARK SMILES IDX 38 77 20 79 22 80 21 81 23 82 24 83 25 84 26 85 37 86 27 87
REMARK SMILES IDX 36 88 28 89 29 90 30 91 31 92 35 93 32 94 34 95 33 96
REMARK H PARENT 86 26 60 37 13 72 18 78
REMARK Flexibility Score: inf
ROOT
ATOM      1  C   UNL     1       3.031   3.435  -1.040  1.00  0.00     0.261 C 
ENDROOT
BRANCH   1   2
ATOM      2  C   UNL     1       2.836   1.927  -0.840  1.00  0.00     0.202 C 
BRANCH   2   3
ATOM      3  O   UNL     1       4.125   1.304  -0.811  1.00  0.00    -0.374 OA
BRANCH   3   4
ATOM      4  C   UNL     1       4.285   0.115  -1.586  1.00  0.00     0.202 C 
BRANCH   4   5
ATOM      5  C   UNL     1       4.005  -1.174  -0.818  1.00  0.00     0.261 C 
BRANCH   5   6
ATOM      6  O   UNL     1       2.639  -1.196  -0.382  1.00  0.00    -0.460 OA
BRANCH   6   7
ATOM      7  C   UNL     1       2.136  -0.862   0.827  1.00  0.00     0.338 C 
ATOM      8  O   UNL     1       0.917  -0.902   0.985  1.00  0.00    -0.246 OA
BRANCH   7   9
ATOM      9  C   UNL     1       2.971  -0.448   1.996  1.00  0.00     0.060 A 
ATOM     10  C   UNL     1       4.214   0.184   1.920  1.00  0.00     0.016 A 
ATOM     11  C   UNL     1       2.403  -0.623   3.270  1.00  0.00     0.016 A 
ATOM     12  C   UNL     1       4.888   0.608   3.051  1.00  0.00     0.010 A 
ATOM     13  C   UNL     1       3.065  -0.184   4.420  1.00  0.00     0.010 A 
ATOM     14  C   UNL     1       4.316   0.426   4.304  1.00  0.00    -0.014 A 
BRANCH  14  15
ATOM     15  C   UNL     1       5.140   0.780   5.467  1.00  0.00     0.031 A 
ATOM     16  C   UNL     1       5.872  -0.320   6.165  1.00  0.00     0.074 A 
ATOM     17  C   UNL     1       5.353   2.076   5.749  1.00  0.00     0.049 A 
ATOM     18  N   UNL     1       6.665  -0.259   7.198  1.00  0.00    -0.248 NA
ATOM     19  C   UNL     1       5.705  -1.673   5.607  1.00  0.00     0.031 C 
ATOM     20  C   UNL     1       4.787   3.205   5.004  1.00  0.00     0.029 A 
ATOM     21  N   UNL     1       6.134   2.664   6.704  1.00  0.00    -0.354 N 
ATOM     22  C   UNL     1       7.073  -1.565   7.428  1.00  0.00     0.074 A 
ATOM     23  C   UNL     1       6.442  -2.399   6.432  1.00  0.00     0.031 C 
ATOM     24  C   UNL     1       5.258   4.351   5.521  1.00  0.00     0.029 A 
ATOM     25  C   UNL     1       6.100   4.037   6.669  1.00  0.00     0.049 A 
ATOM     26  H   UNL     1       6.668   2.154   7.355  1.00  0.00     0.167 HD
ATOM     27  C   UNL     1       7.896  -2.017   8.401  1.00  0.00     0.037 A 
ATOM     28  C   UNL     1       6.667   4.928   7.503  1.00  0.00     0.037 A 
ATOM     29  C   UNL     1       8.495  -1.154   9.381  1.00  0.00     0.049 A 
ATOM     30  C   UNL     1       7.485   4.390   8.645  1.00  0.00     0.074 A 
ATOM     31  C   UNL     1       9.279  -1.486  10.468  1.00  0.00     0.029 A 
ATOM     32  N   UNL     1       8.367   0.231   9.381  1.00  0.00    -0.354 N 
ATOM     33  N   UNL     1       7.804   3.145   8.917  1.00  0.00    -0.248 NA
ATOM     34  C   UNL     1       8.006   5.369   9.604  1.00  0.00     0.031 C 
ATOM     35  C   UNL     1       9.587  -0.304  11.153  1.00  0.00     0.029 A 
ATOM     36  C   UNL     1       9.041   0.768  10.461  1.00  0.00     0.049 A 
ATOM     37  H   UNL     1       7.869   0.752   8.710  1.00  0.00     0.167 HD
ATOM     38  C   UNL     1       8.576   3.191  10.068  1.00  0.00     0.074 A 
ATOM     39  C   UNL     1       8.693   4.591  10.429  1.00  0.00     0.031 C 
ATOM     40  C   UNL     1       9.134   2.174  10.772  1.00  0.00     0.037 A 
BRANCH  27  41
ATOM     41  C   UNL     1       8.099  -3.500   8.481  1.00  0.00     0.057 A 
ATOM     42  C   UNL     1       8.855  -4.206   7.535  1.00  0.00     0.134 A 
ATOM     43  C   UNL     1       7.475  -4.242   9.492  1.00  0.00     0.134 A 
ATOM     44  F   UNL     1       9.449  -3.560   6.521  1.00  0.00    -0.206 F 
ATOM     45  C   UNL     1       8.958  -5.598   7.576  1.00  0.00     0.040 A 
ATOM     46  C   UNL     1       7.590  -5.631   9.557  1.00  0.00     0.040 A 
ATOM     47  F   UNL     1       6.726  -3.630  10.422  1.00  0.00    -0.206 F 
ATOM     48  C   UNL     1       8.326  -6.315   8.591  1.00  0.00     0.006 A 
ENDBRANCH  27  41
BRANCH  28  49
ATOM     49  C   UNL     1       6.434   6.385   7.326  1.00  0.00     0.057 A 
ATOM     50  C   UNL     1       7.479   7.265   7.027  1.00  0.00     0.134 A 
ATOM     51  C   UNL     1       5.154   6.939   7.471  1.00  0.00     0.134 A 
ATOM     52  F   UNL     1       8.732   6.805   6.893  1.00  0.00    -0.206 F 
ATOM     53  C   UNL     1       7.266   8.640   6.896  1.00  0.00     0.040 A 
ATOM     54  C   UNL     1       4.920   8.306   7.315  1.00  0.00     0.040 A 
ATOM     55  F   UNL     1       4.104   6.154   7.758  1.00  0.00    -0.206 F 
ATOM     56  C   UNL     1       5.981   9.163   7.035  1.00  0.00     0.006 A 
ENDBRANCH  28  49
BRANCH  40  57
ATOM     57  C   UNL     1       9.944   2.555  11.973  1.00  0.00     0.057 A 
ATOM     58  C   UNL     1       9.344   3.003  13.155  1.00  0.00     0.134 A 
ATOM     59  C   UNL     1      11.338   2.425  11.956  1.00  0.00     0.134 A 
ATOM     60  F   UNL     1       8.014   3.161  13.226  1.00  0.00    -0.206 F 
ATOM     61  C   UNL     1      10.107   3.331  14.276  1.00  0.00     0.040 A 
ATOM     62  C   UNL     1      12.108   2.722  13.078  1.00  0.00     0.040 A 
ATOM     63  F   UNL     1      11.969   1.992  10.854  1.00  0.00    -0.206 F 
ATOM     64  C   UNL     1      11.493   3.182  14.241  1.00  0.00     0.006 A 
ENDBRANCH  40  57
ENDBRANCH  14  15
ENDBRANCH   7   9
ENDBRANCH   6   7
ENDBRANCH   5   6
ENDBRANCH   4   5
ENDBRANCH   3   4
ENDBRANCH   2   3
ENDBRANCH   1   2
BRANCH   1  65
ATOM     65  O   UNL     1       3.589   3.646  -2.342  1.00  0.00    -0.459 OA
BRANCH  65  66
ATOM     66  C   UNL     1       4.907   3.334  -2.461  1.00  0.00     0.356 C 
ATOM     67  O   UNL     1       5.766   3.515  -1.609  1.00  0.00    -0.244 OA
BRANCH  66  68
ATOM     68  C   UNL     1       5.097   2.607  -3.684  1.00  0.00     0.152 A 
ATOM     69  N   UNL     1       6.149   1.757  -3.872  1.00  0.00    -0.271 N 
ATOM     70  C   UNL     1       4.365   2.567  -4.864  1.00  0.00     0.059 A 
ATOM     71  N   UNL     1       6.054   1.025  -4.994  1.00  0.00    -0.183 NA
ATOM     72  H   UNL     1       6.904   1.687  -3.245  1.00  0.00     0.190 HD
ATOM     73  C   UNL     1       4.972   1.519  -5.598  1.00  0.00     0.145 A 
BRANCH  70  74
ATOM     74  C   UNL     1       3.230   3.455  -5.285  1.00  0.00     0.303 C 
BRANCH  74  75
ATOM     75  N   UNL     1       3.715   4.753  -5.815  1.00  0.00    -0.330 N 
ATOM     76  C   UNL     1       4.557   5.500  -4.872  1.00  0.00     0.262 C 
ATOM     77  C   UNL     1       4.289   4.586  -7.153  1.00  0.00     0.274 C 
ATOM     78  H   UNL     1       2.904   5.363  -5.925  1.00  0.00     0.348 HD
ATOM     79  C   UNL     1       5.122   6.798  -5.433  1.00  0.00     0.062 C 
ATOM     80  C   UNL     1       5.026   5.806  -7.707  1.00  0.00     0.116 C 
ATOM     81  C   UNL     1       5.928   6.495  -6.687  1.00  0.00     0.023 C 
BRANCH  80  82
ATOM     82  C   UNL     1       5.728   5.421  -9.001  1.00  0.00     0.171 C 
ATOM     83  O   UNL     1       5.153   5.550 -10.083  1.00  0.00    -0.294 OA
BRANCH  82  84
ATOM     84  C   UNL     1       7.107   4.855  -9.013  1.00  0.00     0.018 A 
ATOM     85  C   UNL     1       7.956   5.286 -10.037  1.00  0.00     0.015 A 
ATOM     86  C   UNL     1       7.567   3.894  -8.104  1.00  0.00     0.015 A 
ATOM     87  C   UNL     1       9.245   4.763 -10.148  1.00  0.00     0.048 A 
ATOM     88  C   UNL     1       8.861   3.369  -8.220  1.00  0.00     0.048 A 
ATOM     89  C   UNL     1       9.698   3.790  -9.254  1.00  0.00     0.127 A 
BRANCH  89  90
ATOM     90  O   UNL     1      10.990   3.367  -9.468  1.00  0.00    -0.457 OA
BRANCH  90  91
ATOM     91  C   UNL     1      11.450   2.235  -8.844  1.00  0.00     0.127 A 
ATOM     92  C   UNL     1      12.622   2.359  -8.097  1.00  0.00     0.047 A 
ATOM     93  C   UNL     1      10.862   0.982  -9.028  1.00  0.00     0.047 A 
ATOM     94  C   UNL     1      13.186   1.236  -7.495  1.00  0.00     0.004 A 
ATOM     95  C   UNL     1      11.423  -0.140  -8.416  1.00  0.00     0.004 A 
ATOM     96  C   UNL     1      12.583  -0.013  -7.649  1.00  0.00     0.000 A 
ENDBRANCH  90  91
ENDBRANCH  89  90
ENDBRANCH  82  84
ENDBRANCH  80  82
ENDBRANCH  74  75
ENDBRANCH  70  74
ENDBRANCH  66  68
ENDBRANCH  65  66
ENDBRANCH   1  65
TORSDOF 20
