REMARK SMILES O=C(OCCOCCOC(=O)c1ccc(S(=O)(=O)NC[C@H]2CCS(=O)(=O)C2)cc1)c1ccc(-c2c3nc(c(-c4c(F)cccc4F)c4ccc([nH]4)c(-c4c(F)cccc4F)c4nc(c(-c5c(F)cccc5F)c5ccc2[nH]5)C=C4)C=C3)cc1
REMARK SMILES IDX 7 1 6 2 5 3 4 4 3 5 2 6 1 7 30 8 31 9 83 10 32 11 82 12
REMARK SMILES IDX 33 13 34 14 35 15 76 16 36 17 81 18 75 19 77 20 37 21 80 22
REMARK SMILES IDX 74 23 73 24 38 26 64 27 47 28 63 29 48 30 51 31 62 32 78 33
REMARK SMILES IDX 49 34 50 35 61 37 79 38 52 39 39 40 40 41 45 42 41 43 42 44
REMARK SMILES IDX 44 45 46 46 43 47 65 48 66 49 71 50 67 51 68 52 70 53 72 54
REMARK SMILES IDX 69 55 53 56 54 57 59 58 55 59 56 60 58 61 60 62 57 63 8 64
REMARK SMILES IDX 9 65 10 66 11 67 12 68 13 69 29 70 14 71 28 72 15 73 16 74
REMARK SMILES IDX 17 75 18 76 19 77 20 79 21 80 22 81 27 82 23 83 24 84 25 85
REMARK SMILES IDX 26 86
REMARK H PARENT 77 25 51 36 19 78
REMARK Flexibility Score: inf
ROOT
ATOM      1  C   UNL     1       0.597   7.797  -2.674  1.00  0.00     0.202 C 
ENDROOT
BRANCH   1   2
ATOM      2  O   UNL     1       0.162   7.646  -4.032  1.00  0.00    -0.374 OA
BRANCH   2   3
ATOM      3  C   UNL     1       0.514   8.704  -4.926  1.00  0.00     0.202 C 
BRANCH   3   4
ATOM      4  C   UNL     1      -0.441   9.902  -4.912  1.00  0.00     0.261 C 
BRANCH   4   5
ATOM      5  O   UNL     1      -0.506  10.474  -3.595  1.00  0.00    -0.460 OA
BRANCH   5   6
ATOM      6  C   UNL     1      -1.502  10.377  -2.685  1.00  0.00     0.338 C 
ATOM      7  O   UNL     1      -1.398  10.996  -1.628  1.00  0.00    -0.246 OA
BRANCH   6   8
ATOM      8  C   UNL     1      -2.727   9.545  -2.887  1.00  0.00     0.060 A 
ATOM      9  C   UNL     1      -2.785   8.394  -3.673  1.00  0.00     0.016 A 
ATOM     10  C   UNL     1      -3.869   9.897  -2.148  1.00  0.00     0.016 A 
ATOM     11  C   UNL     1      -3.946   7.648  -3.785  1.00  0.00     0.010 A 
ATOM     12  C   UNL     1      -5.032   9.124  -2.216  1.00  0.00     0.010 A 
ATOM     13  C   UNL     1      -5.070   8.002  -3.049  1.00  0.00    -0.014 A 
BRANCH  13  14
ATOM     14  C   UNL     1      -6.291   7.207  -3.251  1.00  0.00     0.031 A 
ATOM     15  C   UNL     1      -7.379   7.778  -4.101  1.00  0.00     0.074 A 
ATOM     16  C   UNL     1      -6.332   5.943  -2.794  1.00  0.00     0.049 A 
ATOM     17  N   UNL     1      -8.542   7.271  -4.403  1.00  0.00    -0.248 NA
ATOM     18  C   UNL     1      -7.114   9.094  -4.707  1.00  0.00     0.031 C 
ATOM     19  C   UNL     1      -5.249   5.275  -2.066  1.00  0.00     0.029 A 
ATOM     20  N   UNL     1      -7.302   4.984  -2.903  1.00  0.00    -0.354 N 
ATOM     21  C   UNL     1      -9.161   8.217  -5.209  1.00  0.00     0.074 A 
ATOM     22  C   UNL     1      -8.246   9.327  -5.351  1.00  0.00     0.031 C 
ATOM     23  C   UNL     1      -5.608   4.006  -1.814  1.00  0.00     0.029 A 
ATOM     24  C   UNL     1      -6.967   3.797  -2.297  1.00  0.00     0.049 A 
ATOM     25  H   UNL     1      -8.156   5.131  -3.369  1.00  0.00     0.167 HD
ATOM     26  C   UNL     1     -10.392   8.156  -5.765  1.00  0.00     0.037 A 
ATOM     27  C   UNL     1      -7.702   2.684  -2.127  1.00  0.00     0.037 A 
ATOM     28  C   UNL     1     -11.273   7.033  -5.598  1.00  0.00     0.049 A 
ATOM     29  C   UNL     1      -9.100   2.677  -2.680  1.00  0.00     0.074 A 
ATOM     30  C   UNL     1     -12.567   6.871  -6.054  1.00  0.00     0.029 A 
ATOM     31  N   UNL     1     -10.936   5.871  -4.914  1.00  0.00    -0.354 N 
ATOM     32  N   UNL     1      -9.714   3.603  -3.380  1.00  0.00    -0.248 NA
ATOM     33  C   UNL     1      -9.914   1.487  -2.409  1.00  0.00     0.031 C 
ATOM     34  C   UNL     1     -13.029   5.628  -5.606  1.00  0.00     0.029 A 
ATOM     35  C   UNL     1     -12.005   4.994  -4.916  1.00  0.00     0.049 A 
ATOM     36  H   UNL     1     -10.065   5.698  -4.490  1.00  0.00     0.167 HD
ATOM     37  C   UNL     1     -10.982   3.106  -3.643  1.00  0.00     0.074 A 
ATOM     38  C   UNL     1     -11.039   1.785  -3.045  1.00  0.00     0.031 C 
ATOM     39  C   UNL     1     -12.011   3.685  -4.310  1.00  0.00     0.037 A 
BRANCH  26  40
ATOM     40  C   UNL     1     -10.860   9.367  -6.515  1.00  0.00     0.057 A 
ATOM     41  C   UNL     1     -10.338   9.723  -7.766  1.00  0.00     0.134 A 
ATOM     42  C   UNL     1     -11.819  10.217  -5.950  1.00  0.00     0.134 A 
ATOM     43  F   UNL     1      -9.393   8.970  -8.348  1.00  0.00    -0.206 F 
ATOM     44  C   UNL     1     -10.734  10.895  -8.414  1.00  0.00     0.040 A 
ATOM     45  C   UNL     1     -12.239  11.379  -6.599  1.00  0.00     0.040 A 
ATOM     46  F   UNL     1     -12.351   9.940  -4.750  1.00  0.00    -0.206 F 
ATOM     47  C   UNL     1     -11.690  11.725  -7.831  1.00  0.00     0.006 A 
ENDBRANCH  26  40
BRANCH  27  48
ATOM     48  C   UNL     1      -7.157   1.532  -1.362  1.00  0.00     0.057 A 
ATOM     49  C   UNL     1      -6.918   0.294  -1.969  1.00  0.00     0.134 A 
ATOM     50  C   UNL     1      -6.863   1.642   0.004  1.00  0.00     0.134 A 
ATOM     51  F   UNL     1      -7.195   0.115  -3.269  1.00  0.00    -0.206 F 
ATOM     52  C   UNL     1      -6.421  -0.793  -1.245  1.00  0.00     0.040 A 
ATOM     53  C   UNL     1      -6.340   0.573   0.733  1.00  0.00     0.040 A 
ATOM     54  F   UNL     1      -7.066   2.800   0.650  1.00  0.00    -0.206 F 
ATOM     55  C   UNL     1      -6.125  -0.653   0.109  1.00  0.00     0.006 A 
ENDBRANCH  27  48
BRANCH  39  56
ATOM     56  C   UNL     1     -13.265   2.876  -4.445  1.00  0.00     0.057 A 
ATOM     57  C   UNL     1     -14.130   2.675  -3.363  1.00  0.00     0.134 A 
ATOM     58  C   UNL     1     -13.631   2.339  -5.684  1.00  0.00     0.134 A 
ATOM     59  F   UNL     1     -13.824   3.154  -2.148  1.00  0.00    -0.206 F 
ATOM     60  C   UNL     1     -15.312   1.949  -3.507  1.00  0.00     0.040 A 
ATOM     61  C   UNL     1     -14.823   1.635  -5.846  1.00  0.00     0.040 A 
ATOM     62  F   UNL     1     -12.846   2.507  -6.759  1.00  0.00    -0.206 F 
ATOM     63  C   UNL     1     -15.665   1.434  -4.754  1.00  0.00     0.006 A 
ENDBRANCH  39  56
ENDBRANCH  13  14
ENDBRANCH   6   8
ENDBRANCH   5   6
ENDBRANCH   4   5
ENDBRANCH   3   4
ENDBRANCH   2   3
ENDBRANCH   1   2
BRANCH   1  64
ATOM     64  C   UNL     1       1.187   6.472  -2.180  1.00  0.00     0.261 C 
BRANCH  64  65
ATOM     65  O   UNL     1       2.377   6.214  -2.937  1.00  0.00    -0.460 OA
BRANCH  65  66
ATOM     66  C   UNL     1       2.153   5.614  -4.133  1.00  0.00     0.338 C 
ATOM     67  O   UNL     1       1.251   4.843  -4.413  1.00  0.00    -0.246 OA
BRANCH  66  68
ATOM     68  C   UNL     1       3.064   6.227  -5.128  1.00  0.00     0.060 A 
ATOM     69  C   UNL     1       2.643   6.282  -6.464  1.00  0.00     0.017 A 
ATOM     70  C   UNL     1       4.276   6.819  -4.746  1.00  0.00     0.017 A 
ATOM     71  C   UNL     1       3.447   6.894  -7.423  1.00  0.00     0.022 A 
ATOM     72  C   UNL     1       5.075   7.445  -5.699  1.00  0.00     0.022 A 
ATOM     73  C   UNL     1       4.671   7.448  -7.037  1.00  0.00     0.082 A 
BRANCH  73  74
ATOM     74  S   UNL     1       5.779   8.049  -8.282  1.00  0.00     0.240 S 
ATOM     75  O   UNL     1       5.421   7.416  -9.533  1.00  0.00    -0.207 OA
ATOM     76  O   UNL     1       5.849   9.483  -8.142  1.00  0.00    -0.207 OA
BRANCH  74  77
ATOM     77  N   UNL     1       7.278   7.453  -7.812  1.00  0.00    -0.211 NA
ATOM     78  H   UNL     1       7.534   7.979  -6.977  1.00  0.00     0.141 HD
BRANCH  77  79
ATOM     79  C   UNL     1       7.545   6.048  -7.492  1.00  0.00     0.103 C 
BRANCH  79  80
ATOM     80  C   UNL     1       7.213   5.085  -8.619  1.00  0.00     0.020 C 
ATOM     81  C   UNL     1       7.931   5.408  -9.939  1.00  0.00     0.022 C 
ATOM     82  C   UNL     1       7.647   3.653  -8.283  1.00  0.00     0.142 C 
ATOM     83  C   UNL     1       7.588   4.258 -10.877  1.00  0.00     0.137 C 
ATOM     84  S   UNL     1       7.655   2.797  -9.852  1.00  0.00     0.150 S 
ATOM     85  O   UNL     1       6.410   2.069  -9.985  1.00  0.00    -0.229 OA
ATOM     86  O   UNL     1       8.947   2.164 -10.018  1.00  0.00    -0.229 OA
ENDBRANCH  79  80
ENDBRANCH  77  79
ENDBRANCH  74  77
ENDBRANCH  73  74
ENDBRANCH  66  68
ENDBRANCH  65  66
ENDBRANCH  64  65
ENDBRANCH   1  64
TORSDOF 18
