REMARK SMILES O=C(Cc1ccc(F)cc1F)NC1(CC(=O)OCCOCCOC(=O)c2ccc(-c3c4nc(c(-c5c(F)cccc5F)c5ccc([nH]5)c(-c5c(F)cccc5F)c5nc(c(-c6c(F)cccc6F)c6ccc3[nH]6)C=C5)C=C4)cc2)CCCC1
REMARK SMILES IDX 19 1 18 2 17 3 15 4 16 5 14 6 13 7 80 8 83 9 81 10 82 11
REMARK SMILES IDX 12 12 1 13 2 14 3 16 4 17 5 18 10 19 6 20 9 21 11 22 7 23
REMARK SMILES IDX 8 24 20 25 21 26 22 27 23 28 24 29 25 30 26 31 27 32 79 33
REMARK SMILES IDX 28 34 78 35 29 36 30 37 31 38 72 39 32 40 77 41 71 42 73 43
REMARK SMILES IDX 33 44 76 45 70 46 69 47 34 49 60 50 43 51 59 52 44 53 47 54
REMARK SMILES IDX 58 55 74 56 45 57 46 58 57 60 75 61 48 62 35 63 36 64 41 65
REMARK SMILES IDX 37 66 38 67 40 68 42 69 39 70 61 71 62 72 67 73 63 74 64 75
REMARK SMILES IDX 66 76 68 77 65 78 49 79 50 80 55 81 51 82 52 83 54 84 56 85
REMARK SMILES IDX 53 86
REMARK H PARENT 12 15 73 48 47 59
REMARK Flexibility Score: inf
ROOT
ATOM      1  C   UNL     1      -0.209  -3.908  -0.692  1.00  0.00     0.202 C 
ENDROOT
BRANCH   1   2
ATOM      2  C   UNL     1      -0.812  -2.871  -1.639  1.00  0.00     0.261 C 
BRANCH   2   3
ATOM      3  O   UNL     1       0.133  -1.867  -2.068  1.00  0.00    -0.463 OA
BRANCH   3   4
ATOM      4  C   UNL     1      -0.156  -0.584  -1.722  1.00  0.00     0.308 C 
ATOM      5  O   UNL     1      -1.152  -0.261  -1.084  1.00  0.00    -0.252 OA
BRANCH   4   6
ATOM      6  C   UNL     1       0.742   0.442  -2.388  1.00  0.00     0.151 C 
BRANCH   6   7
ATOM      7  C   UNL     1       2.300   0.343  -2.445  1.00  0.00     0.050 C 
ATOM      8  C   UNL     1       2.791   1.525  -3.329  1.00  0.00     0.029 C 
ATOM      9  C   UNL     1       2.811  -0.830  -3.321  1.00  0.00     0.029 C 
ATOM     10  C   UNL     1       2.540   1.099  -4.776  1.00  0.00     0.003 C 
ATOM     11  C   UNL     1       2.545  -0.426  -4.768  1.00  0.00     0.003 C 
BRANCH   7  12
ATOM     12  N   UNL     1       3.068   0.399  -1.159  1.00  0.00    -0.350 N 
ATOM     13  O   UNL     1       1.444   1.084   0.290  1.00  0.00    -0.275 OA
ATOM     14  C   UNL     1       2.621   0.806   0.080  1.00  0.00     0.224 C 
ATOM     15  H   UNL     1       4.008   0.110  -1.204  1.00  0.00     0.164 HD
BRANCH  14  16
ATOM     16  C   UNL     1       3.659   0.959   1.201  1.00  0.00     0.138 C 
BRANCH  16  17
ATOM     17  C   UNL     1       4.528  -0.236   1.532  1.00  0.00    -0.003 A 
ATOM     18  C   UNL     1       4.129  -1.197   2.480  1.00  0.00     0.010 A 
ATOM     19  C   UNL     1       5.758  -0.420   0.890  1.00  0.00     0.129 A 
ATOM     20  C   UNL     1       4.915  -2.334   2.713  1.00  0.00     0.040 A 
ATOM     21  C   UNL     1       6.561  -1.529   1.141  1.00  0.00     0.078 A 
ATOM     22  F   UNL     1       6.168   0.481  -0.013  1.00  0.00    -0.207 F 
ATOM     23  C   UNL     1       6.121  -2.490   2.040  1.00  0.00     0.126 A 
ATOM     24  F   UNL     1       6.862  -3.586   2.248  1.00  0.00    -0.207 F 
ENDBRANCH  16  17
ENDBRANCH  14  16
ENDBRANCH   7  12
ENDBRANCH   6   7
ENDBRANCH   4   6
ENDBRANCH   3   4
ENDBRANCH   2   3
ENDBRANCH   1   2
BRANCH   1  25
ATOM     25  O   UNL     1       0.122  -3.483   0.621  1.00  0.00    -0.374 OA
BRANCH  25  26
ATOM     26  C   UNL     1       1.121  -2.493   0.815  1.00  0.00     0.202 C 
BRANCH  26  27
ATOM     27  C   UNL     1       2.334  -2.479  -0.108  1.00  0.00     0.261 C 
BRANCH  27  28
ATOM     28  O   UNL     1       2.764  -3.692  -0.678  1.00  0.00    -0.460 OA
BRANCH  28  29
ATOM     29  C   UNL     1       3.177  -4.659   0.156  1.00  0.00     0.338 C 
ATOM     30  O   UNL     1       3.238  -4.667   1.367  1.00  0.00    -0.246 OA
BRANCH  29  31
ATOM     31  C   UNL     1       3.396  -5.772  -0.766  1.00  0.00     0.060 A 
ATOM     32  C   UNL     1       2.557  -6.878  -0.661  1.00  0.00     0.016 A 
ATOM     33  C   UNL     1       4.282  -5.604  -1.841  1.00  0.00     0.016 A 
ATOM     34  C   UNL     1       2.610  -7.846  -1.652  1.00  0.00     0.010 A 
ATOM     35  C   UNL     1       4.319  -6.562  -2.838  1.00  0.00     0.010 A 
ATOM     36  C   UNL     1       3.491  -7.689  -2.733  1.00  0.00    -0.014 A 
BRANCH  36  37
ATOM     37  C   UNL     1       3.617  -8.773  -3.717  1.00  0.00     0.031 A 
ATOM     38  C   UNL     1       4.766  -9.718  -3.578  1.00  0.00     0.074 A 
ATOM     39  C   UNL     1       2.687  -8.904  -4.677  1.00  0.00     0.049 A 
ATOM     40  N   UNL     1       5.054 -10.773  -4.289  1.00  0.00    -0.248 NA
ATOM     41  C   UNL     1       5.722  -9.438  -2.491  1.00  0.00     0.031 C 
ATOM     42  C   UNL     1       1.536  -8.017  -4.860  1.00  0.00     0.029 A 
ATOM     43  N   UNL     1       2.554  -9.839  -5.665  1.00  0.00    -0.354 N 
ATOM     44  C   UNL     1       6.211 -11.291  -3.727  1.00  0.00     0.074 A 
ATOM     45  C   UNL     1       6.605 -10.411  -2.651  1.00  0.00     0.031 C 
ATOM     46  C   UNL     1       0.798  -8.469  -5.888  1.00  0.00     0.029 A 
ATOM     47  C   UNL     1       1.441  -9.655  -6.447  1.00  0.00     0.049 A 
ATOM     48  H   UNL     1       3.195 -10.573  -5.803  1.00  0.00     0.167 HD
ATOM     49  C   UNL     1       6.868 -12.419  -4.074  1.00  0.00     0.037 A 
ATOM     50  C   UNL     1       1.001 -10.374  -7.496  1.00  0.00     0.037 A 
ATOM     51  C   UNL     1       6.453 -13.269  -5.156  1.00  0.00     0.049 A 
ATOM     52  C   UNL     1       1.788 -11.588  -7.904  1.00  0.00     0.074 A 
ATOM     53  C   UNL     1       7.033 -14.439  -5.604  1.00  0.00     0.029 A 
ATOM     54  N   UNL     1       5.350 -13.025  -5.963  1.00  0.00    -0.354 N 
ATOM     55  N   UNL     1       2.866 -12.093  -7.351  1.00  0.00    -0.248 NA
ATOM     56  C   UNL     1       1.310 -12.329  -9.077  1.00  0.00     0.031 C 
ATOM     57  C   UNL     1       6.306 -14.880  -6.714  1.00  0.00     0.029 A 
ATOM     58  C   UNL     1       5.246 -14.009  -6.928  1.00  0.00     0.049 A 
ATOM     59  H   UNL     1       4.733 -12.264  -5.863  1.00  0.00     0.167 HD
ATOM     60  C   UNL     1       3.190 -13.216  -8.098  1.00  0.00     0.074 A 
ATOM     61  C   UNL     1       2.183 -13.327  -9.135  1.00  0.00     0.031 C 
ATOM     62  C   UNL     1       4.226 -14.078  -7.945  1.00  0.00     0.037 A 
BRANCH  49  63
ATOM     63  C   UNL     1       8.093 -12.776  -3.288  1.00  0.00     0.057 A 
ATOM     64  C   UNL     1       9.365 -12.681  -3.863  1.00  0.00     0.134 A 
ATOM     65  C   UNL     1       8.014 -13.227  -1.964  1.00  0.00     0.134 A 
ATOM     66  F   UNL     1       9.512 -12.250  -5.125  1.00  0.00    -0.206 F 
ATOM     67  C   UNL     1      10.515 -13.030  -3.152  1.00  0.00     0.040 A 
ATOM     68  C   UNL     1       9.158 -13.556  -1.234  1.00  0.00     0.040 A 
ATOM     69  F   UNL     1       6.826 -13.318  -1.346  1.00  0.00    -0.206 F 
ATOM     70  C   UNL     1      10.413 -13.465  -1.833  1.00  0.00     0.006 A 
ENDBRANCH  49  63
BRANCH  50  71
ATOM     71  C   UNL     1      -0.241  -9.967  -8.200  1.00  0.00     0.057 A 
ATOM     72  C   UNL     1      -0.301  -8.785  -8.950  1.00  0.00     0.134 A 
ATOM     73  C   UNL     1      -1.412 -10.726  -8.103  1.00  0.00     0.134 A 
ATOM     74  F   UNL     1       0.785  -8.008  -9.077  1.00  0.00    -0.206 F 
ATOM     75  C   UNL     1      -1.484  -8.361  -9.557  1.00  0.00     0.040 A 
ATOM     76  C   UNL     1      -2.598 -10.325  -8.723  1.00  0.00     0.040 A 
ATOM     77  F   UNL     1      -1.417 -11.875  -7.411  1.00  0.00    -0.206 F 
ATOM     78  C   UNL     1      -2.638  -9.134  -9.446  1.00  0.00     0.006 A 
ENDBRANCH  50  71
BRANCH  62  79
ATOM     79  C   UNL     1       4.324 -15.211  -8.920  1.00  0.00     0.057 A 
ATOM     80  C   UNL     1       4.055 -16.524  -8.516  1.00  0.00     0.134 A 
ATOM     81  C   UNL     1       4.788 -15.010 -10.225  1.00  0.00     0.134 A 
ATOM     82  F   UNL     1       3.621 -16.779  -7.272  1.00  0.00    -0.206 F 
ATOM     83  C   UNL     1       4.265 -17.604  -9.372  1.00  0.00     0.040 A 
ATOM     84  C   UNL     1       4.979 -16.080 -11.098  1.00  0.00     0.040 A 
ATOM     85  F   UNL     1       5.054 -13.772 -10.669  1.00  0.00    -0.206 F 
ATOM     86  C   UNL     1       4.729 -17.382 -10.668  1.00  0.00     0.006 A 
ENDBRANCH  62  79
ENDBRANCH  36  37
ENDBRANCH  29  31
ENDBRANCH  28  29
ENDBRANCH  27  28
ENDBRANCH  26  27
ENDBRANCH  25  26
ENDBRANCH   1  25
TORSDOF 18
