REMARK SMILES CCc1c(C(=O)NCC(=O)OCCOCCOC(=O)c2ccc(-c3c4nc(c(-c5c(F)cccc5F)c5ccc([nH]5)c(-c5c(F)cccc5F)c5nc(c(-c6c(F)cccc6F)c6ccc3[nH]6)C=C5)C=C4)cc2)nnn1-c1ccc(Cl)cc1Cl
REMARK SMILES IDX 13 1 12 2 11 3 9 4 10 5 8 6 7 7 5 8 6 9 4 11 3 12 76 13
REMARK SMILES IDX 74 14 75 15 2 16 1 17 77 18 78 19 83 20 79 21 82 22 84 23
REMARK SMILES IDX 80 24 81 25 14 26 15 27 16 28 17 29 18 30 19 31 20 32 21 33
REMARK SMILES IDX 73 34 22 35 72 36 23 37 24 38 25 39 66 40 26 41 71 42 65 43
REMARK SMILES IDX 67 44 27 45 70 46 64 47 63 48 28 50 54 51 37 52 53 53 38 54
REMARK SMILES IDX 41 55 52 56 68 57 39 58 40 59 51 61 69 62 42 63 29 64 30 65
REMARK SMILES IDX 35 66 31 67 32 68 34 69 36 70 33 71 55 72 56 73 61 74 57 75
REMARK SMILES IDX 58 76 60 77 62 78 59 79 43 80 44 81 49 82 45 83 46 84 48 85
REMARK SMILES IDX 50 86 47 87
REMARK H PARENT 7 10 67 49 41 60
REMARK Flexibility Score: inf
ROOT
ATOM      1  C   UNL     1       4.843   4.030  -0.306  1.00  0.00     0.202 C 
ENDROOT
BRANCH   1   2
ATOM      2  C   UNL     1       4.046   2.723  -0.257  1.00  0.00     0.261 C 
BRANCH   2   3
ATOM      3  O   UNL     1       3.348   2.446  -1.482  1.00  0.00    -0.462 OA
BRANCH   3   4
ATOM      4  C   UNL     1       1.998   2.621  -1.434  1.00  0.00     0.325 C 
ATOM      5  O   UNL     1       1.370   2.936  -0.429  1.00  0.00    -0.250 OA
BRANCH   4   6
ATOM      6  C   UNL     1       1.361   2.599  -2.825  1.00  0.00     0.239 C 
BRANCH   6   7
ATOM      7  N   UNL     1       2.108   1.893  -3.826  1.00  0.00    -0.340 N 
ATOM      8  C   UNL     1       2.153   0.581  -4.195  1.00  0.00     0.274 C 
ATOM      9  O   UNL     1       2.848   0.388  -5.201  1.00  0.00    -0.267 OA
ATOM     10  H   UNL     1       2.708   2.471  -4.351  1.00  0.00     0.164 HD
BRANCH   8  11
ATOM     11  C   UNL     1       1.478  -0.547  -3.527  1.00  0.00     0.174 A 
ATOM     12  C   UNL     1       0.697  -0.787  -2.385  1.00  0.00     0.077 A 
ATOM     13  N   UNL     1       0.412  -2.156  -2.472  1.00  0.00    -0.215 N 
ATOM     14  N   UNL     1       1.716  -1.777  -4.127  1.00  0.00    -0.124 NA
ATOM     15  N   UNL     1       1.163  -2.734  -3.418  1.00  0.00    -0.061 NA
BRANCH  12  16
ATOM     16  C   UNL     1       0.236  -0.020  -1.185  1.00  0.00     0.055 C 
ATOM     17  C   UNL     1       1.101  -0.254   0.047  1.00  0.00     0.011 C 
ENDBRANCH  12  16
BRANCH  13  18
ATOM     18  C   UNL     1      -0.297  -2.959  -1.554  1.00  0.00     0.085 A 
ATOM     19  C   UNL     1       0.413  -3.979  -0.901  1.00  0.00     0.031 A 
ATOM     20  C   UNL     1      -1.633  -2.702  -1.225  1.00  0.00     0.068 A 
ATOM     21  C   UNL     1      -0.186  -4.663   0.155  1.00  0.00     0.023 A 
ATOM     22  C   UNL     1      -2.219  -3.378  -0.154  1.00  0.00     0.043 A 
ATOM     23  Cl  UNL     1      -2.649  -1.662  -2.165  1.00  0.00    -0.082 Cl
ATOM     24  C   UNL     1      -1.488  -4.341   0.540  1.00  0.00     0.042 A 
ATOM     25  Cl  UNL     1      -2.203  -5.149   1.879  1.00  0.00    -0.084 Cl
ENDBRANCH  13  18
ENDBRANCH   8  11
ENDBRANCH   6   7
ENDBRANCH   4   6
ENDBRANCH   3   4
ENDBRANCH   2   3
ENDBRANCH   1   2
BRANCH   1  26
ATOM     26  O   UNL     1       4.170   5.270  -0.518  1.00  0.00    -0.374 OA
BRANCH  26  27
ATOM     27  C   UNL     1       3.367   5.507  -1.664  1.00  0.00     0.202 C 
BRANCH  27  28
ATOM     28  C   UNL     1       3.991   5.516  -3.056  1.00  0.00     0.261 C 
BRANCH  28  29
ATOM     29  O   UNL     1       4.806   4.386  -3.312  1.00  0.00    -0.460 OA
BRANCH  29  30
ATOM     30  C   UNL     1       6.118   4.639  -3.082  1.00  0.00     0.338 C 
ATOM     31  O   UNL     1       6.588   5.609  -2.519  1.00  0.00    -0.246 OA
BRANCH  30  32
ATOM     32  C   UNL     1       6.935   3.635  -3.772  1.00  0.00     0.060 A 
ATOM     33  C   UNL     1       8.302   3.916  -3.784  1.00  0.00     0.016 A 
ATOM     34  C   UNL     1       6.337   2.764  -4.692  1.00  0.00     0.016 A 
ATOM     35  C   UNL     1       9.001   3.597  -4.919  1.00  0.00     0.010 A 
ATOM     36  C   UNL     1       7.040   2.443  -5.826  1.00  0.00     0.010 A 
ATOM     37  C   UNL     1       8.318   2.972  -5.969  1.00  0.00    -0.014 A 
BRANCH  37  38
ATOM     38  C   UNL     1       9.024   2.819  -7.216  1.00  0.00     0.031 A 
ATOM     39  C   UNL     1      10.070   1.785  -7.129  1.00  0.00     0.074 A 
ATOM     40  C   UNL     1       8.729   3.527  -8.319  1.00  0.00     0.049 A 
ATOM     41  N   UNL     1      11.342   1.981  -7.050  1.00  0.00    -0.248 NA
ATOM     42  C   UNL     1       9.646   0.404  -6.864  1.00  0.00     0.031 C 
ATOM     43  C   UNL     1       7.590   4.406  -8.588  1.00  0.00     0.029 A 
ATOM     44  N   UNL     1       9.404   3.533  -9.498  1.00  0.00    -0.354 N 
ATOM     45  C   UNL     1      11.900   0.717  -6.925  1.00  0.00     0.074 A 
ATOM     46  C   UNL     1      10.818  -0.180  -6.615  1.00  0.00     0.031 C 
ATOM     47  C   UNL     1       7.532   4.665  -9.917  1.00  0.00     0.029 A 
ATOM     48  C   UNL     1       8.700   4.089 -10.560  1.00  0.00     0.049 A 
ATOM     49  H   UNL     1      10.315   3.173  -9.593  1.00  0.00     0.167 HD
ATOM     50  C   UNL     1      13.173   0.474  -7.332  1.00  0.00     0.037 A 
ATOM     51  C   UNL     1       9.052   3.967 -11.866  1.00  0.00     0.037 A 
ATOM     52  C   UNL     1      13.907   1.700  -7.521  1.00  0.00     0.049 A 
ATOM     53  C   UNL     1      10.507   3.643 -11.895  1.00  0.00     0.074 A 
ATOM     54  C   UNL     1      14.304   2.726  -6.686  1.00  0.00     0.029 A 
ATOM     55  N   UNL     1      13.988   2.198  -8.799  1.00  0.00    -0.354 N 
ATOM     56  N   UNL     1      11.434   4.487 -11.529  1.00  0.00    -0.248 NA
ATOM     57  C   UNL     1      10.888   2.237 -11.837  1.00  0.00     0.031 C 
ATOM     58  C   UNL     1      14.142   3.914  -7.457  1.00  0.00     0.029 A 
ATOM     59  C   UNL     1      13.725   3.544  -8.737  1.00  0.00     0.049 A 
ATOM     60  H   UNL     1      14.196   1.683  -9.612  1.00  0.00     0.167 HD
ATOM     61  C   UNL     1      12.336   3.728 -10.795  1.00  0.00     0.074 A 
ATOM     62  C   UNL     1      11.978   2.337 -11.070  1.00  0.00     0.031 C 
ATOM     63  C   UNL     1      13.089   4.286  -9.800  1.00  0.00     0.037 A 
BRANCH  50  64
ATOM     64  C   UNL     1      13.622  -0.833  -7.918  1.00  0.00     0.057 A 
ATOM     65  C   UNL     1      14.992  -1.056  -8.123  1.00  0.00     0.134 A 
ATOM     66  C   UNL     1      12.758  -1.752  -8.548  1.00  0.00     0.134 A 
ATOM     67  F   UNL     1      15.910  -0.236  -7.588  1.00  0.00    -0.206 F 
ATOM     68  C   UNL     1      15.464  -2.081  -8.949  1.00  0.00     0.040 A 
ATOM     69  C   UNL     1      13.220  -2.811  -9.329  1.00  0.00     0.040 A 
ATOM     70  F   UNL     1      11.426  -1.617  -8.532  1.00  0.00    -0.206 F 
ATOM     71  C   UNL     1      14.577  -2.959  -9.560  1.00  0.00     0.006 A 
ENDBRANCH  50  64
BRANCH  51  72
ATOM     72  C   UNL     1       8.159   3.712 -13.023  1.00  0.00     0.057 A 
ATOM     73  C   UNL     1       8.633   3.806 -14.340  1.00  0.00     0.134 A 
ATOM     74  C   UNL     1       6.904   3.097 -12.866  1.00  0.00     0.134 A 
ATOM     75  F   UNL     1       9.838   4.338 -14.594  1.00  0.00    -0.206 F 
ATOM     76  C   UNL     1       7.915   3.293 -15.432  1.00  0.00     0.040 A 
ATOM     77  C   UNL     1       6.176   2.585 -13.946  1.00  0.00     0.040 A 
ATOM     78  F   UNL     1       6.379   2.888 -11.651  1.00  0.00    -0.206 F 
ATOM     79  C   UNL     1       6.688   2.669 -15.234  1.00  0.00     0.006 A 
ENDBRANCH  51  72
BRANCH  63  80
ATOM     80  C   UNL     1      13.069   5.784  -9.659  1.00  0.00     0.057 A 
ATOM     81  C   UNL     1      11.927   6.527  -9.318  1.00  0.00     0.134 A 
ATOM     82  C   UNL     1      14.281   6.480  -9.708  1.00  0.00     0.134 A 
ATOM     83  F   UNL     1      10.740   5.933  -9.145  1.00  0.00    -0.206 F 
ATOM     84  C   UNL     1      11.985   7.904  -9.078  1.00  0.00     0.040 A 
ATOM     85  C   UNL     1      14.359   7.848  -9.437  1.00  0.00     0.040 A 
ATOM     86  F   UNL     1      15.424   5.826  -9.968  1.00  0.00    -0.206 F 
ATOM     87  C   UNL     1      13.207   8.567  -9.131  1.00  0.00     0.006 A 
ENDBRANCH  63  80
ENDBRANCH  37  38
ENDBRANCH  30  32
ENDBRANCH  29  30
ENDBRANCH  28  29
ENDBRANCH  27  28
ENDBRANCH  26  27
ENDBRANCH   1  26
TORSDOF 18
