REMARK SMILES C[C@]([NH2+]Cc1nc(-c2ccsc2)no1)(C(=O)OCCOCCOC(=O)c1ccc(-c2c3nc(c(-c4c(F)cccc4F)c4ccc([nH]4)c(-c4c(F)cccc4F)c4nc(c(-c5c(F)cccc5F)c5ccc2[nH]5)C=C4)C=C3)cc1)C(F)(F)F
REMARK SMILES IDX 19 1 18 2 17 3 15 4 16 5 2 6 1 7 80 8 81 9 82 10 83 11 3 12
REMARK SMILES IDX 4 15 5 16 6 17 14 18 7 19 13 20 8 21 9 22 12 23 10 24 11 25
REMARK SMILES IDX 20 26 21 27 22 28 23 29 24 30 25 31 26 32 27 33 79 34 28 35
REMARK SMILES IDX 78 36 29 37 30 38 31 39 72 40 32 41 77 42 71 43 73 44 33 45
REMARK SMILES IDX 76 46 70 47 69 48 34 50 60 51 43 52 59 53 44 54 47 55 58 56
REMARK SMILES IDX 74 57 45 58 46 59 57 61 75 62 48 63 35 64 36 65 41 66 37 67
REMARK SMILES IDX 38 68 40 69 42 70 39 71 61 72 62 73 67 74 63 75 64 76 66 77
REMARK SMILES IDX 68 78 65 79 49 80 50 81 55 82 51 83 52 84 54 85 56 86 53 87
REMARK H PARENT 3 13 3 14 73 49 47 60
REMARK Flexibility Score: inf
ROOT
ATOM      1  C   UNL     1      -3.646   0.110  -0.724  1.00  0.00     0.202 C 
ENDROOT
BRANCH   1   2
ATOM      2  C   UNL     1      -2.845  -0.854  -1.603  1.00  0.00     0.261 C 
BRANCH   2   3
ATOM      3  O   UNL     1      -1.438  -0.822  -1.305  1.00  0.00    -0.458 OA
BRANCH   3   4
ATOM      4  C   UNL     1      -0.634  -0.441  -2.340  1.00  0.00     0.377 C 
ATOM      5  O   UNL     1      -1.037  -0.327  -3.492  1.00  0.00    -0.244 OA
BRANCH   4   6
ATOM      6  C   UNL     1       0.839  -0.252  -1.940  1.00  0.00     0.287 C 
ATOM      7  C   UNL     1       1.587  -1.468  -2.510  1.00  0.00     0.103 C 
BRANCH   6   8
ATOM      8  C   UNL     1       1.252   1.042  -2.695  1.00  0.00     0.455 C 
ATOM      9  F   UNL     1       0.590   2.125  -2.222  1.00  0.00    -0.164 F 
ATOM     10  F   UNL     1       2.578   1.292  -2.510  1.00  0.00    -0.164 F 
ATOM     11  F   UNL     1       1.076   0.986  -4.029  1.00  0.00    -0.164 F 
ENDBRANCH   6   8
BRANCH   6  12
ATOM     12  N   UNL     1       1.020  -0.240  -0.423  1.00  0.00    -0.317 N 
ATOM     13  H   UNL     1       1.000  -1.202  -0.085  1.00  0.00     0.347 HD
ATOM     14  H   UNL     1       0.262   0.316  -0.028  1.00  0.00     0.347 HD
BRANCH  12  15
ATOM     15  C   UNL     1       2.292   0.381  -0.004  1.00  0.00     0.363 C 
BRANCH  15  16
ATOM     16  C   UNL     1       2.661   0.178   1.429  1.00  0.00     0.282 A 
ATOM     17  N   UNL     1       3.802  -0.248   1.925  1.00  0.00    -0.186 NA
ATOM     18  O   UNL     1       1.761   0.555   2.383  1.00  0.00    -0.333 OA
ATOM     19  C   UNL     1       3.591  -0.134   3.275  1.00  0.00     0.203 A 
ATOM     20  N   UNL     1       2.379   0.324   3.619  1.00  0.00    -0.057 NA
BRANCH  19  21
ATOM     21  C   UNL     1       4.646  -0.498   4.223  1.00  0.00     0.033 A 
ATOM     22  C   UNL     1       6.029  -0.541   3.862  1.00  0.00     0.024 A 
ATOM     23  C   UNL     1       4.454  -0.835   5.546  1.00  0.00     0.077 A 
ATOM     24  C   UNL     1       6.832  -0.910   4.920  1.00  0.00     0.065 A 
ATOM     25  S   UNL     1       5.925  -1.215   6.338  1.00  0.00    -0.152 S 
ENDBRANCH  19  21
ENDBRANCH  15  16
ENDBRANCH  12  15
ENDBRANCH   6  12
ENDBRANCH   4   6
ENDBRANCH   3   4
ENDBRANCH   2   3
ENDBRANCH   1   2
BRANCH   1  26
ATOM     26  O   UNL     1      -3.260   1.482  -0.750  1.00  0.00    -0.374 OA
BRANCH  26  27
ATOM     27  C   UNL     1      -2.054   1.852  -0.082  1.00  0.00     0.202 C 
BRANCH  27  28
ATOM     28  C   UNL     1      -2.058   1.833   1.452  1.00  0.00     0.261 C 
BRANCH  28  29
ATOM     29  O   UNL     1      -2.311   0.525   1.997  1.00  0.00    -0.460 OA
BRANCH  29  30
ATOM     30  C   UNL     1      -3.481   0.416   2.667  1.00  0.00     0.338 C 
ATOM     31  O   UNL     1      -4.281   1.312   2.912  1.00  0.00    -0.246 OA
BRANCH  30  32
ATOM     32  C   UNL     1      -3.797  -0.996   2.948  1.00  0.00     0.060 A 
ATOM     33  C   UNL     1      -5.081  -1.441   2.606  1.00  0.00     0.016 A 
ATOM     34  C   UNL     1      -2.917  -1.832   3.639  1.00  0.00     0.016 A 
ATOM     35  C   UNL     1      -5.523  -2.690   3.031  1.00  0.00     0.010 A 
ATOM     36  C   UNL     1      -3.365  -3.086   4.071  1.00  0.00     0.010 A 
ATOM     37  C   UNL     1      -4.688  -3.493   3.819  1.00  0.00    -0.014 A 
BRANCH  37  38
ATOM     38  C   UNL     1      -5.292  -4.633   4.551  1.00  0.00     0.031 A 
ATOM     39  C   UNL     1      -5.726  -4.423   5.978  1.00  0.00     0.074 A 
ATOM     40  C   UNL     1      -5.532  -5.806   3.939  1.00  0.00     0.049 A 
ATOM     41  N   UNL     1      -6.338  -5.245   6.791  1.00  0.00    -0.248 NA
ATOM     42  C   UNL     1      -5.430  -3.106   6.566  1.00  0.00     0.031 C 
ATOM     43  C   UNL     1      -5.199  -6.121   2.552  1.00  0.00     0.029 A 
ATOM     44  N   UNL     1      -6.130  -6.947   4.412  1.00  0.00    -0.354 N 
ATOM     45  C   UNL     1      -6.497  -4.548   7.983  1.00  0.00     0.074 A 
ATOM     46  C   UNL     1      -5.888  -3.249   7.799  1.00  0.00     0.031 C 
ATOM     47  C   UNL     1      -5.604  -7.374   2.282  1.00  0.00     0.029 A 
ATOM     48  C   UNL     1      -6.210  -7.952   3.480  1.00  0.00     0.049 A 
ATOM     49  H   UNL     1      -6.468  -7.037   5.332  1.00  0.00     0.167 HD
ATOM     50  C   UNL     1      -7.106  -4.946   9.125  1.00  0.00     0.037 A 
ATOM     51  C   UNL     1      -6.718  -9.195   3.586  1.00  0.00     0.037 A 
ATOM     52  C   UNL     1      -7.723  -6.232   9.309  1.00  0.00     0.049 A 
ATOM     53  C   UNL     1      -7.351  -9.631   4.881  1.00  0.00     0.074 A 
ATOM     54  C   UNL     1      -8.381  -6.724  10.423  1.00  0.00     0.029 A 
ATOM     55  N   UNL     1      -7.754  -7.233   8.351  1.00  0.00    -0.354 N 
ATOM     56  N   UNL     1      -7.524  -8.952   5.989  1.00  0.00    -0.248 NA
ATOM     57  C   UNL     1      -7.872 -11.005   4.933  1.00  0.00     0.031 C 
ATOM     58  C   UNL     1      -8.778  -8.038  10.151  1.00  0.00     0.029 A 
ATOM     59  C   UNL     1      -8.404  -8.348   8.853  1.00  0.00     0.049 A 
ATOM     60  H   UNL     1      -7.370  -7.163   7.447  1.00  0.00     0.167 HD
ATOM     61  C   UNL     1      -8.205  -9.800   6.854  1.00  0.00     0.074 A 
ATOM     62  C   UNL     1      -8.416 -11.043   6.141  1.00  0.00     0.031 C 
ATOM     63  C   UNL     1      -8.623  -9.570   8.123  1.00  0.00     0.037 A 
BRANCH  50  64
ATOM     64  C   UNL     1      -7.109  -3.981  10.273  1.00  0.00     0.057 A 
ATOM     65  C   UNL     1      -7.917  -2.836  10.276  1.00  0.00     0.134 A 
ATOM     66  C   UNL     1      -6.300  -4.205  11.393  1.00  0.00     0.134 A 
ATOM     67  F   UNL     1      -8.702  -2.555   9.225  1.00  0.00    -0.206 F 
ATOM     68  C   UNL     1      -7.901  -1.935  11.342  1.00  0.00     0.040 A 
ATOM     69  C   UNL     1      -6.293  -3.325  12.476  1.00  0.00     0.040 A 
ATOM     70  F   UNL     1      -5.505  -5.284  11.454  1.00  0.00    -0.206 F 
ATOM     71  C   UNL     1      -7.090  -2.182  12.449  1.00  0.00     0.006 A 
ENDBRANCH  50  64
BRANCH  51  72
ATOM     72  C   UNL     1      -6.672 -10.118   2.425  1.00  0.00     0.057 A 
ATOM     73  C   UNL     1      -7.837 -10.473   1.736  1.00  0.00     0.134 A 
ATOM     74  C   UNL     1      -5.468 -10.684   1.993  1.00  0.00     0.134 A 
ATOM     75  F   UNL     1      -9.024  -9.980   2.118  1.00  0.00    -0.206 F 
ATOM     76  C   UNL     1      -7.809 -11.373   0.669  1.00  0.00     0.040 A 
ATOM     77  C   UNL     1      -5.422 -11.569   0.914  1.00  0.00     0.040 A 
ATOM     78  F   UNL     1      -4.317 -10.383   2.613  1.00  0.00    -0.206 F 
ATOM     79  C   UNL     1      -6.597 -11.920   0.253  1.00  0.00     0.006 A 
ENDBRANCH  51  72
BRANCH  63  80
ATOM     80  C   UNL     1      -9.398 -10.661   8.801  1.00  0.00     0.057 A 
ATOM     81  C   UNL     1      -8.783 -11.832   9.262  1.00  0.00     0.134 A 
ATOM     82  C   UNL     1     -10.774 -10.521   9.024  1.00  0.00     0.134 A 
ATOM     83  F   UNL     1      -7.471 -12.032   9.069  1.00  0.00    -0.206 F 
ATOM     84  C   UNL     1      -9.515 -12.836   9.898  1.00  0.00     0.040 A 
ATOM     85  C   UNL     1     -11.511 -11.507   9.680  1.00  0.00     0.040 A 
ATOM     86  F   UNL     1     -11.421  -9.419   8.616  1.00  0.00    -0.206 F 
ATOM     87  C   UNL     1     -10.882 -12.672  10.114  1.00  0.00     0.006 A 
ENDBRANCH  63  80
ENDBRANCH  37  38
ENDBRANCH  30  32
ENDBRANCH  29  30
ENDBRANCH  28  29
ENDBRANCH  27  28
ENDBRANCH  26  27
ENDBRANCH   1  26
TORSDOF 19
