REMARK SMILES CS(=O)(=O)c1ccc(C2=NN(c3ccc(C(=O)OCCOCCOC(=O)c4ccc(-c5c6nc(c(-c7c(F)cccc7F)c7ccc([nH]7)c(-c7c(F)cccc7F)c7nc(c(-c8c(F)cccc8F)c8ccc5[nH]8)C=C7)C=C6)cc4)cc3)[C@H](c3ccccc3)C2)cc1
REMARK SMILES IDX 20 1 19 2 18 3 16 4 17 5 15 6 12 7 13 8 82 9 14 10 81 11
REMARK SMILES IDX 11 12 9 13 10 14 90 15 83 16 8 17 5 18 6 19 92 20 7 21 91 22
REMARK SMILES IDX 2 23 1 24 3 25 4 26 84 27 85 28 89 29 86 30 88 31 87 32
REMARK SMILES IDX 21 33 22 34 23 35 24 36 25 37 26 38 27 39 28 40 80 41 29 42
REMARK SMILES IDX 79 43 30 44 31 45 32 46 73 47 33 48 78 49 72 50 74 51 34 52
REMARK SMILES IDX 77 53 71 54 70 55 35 57 61 58 44 59 60 60 45 61 48 62 59 63
REMARK SMILES IDX 75 64 46 65 47 66 58 68 76 69 49 70 36 71 37 72 42 73 38 74
REMARK SMILES IDX 39 75 41 76 43 77 40 78 62 79 63 80 68 81 64 82 65 83 67 84
REMARK SMILES IDX 69 85 66 86 50 87 51 88 56 89 52 90 53 91 55 92 57 93 54 94
REMARK H PARENT 74 56 48 67
REMARK Flexibility Score: inf
ROOT
ATOM      1  C   UNL     1       8.273 -12.762   5.944  1.00  0.00     0.202 C 
ENDROOT
BRANCH   1   2
ATOM      2  C   UNL     1       7.634 -12.317   7.263  1.00  0.00     0.261 C 
BRANCH   2   3
ATOM      3  O   UNL     1       6.492 -11.480   7.019  1.00  0.00    -0.460 OA
BRANCH   3   4
ATOM      4  C   UNL     1       6.625 -10.190   7.409  1.00  0.00     0.338 C 
ATOM      5  O   UNL     1       7.533  -9.723   8.082  1.00  0.00    -0.246 OA
BRANCH   4   6
ATOM      6  C   UNL     1       5.557  -9.352   6.810  1.00  0.00     0.060 A 
ATOM      7  C   UNL     1       3.544  -7.630   5.871  1.00  0.00     0.060 A 
ATOM      8  C   UNL     1       4.798  -7.123   6.227  1.00  0.00     0.029 A 
ATOM      9  C   UNL     1       3.349  -9.019   5.888  1.00  0.00     0.029 A 
ATOM     10  C   UNL     1       5.795  -7.976   6.704  1.00  0.00     0.018 A 
ATOM     11  C   UNL     1       4.344  -9.881   6.359  1.00  0.00     0.018 A 
BRANCH   7  12
ATOM     12  N   UNL     1       2.450  -6.777   5.656  1.00  0.00    -0.257 N 
ATOM     13  C   UNL     1       1.849  -4.791   5.136  1.00  0.00     0.071 C 
ATOM     14  N   UNL     1       2.547  -5.798   4.710  1.00  0.00    -0.176 NA
ATOM     15  C   UNL     1       1.270  -4.922   6.515  1.00  0.00     0.091 C 
ATOM     16  C   UNL     1       1.720  -6.343   6.867  1.00  0.00     0.144 C 
BRANCH  13  17
ATOM     17  C   UNL     1       1.591  -3.590   4.324  1.00  0.00    -0.002 A 
ATOM     18  C   UNL     1       0.915  -1.376   2.780  1.00  0.00     0.067 A 
ATOM     19  C   UNL     1       0.817  -2.657   2.228  1.00  0.00     0.021 A 
ATOM     20  C   UNL     1       1.366  -1.195   4.093  1.00  0.00     0.021 A 
ATOM     21  C   UNL     1       1.175  -3.764   2.999  1.00  0.00     0.011 A 
ATOM     22  C   UNL     1       1.695  -2.308   4.872  1.00  0.00     0.011 A 
BRANCH  18  23
ATOM     23  S   UNL     1       0.411   0.040   1.827  1.00  0.00     0.175 S 
ATOM     24  C   UNL     1       1.185  -0.151   0.244  1.00  0.00     0.163 C 
ATOM     25  O   UNL     1       0.999   1.210   2.453  1.00  0.00    -0.224 OA
ATOM     26  O   UNL     1      -1.023  -0.074   1.652  1.00  0.00    -0.224 OA
ENDBRANCH  18  23
ENDBRANCH  13  17
BRANCH  16  27
ATOM     27  C   UNL     1       0.649  -7.355   7.247  1.00  0.00    -0.023 A 
ATOM     28  C   UNL     1      -0.661  -7.320   6.752  1.00  0.00     0.006 A 
ATOM     29  C   UNL     1       1.011  -8.435   8.078  1.00  0.00     0.006 A 
ATOM     30  C   UNL     1      -1.576  -8.326   7.082  1.00  0.00     0.000 A 
ATOM     31  C   UNL     1       0.110  -9.457   8.375  1.00  0.00     0.000 A 
ATOM     32  C   UNL     1      -1.188  -9.399   7.880  1.00  0.00     0.000 A 
ENDBRANCH  16  27
ENDBRANCH   7  12
ENDBRANCH   4   6
ENDBRANCH   3   4
ENDBRANCH   2   3
ENDBRANCH   1   2
BRANCH   1  33
ATOM     33  O   UNL     1       8.861 -11.729   5.153  1.00  0.00    -0.374 OA
BRANCH  33  34
ATOM     34  C   UNL     1       7.980 -10.932   4.360  1.00  0.00     0.202 C 
BRANCH  34  35
ATOM     35  C   UNL     1       7.512 -11.547   3.036  1.00  0.00     0.261 C 
BRANCH  35  36
ATOM     36  O   UNL     1       6.687 -12.708   3.239  1.00  0.00    -0.460 OA
BRANCH  36  37
ATOM     37  C   UNL     1       7.267 -13.883   2.902  1.00  0.00     0.338 C 
ATOM     38  O   UNL     1       8.362 -14.049   2.382  1.00  0.00    -0.246 OA
BRANCH  37  39
ATOM     39  C   UNL     1       6.458 -15.009   3.403  1.00  0.00     0.060 A 
ATOM     40  C   UNL     1       7.112 -15.986   4.164  1.00  0.00     0.016 A 
ATOM     41  C   UNL     1       5.109 -15.152   3.073  1.00  0.00     0.016 A 
ATOM     42  C   UNL     1       6.432 -17.137   4.556  1.00  0.00     0.010 A 
ATOM     43  C   UNL     1       4.429 -16.312   3.461  1.00  0.00     0.010 A 
ATOM     44  C   UNL     1       5.098 -17.325   4.174  1.00  0.00    -0.014 A 
BRANCH  44  45
ATOM     45  C   UNL     1       4.451 -18.641   4.397  1.00  0.00     0.031 A 
ATOM     46  C   UNL     1       4.364 -19.615   3.254  1.00  0.00     0.074 A 
ATOM     47  C   UNL     1       3.975 -18.978   5.608  1.00  0.00     0.049 A 
ATOM     48  N   UNL     1       3.810 -20.800   3.213  1.00  0.00    -0.248 NA
ATOM     49  C   UNL     1       4.985 -19.197   1.986  1.00  0.00     0.031 C 
ATOM     50  C   UNL     1       4.035 -18.139   6.804  1.00  0.00     0.029 A 
ATOM     51  N   UNL     1       3.339 -20.119   6.029  1.00  0.00    -0.354 N 
ATOM     52  C   UNL     1       4.013 -21.267   1.920  1.00  0.00     0.074 A 
ATOM     53  C   UNL     1       4.713 -20.227   1.198  1.00  0.00     0.031 C 
ATOM     54  C   UNL     1       3.447 -18.790   7.822  1.00  0.00     0.029 A 
ATOM     55  C   UNL     1       2.944 -20.076   7.343  1.00  0.00     0.049 A 
ATOM     56  H   UNL     1       3.181 -20.895   5.443  1.00  0.00     0.167 HD
ATOM     57  C   UNL     1       3.658 -22.460   1.387  1.00  0.00     0.037 A 
ATOM     58  C   UNL     1       2.238 -20.965   8.068  1.00  0.00     0.037 A 
ATOM     59  C   UNL     1       2.963 -23.496   2.104  1.00  0.00     0.049 A 
ATOM     60  C   UNL     1       1.791 -22.254   7.429  1.00  0.00     0.074 A 
ATOM     61  C   UNL     1       2.568 -24.743   1.651  1.00  0.00     0.029 A 
ATOM     62  N   UNL     1       2.558 -23.403   3.426  1.00  0.00    -0.354 N 
ATOM     63  N   UNL     1       2.006 -22.693   6.213  1.00  0.00    -0.248 NA
ATOM     64  C   UNL     1       1.005 -23.172   8.267  1.00  0.00     0.031 C 
ATOM     65  C   UNL     1       1.886 -25.388   2.687  1.00  0.00     0.029 A 
ATOM     66  C   UNL     1       1.898 -24.563   3.799  1.00  0.00     0.049 A 
ATOM     67  H   UNL     1       2.715 -22.629   4.013  1.00  0.00     0.167 HD
ATOM     68  C   UNL     1       1.410 -23.947   6.149  1.00  0.00     0.074 A 
ATOM     69  C   UNL     1       0.835 -24.204   7.453  1.00  0.00     0.031 C 
ATOM     70  C   UNL     1       1.344 -24.809   5.105  1.00  0.00     0.037 A 
BRANCH  57  71
ATOM     71  C   UNL     1       4.002 -22.705  -0.053  1.00  0.00     0.057 A 
ATOM     72  C   UNL     1       5.317 -22.955  -0.465  1.00  0.00     0.134 A 
ATOM     73  C   UNL     1       3.000 -22.740  -1.030  1.00  0.00     0.134 A 
ATOM     74  F   UNL     1       6.324 -22.923   0.421  1.00  0.00    -0.206 F 
ATOM     75  C   UNL     1       5.625 -23.215  -1.801  1.00  0.00     0.040 A 
ATOM     76  C   UNL     1       3.292 -23.022  -2.365  1.00  0.00     0.040 A 
ATOM     77  F   UNL     1       1.719 -22.513  -0.702  1.00  0.00    -0.206 F 
ATOM     78  C   UNL     1       4.610 -23.258  -2.754  1.00  0.00     0.006 A 
ENDBRANCH  57  71
BRANCH  58  79
ATOM     79  C   UNL     1       1.886 -20.667   9.480  1.00  0.00     0.057 A 
ATOM     80  C   UNL     1       2.438 -21.400  10.537  1.00  0.00     0.134 A 
ATOM     81  C   UNL     1       0.957 -19.670   9.802  1.00  0.00     0.134 A 
ATOM     82  F   UNL     1       3.314 -22.385  10.290  1.00  0.00    -0.206 F 
ATOM     83  C   UNL     1       2.061 -21.169  11.861  1.00  0.00     0.040 A 
ATOM     84  C   UNL     1       0.591 -19.411  11.123  1.00  0.00     0.040 A 
ATOM     85  F   UNL     1       0.391 -18.933   8.835  1.00  0.00    -0.206 F 
ATOM     86  C   UNL     1       1.137 -20.169  12.157  1.00  0.00     0.006 A 
ENDBRANCH  58  79
BRANCH  70  87
ATOM     87  C   UNL     1       0.665 -26.127   5.340  1.00  0.00     0.057 A 
ATOM     88  C   UNL     1      -0.726 -26.230   5.469  1.00  0.00     0.134 A 
ATOM     89  C   UNL     1       1.410 -27.312   5.397  1.00  0.00     0.134 A 
ATOM     90  F   UNL     1      -1.495 -25.132   5.436  1.00  0.00    -0.206 F 
ATOM     91  C   UNL     1      -1.349 -27.463   5.668  1.00  0.00     0.040 A 
ATOM     92  C   UNL     1       0.796 -28.553   5.570  1.00  0.00     0.040 A 
ATOM     93  F   UNL     1       2.745 -27.283   5.271  1.00  0.00    -0.206 F 
ATOM     94  C   UNL     1      -0.588 -28.630   5.712  1.00  0.00     0.006 A 
ENDBRANCH  70  87
ENDBRANCH  44  45
ENDBRANCH  37  39
ENDBRANCH  36  37
ENDBRANCH  35  36
ENDBRANCH  34  35
ENDBRANCH  33  34
ENDBRANCH   1  33
TORSDOF 18
