REMARK SMILES O=C(OCCOCCOC(=O)c1cccc(Nc2ccnc3ccc(Cl)cc23)c1)c1ccc(-c2c3nc(c(-c4c(F)cccc4F)c4ccc([nH]4)c(-c4c(F)cccc4F)c4nc(c(-c5c(F)cccc5F)c5ccc2[nH]5)C=C4)C=C3)cc1
REMARK SMILES IDX 6 1 5 2 4 3 3 4 2 5 1 6 30 7 31 8 83 9 32 10 82 11 33 12
REMARK SMILES IDX 34 13 35 14 76 15 36 16 81 17 75 18 77 19 37 20 80 21 74 22
REMARK SMILES IDX 73 23 38 25 64 26 47 27 63 28 48 29 51 30 62 31 78 32 49 33
REMARK SMILES IDX 50 34 61 36 79 37 52 38 39 39 40 40 45 41 41 42 42 43 44 44
REMARK SMILES IDX 46 45 43 46 65 47 66 48 71 49 67 50 68 51 70 52 72 53 69 54
REMARK SMILES IDX 53 55 54 56 59 57 55 58 56 59 58 60 60 61 57 62 7 63 8 64
REMARK SMILES IDX 9 65 10 66 11 67 12 68 13 69 29 70 14 71 16 72 15 73 17 74
REMARK SMILES IDX 18 76 19 77 28 78 20 79 22 80 27 81 21 82 23 83 25 84 24 85
REMARK SMILES IDX 26 86
REMARK H PARENT 77 24 51 35 17 75
REMARK Flexibility Score: inf
ROOT
ATOM      1  O   UNL     1       3.984  -0.102  -1.784  1.00  0.00    -0.374 OA
ENDROOT
BRANCH   1   2
ATOM      2  C   UNL     1       4.105  -1.358  -1.107  1.00  0.00     0.202 C 
BRANCH   2   3
ATOM      3  C   UNL     1       3.594  -1.362   0.335  1.00  0.00     0.261 C 
BRANCH   3   4
ATOM      4  O   UNL     1       2.229  -0.920   0.384  1.00  0.00    -0.460 OA
BRANCH   4   5
ATOM      5  C   UNL     1       1.750   0.214   0.946  1.00  0.00     0.338 C 
ATOM      6  O   UNL     1       0.535   0.344   1.082  1.00  0.00    -0.246 OA
BRANCH   5   7
ATOM      7  C   UNL     1       2.631   1.321   1.423  1.00  0.00     0.060 A 
ATOM      8  C   UNL     1       3.866   1.646   0.860  1.00  0.00     0.016 A 
ATOM      9  C   UNL     1       2.133   2.143   2.448  1.00  0.00     0.016 A 
ATOM     10  C   UNL     1       4.637   2.687   1.364  1.00  0.00     0.010 A 
ATOM     11  C   UNL     1       2.874   3.232   2.917  1.00  0.00     0.010 A 
ATOM     12  C   UNL     1       4.145   3.490   2.392  1.00  0.00    -0.014 A 
BRANCH  12  13
ATOM     13  C   UNL     1       5.018   4.544   2.944  1.00  0.00     0.031 A 
ATOM     14  C   UNL     1       5.663   4.324   4.277  1.00  0.00     0.074 A 
ATOM     15  C   UNL     1       5.307   5.625   2.198  1.00  0.00     0.049 A 
ATOM     16  N   UNL     1       6.465   5.106   4.949  1.00  0.00    -0.248 NA
ATOM     17  C   UNL     1       5.374   3.042   4.940  1.00  0.00     0.031 C 
ATOM     18  C   UNL     1       4.799   5.877   0.847  1.00  0.00     0.029 A 
ATOM     19  N   UNL     1       6.126   6.693   2.451  1.00  0.00    -0.354 N 
ATOM     20  C   UNL     1       6.755   4.425   6.123  1.00  0.00     0.074 A 
ATOM     21  C   UNL     1       6.042   3.168   6.077  1.00  0.00     0.031 C 
ATOM     22  C   UNL     1       5.352   7.006   0.375  1.00  0.00     0.029 A 
ATOM     23  C   UNL     1       6.203   7.585   1.409  1.00  0.00     0.049 A 
ATOM     24  H   UNL     1       6.613   6.811   3.299  1.00  0.00     0.167 HD
ATOM     25  C   UNL     1       7.541   4.822   7.151  1.00  0.00     0.037 A 
ATOM     26  C   UNL     1       6.878   8.745   1.315  1.00  0.00     0.037 A 
ATOM     27  C   UNL     1       8.242   6.077   7.176  1.00  0.00     0.049 A 
ATOM     28  C   UNL     1       7.696   9.192   2.494  1.00  0.00     0.074 A 
ATOM     29  C   UNL     1       9.017   6.618   8.185  1.00  0.00     0.029 A 
ATOM     30  N   UNL     1       8.249   6.988   6.128  1.00  0.00    -0.354 N 
ATOM     31  N   UNL     1       7.917   8.570   3.628  1.00  0.00    -0.248 NA
ATOM     32  C   UNL     1       8.343  10.505   2.390  1.00  0.00     0.031 C 
ATOM     33  C   UNL     1       9.469   7.873   7.757  1.00  0.00     0.029 A 
ATOM     34  C   UNL     1       9.007   8.095   6.468  1.00  0.00     0.049 A 
ATOM     35  H   UNL     1       7.784   6.865   5.270  1.00  0.00     0.167 HD
ATOM     36  C   UNL     1       8.743   9.406   4.367  1.00  0.00     0.074 A 
ATOM     37  C   UNL     1       8.995  10.573   3.543  1.00  0.00     0.031 C 
ATOM     38  C   UNL     1       9.244   9.231   5.614  1.00  0.00     0.037 A 
BRANCH  25  39
ATOM     39  C   UNL     1       7.607   3.911   8.339  1.00  0.00     0.057 A 
ATOM     40  C   UNL     1       8.315   2.702   8.314  1.00  0.00     0.134 A 
ATOM     41  C   UNL     1       6.902   4.224   9.508  1.00  0.00     0.134 A 
ATOM     42  F   UNL     1       8.985   2.329   7.213  1.00  0.00    -0.206 F 
ATOM     43  C   UNL     1       8.291   1.821   9.398  1.00  0.00     0.040 A 
ATOM     44  C   UNL     1       6.889   3.361  10.605  1.00  0.00     0.040 A 
ATOM     45  F   UNL     1       6.198   5.362   9.595  1.00  0.00    -0.206 F 
ATOM     46  C   UNL     1       7.577   2.151  10.548  1.00  0.00     0.006 A 
ENDBRANCH  25  39
BRANCH  26  47
ATOM     47  C   UNL     1       6.799   9.560   0.075  1.00  0.00     0.057 A 
ATOM     48  C   UNL     1       7.915   9.733  -0.752  1.00  0.00     0.134 A 
ATOM     49  C   UNL     1       5.608  10.186  -0.314  1.00  0.00     0.134 A 
ATOM     50  F   UNL     1       9.090   9.177  -0.425  1.00  0.00    -0.206 F 
ATOM     51  C   UNL     1       7.851  10.504  -1.915  1.00  0.00     0.040 A 
ATOM     52  C   UNL     1       5.524  10.939  -1.486  1.00  0.00     0.040 A 
ATOM     53  F   UNL     1       4.502  10.061   0.434  1.00  0.00    -0.206 F 
ATOM     54  C   UNL     1       6.650  11.104  -2.288  1.00  0.00     0.006 A 
ENDBRANCH  26  47
BRANCH  38  55
ATOM     55  C   UNL     1      10.139  10.312   6.138  1.00  0.00     0.057 A 
ATOM     56  C   UNL     1       9.630  11.535   6.588  1.00  0.00     0.134 A 
ATOM     57  C   UNL     1      11.521  10.107   6.226  1.00  0.00     0.134 A 
ATOM     58  F   UNL     1       8.315  11.793   6.515  1.00  0.00    -0.206 F 
ATOM     59  C   UNL     1      10.470  12.528   7.093  1.00  0.00     0.040 A 
ATOM     60  C   UNL     1      12.368  11.083   6.749  1.00  0.00     0.040 A 
ATOM     61  F   UNL     1      12.066   8.951   5.816  1.00  0.00    -0.206 F 
ATOM     62  C   UNL     1      11.842  12.300   7.179  1.00  0.00     0.006 A 
ENDBRANCH  38  55
ENDBRANCH  12  13
ENDBRANCH   5   7
ENDBRANCH   4   5
ENDBRANCH   3   4
ENDBRANCH   2   3
ENDBRANCH   1   2
BRANCH   1  63
ATOM     63  C   UNL     1       2.717   0.110  -2.428  1.00  0.00     0.202 C 
BRANCH  63  64
ATOM     64  C   UNL     1       2.942   0.603  -3.863  1.00  0.00     0.261 C 
BRANCH  64  65
ATOM     65  O   UNL     1       3.671  -0.417  -4.572  1.00  0.00    -0.460 OA
BRANCH  65  66
ATOM     66  C   UNL     1       4.947  -0.085  -4.908  1.00  0.00     0.338 C 
ATOM     67  O   UNL     1       5.415   1.016  -5.080  1.00  0.00    -0.246 OA
BRANCH  66  68
ATOM     68  C   UNL     1       5.740  -1.310  -4.696  1.00  0.00     0.062 A 
ATOM     69  C   UNL     1       6.435  -1.385  -3.487  1.00  0.00     0.016 A 
ATOM     70  C   UNL     1       5.685  -2.400  -5.569  1.00  0.00     0.041 A 
ATOM     71  C   UNL     1       6.978  -2.596  -3.081  1.00  0.00     0.003 A 
ATOM     72  C   UNL     1       6.281  -3.608  -5.189  1.00  0.00     0.039 A 
ATOM     73  C   UNL     1       6.874  -3.704  -3.917  1.00  0.00     0.026 A 
BRANCH  72  74
ATOM     74  N   UNL     1       6.214  -4.734  -6.027  1.00  0.00    -0.355 N 
ATOM     75  H   UNL     1       6.242  -4.563  -6.997  1.00  0.00     0.167 HD
BRANCH  74  76
ATOM     76  C   UNL     1       6.112  -6.085  -5.628  1.00  0.00     0.050 A 
ATOM     77  C   UNL     1       5.109  -6.437  -4.720  1.00  0.00     0.047 A 
ATOM     78  C   UNL     1       7.034  -7.072  -6.051  1.00  0.00     0.025 A 
ATOM     79  C   UNL     1       5.020  -7.746  -4.303  1.00  0.00     0.114 A 
ATOM     80  C   UNL     1       6.841  -8.387  -5.563  1.00  0.00     0.072 A 
ATOM     81  C   UNL     1       8.146  -6.811  -6.887  1.00  0.00     0.033 A 
ATOM     82  N   UNL     1       5.855  -8.718  -4.716  1.00  0.00    -0.256 NA
ATOM     83  C   UNL     1       7.721  -9.387  -5.952  1.00  0.00     0.030 A 
ATOM     84  C   UNL     1       9.024  -7.833  -7.241  1.00  0.00     0.041 A 
ATOM     85  C   UNL     1       8.809  -9.127  -6.787  1.00  0.00     0.023 A 
ATOM     86  Cl  UNL     1      10.388  -7.492  -8.232  1.00  0.00    -0.084 Cl
ENDBRANCH  74  76
ENDBRANCH  72  74
ENDBRANCH  66  68
ENDBRANCH  65  66
ENDBRANCH  64  65
ENDBRANCH  63  64
ENDBRANCH   1  63
TORSDOF 16
