REMARK SMILES O=C(COc1ccccc1/C=C1/SC(=S)N(c2ccc(F)c(Cl)c2)C1=O)OCCOCCOC(=O)c1ccc(-c2c3nc(c(-c4c(F)cccc4F)c4ccc([nH]4)c(-c4c(F)cccc4F)c4nc(c(-c5c(F)cccc5F)c5ccc2[nH]5)C=C4)C=C3)cc1
REMARK SMILES IDX 29 1 28 2 27 3 2 4 1 5 3 6 4 7 5 8 6 9 10 10 7 11 9 12 8 13
REMARK SMILES IDX 11 14 12 15 13 16 25 17 14 18 16 19 26 20 15 21 17 22 18 23
REMARK SMILES IDX 24 24 19 25 22 26 20 27 23 28 21 29 30 30 31 31 32 32 33 33
REMARK SMILES IDX 34 34 35 35 36 36 37 37 89 38 38 39 88 40 39 41 40 42 41 43
REMARK SMILES IDX 82 44 42 45 87 46 81 47 83 48 43 49 86 50 80 51 79 52 44 54
REMARK SMILES IDX 70 55 53 56 69 57 54 58 57 59 68 60 84 61 55 62 56 63 67 65
REMARK SMILES IDX 85 66 58 67 45 68 46 69 51 70 47 71 48 72 50 73 52 74 49 75
REMARK SMILES IDX 71 76 72 77 77 78 73 79 74 80 76 81 78 82 75 83 59 84 60 85
REMARK SMILES IDX 65 86 61 87 62 88 64 89 66 90 63 91
REMARK H PARENT 83 53 57 64
REMARK Flexibility Score: inf
ROOT
ATOM      1  C   UNL     1       4.882  -0.179  -2.111  1.00  0.00     0.202 C 
ENDROOT
BRANCH   1   2
ATOM      2  C   UNL     1       4.460   0.779  -0.992  1.00  0.00     0.261 C 
BRANCH   2   3
ATOM      3  O   UNL     1       3.189   0.345  -0.467  1.00  0.00    -0.461 OA
BRANCH   3   4
ATOM      4  C   UNL     1       2.134   1.202  -0.413  1.00  0.00     0.344 C 
ATOM      5  O   UNL     1       0.990   0.800  -0.612  1.00  0.00    -0.248 OA
BRANCH   4   6
ATOM      6  C   UNL     1       2.426   2.631  -0.004  1.00  0.00     0.351 C 
BRANCH   6   7
ATOM      7  O   UNL     1       3.480   2.707   0.950  1.00  0.00    -0.481 OA
BRANCH   7   8
ATOM      8  C   UNL     1       3.060   2.992   2.223  1.00  0.00     0.127 A 
ATOM      9  C   UNL     1       3.568   4.175   2.763  1.00  0.00     0.047 A 
ATOM     10  C   UNL     1       2.273   2.142   3.018  1.00  0.00     0.018 A 
ATOM     11  C   UNL     1       3.265   4.538   4.075  1.00  0.00     0.004 A 
ATOM     12  C   UNL     1       1.960   2.528   4.329  1.00  0.00     0.012 A 
ATOM     13  C   UNL     1       2.454   3.719   4.855  1.00  0.00     0.001 A 
BRANCH  10  14
ATOM     14  C   UNL     1       1.773   0.828   2.620  1.00  0.00     0.033 C 
ATOM     15  C   UNL     1       2.506  -0.289   2.531  1.00  0.00     0.081 C 
ATOM     16  S   UNL     1       1.797  -1.788   2.074  1.00  0.00    -0.054 SA
ATOM     17  C   UNL     1       3.979  -0.449   2.711  1.00  0.00     0.270 C 
ATOM     18  C   UNL     1       3.352  -2.587   1.948  1.00  0.00     0.152 C 
ATOM     19  N   UNL     1       4.368  -1.716   2.287  1.00  0.00    -0.261 N 
ATOM     20  O   UNL     1       4.721   0.424   3.140  1.00  0.00    -0.268 OA
ATOM     21  S   UNL     1       3.427  -4.195   1.548  1.00  0.00    -0.051 S 
BRANCH  19  22
ATOM     22  C   UNL     1       5.758  -1.987   2.147  1.00  0.00     0.052 A 
ATOM     23  C   UNL     1       6.588  -2.089   3.269  1.00  0.00     0.030 A 
ATOM     24  C   UNL     1       6.337  -1.947   0.873  1.00  0.00     0.050 A 
ATOM     25  C   UNL     1       7.977  -2.184   3.112  1.00  0.00     0.043 A 
ATOM     26  C   UNL     1       7.728  -1.962   0.726  1.00  0.00     0.078 A 
ATOM     27  C   UNL     1       8.540  -2.108   1.843  1.00  0.00     0.141 A 
ATOM     28  Cl  UNL     1       8.432  -1.709  -0.826  1.00  0.00    -0.081 Cl
ATOM     29  F   UNL     1       9.874  -2.143   1.719  1.00  0.00    -0.205 F 
ENDBRANCH  19  22
ENDBRANCH  10  14
ENDBRANCH   7   8
ENDBRANCH   6   7
ENDBRANCH   4   6
ENDBRANCH   3   4
ENDBRANCH   2   3
ENDBRANCH   1   2
BRANCH   1  30
ATOM     30  O   UNL     1       4.148   0.018  -3.319  1.00  0.00    -0.374 OA
BRANCH  30  31
ATOM     31  C   UNL     1       2.845  -0.569  -3.360  1.00  0.00     0.202 C 
BRANCH  31  32
ATOM     32  C   UNL     1       2.796  -2.037  -3.791  1.00  0.00     0.261 C 
BRANCH  32  33
ATOM     33  O   UNL     1       3.302  -2.953  -2.795  1.00  0.00    -0.460 OA
BRANCH  33  34
ATOM     34  C   UNL     1       4.427  -3.615  -3.149  1.00  0.00     0.338 C 
ATOM     35  O   UNL     1       5.106  -3.429  -4.152  1.00  0.00    -0.246 OA
BRANCH  34  36
ATOM     36  C   UNL     1       4.845  -4.571  -2.106  1.00  0.00     0.060 A 
ATOM     37  C   UNL     1       6.125  -4.408  -1.574  1.00  0.00     0.016 A 
ATOM     38  C   UNL     1       4.079  -5.682  -1.748  1.00  0.00     0.016 A 
ATOM     39  C   UNL     1       6.643  -5.327  -0.663  1.00  0.00     0.010 A 
ATOM     40  C   UNL     1       4.612  -6.629  -0.853  1.00  0.00     0.010 A 
ATOM     41  C   UNL     1       5.901  -6.460  -0.309  1.00  0.00    -0.014 A 
BRANCH  41  42
ATOM     42  C   UNL     1       6.577  -7.535   0.469  1.00  0.00     0.031 A 
ATOM     43  C   UNL     1       7.151  -8.702  -0.287  1.00  0.00     0.074 A 
ATOM     44  C   UNL     1       6.796  -7.430   1.794  1.00  0.00     0.049 A 
ATOM     45  N   UNL     1       7.807  -9.742   0.159  1.00  0.00    -0.248 NA
ATOM     46  C   UNL     1       6.988  -8.673  -1.750  1.00  0.00     0.031 C 
ATOM     47  C   UNL     1       6.402  -6.299   2.627  1.00  0.00     0.029 A 
ATOM     48  N   UNL     1       7.418  -8.282   2.676  1.00  0.00    -0.354 N 
ATOM     49  C   UNL     1       8.152 -10.479  -0.966  1.00  0.00     0.074 A 
ATOM     50  C   UNL     1       7.598  -9.791  -2.112  1.00  0.00     0.031 C 
ATOM     51  C   UNL     1       6.756  -6.534   3.901  1.00  0.00     0.029 A 
ATOM     52  C   UNL     1       7.405  -7.838   3.979  1.00  0.00     0.049 A 
ATOM     53  H   UNL     1       7.834  -9.131   2.401  1.00  0.00     0.167 HD
ATOM     54  C   UNL     1       8.879 -11.617  -1.044  1.00  0.00     0.037 A 
ATOM     55  C   UNL     1       7.859  -8.421   5.107  1.00  0.00     0.037 A 
ATOM     56  C   UNL     1       9.414 -12.314   0.095  1.00  0.00     0.049 A 
ATOM     57  C   UNL     1       8.556  -9.752   5.006  1.00  0.00     0.074 A 
ATOM     58  C   UNL     1      10.101 -13.514   0.129  1.00  0.00     0.029 A 
ATOM     59  N   UNL     1       9.319 -11.867   1.404  1.00  0.00    -0.354 N 
ATOM     60  N   UNL     1       8.847 -10.455   3.938  1.00  0.00    -0.248 NA
ATOM     61  C   UNL     1       8.999 -10.367   6.267  1.00  0.00     0.031 C 
ATOM     62  C   UNL     1      10.389 -13.813   1.466  1.00  0.00     0.029 A 
ATOM     63  C   UNL     1       9.922 -12.776   2.258  1.00  0.00     0.049 A 
ATOM     64  H   UNL     1       8.887 -11.029   1.685  1.00  0.00     0.167 HD
ATOM     65  C   UNL     1       9.527 -11.578   4.393  1.00  0.00     0.074 A 
ATOM     66  C   UNL     1       9.628 -11.450   5.832  1.00  0.00     0.031 C 
ATOM     67  C   UNL     1      10.018 -12.625   3.687  1.00  0.00     0.037 A 
BRANCH  54  68
ATOM     68  C   UNL     1       9.096 -12.188  -2.413  1.00  0.00     0.057 A 
ATOM     69  C   UNL     1       9.976 -11.595  -3.328  1.00  0.00     0.134 A 
ATOM     70  C   UNL     1       8.401 -13.329  -2.829  1.00  0.00     0.134 A 
ATOM     71  F   UNL     1      10.654 -10.485  -2.998  1.00  0.00    -0.206 F 
ATOM     72  C   UNL     1      10.135 -12.101  -4.619  1.00  0.00     0.040 A 
ATOM     73  C   UNL     1       8.569 -13.858  -4.109  1.00  0.00     0.040 A 
ATOM     74  F   UNL     1       7.542 -13.943  -2.001  1.00  0.00    -0.206 F 
ATOM     75  C   UNL     1       9.432 -13.239  -5.011  1.00  0.00     0.006 A 
ENDBRANCH  54  68
BRANCH  55  76
ATOM     76  C   UNL     1       7.653  -7.780   6.435  1.00  0.00     0.057 A 
ATOM     77  C   UNL     1       8.730  -7.343   7.216  1.00  0.00     0.134 A 
ATOM     78  C   UNL     1       6.372  -7.660   6.989  1.00  0.00     0.134 A 
ATOM     79  F   UNL     1       9.985  -7.451   6.757  1.00  0.00    -0.206 F 
ATOM     80  C   UNL     1       8.545  -6.846   8.509  1.00  0.00     0.040 A 
ATOM     81  C   UNL     1       6.170  -7.138   8.269  1.00  0.00     0.040 A 
ATOM     82  F   UNL     1       5.294  -8.059   6.298  1.00  0.00    -0.206 F 
ATOM     83  C   UNL     1       7.261  -6.742   9.039  1.00  0.00     0.006 A 
ENDBRANCH  55  76
BRANCH  67  84
ATOM     84  C   UNL     1      10.731 -13.695   4.461  1.00  0.00     0.057 A 
ATOM     85  C   UNL     1      10.044 -14.583   5.298  1.00  0.00     0.134 A 
ATOM     86  C   UNL     1      12.118 -13.853   4.348  1.00  0.00     0.134 A 
ATOM     87  F   UNL     1       8.716 -14.475   5.460  1.00  0.00    -0.206 F 
ATOM     88  C   UNL     1      10.714 -15.573   6.017  1.00  0.00     0.040 A 
ATOM     89  C   UNL     1      12.796 -14.857   5.040  1.00  0.00     0.040 A 
ATOM     90  F   UNL     1      12.835 -13.040   3.557  1.00  0.00    -0.206 F 
ATOM     91  C   UNL     1      12.094 -15.716   5.883  1.00  0.00     0.006 A 
ENDBRANCH  67  84
ENDBRANCH  41  42
ENDBRANCH  34  36
ENDBRANCH  33  34
ENDBRANCH  32  33
ENDBRANCH  31  32
ENDBRANCH  30  31
ENDBRANCH   1  30
TORSDOF 18
