REMARK SMILES O=C(NC1(C(=O)OCCOCCOC(=O)c2ccc(-c3c4nc(c(-c5c(F)cccc5F)c5ccc([nH]5)c(-c5c(F)cccc5F)c5nc(c(-c6c(F)cccc6F)c6ccc3[nH]6)C=C5)C=C4)cc2)Cc2ccccc2C1)OCC1c2ccccc2-c2ccccc21
REMARK SMILES IDX 9 1 8 2 7 3 5 4 6 5 4 6 70 7 77 8 71 9 76 10 72 11 75 12
REMARK SMILES IDX 73 13 74 14 3 15 1 16 2 17 78 19 79 20 80 21 81 22 92 23
REMARK SMILES IDX 82 24 86 25 87 26 91 27 83 28 85 29 88 30 90 31 84 32 89 33
REMARK SMILES IDX 10 34 11 35 12 36 13 37 14 38 15 39 16 40 17 41 69 42 18 43
REMARK SMILES IDX 68 44 19 45 20 46 21 47 62 48 22 49 67 50 61 51 63 52 23 53
REMARK SMILES IDX 66 54 60 55 59 56 24 58 50 59 33 60 49 61 34 62 37 63 48 64
REMARK SMILES IDX 64 65 35 66 36 67 47 69 65 70 38 71 25 72 26 73 31 74 27 75
REMARK SMILES IDX 28 76 30 77 32 78 29 79 51 80 52 81 57 82 53 83 54 84 56 85
REMARK SMILES IDX 58 86 55 87 39 88 40 89 45 90 41 91 42 92 44 93 46 94 43 95
REMARK H PARENT 3 18 63 57 37 68
REMARK Flexibility Score: inf
ROOT
ATOM      1  C   UNL     1       5.355   2.750   3.079  1.00  0.00     0.202 C 
ENDROOT
BRANCH   1   2
ATOM      2  C   UNL     1       4.450   1.597   2.615  1.00  0.00     0.261 C 
BRANCH   2   3
ATOM      3  O   UNL     1       4.529   1.310   1.182  1.00  0.00    -0.461 OA
BRANCH   3   4
ATOM      4  C   UNL     1       3.560   1.571   0.267  1.00  0.00     0.332 C 
ATOM      5  O   UNL     1       2.631   2.340   0.523  1.00  0.00    -0.249 OA
BRANCH   4   6
ATOM      6  C   UNL     1       3.623   0.713  -1.153  1.00  0.00     0.149 C 
ATOM      7  C   UNL     1       4.177  -0.533  -1.945  1.00  0.00     0.076 C 
ATOM      8  C   UNL     1       3.665   1.773  -2.317  1.00  0.00     0.076 C 
ATOM      9  C   UNL     1       5.152   0.001  -2.920  1.00  0.00    -0.042 A 
ATOM     10  C   UNL     1       4.937   1.362  -3.074  1.00  0.00    -0.042 A 
ATOM     11  C   UNL     1       6.250  -0.692  -3.428  1.00  0.00     0.004 A 
ATOM     12  C   UNL     1       5.918   2.092  -3.729  1.00  0.00     0.004 A 
ATOM     13  C   UNL     1       7.253   0.048  -4.027  1.00  0.00     0.000 A 
ATOM     14  C   UNL     1       7.091   1.433  -4.168  1.00  0.00     0.000 A 
BRANCH   6  15
ATOM     15  N   UNL     1       2.475   0.019  -0.634  1.00  0.00    -0.305 N 
ATOM     16  O   UNL     1       1.776  -1.538   0.840  1.00  0.00    -0.225 OA
ATOM     17  C   UNL     1       2.712  -0.927   0.368  1.00  0.00     0.408 C 
ATOM     18  H   UNL     1       1.567   0.200  -0.968  1.00  0.00     0.168 HD
BRANCH  17  19
ATOM     19  O   UNL     1       4.004  -1.123   0.815  1.00  0.00    -0.449 OA
BRANCH  19  20
ATOM     20  C   UNL     1       5.560  -0.886   0.866  1.00  0.00     0.248 C 
BRANCH  20  21
ATOM     21  C   UNL     1       6.580   0.066   0.002  1.00  0.00     0.088 C 
ATOM     22  C   UNL     1       8.021  -0.516   0.050  1.00  0.00    -0.029 A 
ATOM     23  C   UNL     1       6.932   1.613  -0.189  1.00  0.00    -0.029 A 
ATOM     24  C   UNL     1       8.436  -1.831   0.206  1.00  0.00     0.005 A 
ATOM     25  C   UNL     1       8.962   0.476  -0.286  1.00  0.00    -0.014 A 
ATOM     26  C   UNL     1       8.302   1.733  -0.500  1.00  0.00    -0.014 A 
ATOM     27  C   UNL     1       6.201   2.792  -0.380  1.00  0.00     0.005 A 
ATOM     28  C   UNL     1       9.791  -2.130   0.044  1.00  0.00     0.000 A 
ATOM     29  C   UNL     1      10.309   0.186  -0.426  1.00  0.00     0.009 A 
ATOM     30  C   UNL     1       8.867   2.894  -1.053  1.00  0.00     0.009 A 
ATOM     31  C   UNL     1       6.749   3.966  -0.926  1.00  0.00     0.000 A 
ATOM     32  C   UNL     1      10.721  -1.130  -0.265  1.00  0.00     0.001 A 
ATOM     33  C   UNL     1       8.074   4.004  -1.304  1.00  0.00     0.001 A 
ENDBRANCH  20  21
ENDBRANCH  19  20
ENDBRANCH  17  19
ENDBRANCH   6  15
ENDBRANCH   4   6
ENDBRANCH   3   4
ENDBRANCH   2   3
ENDBRANCH   1   2
BRANCH   1  34
ATOM     34  O   UNL     1       4.601   3.905   3.450  1.00  0.00    -0.374 OA
BRANCH  34  35
ATOM     35  C   UNL     1       4.113   4.643   2.335  1.00  0.00     0.202 C 
BRANCH  35  36
ATOM     36  C   UNL     1       4.953   5.884   2.041  1.00  0.00     0.261 C 
BRANCH  36  37
ATOM     37  O   UNL     1       6.335   5.551   1.799  1.00  0.00    -0.460 OA
BRANCH  37  38
ATOM     38  C   UNL     1       7.175   5.844   2.821  1.00  0.00     0.338 C 
ATOM     39  O   UNL     1       6.888   6.405   3.866  1.00  0.00    -0.246 OA
BRANCH  38  40
ATOM     40  C   UNL     1       8.549   5.361   2.561  1.00  0.00     0.060 A 
ATOM     41  C   UNL     1       9.241   4.790   3.633  1.00  0.00     0.016 A 
ATOM     42  C   UNL     1       9.211   5.593   1.353  1.00  0.00     0.016 A 
ATOM     43  C   UNL     1      10.605   4.518   3.523  1.00  0.00     0.010 A 
ATOM     44  C   UNL     1      10.573   5.278   1.228  1.00  0.00     0.010 A 
ATOM     45  C   UNL     1      11.294   4.793   2.333  1.00  0.00    -0.014 A 
BRANCH  45  46
ATOM     46  C   UNL     1      12.783   4.727   2.319  1.00  0.00     0.031 A 
ATOM     47  C   UNL     1      13.584   6.006   2.289  1.00  0.00     0.074 A 
ATOM     48  C   UNL     1      13.426   3.548   2.416  1.00  0.00     0.049 A 
ATOM     49  N   UNL     1      14.883   6.177   2.315  1.00  0.00    -0.248 NA
ATOM     50  C   UNL     1      12.819   7.262   2.218  1.00  0.00     0.031 C 
ATOM     51  C   UNL     1      12.782   2.237   2.483  1.00  0.00     0.029 A 
ATOM     52  N   UNL     1      14.769   3.266   2.490  1.00  0.00    -0.354 N 
ATOM     53  C   UNL     1      15.088   7.552   2.264  1.00  0.00     0.074 A 
ATOM     54  C   UNL     1      13.783   8.168   2.155  1.00  0.00     0.031 C 
ATOM     55  C   UNL     1      13.729   1.292   2.605  1.00  0.00     0.029 A 
ATOM     56  C   UNL     1      15.047   1.925   2.591  1.00  0.00     0.049 A 
ATOM     57  H   UNL     1      15.467   3.961   2.472  1.00  0.00     0.167 HD
ATOM     58  C   UNL     1      16.251   8.245   2.322  1.00  0.00     0.037 A 
ATOM     59  C   UNL     1      16.228   1.278   2.654  1.00  0.00     0.037 A 
ATOM     60  C   UNL     1      17.553   7.642   2.445  1.00  0.00     0.049 A 
ATOM     61  C   UNL     1      17.512   2.066   2.655  1.00  0.00     0.074 A 
ATOM     62  C   UNL     1      18.786   8.265   2.529  1.00  0.00     0.029 A 
ATOM     63  N   UNL     1      17.791   6.278   2.499  1.00  0.00    -0.354 N 
ATOM     64  N   UNL     1      17.688   3.364   2.628  1.00  0.00    -0.248 NA
ATOM     65  C   UNL     1      18.765   1.295   2.700  1.00  0.00     0.031 C 
ATOM     66  C   UNL     1      19.774   7.277   2.581  1.00  0.00     0.029 A 
ATOM     67  C   UNL     1      19.153   6.039   2.587  1.00  0.00     0.049 A 
ATOM     68  H   UNL     1      17.095   5.581   2.477  1.00  0.00     0.167 HD
ATOM     69  C   UNL     1      19.063   3.566   2.679  1.00  0.00     0.074 A 
ATOM     70  C   UNL     1      19.675   2.257   2.755  1.00  0.00     0.031 C 
ATOM     71  C   UNL     1      19.755   4.732   2.666  1.00  0.00     0.037 A 
BRANCH  58  72
ATOM     72  C   UNL     1      16.171   9.743   2.237  1.00  0.00     0.057 A 
ATOM     73  C   UNL     1      15.660  10.519   3.286  1.00  0.00     0.134 A 
ATOM     74  C   UNL     1      16.648  10.420   1.107  1.00  0.00     0.134 A 
ATOM     75  F   UNL     1      15.176   9.934   4.392  1.00  0.00    -0.206 F 
ATOM     76  C   UNL     1      15.602  11.912   3.203  1.00  0.00     0.040 A 
ATOM     77  C   UNL     1      16.622  11.813   1.024  1.00  0.00     0.040 A 
ATOM     78  F   UNL     1      17.158   9.739   0.070  1.00  0.00    -0.206 F 
ATOM     79  C   UNL     1      16.091  12.563   2.072  1.00  0.00     0.006 A 
ENDBRANCH  58  72
BRANCH  59  80
ATOM     80  C   UNL     1      16.257  -0.207   2.710  1.00  0.00     0.057 A 
ATOM     81  C   UNL     1      16.697  -0.888   3.851  1.00  0.00     0.134 A 
ATOM     82  C   UNL     1      15.864  -0.981   1.610  1.00  0.00     0.134 A 
ATOM     83  F   UNL     1      17.111  -0.204   4.927  1.00  0.00    -0.206 F 
ATOM     84  C   UNL     1      16.763  -2.282   3.891  1.00  0.00     0.040 A 
ATOM     85  C   UNL     1      15.899  -2.376   1.646  1.00  0.00     0.040 A 
ATOM     86  F   UNL     1      15.431  -0.392   0.486  1.00  0.00    -0.206 F 
ATOM     87  C   UNL     1      16.357  -3.030   2.788  1.00  0.00     0.006 A 
ENDBRANCH  59  80
BRANCH  71  88
ATOM     88  C   UNL     1      21.252   4.652   2.767  1.00  0.00     0.057 A 
ATOM     89  C   UNL     1      22.043   4.186   1.709  1.00  0.00     0.134 A 
ATOM     90  C   UNL     1      21.913   5.088   3.923  1.00  0.00     0.134 A 
ATOM     91  F   UNL     1      21.473   3.745   0.577  1.00  0.00    -0.206 F 
ATOM     92  C   UNL     1      23.435   4.133   1.806  1.00  0.00     0.040 A 
ATOM     93  C   UNL     1      23.305   5.065   4.022  1.00  0.00     0.040 A 
ATOM     94  F   UNL     1      21.218   5.556   4.970  1.00  0.00    -0.206 F 
ATOM     95  C   UNL     1      24.070   4.580   2.963  1.00  0.00     0.006 A 
ENDBRANCH  71  88
ENDBRANCH  45  46
ENDBRANCH  38  40
ENDBRANCH  37  38
ENDBRANCH  36  37
ENDBRANCH  35  36
ENDBRANCH  34  35
ENDBRANCH   1  34
TORSDOF 18
