REMARK SMILES O=C(OCCOCCOC(=O)c1ccc(S(=O)(=O)Cc2ncccn2)c(F)c1)c1ccc(-c2c3nc(c(-c4c(F)cccc4F)c4ccc([nH]4)c(-c4c(F)cccc4F)c4nc(c(-c5c(F)cccc5F)c5ccc2[nH]5)C=C4)C=C3)cc1
REMARK SMILES IDX 7 1 6 2 5 3 4 4 3 5 2 6 1 7 29 8 30 9 82 10 31 11 81 12
REMARK SMILES IDX 32 13 33 14 34 15 75 16 35 17 80 18 74 19 76 20 36 21 79 22
REMARK SMILES IDX 73 23 72 24 37 26 63 27 46 28 62 29 47 30 50 31 61 32 77 33
REMARK SMILES IDX 48 34 49 35 60 37 78 38 51 39 38 40 39 41 44 42 40 43 41 44
REMARK SMILES IDX 43 45 45 46 42 47 64 48 65 49 70 50 66 51 67 52 69 53 71 54
REMARK SMILES IDX 68 55 52 56 53 57 58 58 54 59 55 60 57 61 59 62 56 63 8 64
REMARK SMILES IDX 9 65 10 66 11 67 12 68 13 69 28 70 14 71 26 72 15 73 27 74
REMARK SMILES IDX 16 75 17 76 18 77 19 78 20 79 21 80 25 81 22 82 24 83 23 84
REMARK H PARENT 76 25 50 36
REMARK Flexibility Score: inf
ROOT
ATOM      1  C   UNL     1       2.579   0.303   2.250  1.00  0.00     0.202 C 
ENDROOT
BRANCH   1   2
ATOM      2  O   UNL     1       3.912   0.469   1.744  1.00  0.00    -0.374 OA
BRANCH   2   3
ATOM      3  C   UNL     1       4.090   1.544   0.818  1.00  0.00     0.202 C 
BRANCH   3   4
ATOM      4  C   UNL     1       3.733   1.230  -0.634  1.00  0.00     0.261 C 
BRANCH   4   5
ATOM      5  O   UNL     1       2.362   0.822  -0.732  1.00  0.00    -0.460 OA
BRANCH   5   6
ATOM      6  C   UNL     1       1.885  -0.415  -0.999  1.00  0.00     0.338 C 
ATOM      7  O   UNL     1       0.676  -0.563  -1.158  1.00  0.00    -0.246 OA
BRANCH   6   8
ATOM      8  C   UNL     1       2.758  -1.621  -1.112  1.00  0.00     0.060 A 
ATOM      9  C   UNL     1       3.947  -1.810  -0.405  1.00  0.00     0.016 A 
ATOM     10  C   UNL     1       2.284  -2.679  -1.905  1.00  0.00     0.016 A 
ATOM     11  C   UNL     1       4.685  -2.978  -0.528  1.00  0.00     0.010 A 
ATOM     12  C   UNL     1       2.990  -3.882  -1.990  1.00  0.00     0.010 A 
ATOM     13  C   UNL     1       4.201  -4.027  -1.305  1.00  0.00    -0.014 A 
BRANCH  13  14
ATOM     14  C   UNL     1       5.010  -5.254  -1.398  1.00  0.00     0.031 A 
ATOM     15  C   UNL     1       5.790  -5.512  -2.647  1.00  0.00     0.074 A 
ATOM     16  C   UNL     1       5.122  -6.048  -0.318  1.00  0.00     0.049 A 
ATOM     17  N   UNL     1       6.535  -6.537  -2.955  1.00  0.00    -0.248 NA
ATOM     18  C   UNL     1       5.739  -4.467  -3.684  1.00  0.00     0.031 C 
ATOM     19  C   UNL     1       4.481  -5.800   0.978  1.00  0.00     0.029 A 
ATOM     20  N   UNL     1       5.836  -7.199  -0.120  1.00  0.00    -0.354 N 
ATOM     21  C   UNL     1       7.025  -6.274  -4.226  1.00  0.00     0.074 A 
ATOM     22  C   UNL     1       6.496  -4.993  -4.636  1.00  0.00     0.031 C 
ATOM     23  C   UNL     1       4.858  -6.754   1.843  1.00  0.00     0.029 A 
ATOM     24  C   UNL     1       5.705  -7.715   1.147  1.00  0.00     0.049 A 
ATOM     25  H   UNL     1       6.390  -7.617  -0.818  1.00  0.00     0.167 HD
ATOM     26  C   UNL     1       7.841  -7.047  -4.976  1.00  0.00     0.037 A 
ATOM     27  C   UNL     1       6.193  -8.856   1.668  1.00  0.00     0.037 A 
ATOM     28  C   UNL     1       8.350  -8.317  -4.538  1.00  0.00     0.049 A 
ATOM     29  C   UNL     1       7.020  -9.740   0.777  1.00  0.00     0.074 A 
ATOM     30  C   UNL     1       9.124  -9.225  -5.235  1.00  0.00     0.029 A 
ATOM     31  N   UNL     1       8.133  -8.853  -3.276  1.00  0.00    -0.354 N 
ATOM     32  N   UNL     1       7.418  -9.524  -0.455  1.00  0.00    -0.248 NA
ATOM     33  C   UNL     1       7.445 -11.032   1.330  1.00  0.00     0.031 C 
ATOM     34  C   UNL     1       9.346 -10.328  -4.405  1.00  0.00     0.029 A 
ATOM     35  C   UNL     1       8.746 -10.088  -3.177  1.00  0.00     0.049 A 
ATOM     36  H   UNL     1       7.619  -8.418  -2.557  1.00  0.00     0.167 HD
ATOM     37  C   UNL     1       8.140 -10.649  -0.825  1.00  0.00     0.074 A 
ATOM     38  C   UNL     1       8.148 -11.534   0.323  1.00  0.00     0.031 C 
ATOM     39  C   UNL     1       8.734 -10.933  -2.010  1.00  0.00     0.037 A 
BRANCH  26  40
ATOM     40  C   UNL     1       8.177  -6.563  -6.353  1.00  0.00     0.057 A 
ATOM     41  C   UNL     1       7.580  -7.151  -7.475  1.00  0.00     0.134 A 
ATOM     42  C   UNL     1       9.096  -5.531  -6.574  1.00  0.00     0.134 A 
ATOM     43  F   UNL     1       6.684  -8.139  -7.331  1.00  0.00    -0.206 F 
ATOM     44  C   UNL     1       7.893  -6.736  -8.770  1.00  0.00     0.040 A 
ATOM     45  C   UNL     1       9.405  -5.094  -7.864  1.00  0.00     0.040 A 
ATOM     46  F   UNL     1       9.682  -4.910  -5.539  1.00  0.00    -0.206 F 
ATOM     47  C   UNL     1       8.807  -5.702  -8.967  1.00  0.00     0.006 A 
ENDBRANCH  26  40
BRANCH  27  48
ATOM     48  C   UNL     1       5.872  -9.240   3.067  1.00  0.00     0.057 A 
ATOM     49  C   UNL     1       4.559  -9.539   3.459  1.00  0.00     0.134 A 
ATOM     50  C   UNL     1       6.864  -9.313   4.051  1.00  0.00     0.134 A 
ATOM     51  F   UNL     1       3.559  -9.491   2.567  1.00  0.00    -0.206 F 
ATOM     52  C   UNL     1       4.242  -9.875   4.776  1.00  0.00     0.040 A 
ATOM     53  C   UNL     1       6.566  -9.674   5.368  1.00  0.00     0.040 A 
ATOM     54  F   UNL     1       8.144  -9.059   3.740  1.00  0.00    -0.206 F 
ATOM     55  C   UNL     1       5.250  -9.949   5.735  1.00  0.00     0.006 A 
ENDBRANCH  27  48
BRANCH  39  56
ATOM     56  C   UNL     1       9.446 -12.245  -2.118  1.00  0.00     0.057 A 
ATOM     57  C   UNL     1      10.844 -12.296  -2.152  1.00  0.00     0.134 A 
ATOM     58  C   UNL     1       8.742 -13.444  -2.283  1.00  0.00     0.134 A 
ATOM     59  F   UNL     1      11.570 -11.177  -2.010  1.00  0.00    -0.206 F 
ATOM     60  C   UNL     1      11.521 -13.496  -2.365  1.00  0.00     0.040 A 
ATOM     61  C   UNL     1       9.409 -14.653  -2.475  1.00  0.00     0.040 A 
ATOM     62  F   UNL     1       7.401 -13.456  -2.249  1.00  0.00    -0.206 F 
ATOM     63  C   UNL     1      10.802 -14.679  -2.528  1.00  0.00     0.006 A 
ENDBRANCH  39  56
ENDBRANCH  13  14
ENDBRANCH   6   8
ENDBRANCH   5   6
ENDBRANCH   4   5
ENDBRANCH   3   4
ENDBRANCH   2   3
ENDBRANCH   1   2
BRANCH   1  64
ATOM     64  C   UNL     1       2.623   0.045   3.761  1.00  0.00     0.261 C 
BRANCH  64  65
ATOM     65  O   UNL     1       3.130   1.226   4.407  1.00  0.00    -0.460 OA
BRANCH  65  66
ATOM     66  C   UNL     1       4.478   1.254   4.537  1.00  0.00     0.338 C 
ATOM     67  O   UNL     1       5.259   0.319   4.511  1.00  0.00    -0.246 OA
BRANCH  66  68
ATOM     68  C   UNL     1       4.888   2.661   4.419  1.00  0.00     0.063 A 
ATOM     69  C   UNL     1       4.415   3.653   5.277  1.00  0.00     0.017 A 
ATOM     70  C   UNL     1       5.721   2.985   3.347  1.00  0.00     0.056 A 
ATOM     71  C   UNL     1       4.860   4.966   5.101  1.00  0.00     0.024 A 
ATOM     72  C   UNL     1       6.043   4.309   3.102  1.00  0.00     0.142 A 
ATOM     73  C   UNL     1       5.703   5.283   4.023  1.00  0.00     0.103 A 
ATOM     74  F   UNL     1       6.681   4.603   1.963  1.00  0.00    -0.206 F 
BRANCH  73  75
ATOM     75  S   UNL     1       6.384   6.908   3.935  1.00  0.00     0.188 S 
ATOM     76  O   UNL     1       5.346   7.698   3.289  1.00  0.00    -0.223 OA
ATOM     77  O   UNL     1       6.787   7.250   5.290  1.00  0.00    -0.223 OA
BRANCH  75  78
ATOM     78  C   UNL     1       7.802   6.985   2.898  1.00  0.00     0.219 C 
BRANCH  78  79
ATOM     79  C   UNL     1       8.935   6.151   3.406  1.00  0.00     0.143 A 
ATOM     80  N   UNL     1      10.154   6.727   3.414  1.00  0.00    -0.240 NA
ATOM     81  N   UNL     1       8.754   4.828   3.568  1.00  0.00    -0.240 NA
ATOM     82  C   UNL     1      11.215   5.917   3.609  1.00  0.00     0.115 A 
ATOM     83  C   UNL     1       9.844   4.057   3.740  1.00  0.00     0.115 A 
ATOM     84  C   UNL     1      11.118   4.556   3.763  1.00  0.00     0.040 A 
ENDBRANCH  78  79
ENDBRANCH  75  78
ENDBRANCH  73  75
ENDBRANCH  66  68
ENDBRANCH  65  66
ENDBRANCH  64  65
ENDBRANCH   1  64
TORSDOF 17
