REMARK SMILES CCCC1CN(c2cc(C(=O)OCCOCCOC(=O)c3ccc(-c4c5nc(c(-c6c(F)cccc6F)c6ccc([nH]6)c(-c6c(F)cccc6F)c6nc(c(-c7c(F)cccc7F)c7ccc4[nH]7)C=C6)C=C5)cc3)ccc2C)C1
REMARK SMILES IDX 14 1 13 2 12 3 10 4 11 5 9 6 7 7 8 8 77 9 76 10 78 11 75 12
REMARK SMILES IDX 6 13 4 14 5 15 79 16 3 17 2 18 1 19 15 20 16 21 17 22 18 23
REMARK SMILES IDX 19 24 20 25 21 26 22 27 74 28 23 29 73 30 24 31 25 32 26 33
REMARK SMILES IDX 67 34 27 35 72 36 66 37 68 38 28 39 71 40 65 41 64 42 29 44
REMARK SMILES IDX 55 45 38 46 54 47 39 48 42 49 53 50 69 51 40 52 41 53 52 55
REMARK SMILES IDX 70 56 43 57 30 58 31 59 36 60 32 61 33 62 35 63 37 64 34 65
REMARK SMILES IDX 56 66 57 67 62 68 58 69 59 70 61 71 63 72 60 73 44 74 45 75
REMARK SMILES IDX 50 76 46 77 47 78 49 79 51 80 48 81
REMARK H PARENT 68 43 42 54
REMARK Flexibility Score: inf
ROOT
ATOM      1  C   UNL     1      -2.230   6.936  -2.923  1.00  0.00     0.202 C 
ENDROOT
BRANCH   1   2
ATOM      2  C   UNL     1      -0.826   7.103  -2.463  1.00  0.00     0.261 C 
BRANCH   2   3
ATOM      3  O   UNL     1      -0.745   7.099  -1.029  1.00  0.00    -0.460 OA
BRANCH   3   4
ATOM      4  C   UNL     1      -1.164   8.120  -0.224  1.00  0.00     0.338 C 
ATOM      5  O   UNL     1      -1.475   9.246  -0.510  1.00  0.00    -0.246 OA
BRANCH   4   6
ATOM      6  C   UNL     1      -1.253   7.517   1.127  1.00  0.00     0.062 A 
ATOM      7  C   UNL     1      -0.857   5.547   2.504  1.00  0.00     0.040 A 
ATOM      8  C   UNL     1      -0.568   6.325   1.388  1.00  0.00     0.041 A 
ATOM      9  C   UNL     1      -1.797   6.040   3.425  1.00  0.00    -0.028 A 
ATOM     10  C   UNL     1      -2.402   7.300   3.212  1.00  0.00     0.006 A 
ATOM     11  C   UNL     1      -2.179   5.284   4.665  1.00  0.00     0.046 C 
ATOM     12  C   UNL     1      -2.136   8.041   2.062  1.00  0.00     0.016 A 
BRANCH   7  13
ATOM     13  N   UNL     1      -0.246   4.281   2.634  1.00  0.00    -0.371 N 
ATOM     14  C   UNL     1       0.433   2.581   1.626  1.00  0.00     0.028 C 
ATOM     15  C   UNL     1      -0.880   3.039   2.275  1.00  0.00     0.122 C 
ATOM     16  C   UNL     1       1.045   3.881   2.149  1.00  0.00     0.122 C 
BRANCH  14  17
ATOM     17  C   UNL     1       1.096   1.320   2.169  1.00  0.00     0.007 C 
BRANCH  17  18
ATOM     18  C   UNL     1       0.541   0.054   1.517  1.00  0.00    -0.003 C 
ATOM     19  C   UNL     1       1.040  -0.144   0.091  1.00  0.00     0.004 C 
ENDBRANCH  17  18
ENDBRANCH  14  17
ENDBRANCH   7  13
ENDBRANCH   4   6
ENDBRANCH   3   4
ENDBRANCH   2   3
ENDBRANCH   1   2
BRANCH   1  20
ATOM     20  O   UNL     1      -2.879   8.141  -2.570  1.00  0.00    -0.374 OA
BRANCH  20  21
ATOM     21  C   UNL     1      -4.284   8.118  -2.671  1.00  0.00     0.202 C 
BRANCH  21  22
ATOM     22  C   UNL     1      -4.734   7.829  -4.106  1.00  0.00     0.261 C 
BRANCH  22  23
ATOM     23  O   UNL     1      -4.258   8.869  -4.995  1.00  0.00    -0.460 OA
BRANCH  23  24
ATOM     24  C   UNL     1      -3.117   8.601  -5.697  1.00  0.00     0.338 C 
ATOM     25  O   UNL     1      -2.922   7.601  -6.370  1.00  0.00    -0.246 OA
BRANCH  24  26
ATOM     26  C   UNL     1      -2.030   9.543  -5.284  1.00  0.00     0.060 A 
ATOM     27  C   UNL     1      -0.685   9.263  -5.607  1.00  0.00     0.016 A 
ATOM     28  C   UNL     1      -2.322  10.453  -4.275  1.00  0.00     0.016 A 
ATOM     29  C   UNL     1       0.353   9.746  -4.794  1.00  0.00     0.010 A 
ATOM     30  C   UNL     1      -1.318  10.791  -3.397  1.00  0.00     0.010 A 
ATOM     31  C   UNL     1       0.020  10.425  -3.627  1.00  0.00    -0.014 A 
BRANCH  31  32
ATOM     32  C   UNL     1       0.921  10.811  -2.536  1.00  0.00     0.031 A 
ATOM     33  C   UNL     1       1.023  12.260  -2.255  1.00  0.00     0.074 A 
ATOM     34  C   UNL     1       1.374   9.908  -1.629  1.00  0.00     0.049 A 
ATOM     35  N   UNL     1       1.792  12.768  -1.364  1.00  0.00    -0.248 NA
ATOM     36  C   UNL     1       0.284  13.282  -2.994  1.00  0.00     0.031 C 
ATOM     37  C   UNL     1       1.751  10.123  -0.229  1.00  0.00     0.029 A 
ATOM     38  N   UNL     1       1.591   8.537  -1.783  1.00  0.00    -0.354 N 
ATOM     39  C   UNL     1       1.420  14.077  -1.172  1.00  0.00     0.074 A 
ATOM     40  C   UNL     1       0.568  14.378  -2.290  1.00  0.00     0.031 C 
ATOM     41  C   UNL     1       2.411   9.043   0.235  1.00  0.00     0.029 A 
ATOM     42  C   UNL     1       2.591   8.138  -0.886  1.00  0.00     0.049 A 
ATOM     43  H   UNL     1       1.120   7.948  -2.416  1.00  0.00     0.167 HD
ATOM     44  C   UNL     1       1.804  14.670  -0.007  1.00  0.00     0.037 A 
ATOM     45  C   UNL     1       3.743   7.598  -1.360  1.00  0.00     0.037 A 
ATOM     46  C   UNL     1       2.752  13.786   0.702  1.00  0.00     0.049 A 
ATOM     47  C   UNL     1       4.842   8.569  -1.047  1.00  0.00     0.074 A 
ATOM     48  C   UNL     1       2.647  12.962   1.811  1.00  0.00     0.029 A 
ATOM     49  N   UNL     1       3.915  13.383   0.036  1.00  0.00    -0.354 N 
ATOM     50  N   UNL     1       4.623   9.847  -0.877  1.00  0.00    -0.248 NA
ATOM     51  C   UNL     1       6.210   8.181  -0.735  1.00  0.00     0.031 C 
ATOM     52  C   UNL     1       3.715  12.013   1.755  1.00  0.00     0.029 A 
ATOM     53  C   UNL     1       4.487  12.272   0.629  1.00  0.00     0.049 A 
ATOM     54  H   UNL     1       4.281  13.835  -0.758  1.00  0.00     0.167 HD
ATOM     55  C   UNL     1       5.723  10.420  -0.320  1.00  0.00     0.074 A 
ATOM     56  C   UNL     1       6.709   9.351  -0.297  1.00  0.00     0.031 C 
ATOM     57  C   UNL     1       5.741  11.712   0.120  1.00  0.00     0.037 A 
BRANCH  44  58
ATOM     58  C   UNL     1       1.201  15.932   0.595  1.00  0.00     0.057 A 
ATOM     59  C   UNL     1       1.519  16.308   1.917  1.00  0.00     0.134 A 
ATOM     60  C   UNL     1       0.265  16.793  -0.016  1.00  0.00     0.134 A 
ATOM     61  F   UNL     1       2.399  15.615   2.652  1.00  0.00    -0.206 F 
ATOM     62  C   UNL     1       0.944  17.414   2.568  1.00  0.00     0.040 A 
ATOM     63  C   UNL     1      -0.314  17.903   0.620  1.00  0.00     0.040 A 
ATOM     64  F   UNL     1      -0.160  16.634  -1.268  1.00  0.00    -0.206 F 
ATOM     65  C   UNL     1       0.020  18.218   1.921  1.00  0.00     0.006 A 
ENDBRANCH  44  58
BRANCH  45  66
ATOM     66  C   UNL     1       3.498   6.773  -2.586  1.00  0.00     0.057 A 
ATOM     67  C   UNL     1       2.803   5.553  -2.416  1.00  0.00     0.134 A 
ATOM     68  C   UNL     1       3.446   7.341  -3.865  1.00  0.00     0.134 A 
ATOM     69  F   UNL     1       2.764   4.963  -1.210  1.00  0.00    -0.206 F 
ATOM     70  C   UNL     1       2.005   4.995  -3.425  1.00  0.00     0.040 A 
ATOM     71  C   UNL     1       2.630   6.801  -4.875  1.00  0.00     0.040 A 
ATOM     72  F   UNL     1       4.056   8.508  -4.116  1.00  0.00    -0.206 F 
ATOM     73  C   UNL     1       1.877   5.649  -4.646  1.00  0.00     0.006 A 
ENDBRANCH  45  66
BRANCH  57  74
ATOM     74  C   UNL     1       6.996  12.542   0.156  1.00  0.00     0.057 A 
ATOM     75  C   UNL     1       8.158  12.224  -0.566  1.00  0.00     0.134 A 
ATOM     76  C   UNL     1       7.005  13.813   0.771  1.00  0.00     0.134 A 
ATOM     77  F   UNL     1       8.252  11.121  -1.320  1.00  0.00    -0.206 F 
ATOM     78  C   UNL     1       9.273  13.064  -0.604  1.00  0.00     0.040 A 
ATOM     79  C   UNL     1       8.081  14.694   0.668  1.00  0.00     0.040 A 
ATOM     80  F   UNL     1       5.957  14.280   1.464  1.00  0.00    -0.206 F 
ATOM     81  C   UNL     1       9.231  14.311   0.000  1.00  0.00     0.006 A 
ENDBRANCH  57  74
ENDBRANCH  31  32
ENDBRANCH  24  26
ENDBRANCH  23  24
ENDBRANCH  22  23
ENDBRANCH  21  22
ENDBRANCH  20  21
ENDBRANCH   1  20
TORSDOF 17
