REMARK SMILES Cc1cc(C(=O)OCCOCCOC(=O)c2ccc(-c3c4nc(c(-c5c(F)cccc5F)c5ccc([nH]5)c(-c5c(F)cccc5F)c5nc(c(-c6c(F)cccc6F)c6ccc3[nH]6)C=C5)C=C4)cc2)ccc1NC(=O)c1ccc(=O)n(CCOc2ccccc2)n1
REMARK SMILES IDX 8 1 7 2 5 3 6 4 4 5 1 6 2 7 3 8 72 9 71 10 70 11 73 12 74 13
REMARK SMILES IDX 75 15 76 16 77 17 91 18 78 19 81 20 79 21 80 22 82 23 83 24
REMARK SMILES IDX 84 25 85 26 86 27 90 28 87 29 89 30 88 31 9 32 10 33 11 34
REMARK SMILES IDX 12 35 13 36 14 37 15 38 16 39 17 40 69 41 18 42 68 43 19 44
REMARK SMILES IDX 20 45 21 46 62 47 22 48 67 49 61 50 63 51 23 52 66 53 60 54
REMARK SMILES IDX 59 55 24 57 50 58 33 59 49 60 34 61 37 62 48 63 64 64 35 65
REMARK SMILES IDX 36 66 47 68 65 69 38 70 25 71 26 72 31 73 27 74 28 75 30 76
REMARK SMILES IDX 32 77 29 78 51 79 52 80 57 81 53 82 54 83 56 84 58 85 55 86
REMARK SMILES IDX 39 87 40 88 45 89 41 90 42 91 44 92 46 93 43 94
REMARK H PARENT 73 14 63 56 37 67
REMARK Flexibility Score: inf
ROOT
ATOM      1  C   UNL     1      -3.339  -2.394  -0.784  1.00  0.00     0.261 C 
ENDROOT
BRANCH   1   2
ATOM      2  O   UNL     1      -2.521  -1.686   0.163  1.00  0.00    -0.460 OA
BRANCH   2   3
ATOM      3  C   UNL     1      -1.242  -2.103   0.407  1.00  0.00     0.338 C 
ATOM      4  O   UNL     1      -0.843  -3.217   0.644  1.00  0.00    -0.246 OA
BRANCH   3   5
ATOM      5  C   UNL     1      -0.398  -0.899   0.239  1.00  0.00     0.060 A 
ATOM      6  C   UNL     1       3.207   0.250   0.310  1.00  0.00     0.046 C 
ATOM      7  C   UNL     1       1.708   0.332   0.292  1.00  0.00    -0.027 A 
ATOM      8  C   UNL     1       0.973  -0.867   0.500  1.00  0.00     0.021 A 
ATOM      9  C   UNL     1       1.017   1.483  -0.112  1.00  0.00     0.044 A 
ATOM     10  C   UNL     1      -0.215   1.289  -0.681  1.00  0.00     0.027 A 
ATOM     11  C   UNL     1      -0.968   0.183  -0.407  1.00  0.00     0.018 A 
BRANCH   9  12
ATOM     12  N   UNL     1       1.479   2.804   0.078  1.00  0.00    -0.320 N 
ATOM     13  C   UNL     1       0.717   3.979   0.208  1.00  0.00     0.276 C 
ATOM     14  H   UNL     1       2.455   2.916   0.126  1.00  0.00     0.170 HD
ATOM     15  O   UNL     1       1.251   5.070   0.381  1.00  0.00    -0.267 OA
BRANCH  13  16
ATOM     16  C   UNL     1      -0.814   3.938   0.083  1.00  0.00     0.149 A 
ATOM     17  C   UNL     1      -1.326   4.248  -1.276  1.00  0.00     0.042 A 
ATOM     18  N   UNL     1      -1.572   3.563   1.079  1.00  0.00    -0.164 NA
ATOM     19  C   UNL     1      -2.452   3.611  -1.607  1.00  0.00     0.076 A 
ATOM     20  N   UNL     1      -2.884   3.188   0.727  1.00  0.00    -0.226 N 
ATOM     21  C   UNL     1      -3.167   2.810  -0.584  1.00  0.00     0.266 A 
ATOM     22  O   UNL     1      -3.971   1.956  -0.947  1.00  0.00    -0.268 OA
BRANCH  20  23
ATOM     23  C   UNL     1      -3.827   2.847   1.801  1.00  0.00     0.190 C 
BRANCH  23  24
ATOM     24  C   UNL     1      -4.671   4.040   2.312  1.00  0.00     0.253 C 
BRANCH  24  25
ATOM     25  O   UNL     1      -5.910   4.268   1.595  1.00  0.00    -0.492 OA
BRANCH  25  26
ATOM     26  C   UNL     1      -5.788   5.206   0.609  1.00  0.00     0.119 A 
ATOM     27  C   UNL     1      -6.099   6.544   0.816  1.00  0.00     0.046 A 
ATOM     28  C   UNL     1      -5.455   4.783  -0.667  1.00  0.00     0.046 A 
ATOM     29  C   UNL     1      -5.912   7.465  -0.226  1.00  0.00     0.004 A 
ATOM     30  C   UNL     1      -5.176   5.697  -1.679  1.00  0.00     0.004 A 
ATOM     31  C   UNL     1      -5.390   7.049  -1.452  1.00  0.00     0.000 A 
ENDBRANCH  25  26
ENDBRANCH  24  25
ENDBRANCH  23  24
ENDBRANCH  20  23
ENDBRANCH  13  16
ENDBRANCH   9  12
ENDBRANCH   3   5
ENDBRANCH   2   3
ENDBRANCH   1   2
BRANCH   1  32
ATOM     32  C   UNL     1      -2.825  -2.335  -2.180  1.00  0.00     0.202 C 
BRANCH  32  33
ATOM     33  O   UNL     1      -1.675  -3.160  -2.186  1.00  0.00    -0.374 OA
BRANCH  33  34
ATOM     34  C   UNL     1      -1.072  -3.336  -3.449  1.00  0.00     0.202 C 
BRANCH  34  35
ATOM     35  C   UNL     1      -2.028  -3.952  -4.481  1.00  0.00     0.261 C 
BRANCH  35  36
ATOM     36  O   UNL     1      -2.484  -5.238  -4.003  1.00  0.00    -0.460 OA
BRANCH  36  37
ATOM     37  C   UNL     1      -3.776  -5.316  -3.573  1.00  0.00     0.338 C 
ATOM     38  O   UNL     1      -4.742  -4.830  -4.140  1.00  0.00    -0.246 OA
BRANCH  37  39
ATOM     39  C   UNL     1      -3.809  -5.806  -2.160  1.00  0.00     0.060 A 
ATOM     40  C   UNL     1      -4.993  -5.701  -1.400  1.00  0.00     0.016 A 
ATOM     41  C   UNL     1      -2.595  -6.014  -1.514  1.00  0.00     0.016 A 
ATOM     42  C   UNL     1      -4.932  -5.612   0.003  1.00  0.00     0.010 A 
ATOM     43  C   UNL     1      -2.533  -5.824  -0.149  1.00  0.00     0.010 A 
ATOM     44  C   UNL     1      -3.685  -5.567   0.620  1.00  0.00    -0.014 A 
BRANCH  44  45
ATOM     45  C   UNL     1      -3.396  -5.110   1.990  1.00  0.00     0.031 A 
ATOM     46  C   UNL     1      -2.601  -6.017   2.848  1.00  0.00     0.074 A 
ATOM     47  C   UNL     1      -3.520  -3.801   2.346  1.00  0.00     0.049 A 
ATOM     48  N   UNL     1      -2.276  -5.740   4.057  1.00  0.00    -0.248 NA
ATOM     49  C   UNL     1      -2.113  -7.335   2.437  1.00  0.00     0.031 C 
ATOM     50  C   UNL     1      -2.773  -3.043   3.360  1.00  0.00     0.029 A 
ATOM     51  N   UNL     1      -4.342  -2.804   1.809  1.00  0.00    -0.354 N 
ATOM     52  C   UNL     1      -1.292  -6.610   4.447  1.00  0.00     0.074 A 
ATOM     53  C   UNL     1      -1.320  -7.659   3.464  1.00  0.00     0.031 C 
ATOM     54  C   UNL     1      -3.369  -1.855   3.583  1.00  0.00     0.029 A 
ATOM     55  C   UNL     1      -4.585  -1.833   2.790  1.00  0.00     0.049 A 
ATOM     56  H   UNL     1      -4.693  -2.788   0.889  1.00  0.00     0.167 HD
ATOM     57  C   UNL     1      -0.518  -6.242   5.504  1.00  0.00     0.037 A 
ATOM     58  C   UNL     1      -5.855  -1.556   3.178  1.00  0.00     0.037 A 
ATOM     59  C   UNL     1      -1.079  -5.036   6.142  1.00  0.00     0.049 A 
ATOM     60  C   UNL     1      -5.942  -2.021   4.597  1.00  0.00     0.074 A 
ATOM     61  C   UNL     1      -0.687  -3.711   6.217  1.00  0.00     0.029 A 
ATOM     62  N   UNL     1      -2.417  -5.064   6.554  1.00  0.00    -0.354 N 
ATOM     63  N   UNL     1      -5.191  -2.990   5.059  1.00  0.00    -0.248 NA
ATOM     64  C   UNL     1      -6.661  -1.306   5.644  1.00  0.00     0.031 C 
ATOM     65  C   UNL     1      -1.839  -2.938   6.574  1.00  0.00     0.029 A 
ATOM     66  C   UNL     1      -2.923  -3.792   6.747  1.00  0.00     0.049 A 
ATOM     67  H   UNL     1      -2.935  -5.890   6.689  1.00  0.00     0.167 HD
ATOM     68  C   UNL     1      -5.168  -2.911   6.414  1.00  0.00     0.074 A 
ATOM     69  C   UNL     1      -6.160  -1.898   6.743  1.00  0.00     0.031 C 
ATOM     70  C   UNL     1      -4.299  -3.600   7.205  1.00  0.00     0.037 A 
BRANCH  57  71
ATOM     71  C   UNL     1       0.802  -6.871   5.900  1.00  0.00     0.057 A 
ATOM     72  C   UNL     1       1.453  -6.458   7.079  1.00  0.00     0.134 A 
ATOM     73  C   UNL     1       1.528  -7.824   5.153  1.00  0.00     0.134 A 
ATOM     74  F   UNL     1       0.913  -5.534   7.886  1.00  0.00    -0.206 F 
ATOM     75  C   UNL     1       2.700  -6.960   7.486  1.00  0.00     0.040 A 
ATOM     76  C   UNL     1       2.752  -8.369   5.572  1.00  0.00     0.040 A 
ATOM     77  F   UNL     1       1.133  -8.249   3.949  1.00  0.00    -0.206 F 
ATOM     78  C   UNL     1       3.348  -7.934   6.742  1.00  0.00     0.006 A 
ENDBRANCH  57  71
BRANCH  58  79
ATOM     79  C   UNL     1      -6.800  -1.652   2.019  1.00  0.00     0.057 A 
ATOM     80  C   UNL     1      -6.697  -0.620   1.058  1.00  0.00     0.134 A 
ATOM     81  C   UNL     1      -7.297  -2.875   1.555  1.00  0.00     0.134 A 
ATOM     82  F   UNL     1      -6.251   0.589   1.428  1.00  0.00    -0.206 F 
ATOM     83  C   UNL     1      -6.896  -0.840  -0.313  1.00  0.00     0.040 A 
ATOM     84  C   UNL     1      -7.513  -3.103   0.182  1.00  0.00     0.040 A 
ATOM     85  F   UNL     1      -7.420  -3.919   2.387  1.00  0.00    -0.206 F 
ATOM     86  C   UNL     1      -7.260  -2.105  -0.759  1.00  0.00     0.006 A 
ENDBRANCH  58  79
BRANCH  70  87
ATOM     87  C   UNL     1      -4.748  -4.141   8.531  1.00  0.00     0.057 A 
ATOM     88  C   UNL     1      -6.103  -4.299   8.871  1.00  0.00     0.134 A 
ATOM     89  C   UNL     1      -3.828  -4.713   9.430  1.00  0.00     0.134 A 
ATOM     90  F   UNL     1      -7.094  -3.929   8.048  1.00  0.00    -0.206 F 
ATOM     91  C   UNL     1      -6.510  -4.902  10.060  1.00  0.00     0.040 A 
ATOM     92  C   UNL     1      -4.229  -5.383  10.584  1.00  0.00     0.040 A 
ATOM     93  F   UNL     1      -2.506  -4.687   9.210  1.00  0.00    -0.206 F 
ATOM     94  C   UNL     1      -5.572  -5.457  10.916  1.00  0.00     0.006 A 
ENDBRANCH  70  87
ENDBRANCH  44  45
ENDBRANCH  37  39
ENDBRANCH  36  37
ENDBRANCH  35  36
ENDBRANCH  34  35
ENDBRANCH  33  34
ENDBRANCH  32  33
ENDBRANCH   1  32
TORSDOF 20
