REMARK SMILES Cc1ccc2c(CC(=O)N3CCC(C(=O)OCCOCCOC(=O)c4ccc(-c5c6nc(c(-c7c(F)cccc7F)c7ccc([nH]7)c(-c7c(F)cccc7F)c7nc(c(-c8c(F)cccc8F)c8ccc5[nH]8)C=C7)C=C6)cc4)CC3)coc2c1
REMARK SMILES IDX 19 1 18 2 17 3 16 4 14 5 15 6 13 7 8 8 9 9 10 10 11 11 80 12
REMARK SMILES IDX 12 13 79 14 7 15 6 16 1 17 2 18 3 19 84 20 4 21 83 22 5 23
REMARK SMILES IDX 82 24 81 25 20 26 21 27 22 28 23 29 24 30 25 31 26 32 78 33
REMARK SMILES IDX 27 34 77 35 28 36 29 37 30 38 71 39 31 40 76 41 70 42 72 43
REMARK SMILES IDX 32 44 75 45 69 46 68 47 33 49 59 50 42 51 58 52 43 53 46 54
REMARK SMILES IDX 57 55 73 56 44 57 45 58 56 60 74 61 47 62 34 63 35 64 40 65
REMARK SMILES IDX 36 66 37 67 39 68 41 69 38 70 60 71 61 72 66 73 62 74 63 75
REMARK SMILES IDX 65 76 67 77 64 78 48 79 49 80 54 81 50 82 51 83 53 84 55 85
REMARK SMILES IDX 52 86
REMARK H PARENT 72 48 46 59
REMARK Flexibility Score: inf
ROOT
ATOM      1  O   UNL     1       6.965   6.325   7.984  1.00  0.00    -0.374 OA
ENDROOT
BRANCH   1   2
ATOM      2  C   UNL     1       7.322   7.142   6.875  1.00  0.00     0.202 C 
BRANCH   2   3
ATOM      3  C   UNL     1       6.735   6.834   5.492  1.00  0.00     0.261 C 
BRANCH   3   4
ATOM      4  O   UNL     1       5.320   6.620   5.514  1.00  0.00    -0.463 OA
BRANCH   4   5
ATOM      5  C   UNL     1       4.959   5.319   5.405  1.00  0.00     0.309 C 
ATOM      6  O   UNL     1       5.729   4.383   5.218  1.00  0.00    -0.252 OA
BRANCH   5   7
ATOM      7  C   UNL     1       3.471   5.101   5.524  1.00  0.00     0.103 C 
ATOM      8  C   UNL     1      -0.281   6.226   4.266  1.00  0.00     0.227 C 
ATOM      9  O   UNL     1      -0.557   7.348   4.712  1.00  0.00    -0.275 OA
ATOM     10  N   UNL     1       0.689   5.444   4.884  1.00  0.00    -0.342 N 
ATOM     11  C   UNL     1       1.158   5.817   6.217  1.00  0.00     0.120 C 
ATOM     12  C   UNL     1       1.471   4.379   4.266  1.00  0.00     0.120 C 
ATOM     13  C   UNL     1       2.640   6.199   6.207  1.00  0.00     0.037 C 
ATOM     14  C   UNL     1       2.919   4.822   4.131  1.00  0.00     0.037 C 
BRANCH   8  15
ATOM     15  C   UNL     1      -1.172   5.648   3.165  1.00  0.00     0.139 C 
BRANCH  15  16
ATOM     16  C   UNL     1      -0.502   5.138   1.939  1.00  0.00     0.008 A 
ATOM     17  C   UNL     1       1.017   0.060  -0.137  1.00  0.00     0.044 C 
ATOM     18  C   UNL     1       0.490   1.355   0.415  1.00  0.00    -0.047 A 
ATOM     19  C   UNL     1      -0.426   1.349   1.476  1.00  0.00     0.004 A 
ATOM     20  C   UNL     1       0.930   2.571  -0.137  1.00  0.00     0.051 A 
ATOM     21  C   UNL     1      -0.896   2.543   2.038  1.00  0.00     0.012 A 
ATOM     22  C   UNL     1       0.458   3.741   0.455  1.00  0.00     0.134 A 
ATOM     23  C   UNL     1      -0.421   3.766   1.528  1.00  0.00     0.024 A 
ATOM     24  O   UNL     1       0.820   5.009   0.116  1.00  0.00    -0.464 OA
ATOM     25  C   UNL     1       0.232   5.848   1.011  1.00  0.00     0.200 A 
ENDBRANCH  15  16
ENDBRANCH   8  15
ENDBRANCH   5   7
ENDBRANCH   4   5
ENDBRANCH   3   4
ENDBRANCH   2   3
ENDBRANCH   1   2
BRANCH   1  26
ATOM     26  C   UNL     1       5.640   6.428   8.511  1.00  0.00     0.202 C 
BRANCH  26  27
ATOM     27  C   UNL     1       5.143   7.786   9.042  1.00  0.00     0.261 C 
BRANCH  27  28
ATOM     28  O   UNL     1       5.051   8.762   7.995  1.00  0.00    -0.460 OA
BRANCH  28  29
ATOM     29  C   UNL     1       5.473  10.007   8.340  1.00  0.00     0.338 C 
ATOM     30  O   UNL     1       5.527  10.493   9.458  1.00  0.00    -0.246 OA
BRANCH  29  31
ATOM     31  C   UNL     1       6.241  10.491   7.178  1.00  0.00     0.060 A 
ATOM     32  C   UNL     1       5.692  10.442   5.895  1.00  0.00     0.016 A 
ATOM     33  C   UNL     1       7.622  10.667   7.376  1.00  0.00     0.016 A 
ATOM     34  C   UNL     1       6.549  10.490   4.804  1.00  0.00     0.010 A 
ATOM     35  C   UNL     1       8.476  10.676   6.280  1.00  0.00     0.010 A 
ATOM     36  C   UNL     1       7.942  10.556   4.996  1.00  0.00    -0.014 A 
BRANCH  36  37
ATOM     37  C   UNL     1       8.780  10.706   3.806  1.00  0.00     0.031 A 
ATOM     38  C   UNL     1       8.559  12.002   3.103  1.00  0.00     0.074 A 
ATOM     39  C   UNL     1       9.775   9.887   3.409  1.00  0.00     0.049 A 
ATOM     40  N   UNL     1       8.159  12.204   1.890  1.00  0.00    -0.248 NA
ATOM     41  C   UNL     1       8.702  13.229   3.904  1.00  0.00     0.031 C 
ATOM     42  C   UNL     1      10.364   8.749   4.116  1.00  0.00     0.029 A 
ATOM     43  N   UNL     1      10.543   9.978   2.281  1.00  0.00    -0.354 N 
ATOM     44  C   UNL     1       8.141  13.587   1.722  1.00  0.00     0.074 A 
ATOM     45  C   UNL     1       8.361  14.165   3.021  1.00  0.00     0.031 C 
ATOM     46  C   UNL     1      11.518   8.392   3.501  1.00  0.00     0.029 A 
ATOM     47  C   UNL     1      11.685   9.188   2.295  1.00  0.00     0.049 A 
ATOM     48  H   UNL     1      10.305  10.556   1.521  1.00  0.00     0.167 HD
ATOM     49  C   UNL     1       8.131  14.168   0.493  1.00  0.00     0.037 A 
ATOM     50  C   UNL     1      12.716   9.234   1.412  1.00  0.00     0.037 A 
ATOM     51  C   UNL     1       7.690  13.258  -0.527  1.00  0.00     0.049 A 
ATOM     52  C   UNL     1      12.248   9.929   0.190  1.00  0.00     0.074 A 
ATOM     53  C   UNL     1       6.527  12.553  -0.769  1.00  0.00     0.029 A 
ATOM     54  N   UNL     1       8.633  12.705  -1.356  1.00  0.00    -0.354 N 
ATOM     55  N   UNL     1      11.406   9.426  -0.665  1.00  0.00    -0.248 NA
ATOM     56  C   UNL     1      12.425  11.371   0.120  1.00  0.00     0.031 C 
ATOM     57  C   UNL     1       6.955  11.319  -1.342  1.00  0.00     0.029 A 
ATOM     58  C   UNL     1       8.345  11.368  -1.442  1.00  0.00     0.049 A 
ATOM     59  H   UNL     1       9.373  13.176  -1.802  1.00  0.00     0.167 HD
ATOM     60  C   UNL     1      10.639  10.504  -1.077  1.00  0.00     0.074 A 
ATOM     61  C   UNL     1      11.374  11.687  -0.639  1.00  0.00     0.031 C 
ATOM     62  C   UNL     1       9.349  10.334  -1.488  1.00  0.00     0.037 A 
BRANCH  49  63
ATOM     63  C   UNL     1       8.842  15.458   0.172  1.00  0.00     0.057 A 
ATOM     64  C   UNL     1       9.932  15.957   0.913  1.00  0.00     0.134 A 
ATOM     65  C   UNL     1       8.638  16.066  -1.079  1.00  0.00     0.134 A 
ATOM     66  F   UNL     1      10.307  15.427   2.083  1.00  0.00    -0.206 F 
ATOM     67  C   UNL     1      10.770  16.969   0.438  1.00  0.00     0.040 A 
ATOM     68  C   UNL     1       9.502  17.044  -1.586  1.00  0.00     0.040 A 
ATOM     69  F   UNL     1       7.641  15.669  -1.885  1.00  0.00    -0.206 F 
ATOM     70  C   UNL     1      10.578  17.492  -0.830  1.00  0.00     0.006 A 
ENDBRANCH  49  63
BRANCH  50  71
ATOM     71  C   UNL     1      14.155   8.957   1.631  1.00  0.00     0.057 A 
ATOM     72  C   UNL     1      14.764   9.226   2.868  1.00  0.00     0.134 A 
ATOM     73  C   UNL     1      15.024   8.692   0.562  1.00  0.00     0.134 A 
ATOM     74  F   UNL     1      14.032   9.573   3.936  1.00  0.00    -0.206 F 
ATOM     75  C   UNL     1      16.154   9.243   3.031  1.00  0.00     0.040 A 
ATOM     76  C   UNL     1      16.418   8.711   0.710  1.00  0.00     0.040 A 
ATOM     77  F   UNL     1      14.542   8.470  -0.670  1.00  0.00    -0.206 F 
ATOM     78  C   UNL     1      16.987   8.998   1.947  1.00  0.00     0.006 A 
ENDBRANCH  50  71
BRANCH  62  79
ATOM     79  C   UNL     1       8.872   8.933  -1.739  1.00  0.00     0.057 A 
ATOM     80  C   UNL     1       8.342   8.617  -2.994  1.00  0.00     0.134 A 
ATOM     81  C   UNL     1       8.793   7.944  -0.747  1.00  0.00     0.134 A 
ATOM     82  F   UNL     1       8.331   9.534  -3.975  1.00  0.00    -0.206 F 
ATOM     83  C   UNL     1       7.769   7.371  -3.259  1.00  0.00     0.040 A 
ATOM     84  C   UNL     1       8.254   6.681  -1.009  1.00  0.00     0.040 A 
ATOM     85  F   UNL     1       9.181   8.190   0.512  1.00  0.00    -0.206 F 
ATOM     86  C   UNL     1       7.734   6.394  -2.268  1.00  0.00     0.006 A 
ENDBRANCH  62  79
ENDBRANCH  36  37
ENDBRANCH  29  31
ENDBRANCH  28  29
ENDBRANCH  27  28
ENDBRANCH  26  27
ENDBRANCH   1  26
TORSDOF 16
