REMARK SMILES Cc1ccc(C2=NN(C(=O)CCC(=O)OCCOCCOC(=O)c3ccc(-c4c5nc(c(-c6c(F)cccc6F)c6ccc([nH]6)c(-c6c(F)cccc6F)c6nc(c(-c7c(F)cccc7F)c7ccc4[nH]7)C=C6)C=C5)cc3)[C@H](C[C@H]3C=c4cccc(C)c4=NC3=O)C2)cc1
REMARK SMILES IDX 16 1 15 2 13 3 14 4 12 5 11 6 9 7 10 8 8 9 6 10 7 11 92 12
REMARK SMILES IDX 78 13 5 14 1 15 2 16 3 17 94 18 4 19 93 20 79 21 80 22 81 23
REMARK SMILES IDX 90 24 82 25 89 26 91 27 83 28 88 29 84 30 86 31 85 32 87 33
REMARK SMILES IDX 17 34 18 35 19 36 20 37 21 38 22 39 23 40 24 41 25 42 77 43
REMARK SMILES IDX 26 44 76 45 27 46 28 47 29 48 70 49 30 50 75 51 69 52 71 53
REMARK SMILES IDX 31 54 74 55 68 56 67 57 32 59 58 60 41 61 57 62 42 63 45 64
REMARK SMILES IDX 56 65 72 66 43 67 44 68 55 70 73 71 46 72 33 73 34 74 39 75
REMARK SMILES IDX 35 76 36 77 38 78 40 79 37 80 59 81 60 82 65 83 61 84 62 85
REMARK SMILES IDX 64 86 66 87 63 88 47 89 48 90 53 91 49 92 50 93 52 94 54 95
REMARK SMILES IDX 51 96
REMARK H PARENT 71 58 45 69
REMARK Flexibility Score: inf
ROOT
ATOM      1  C   UNL     1      -7.888   2.496  -0.878  1.00  0.00     0.261 C 
ENDROOT
BRANCH   1   2
ATOM      2  O   UNL     1      -7.649   1.659   0.236  1.00  0.00    -0.463 OA
BRANCH   2   3
ATOM      3  C   UNL     1      -8.628   1.702   1.158  1.00  0.00     0.306 C 
ATOM      4  O   UNL     1      -9.600   2.448   1.129  1.00  0.00    -0.252 OA
BRANCH   3   5
ATOM      5  C   UNL     1      -8.365   0.718   2.251  1.00  0.00     0.132 C 
BRANCH   5   6
ATOM      6  C   UNL     1      -7.611  -0.538   1.845  1.00  0.00     0.114 C 
BRANCH   6   7
ATOM      7  C   UNL     1      -6.063  -0.536   1.655  1.00  0.00     0.243 C 
ATOM      8  O   UNL     1      -5.440  -0.672   2.725  1.00  0.00    -0.273 OA
BRANCH   7   9
ATOM      9  N   UNL     1      -5.347  -0.604   0.413  1.00  0.00    -0.230 N 
ATOM     10  C   UNL     1      -3.234  -0.898  -0.237  1.00  0.00     0.070 C 
ATOM     11  N   UNL     1      -4.084  -1.340   0.619  1.00  0.00    -0.174 NA
ATOM     12  C   UNL     1      -3.851   0.118  -1.138  1.00  0.00     0.086 C 
ATOM     13  C   UNL     1      -5.446   0.046  -1.308  1.00  0.00     0.118 C 
BRANCH  10  14
ATOM     14  C   UNL     1      -1.679  -1.010  -0.253  1.00  0.00    -0.002 A 
ATOM     15  C   UNL     1       2.657  -0.425   0.098  1.00  0.00     0.044 C 
ATOM     16  C   UNL     1       1.176  -0.661  -0.018  1.00  0.00    -0.051 A 
ATOM     17  C   UNL     1       0.541  -1.876   0.306  1.00  0.00     0.004 A 
ATOM     18  C   UNL     1       0.388   0.357  -0.517  1.00  0.00     0.004 A 
ATOM     19  C   UNL     1      -0.880  -2.042   0.228  1.00  0.00     0.010 A 
ATOM     20  C   UNL     1      -0.984   0.155  -0.666  1.00  0.00     0.010 A 
ENDBRANCH  10  14
BRANCH  13  21
ATOM     21  C   UNL     1      -6.579  -0.812  -2.828  1.00  0.00     0.045 C 
BRANCH  21  22
ATOM     22  C   UNL     1      -7.085  -2.713  -2.918  1.00  0.00     0.106 C 
ATOM     23  C   UNL     1      -6.802  -3.779  -1.692  1.00  0.00    -0.003 C 
ATOM     24  C   UNL     1      -8.549  -3.025  -3.392  1.00  0.00     0.253 C 
ATOM     25  C   UNL     1      -7.775  -4.264  -0.905  1.00  0.00    -0.003 A 
ATOM     26  N   UNL     1      -9.333  -4.016  -2.775  1.00  0.00    -0.212 NA
ATOM     27  O   UNL     1      -9.003  -2.362  -4.325  1.00  0.00    -0.272 OA
ATOM     28  C   UNL     1      -7.735  -4.427   0.551  1.00  0.00     0.010 A 
ATOM     29  C   UNL     1      -9.010  -4.556  -1.642  1.00  0.00     0.077 A 
ATOM     30  C   UNL     1      -8.726  -5.073   1.183  1.00  0.00     0.001 A 
ATOM     31  C   UNL     1      -9.773  -5.671  -0.941  1.00  0.00    -0.025 A 
ATOM     32  C   UNL     1      -9.641  -5.857   0.391  1.00  0.00     0.005 A 
ATOM     33  C   UNL     1     -10.384  -6.719  -1.804  1.00  0.00     0.047 C 
ENDBRANCH  21  22
ENDBRANCH  13  21
ENDBRANCH   7   9
ENDBRANCH   6   7
ENDBRANCH   5   6
ENDBRANCH   3   5
ENDBRANCH   2   3
ENDBRANCH   1   2
BRANCH   1  34
ATOM     34  C   UNL     1      -8.210   1.716  -2.118  1.00  0.00     0.202 C 
BRANCH  34  35
ATOM     35  O   UNL     1      -9.015   0.566  -2.006  1.00  0.00    -0.374 OA
BRANCH  35  36
ATOM     36  C   UNL     1      -8.679  -0.730  -1.435  1.00  0.00     0.202 C 
BRANCH  36  37
ATOM     37  C   UNL     1      -7.124  -1.402  -0.924  1.00  0.00     0.261 C 
BRANCH  37  38
ATOM     38  O   UNL     1      -5.446  -1.864  -1.736  1.00  0.00    -0.460 OA
BRANCH  38  39
ATOM     39  C   UNL     1      -4.392  -1.402  -3.029  1.00  0.00     0.338 C 
ATOM     40  O   UNL     1      -3.623  -2.260  -3.384  1.00  0.00    -0.246 OA
BRANCH  39  41
ATOM     41  C   UNL     1      -4.187   0.317  -3.739  1.00  0.00     0.060 A 
ATOM     42  C   UNL     1      -3.047   1.139  -3.449  1.00  0.00     0.016 A 
ATOM     43  C   UNL     1      -5.213   1.181  -4.131  1.00  0.00     0.016 A 
ATOM     44  C   UNL     1      -3.191   2.467  -2.813  1.00  0.00     0.010 A 
ATOM     45  C   UNL     1      -5.341   2.518  -3.609  1.00  0.00     0.010 A 
ATOM     46  C   UNL     1      -4.431   3.095  -2.708  1.00  0.00    -0.014 A 
BRANCH  46  47
ATOM     47  C   UNL     1      -4.929   4.192  -1.726  1.00  0.00     0.031 A 
ATOM     48  C   UNL     1      -5.724   5.392  -2.281  1.00  0.00     0.074 A 
ATOM     49  C   UNL     1      -5.048   4.062  -0.342  1.00  0.00     0.049 A 
ATOM     50  N   UNL     1      -6.266   6.328  -1.559  1.00  0.00    -0.248 NA
ATOM     51  C   UNL     1      -5.965   5.643  -3.702  1.00  0.00     0.031 C 
ATOM     52  C   UNL     1      -6.166   4.662   0.450  1.00  0.00     0.029 A 
ATOM     53  N   UNL     1      -4.455   3.251   0.659  1.00  0.00    -0.354 N 
ATOM     54  C   UNL     1      -7.164   7.046  -2.320  1.00  0.00     0.074 A 
ATOM     55  C   UNL     1      -6.827   6.672  -3.670  1.00  0.00     0.031 C 
ATOM     56  C   UNL     1      -6.125   4.305   1.735  1.00  0.00     0.029 A 
ATOM     57  C   UNL     1      -4.846   3.705   1.972  1.00  0.00     0.049 A 
ATOM     58  H   UNL     1      -3.861   2.485   0.484  1.00  0.00     0.167 HD
ATOM     59  C   UNL     1      -8.137   7.807  -1.722  1.00  0.00     0.037 A 
ATOM     60  C   UNL     1      -4.051   4.114   3.022  1.00  0.00     0.037 A 
ATOM     61  C   UNL     1      -7.990   7.847  -0.259  1.00  0.00     0.049 A 
ATOM     62  C   UNL     1      -4.142   5.593   3.248  1.00  0.00     0.074 A 
ATOM     63  C   UNL     1      -8.713   7.385   0.828  1.00  0.00     0.029 A 
ATOM     64  N   UNL     1      -6.812   8.351   0.266  1.00  0.00    -0.354 N 
ATOM     65  N   UNL     1      -5.182   6.328   2.999  1.00  0.00    -0.248 NA
ATOM     66  C   UNL     1      -2.932   6.358   3.552  1.00  0.00     0.031 C 
ATOM     67  C   UNL     1      -7.906   7.563   2.001  1.00  0.00     0.029 A 
ATOM     68  C   UNL     1      -6.734   8.206   1.639  1.00  0.00     0.049 A 
ATOM     69  H   UNL     1      -6.107   8.767  -0.280  1.00  0.00     0.167 HD
ATOM     70  C   UNL     1      -4.737   7.608   2.832  1.00  0.00     0.074 A 
ATOM     71  C   UNL     1      -3.328   7.579   3.191  1.00  0.00     0.031 C 
ATOM     72  C   UNL     1      -5.498   8.606   2.302  1.00  0.00     0.037 A 
BRANCH  59  73
ATOM     73  C   UNL     1      -9.301   8.521  -2.414  1.00  0.00     0.057 A 
ATOM     74  C   UNL     1     -10.073   9.485  -1.723  1.00  0.00     0.134 A 
ATOM     75  C   UNL     1      -9.755   8.273  -3.724  1.00  0.00     0.134 A 
ATOM     76  F   UNL     1      -9.791   9.829  -0.458  1.00  0.00    -0.206 F 
ATOM     77  C   UNL     1     -11.178  10.148  -2.290  1.00  0.00     0.040 A 
ATOM     78  C   UNL     1     -10.825   8.967  -4.321  1.00  0.00     0.040 A 
ATOM     79  F   UNL     1      -9.230   7.306  -4.485  1.00  0.00    -0.206 F 
ATOM     80  C   UNL     1     -11.548   9.904  -3.602  1.00  0.00     0.006 A 
ENDBRANCH  59  73
BRANCH  60  81
ATOM     81  C   UNL     1      -2.748   3.437   3.318  1.00  0.00     0.057 A 
ATOM     82  C   UNL     1      -2.917   2.221   3.990  1.00  0.00     0.134 A 
ATOM     83  C   UNL     1      -1.879   3.510   2.234  1.00  0.00     0.134 A 
ATOM     84  F   UNL     1      -3.495   2.167   5.196  1.00  0.00    -0.206 F 
ATOM     85  C   UNL     1      -2.803   1.073   3.263  1.00  0.00     0.040 A 
ATOM     86  C   UNL     1      -1.836   2.400   1.447  1.00  0.00     0.040 A 
ATOM     87  F   UNL     1      -1.561   4.686   1.674  1.00  0.00    -0.206 F 
ATOM     88  C   UNL     1      -2.408   1.236   1.953  1.00  0.00     0.006 A 
ENDBRANCH  60  81
BRANCH  72  89
ATOM     89  C   UNL     1      -4.982  10.018   2.317  1.00  0.00     0.057 A 
ATOM     90  C   UNL     1      -4.176  10.494   3.369  1.00  0.00     0.134 A 
ATOM     91  C   UNL     1      -5.308  10.971   1.341  1.00  0.00     0.134 A 
ATOM     92  F   UNL     1      -3.943   9.752   4.463  1.00  0.00    -0.206 F 
ATOM     93  C   UNL     1      -3.577  11.752   3.352  1.00  0.00     0.040 A 
ATOM     94  C   UNL     1      -4.782  12.264   1.355  1.00  0.00     0.040 A 
ATOM     95  F   UNL     1      -6.139  10.701   0.326  1.00  0.00    -0.206 F 
ATOM     96  C   UNL     1      -3.878  12.644   2.336  1.00  0.00     0.006 A 
ENDBRANCH  72  89
ENDBRANCH  46  47
ENDBRANCH  39  41
ENDBRANCH  38  39
ENDBRANCH  37  38
ENDBRANCH  36  37
ENDBRANCH  35  36
ENDBRANCH  34  35
ENDBRANCH   1  34
TORSDOF 20
