REMARK SMILES CC[C@H](CNC(=O)[C@H]1CSc2ccccc21)C(=O)OCCOCCOC(=O)c1ccc(-c2c3nc(c(-c4c(F)cccc4F)c4ccc([nH]4)c(-c4c(F)cccc4F)c4nc(c(-c5c(F)cccc5F)c5ccc2[nH]5)C=C4)C=C3)cc1
REMARK SMILES IDX 21 1 20 2 19 3 17 4 18 5 3 6 2 7 1 8 4 9 5 10 6 11 7 13 8 14
REMARK SMILES IDX 9 15 16 16 10 17 11 18 15 19 12 20 14 21 13 22 22 23 23 24
REMARK SMILES IDX 24 25 25 26 26 27 27 28 28 29 29 30 81 31 30 32 80 33 31 34
REMARK SMILES IDX 32 35 33 36 74 37 34 38 79 39 73 40 75 41 35 42 78 43 72 44
REMARK SMILES IDX 71 45 36 47 62 48 45 49 61 50 46 51 49 52 60 53 76 54 47 55
REMARK SMILES IDX 48 56 59 58 77 59 50 60 37 61 38 62 43 63 39 64 40 65 42 66
REMARK SMILES IDX 44 67 41 68 63 69 64 70 69 71 65 72 66 73 68 74 70 75 67 76
REMARK SMILES IDX 51 77 52 78 57 79 53 80 54 81 56 82 58 83 55 84
REMARK H PARENT 5 12 75 46 49 57
REMARK Flexibility Score: inf
ROOT
ATOM      1  C   UNL     1      -0.493   4.154   4.628  1.00  0.00     0.202 C 
ENDROOT
BRANCH   1   2
ATOM      2  C   UNL     1      -0.783   4.654   3.212  1.00  0.00     0.261 C 
BRANCH   2   3
ATOM      3  O   UNL     1      -0.699   3.594   2.245  1.00  0.00    -0.463 OA
BRANCH   3   4
ATOM      4  C   UNL     1       0.352   3.673   1.390  1.00  0.00     0.310 C 
ATOM      5  O   UNL     1       1.150   4.603   1.345  1.00  0.00    -0.252 OA
BRANCH   4   6
ATOM      6  C   UNL     1       0.491   2.451   0.497  1.00  0.00     0.118 C 
BRANCH   6   7
ATOM      7  C   UNL     1       0.368   2.895  -0.970  1.00  0.00     0.014 C 
ATOM      8  C   UNL     1       1.508   2.343  -1.819  1.00  0.00     0.005 C 
ENDBRANCH   6   7
BRANCH   6   9
ATOM      9  C   UNL     1      -0.438   1.282   0.875  1.00  0.00     0.131 C 
BRANCH   9  10
ATOM     10  N   UNL     1      -0.283   0.097   0.027  1.00  0.00    -0.355 N 
ATOM     11  C   UNL     1       0.066  -1.193   0.337  1.00  0.00     0.228 C 
ATOM     12  H   UNL     1      -0.458   0.254  -0.929  1.00  0.00     0.163 HD
ATOM     13  O   UNL     1      -0.002  -2.036  -0.559  1.00  0.00    -0.274 OA
BRANCH  11  14
ATOM     14  C   UNL     1       0.522  -1.537   1.744  1.00  0.00     0.120 C 
ATOM     15  C   UNL     1       0.367  -3.032   2.069  1.00  0.00     0.093 C 
ATOM     16  C   UNL     1       1.975  -1.229   2.044  1.00  0.00    -0.021 A 
ATOM     17  S   UNL     1       1.388  -3.298   3.562  1.00  0.00    -0.125 SA
ATOM     18  C   UNL     1       2.494  -1.998   3.091  1.00  0.00     0.011 A 
ATOM     19  C   UNL     1       2.766  -0.247   1.462  1.00  0.00     0.006 A 
ATOM     20  C   UNL     1       3.745  -1.735   3.629  1.00  0.00     0.015 A 
ATOM     21  C   UNL     1       4.020   0.039   2.001  1.00  0.00     0.000 A 
ATOM     22  C   UNL     1       4.500  -0.689   3.094  1.00  0.00     0.001 A 
ENDBRANCH  11  14
ENDBRANCH   9  10
ENDBRANCH   6   9
ENDBRANCH   4   6
ENDBRANCH   3   4
ENDBRANCH   2   3
ENDBRANCH   1   2
BRANCH   1  23
ATOM     23  O   UNL     1       0.816   3.654   4.884  1.00  0.00    -0.374 OA
BRANCH  23  24
ATOM     24  C   UNL     1       1.161   2.355   4.404  1.00  0.00     0.202 C 
BRANCH  24  25
ATOM     25  C   UNL     1       0.474   1.151   5.064  1.00  0.00     0.261 C 
BRANCH  25  26
ATOM     26  O   UNL     1      -0.925   1.066   4.726  1.00  0.00    -0.460 OA
BRANCH  26  27
ATOM     27  C   UNL     1      -1.778   1.237   5.767  1.00  0.00     0.338 C 
ATOM     28  O   UNL     1      -1.488   1.399   6.943  1.00  0.00    -0.246 OA
BRANCH  27  29
ATOM     29  C   UNL     1      -3.149   1.426   5.256  1.00  0.00     0.060 A 
ATOM     30  C   UNL     1      -3.767   0.470   4.451  1.00  0.00     0.016 A 
ATOM     31  C   UNL     1      -3.843   2.580   5.649  1.00  0.00     0.016 A 
ATOM     32  C   UNL     1      -5.097   0.661   4.061  1.00  0.00     0.010 A 
ATOM     33  C   UNL     1      -5.169   2.768   5.258  1.00  0.00     0.010 A 
ATOM     34  C   UNL     1      -5.814   1.800   4.477  1.00  0.00    -0.014 A 
BRANCH  34  35
ATOM     35  C   UNL     1      -7.270   1.913   4.203  1.00  0.00     0.031 A 
ATOM     36  C   UNL     1      -7.809   2.889   3.198  1.00  0.00     0.074 A 
ATOM     37  C   UNL     1      -8.118   1.134   4.904  1.00  0.00     0.049 A 
ATOM     38  N   UNL     1      -9.045   3.062   2.799  1.00  0.00    -0.248 NA
ATOM     39  C   UNL     1      -6.840   3.794   2.563  1.00  0.00     0.031 C 
ATOM     40  C   UNL     1      -7.723   0.181   5.943  1.00  0.00     0.029 A 
ATOM     41  N   UNL     1      -9.484   1.016   4.848  1.00  0.00    -0.354 N 
ATOM     42  C   UNL     1      -9.005   4.084   1.860  1.00  0.00     0.074 A 
ATOM     43  C   UNL     1      -7.626   4.522   1.779  1.00  0.00     0.031 C 
ATOM     44  C   UNL     1      -8.816  -0.449   6.400  1.00  0.00     0.029 A 
ATOM     45  C   UNL     1      -9.991   0.078   5.715  1.00  0.00     0.049 A 
ATOM     46  H   UNL     1     -10.047   1.552   4.244  1.00  0.00     0.167 HD
ATOM     47  C   UNL     1     -10.021   4.598   1.125  1.00  0.00     0.037 A 
ATOM     48  C   UNL     1     -11.261  -0.312   5.931  1.00  0.00     0.037 A 
ATOM     49  C   UNL     1     -11.395   4.169   1.219  1.00  0.00     0.049 A 
ATOM     50  C   UNL     1     -12.371   0.322   5.137  1.00  0.00     0.074 A 
ATOM     51  C   UNL     1     -12.482   4.588   0.469  1.00  0.00     0.029 A 
ATOM     52  N   UNL     1     -11.878   3.244   2.132  1.00  0.00    -0.354 N 
ATOM     53  N   UNL     1     -12.302   1.204   4.170  1.00  0.00    -0.248 NA
ATOM     54  C   UNL     1     -13.740  -0.101   5.466  1.00  0.00     0.031 C 
ATOM     55  C   UNL     1     -13.630   3.968   0.972  1.00  0.00     0.029 A 
ATOM     56  C   UNL     1     -13.251   3.112   1.992  1.00  0.00     0.049 A 
ATOM     57  H   UNL     1     -11.327   2.754   2.784  1.00  0.00     0.167 HD
ATOM     58  C   UNL     1     -13.611   1.409   3.751  1.00  0.00     0.074 A 
ATOM     59  C   UNL     1     -14.449   0.544   4.553  1.00  0.00     0.031 C 
ATOM     60  C   UNL     1     -14.079   2.242   2.789  1.00  0.00     0.037 A 
BRANCH  47  61
ATOM     61  C   UNL     1      -9.697   5.694   0.151  1.00  0.00     0.057 A 
ATOM     62  C   UNL     1     -10.177   6.996   0.353  1.00  0.00     0.134 A 
ATOM     63  C   UNL     1      -8.977   5.449  -1.026  1.00  0.00     0.134 A 
ATOM     64  F   UNL     1     -10.884   7.298   1.452  1.00  0.00    -0.206 F 
ATOM     65  C   UNL     1      -9.958   8.009  -0.582  1.00  0.00     0.040 A 
ATOM     66  C   UNL     1      -8.729   6.461  -1.956  1.00  0.00     0.040 A 
ATOM     67  F   UNL     1      -8.485   4.227  -1.280  1.00  0.00    -0.206 F 
ATOM     68  C   UNL     1      -9.228   7.744  -1.738  1.00  0.00     0.006 A 
ENDBRANCH  47  61
BRANCH  48  69
ATOM     69  C   UNL     1     -11.576  -1.360   6.937  1.00  0.00     0.057 A 
ATOM     70  C   UNL     1     -11.413  -1.132   8.308  1.00  0.00     0.134 A 
ATOM     71  C   UNL     1     -12.131  -2.587   6.550  1.00  0.00     0.134 A 
ATOM     72  F   UNL     1     -10.881   0.018   8.746  1.00  0.00    -0.206 F 
ATOM     73  C   UNL     1     -11.803  -2.078   9.257  1.00  0.00     0.040 A 
ATOM     74  C   UNL     1     -12.557  -3.527   7.489  1.00  0.00     0.040 A 
ATOM     75  F   UNL     1     -12.330  -2.857   5.251  1.00  0.00    -0.206 F 
ATOM     76  C   UNL     1     -12.394  -3.272   8.849  1.00  0.00     0.006 A 
ENDBRANCH  48  69
BRANCH  60  77
ATOM     77  C   UNL     1     -15.558   2.219   2.522  1.00  0.00     0.057 A 
ATOM     78  C   UNL     1     -16.057   1.700   1.321  1.00  0.00     0.134 A 
ATOM     79  C   UNL     1     -16.490   2.708   3.448  1.00  0.00     0.134 A 
ATOM     80  F   UNL     1     -15.223   1.223   0.385  1.00  0.00    -0.206 F 
ATOM     81  C   UNL     1     -17.426   1.664   1.052  1.00  0.00     0.040 A 
ATOM     82  C   UNL     1     -17.863   2.645   3.205  1.00  0.00     0.040 A 
ATOM     83  F   UNL     1     -16.082   3.204   4.626  1.00  0.00    -0.206 F 
ATOM     84  C   UNL     1     -18.334   2.127   2.001  1.00  0.00     0.006 A 
ENDBRANCH  60  77
ENDBRANCH  34  35
ENDBRANCH  27  29
ENDBRANCH  26  27
ENDBRANCH  25  26
ENDBRANCH  24  25
ENDBRANCH  23  24
ENDBRANCH   1  23
TORSDOF 18
