REMARK SMILES O=C(OCCOCCOC(=O)[C@H]1CC2(CC[NH+](C(=O)c3cccc(O)c3)CC2)CN1C(=O)C1CC1)c1ccc(-c2c3nc(c(-c4c(F)cccc4F)c4ccc([nH]4)c(-c4c(F)cccc4F)c4nc(c(-c5c(F)cccc5F)c5ccc2[nH]5)C=C4)C=C3)cc1
REMARK SMILES IDX 7 1 6 2 5 3 4 4 3 5 2 6 1 7 36 8 37 9 89 10 38 11 88 12
REMARK SMILES IDX 39 13 40 14 41 15 82 16 42 17 87 18 81 19 83 20 43 21 86 22
REMARK SMILES IDX 80 23 79 24 44 26 70 27 53 28 69 29 54 30 57 31 68 32 84 33
REMARK SMILES IDX 55 34 56 35 67 37 85 38 58 39 45 40 46 41 51 42 47 43 48 44
REMARK SMILES IDX 50 45 52 46 49 47 71 48 72 49 77 50 73 51 74 52 76 53 78 54
REMARK SMILES IDX 75 55 59 56 60 57 65 58 61 59 62 60 64 61 66 62 63 63 8 64
REMARK SMILES IDX 9 65 10 66 11 67 12 68 13 69 30 70 14 71 29 72 15 73 28 74
REMARK SMILES IDX 16 75 27 76 17 77 31 79 32 80 33 81 34 82 35 83 18 84 19 85
REMARK SMILES IDX 20 86 21 87 26 88 22 89 24 90 23 91 25 92
REMARK H PARENT 83 25 57 36 17 78 25 93
REMARK Flexibility Score: inf
ROOT
ATOM      1  C   UNL     1       6.972  -1.553   1.672  1.00  0.00     0.202 C 
ENDROOT
BRANCH   1   2
ATOM      2  O   UNL     1       7.061  -2.898   2.167  1.00  0.00    -0.374 OA
BRANCH   2   3
ATOM      3  C   UNL     1       5.844  -3.565   2.524  1.00  0.00     0.202 C 
BRANCH   3   4
ATOM      4  C   UNL     1       5.150  -3.160   3.839  1.00  0.00     0.261 C 
BRANCH   4   5
ATOM      5  O   UNL     1       4.732  -1.766   3.820  1.00  0.00    -0.460 OA
BRANCH   5   6
ATOM      6  C   UNL     1       5.209  -0.722   4.556  1.00  0.00     0.338 C 
ATOM      7  O   UNL     1       4.680   0.372   4.529  1.00  0.00    -0.246 OA
BRANCH   6   8
ATOM      8  C   UNL     1       6.387  -0.953   5.417  1.00  0.00     0.060 A 
ATOM      9  C   UNL     1       7.411  -1.765   4.968  1.00  0.00     0.016 A 
ATOM     10  C   UNL     1       6.473  -0.405   6.694  1.00  0.00     0.016 A 
ATOM     11  C   UNL     1       8.322  -2.306   5.822  1.00  0.00     0.010 A 
ATOM     12  C   UNL     1       7.519  -0.803   7.532  1.00  0.00     0.010 A 
ATOM     13  C   UNL     1       8.407  -1.805   7.106  1.00  0.00    -0.014 A 
BRANCH  13  14
ATOM     14  C   UNL     1       9.363  -2.482   7.983  1.00  0.00     0.031 A 
ATOM     15  C   UNL     1       8.817  -3.256   9.132  1.00  0.00     0.074 A 
ATOM     16  C   UNL     1      10.654  -2.558   7.612  1.00  0.00     0.049 A 
ATOM     17  N   UNL     1       9.446  -3.745  10.159  1.00  0.00    -0.248 NA
ATOM     18  C   UNL     1       7.364  -3.506   9.133  1.00  0.00     0.031 C 
ATOM     19  C   UNL     1      11.215  -2.004   6.371  1.00  0.00     0.029 A 
ATOM     20  N   UNL     1      11.716  -3.175   8.203  1.00  0.00    -0.354 N 
ATOM     21  C   UNL     1       8.456  -4.258  10.984  1.00  0.00     0.074 A 
ATOM     22  C   UNL     1       7.190  -4.079  10.313  1.00  0.00     0.031 C 
ATOM     23  C   UNL     1      12.501  -2.361   6.269  1.00  0.00     0.029 A 
ATOM     24  C   UNL     1      12.889  -3.010   7.509  1.00  0.00     0.049 A 
ATOM     25  H   UNL     1      11.649  -3.687   9.041  1.00  0.00     0.167 HD
ATOM     26  C   UNL     1       8.625  -4.778  12.219  1.00  0.00     0.037 A 
ATOM     27  C   UNL     1      14.151  -3.263   7.892  1.00  0.00     0.037 A 
ATOM     28  C   UNL     1       9.932  -4.951  12.794  1.00  0.00     0.049 A 
ATOM     29  C   UNL     1      14.331  -3.791   9.282  1.00  0.00     0.074 A 
ATOM     30  C   UNL     1      10.286  -5.363  14.062  1.00  0.00     0.029 A 
ATOM     31  N   UNL     1      11.116  -4.725  12.095  1.00  0.00    -0.354 N 
ATOM     32  N   UNL     1      13.407  -4.099  10.165  1.00  0.00    -0.248 NA
ATOM     33  C   UNL     1      15.705  -3.961   9.755  1.00  0.00     0.031 C 
ATOM     34  C   UNL     1      11.686  -5.358  14.136  1.00  0.00     0.029 A 
ATOM     35  C   UNL     1      12.204  -4.986  12.901  1.00  0.00     0.049 A 
ATOM     36  H   UNL     1      11.168  -4.422  11.159  1.00  0.00     0.167 HD
ATOM     37  C   UNL     1      14.082  -4.497  11.304  1.00  0.00     0.074 A 
ATOM     38  C   UNL     1      15.499  -4.408  10.987  1.00  0.00     0.031 C 
ATOM     39  C   UNL     1      13.590  -4.888  12.506  1.00  0.00     0.037 A 
BRANCH  26  40
ATOM     40  C   UNL     1       7.384  -5.037  13.018  1.00  0.00     0.057 A 
ATOM     41  C   UNL     1       6.489  -6.073  12.722  1.00  0.00     0.134 A 
ATOM     42  C   UNL     1       7.026  -4.156  14.049  1.00  0.00     0.134 A 
ATOM     43  F   UNL     1       6.747  -6.927  11.719  1.00  0.00    -0.206 F 
ATOM     44  C   UNL     1       5.270  -6.202  13.395  1.00  0.00     0.040 A 
ATOM     45  C   UNL     1       5.823  -4.288  14.745  1.00  0.00     0.040 A 
ATOM     46  F   UNL     1       7.826  -3.130  14.375  1.00  0.00    -0.206 F 
ATOM     47  C   UNL     1       4.935  -5.307  14.410  1.00  0.00     0.006 A 
ENDBRANCH  26  40
BRANCH  27  48
ATOM     48  C   UNL     1      15.277  -2.896   6.997  1.00  0.00     0.057 A 
ATOM     49  C   UNL     1      16.077  -3.868   6.393  1.00  0.00     0.134 A 
ATOM     50  C   UNL     1      15.518  -1.558   6.644  1.00  0.00     0.134 A 
ATOM     51  F   UNL     1      15.908  -5.164   6.693  1.00  0.00    -0.206 F 
ATOM     52  C   UNL     1      17.063  -3.528   5.462  1.00  0.00     0.040 A 
ATOM     53  C   UNL     1      16.477  -1.206   5.694  1.00  0.00     0.040 A 
ATOM     54  F   UNL     1      14.779  -0.573   7.178  1.00  0.00    -0.206 F 
ATOM     55  C   UNL     1      17.254  -2.195   5.099  1.00  0.00     0.006 A 
ENDBRANCH  27  48
BRANCH  39  56
ATOM     56  C   UNL     1      14.600  -5.288  13.529  1.00  0.00     0.057 A 
ATOM     57  C   UNL     1      15.308  -4.338  14.270  1.00  0.00     0.134 A 
ATOM     58  C   UNL     1      14.807  -6.642  13.815  1.00  0.00     0.134 A 
ATOM     59  F   UNL     1      15.154  -3.028  14.023  1.00  0.00    -0.206 F 
ATOM     60  C   UNL     1      16.201  -4.724  15.267  1.00  0.00     0.040 A 
ATOM     61  C   UNL     1      15.682  -7.039  14.822  1.00  0.00     0.040 A 
ATOM     62  F   UNL     1      14.148  -7.591  13.134  1.00  0.00    -0.206 F 
ATOM     63  C   UNL     1      16.382  -6.077  15.551  1.00  0.00     0.006 A 
ENDBRANCH  39  56
ENDBRANCH  13  14
ENDBRANCH   6   8
ENDBRANCH   5   6
ENDBRANCH   4   5
ENDBRANCH   3   4
ENDBRANCH   2   3
ENDBRANCH   1   2
BRANCH   1  64
ATOM     64  C   UNL     1       7.097  -1.432   0.158  1.00  0.00     0.261 C 
BRANCH  64  65
ATOM     65  O   UNL     1       5.941  -1.995  -0.471  1.00  0.00    -0.462 OA
BRANCH  65  66
ATOM     66  C   UNL     1       6.003  -3.345  -0.562  1.00  0.00     0.328 C 
ATOM     67  O   UNL     1       7.002  -4.000  -0.278  1.00  0.00    -0.250 OA
BRANCH  66  68
ATOM     68  C   UNL     1       4.693  -3.940  -1.097  1.00  0.00     0.195 C 
ATOM     69  C   UNL     1       5.225  -5.287  -1.623  1.00  0.00     0.046 C 
ATOM     70  N   UNL     1       3.496  -4.395  -0.350  1.00  0.00    -0.328 N 
ATOM     71  C   UNL     1       4.010  -6.141  -1.929  1.00  0.00     0.001 C 
ATOM     72  C   UNL     1       3.042  -5.702  -0.833  1.00  0.00     0.128 C 
ATOM     73  C   UNL     1       4.370  -7.632  -1.801  1.00  0.00     0.071 C 
ATOM     74  C   UNL     1       3.495  -5.853  -3.352  1.00  0.00     0.071 C 
ATOM     75  C   UNL     1       5.413  -8.009  -2.845  1.00  0.00     0.271 C 
ATOM     76  C   UNL     1       4.485  -6.330  -4.423  1.00  0.00     0.271 C 
ATOM     77  N   UNL     1       4.895  -7.711  -4.182  1.00  0.00    -0.267 N 
ATOM     78  H   UNL     1       5.217  -8.630  -4.035  1.00  0.00     0.357 HD
BRANCH  70  79
ATOM     79  C   UNL     1       2.580  -3.719   0.448  1.00  0.00     0.226 C 
ATOM     80  O   UNL     1       1.509  -4.232   0.764  1.00  0.00    -0.275 OA
BRANCH  79  81
ATOM     81  C   UNL     1       2.909  -2.432   1.098  1.00  0.00     0.079 C 
ATOM     82  C   UNL     1       3.323  -1.157   0.431  1.00  0.00     0.014 C 
ATOM     83  C   UNL     1       1.932  -1.282   0.962  1.00  0.00     0.014 C 
ENDBRANCH  79  81
ENDBRANCH  70  79
BRANCH  77  84
ATOM     84  C   UNL     1       4.896  -8.605  -5.246  1.00  0.00     0.344 C 
ATOM     85  O   UNL     1       4.673  -8.288  -6.410  1.00  0.00    -0.226 OA
BRANCH  84  86
ATOM     86  C   UNL     1       5.169 -10.024  -4.952  1.00  0.00     0.083 A 
ATOM     87  C   UNL     1       4.329 -10.737  -4.085  1.00  0.00     0.018 A 
ATOM     88  C   UNL     1       6.279 -10.633  -5.535  1.00  0.00     0.064 A 
ATOM     89  C   UNL     1       4.636 -12.057  -3.761  1.00  0.00     0.005 A 
ATOM     90  C   UNL     1       6.562 -11.953  -5.214  1.00  0.00     0.116 A 
ATOM     91  C   UNL     1       5.758 -12.667  -4.325  1.00  0.00     0.046 A 
BRANCH  90  92
ATOM     92  O   UNL     1       7.659 -12.522  -5.790  1.00  0.00    -0.508 OA
ATOM     93  H   UNL     1       7.881 -13.412  -5.596  1.00  0.00     0.293 HD
ENDBRANCH  90  92
ENDBRANCH  84  86
ENDBRANCH  77  84
ENDBRANCH  66  68
ENDBRANCH  65  66
ENDBRANCH  64  65
ENDBRANCH   1  64
TORSDOF 19
