REMARK SMILES Cn1nc(N2CCC(CC(=O)OCCOCCOC(=O)c3ccc(-c4c5nc(c(-c6c(F)cccc6F)c6ccc([nH]6)c(-c6c(F)cccc6F)c6nc(c(-c7c(F)cccc7F)c7ccc4[nH]7)C=C6)C=C5)cc3)CC2)c(=O)n(C)c1=O
REMARK SMILES IDX 15 1 14 2 13 3 12 4 10 5 11 6 9 7 8 8 5 9 6 10 76 11 7 12
REMARK SMILES IDX 75 13 4 14 1 15 2 16 3 17 81 18 79 19 82 20 77 21 80 22
REMARK SMILES IDX 78 23 16 24 17 25 18 26 19 27 20 28 21 29 22 30 74 31 23 32
REMARK SMILES IDX 73 33 24 34 25 35 26 36 67 37 27 38 72 39 66 40 68 41 28 42
REMARK SMILES IDX 71 43 65 44 64 45 29 47 55 48 38 49 54 50 39 51 42 52 53 53
REMARK SMILES IDX 69 54 40 55 41 56 52 58 70 59 43 60 30 61 31 62 36 63 32 64
REMARK SMILES IDX 33 65 35 66 37 67 34 68 56 69 57 70 62 71 58 72 59 73 61 74
REMARK SMILES IDX 63 75 60 76 44 77 45 78 50 79 46 80 47 81 49 82 51 83 48 84
REMARK H PARENT 68 46 42 57
REMARK Flexibility Score: inf
ROOT
ATOM      1  O   UNL     1      -3.542  -2.325   9.303  1.00  0.00    -0.374 OA
ENDROOT
BRANCH   1   2
ATOM      2  C   UNL     1      -2.679  -3.215   8.594  1.00  0.00     0.202 C 
BRANCH   2   3
ATOM      3  C   UNL     1      -3.194  -3.700   7.237  1.00  0.00     0.261 C 
BRANCH   3   4
ATOM      4  O   UNL     1      -3.138  -2.643   6.260  1.00  0.00    -0.463 OA
BRANCH   4   5
ATOM      5  C   UNL     1      -4.318  -2.250   5.721  1.00  0.00     0.306 C 
ATOM      6  O   UNL     1      -5.401  -2.774   5.951  1.00  0.00    -0.252 OA
BRANCH   5   7
ATOM      7  C   UNL     1      -4.165  -1.109   4.736  1.00  0.00     0.126 C 
BRANCH   7   8
ATOM      8  C   UNL     1      -3.142   0.004   5.048  1.00  0.00     0.003 C 
ATOM      9  N   UNL     1      -1.101   1.785   4.019  1.00  0.00    -0.351 N 
ATOM     10  C   UNL     1      -0.703   0.709   4.913  1.00  0.00     0.118 C 
ATOM     11  C   UNL     1      -2.417   2.350   4.287  1.00  0.00     0.118 C 
ATOM     12  C   UNL     1      -1.688  -0.450   4.811  1.00  0.00     0.026 C 
ATOM     13  C   UNL     1      -3.466   1.239   4.173  1.00  0.00     0.026 C 
BRANCH   9  14
ATOM     14  C   UNL     1      -0.444   2.001   2.812  1.00  0.00     0.215 A 
ATOM     15  C   UNL     1       0.967   0.074   0.127  1.00  0.00     0.180 C 
ATOM     16  N   UNL     1       0.612   1.242   0.912  1.00  0.00    -0.216 N 
ATOM     17  N   UNL     1      -0.027   0.997   2.095  1.00  0.00    -0.145 NA
ATOM     18  C   UNL     1       0.964   2.499   0.433  1.00  0.00     0.346 A 
ATOM     19  N   UNL     1       0.578   3.576   1.204  1.00  0.00    -0.259 N 
ATOM     20  O   UNL     1       1.580   2.637  -0.627  1.00  0.00    -0.246 OA
ATOM     21  C   UNL     1      -0.177   3.443   2.350  1.00  0.00     0.299 A 
ATOM     22  C   UNL     1       0.948   4.917   0.802  1.00  0.00     0.159 C 
ATOM     23  O   UNL     1      -0.600   4.382   3.017  1.00  0.00    -0.265 OA
ENDBRANCH   9  14
ENDBRANCH   7   8
ENDBRANCH   5   7
ENDBRANCH   4   5
ENDBRANCH   3   4
ENDBRANCH   2   3
ENDBRANCH   1   2
BRANCH   1  24
ATOM     24  C   UNL     1      -3.576  -0.968   8.866  1.00  0.00     0.202 C 
BRANCH  24  25
ATOM     25  C   UNL     1      -2.423  -0.082   9.352  1.00  0.00     0.261 C 
BRANCH  25  26
ATOM     26  O   UNL     1      -1.158  -0.485   8.793  1.00  0.00    -0.460 OA
BRANCH  26  27
ATOM     27  C   UNL     1      -0.290  -1.015   9.687  1.00  0.00     0.338 C 
ATOM     28  O   UNL     1      -0.430  -1.095  10.900  1.00  0.00    -0.246 OA
BRANCH  27  29
ATOM     29  C   UNL     1       0.827  -1.674   8.985  1.00  0.00     0.060 A 
ATOM     30  C   UNL     1       1.080  -3.015   9.299  1.00  0.00     0.016 A 
ATOM     31  C   UNL     1       1.663  -0.980   8.108  1.00  0.00     0.016 A 
ATOM     32  C   UNL     1       2.200  -3.656   8.774  1.00  0.00     0.010 A 
ATOM     33  C   UNL     1       2.795  -1.623   7.590  1.00  0.00     0.010 A 
ATOM     34  C   UNL     1       3.087  -2.952   7.949  1.00  0.00    -0.014 A 
BRANCH  34  35
ATOM     35  C   UNL     1       4.394  -3.565   7.606  1.00  0.00     0.031 A 
ATOM     36  C   UNL     1       5.604  -3.205   8.427  1.00  0.00     0.074 A 
ATOM     37  C   UNL     1       4.492  -4.487   6.631  1.00  0.00     0.049 A 
ATOM     38  N   UNL     1       6.840  -3.621   8.308  1.00  0.00    -0.248 NA
ATOM     39  C   UNL     1       5.391  -2.262   9.537  1.00  0.00     0.031 C 
ATOM     40  C   UNL     1       3.383  -4.973   5.813  1.00  0.00     0.029 A 
ATOM     41  N   UNL     1       5.580  -5.189   6.175  1.00  0.00    -0.354 N 
ATOM     42  C   UNL     1       7.545  -3.003   9.333  1.00  0.00     0.074 A 
ATOM     43  C   UNL     1       6.612  -2.154  10.041  1.00  0.00     0.031 C 
ATOM     44  C   UNL     1       3.847  -5.902   4.958  1.00  0.00     0.029 A 
ATOM     45  C   UNL     1       5.289  -6.052   5.146  1.00  0.00     0.049 A 
ATOM     46  H   UNL     1       6.485  -5.083   6.549  1.00  0.00     0.167 HD
ATOM     47  C   UNL     1       8.849  -3.144   9.666  1.00  0.00     0.037 A 
ATOM     48  C   UNL     1       6.097  -6.861   4.433  1.00  0.00     0.037 A 
ATOM     49  C   UNL     1       9.782  -3.984   8.964  1.00  0.00     0.049 A 
ATOM     50  C   UNL     1       7.570  -6.906   4.751  1.00  0.00     0.074 A 
ATOM     51  C   UNL     1      11.131  -4.167   9.214  1.00  0.00     0.029 A 
ATOM     52  N   UNL     1       9.462  -4.783   7.878  1.00  0.00    -0.354 N 
ATOM     53  N   UNL     1       8.228  -6.306   5.713  1.00  0.00    -0.248 NA
ATOM     54  C   UNL     1       8.414  -7.737   3.878  1.00  0.00     0.031 C 
ATOM     55  C   UNL     1      11.636  -5.051   8.257  1.00  0.00     0.029 A 
ATOM     56  C   UNL     1      10.593  -5.450   7.438  1.00  0.00     0.049 A 
ATOM     57  H   UNL     1       8.566  -4.864   7.480  1.00  0.00     0.167 HD
ATOM     58  C   UNL     1       9.550  -6.713   5.581  1.00  0.00     0.074 A 
ATOM     59  C   UNL     1       9.602  -7.617   4.453  1.00  0.00     0.031 C 
ATOM     60  C   UNL     1      10.626  -6.365   6.328  1.00  0.00     0.037 A 
BRANCH  47  61
ATOM     61  C   UNL     1       9.357  -2.378  10.850  1.00  0.00     0.057 A 
ATOM     62  C   UNL     1       9.062  -2.781  12.159  1.00  0.00     0.134 A 
ATOM     63  C   UNL     1      10.220  -1.288  10.684  1.00  0.00     0.134 A 
ATOM     64  F   UNL     1       8.232  -3.810  12.382  1.00  0.00    -0.206 F 
ATOM     65  C   UNL     1       9.610  -2.125  13.262  1.00  0.00     0.040 A 
ATOM     66  C   UNL     1      10.790  -0.638  11.779  1.00  0.00     0.040 A 
ATOM     67  F   UNL     1      10.544  -0.858   9.456  1.00  0.00    -0.206 F 
ATOM     68  C   UNL     1      10.486  -1.058  13.073  1.00  0.00     0.006 A 
ENDBRANCH  47  61
BRANCH  48  69
ATOM     69  C   UNL     1       5.547  -7.699   3.337  1.00  0.00     0.057 A 
ATOM     70  C   UNL     1       5.530  -9.095   3.434  1.00  0.00     0.134 A 
ATOM     71  C   UNL     1       5.071  -7.130   2.150  1.00  0.00     0.134 A 
ATOM     72  F   UNL     1       5.998  -9.701   4.535  1.00  0.00    -0.206 F 
ATOM     73  C   UNL     1       5.079  -9.896   2.383  1.00  0.00     0.040 A 
ATOM     74  C   UNL     1       4.593  -7.918   1.101  1.00  0.00     0.040 A 
ATOM     75  F   UNL     1       5.064  -5.798   1.991  1.00  0.00    -0.206 F 
ATOM     76  C   UNL     1       4.605  -9.306   1.213  1.00  0.00     0.006 A 
ENDBRANCH  48  69
BRANCH  60  77
ATOM     77  C   UNL     1      11.947  -6.987   5.983  1.00  0.00     0.057 A 
ATOM     78  C   UNL     1      12.675  -6.590   4.855  1.00  0.00     0.134 A 
ATOM     79  C   UNL     1      12.532  -7.937   6.831  1.00  0.00     0.134 A 
ATOM     80  F   UNL     1      12.167  -5.691   3.999  1.00  0.00    -0.206 F 
ATOM     81  C   UNL     1      13.934  -7.126   4.576  1.00  0.00     0.040 A 
ATOM     82  C   UNL     1      13.799  -8.461   6.576  1.00  0.00     0.040 A 
ATOM     83  F   UNL     1      11.891  -8.350   7.935  1.00  0.00    -0.206 F 
ATOM     84  C   UNL     1      14.503  -8.056   5.443  1.00  0.00     0.006 A 
ENDBRANCH  60  77
ENDBRANCH  34  35
ENDBRANCH  27  29
ENDBRANCH  26  27
ENDBRANCH  25  26
ENDBRANCH  24  25
ENDBRANCH   1  24
TORSDOF 16
