REMARK SMILES CCOc1ccc2c(c1)=N[C@H](SCC(=O)OCCOCCOC(=O)c1ccc(-c3c4nc(c(-c5c(F)cccc5F)c5ccc([nH]5)c(-c5c(F)cccc5F)c5nc(c(-c6c(F)cccc6F)c6ccc3[nH]6)C=C5)C=C4)cc1)N=2
REMARK SMILES IDX 18 1 17 2 16 3 14 4 15 5 13 6 12 7 11 8 4 9 5 10 9 11 6 12
REMARK SMILES IDX 8 13 7 14 10 15 79 16 3 17 2 18 1 19 19 20 20 21 21 22 22 23
REMARK SMILES IDX 23 24 24 25 25 26 26 27 78 28 27 29 77 30 28 31 29 32 30 33
REMARK SMILES IDX 71 34 31 35 76 36 70 37 72 38 32 39 75 40 69 41 68 42 33 44
REMARK SMILES IDX 59 45 42 46 58 47 43 48 46 49 57 50 73 51 44 52 45 53 56 55
REMARK SMILES IDX 74 56 47 57 34 58 35 59 40 60 36 61 37 62 39 63 41 64 38 65
REMARK SMILES IDX 60 66 61 67 66 68 62 69 63 70 65 71 67 72 64 73 48 74 49 75
REMARK SMILES IDX 54 76 50 77 51 78 53 79 55 80 52 81
REMARK H PARENT 72 43 46 54
REMARK Flexibility Score: inf
ROOT
ATOM      1  C   UNL     1      11.081  -0.156   6.182  1.00  0.00     0.202 C 
ENDROOT
BRANCH   1   2
ATOM      2  C   UNL     1      10.952   1.336   6.508  1.00  0.00     0.261 C 
BRANCH   2   3
ATOM      3  O   UNL     1       9.623   1.848   6.282  1.00  0.00    -0.463 OA
BRANCH   3   4
ATOM      4  C   UNL     1       9.557   2.987   5.539  1.00  0.00     0.316 C 
ATOM      5  O   UNL     1      10.546   3.588   5.121  1.00  0.00    -0.251 OA
BRANCH   4   6
ATOM      6  C   UNL     1       8.165   3.435   5.153  1.00  0.00     0.196 C 
BRANCH   6   7
ATOM      7  S   UNL     1       6.801   2.955   6.249  1.00  0.00    -0.100 SA
BRANCH   7   8
ATOM      8  C   UNL     1       6.028   1.580   5.312  1.00  0.00     0.282 C 
ATOM      9  C   UNL     1       2.464   0.989   2.585  1.00  0.00     0.121 A 
ATOM     10  C   UNL     1       3.522   1.078   1.593  1.00  0.00     0.049 A 
ATOM     11  C   UNL     1       2.692   1.140   3.899  1.00  0.00     0.076 A 
ATOM     12  C   UNL     1       4.815   1.244   1.905  1.00  0.00     0.034 A 
ATOM     13  C   UNL     1       4.083   1.326   4.335  1.00  0.00     0.090 A 
ATOM     14  C   UNL     1       5.158   1.363   3.325  1.00  0.00     0.087 A 
ATOM     15  N   UNL     1       4.551   1.470   5.525  1.00  0.00    -0.246 NA
ATOM     16  N   UNL     1       6.321   1.513   3.853  1.00  0.00    -0.246 NA
BRANCH   9  17
ATOM     17  O   UNL     1       1.177   0.916   2.096  1.00  0.00    -0.494 OA
BRANCH  17  18
ATOM     18  C   UNL     1       0.807  -0.350   1.534  1.00  0.00     0.226 C 
ATOM     19  C   UNL     1       0.790  -0.282   0.015  1.00  0.00     0.049 C 
ENDBRANCH  17  18
ENDBRANCH   9  17
ENDBRANCH   7   8
ENDBRANCH   6   7
ENDBRANCH   4   6
ENDBRANCH   3   4
ENDBRANCH   2   3
ENDBRANCH   1   2
BRANCH   1  20
ATOM     20  O   UNL     1      10.785  -0.542   4.842  1.00  0.00    -0.374 OA
BRANCH  20  21
ATOM     21  C   UNL     1       9.430  -0.425   4.404  1.00  0.00     0.202 C 
BRANCH  21  22
ATOM     22  C   UNL     1       8.409  -1.335   5.100  1.00  0.00     0.261 C 
BRANCH  22  23
ATOM     23  O   UNL     1       8.252  -1.017   6.498  1.00  0.00    -0.460 OA
BRANCH  23  24
ATOM     24  C   UNL     1       8.339  -2.076   7.339  1.00  0.00     0.338 C 
ATOM     25  O   UNL     1       8.412  -3.258   7.030  1.00  0.00    -0.246 OA
BRANCH  24  26
ATOM     26  C   UNL     1       8.527  -1.620   8.730  1.00  0.00     0.060 A 
ATOM     27  C   UNL     1       7.530  -0.926   9.418  1.00  0.00     0.016 A 
ATOM     28  C   UNL     1       9.705  -2.000   9.386  1.00  0.00     0.016 A 
ATOM     29  C   UNL     1       7.704  -0.650  10.782  1.00  0.00     0.010 A 
ATOM     30  C   UNL     1       9.877  -1.718  10.743  1.00  0.00     0.010 A 
ATOM     31  C   UNL     1       8.867  -1.061  11.460  1.00  0.00    -0.014 A 
BRANCH  31  32
ATOM     32  C   UNL     1       8.989  -0.909  12.935  1.00  0.00     0.031 A 
ATOM     33  C   UNL     1       9.887   0.129  13.546  1.00  0.00     0.074 A 
ATOM     34  C   UNL     1       8.322  -1.761  13.737  1.00  0.00     0.049 A 
ATOM     35  N   UNL     1      10.076   0.416  14.810  1.00  0.00    -0.248 NA
ATOM     36  C   UNL     1      10.687   0.938  12.617  1.00  0.00     0.031 C 
ATOM     37  C   UNL     1       7.465  -2.854  13.276  1.00  0.00     0.029 A 
ATOM     38  N   UNL     1       8.264  -1.846  15.106  1.00  0.00    -0.354 N 
ATOM     39  C   UNL     1      10.997   1.455  14.832  1.00  0.00     0.074 A 
ATOM     40  C   UNL     1      11.372   1.707  13.454  1.00  0.00     0.031 C 
ATOM     41  C   UNL     1       6.952  -3.488  14.343  1.00  0.00     0.029 A 
ATOM     42  C   UNL     1       7.456  -2.860  15.561  1.00  0.00     0.049 A 
ATOM     43  H   UNL     1       8.756  -1.239  15.705  1.00  0.00     0.167 HD
ATOM     44  C   UNL     1      11.472   2.147  15.897  1.00  0.00     0.037 A 
ATOM     45  C   UNL     1       7.151  -3.237  16.817  1.00  0.00     0.037 A 
ATOM     46  C   UNL     1      11.122   1.881  17.271  1.00  0.00     0.049 A 
ATOM     47  C   UNL     1       7.722  -2.477  17.982  1.00  0.00     0.074 A 
ATOM     48  C   UNL     1      11.519   2.561  18.411  1.00  0.00     0.029 A 
ATOM     49  N   UNL     1      10.309   0.841  17.695  1.00  0.00    -0.354 N 
ATOM     50  N   UNL     1       8.513  -1.433  17.983  1.00  0.00    -0.248 NA
ATOM     51  C   UNL     1       7.345  -2.947  19.323  1.00  0.00     0.031 C 
ATOM     52  C   UNL     1      10.986   1.903  19.526  1.00  0.00     0.029 A 
ATOM     53  C   UNL     1      10.215   0.843  19.079  1.00  0.00     0.049 A 
ATOM     54  H   UNL     1       9.864   0.195  17.100  1.00  0.00     0.167 HD
ATOM     55  C   UNL     1       8.703  -1.101  19.319  1.00  0.00     0.074 A 
ATOM     56  C   UNL     1       7.930  -2.046  20.098  1.00  0.00     0.031 C 
ATOM     57  C   UNL     1       9.449  -0.102  19.851  1.00  0.00     0.037 A 
BRANCH  44  58
ATOM     58  C   UNL     1      12.426   3.273  15.615  1.00  0.00     0.057 A 
ATOM     59  C   UNL     1      13.773   3.191  15.990  1.00  0.00     0.134 A 
ATOM     60  C   UNL     1      11.998   4.461  15.005  1.00  0.00     0.134 A 
ATOM     61  F   UNL     1      14.247   2.089  16.589  1.00  0.00    -0.206 F 
ATOM     62  C   UNL     1      14.659   4.246  15.765  1.00  0.00     0.040 A 
ATOM     63  C   UNL     1      12.881   5.513  14.752  1.00  0.00     0.040 A 
ATOM     64  F   UNL     1      10.722   4.604  14.618  1.00  0.00    -0.206 F 
ATOM     65  C   UNL     1      14.215   5.408  15.137  1.00  0.00     0.006 A 
ENDBRANCH  44  58
BRANCH  45  66
ATOM     66  C   UNL     1       6.227  -4.376  17.049  1.00  0.00     0.057 A 
ATOM     67  C   UNL     1       6.613  -5.696  16.789  1.00  0.00     0.134 A 
ATOM     68  C   UNL     1       4.944  -4.167  17.569  1.00  0.00     0.134 A 
ATOM     69  F   UNL     1       7.827  -5.961  16.287  1.00  0.00    -0.206 F 
ATOM     70  C   UNL     1       5.755  -6.768  17.039  1.00  0.00     0.040 A 
ATOM     71  C   UNL     1       4.087  -5.232  17.848  1.00  0.00     0.040 A 
ATOM     72  F   UNL     1       4.528  -2.926  17.859  1.00  0.00    -0.206 F 
ATOM     73  C   UNL     1       4.492  -6.538  17.580  1.00  0.00     0.006 A 
ENDBRANCH  45  66
BRANCH  57  74
ATOM     74  C   UNL     1       9.437   0.035  21.347  1.00  0.00     0.057 A 
ATOM     75  C   UNL     1       8.785   1.114  21.960  1.00  0.00     0.134 A 
ATOM     76  C   UNL     1      10.064  -0.898  22.184  1.00  0.00     0.134 A 
ATOM     77  F   UNL     1       8.169   2.048  21.220  1.00  0.00    -0.206 F 
ATOM     78  C   UNL     1       8.753   1.256  23.349  1.00  0.00     0.040 A 
ATOM     79  C   UNL     1      10.014  -0.782  23.575  1.00  0.00     0.040 A 
ATOM     80  F   UNL     1      10.692  -1.963  21.664  1.00  0.00    -0.206 F 
ATOM     81  C   UNL     1       9.360   0.300  24.161  1.00  0.00     0.006 A 
ENDBRANCH  57  74
ENDBRANCH  31  32
ENDBRANCH  24  26
ENDBRANCH  23  24
ENDBRANCH  22  23
ENDBRANCH  21  22
ENDBRANCH  20  21
ENDBRANCH   1  20
TORSDOF 18
