REMARK SMILES Cc1nc2cc(SCC(=O)OCCOCCOC(=O)c3ccc(-c4c5nc(c(-c6c(F)cccc6F)c6ccc([nH]6)c(-c6c(F)cccc6F)c6nc(c(-c7c(F)cccc7F)c7ccc4[nH]7)C=C6)C=C5)cc3)ccc2s1
REMARK SMILES IDX 14 1 13 2 12 3 11 4 9 5 10 6 8 7 7 8 6 9 1 10 2 11 3 12
REMARK SMILES IDX 77 13 4 14 76 15 5 16 75 17 74 18 15 19 16 20 17 21 18 22
REMARK SMILES IDX 19 23 20 24 21 25 73 26 22 27 72 28 23 29 24 30 25 31 66 32
REMARK SMILES IDX 26 33 71 34 65 35 67 36 27 37 70 38 64 39 63 40 28 42 54 43
REMARK SMILES IDX 37 44 53 45 38 46 41 47 52 48 68 49 39 50 40 51 51 53 69 54
REMARK SMILES IDX 42 55 29 56 30 57 35 58 31 59 32 60 34 61 36 62 33 63 55 64
REMARK SMILES IDX 56 65 61 66 57 67 58 68 60 69 62 70 59 71 43 72 44 73 49 74
REMARK SMILES IDX 45 75 46 76 48 77 50 78 47 79
REMARK H PARENT 67 41 41 52
REMARK Flexibility Score: inf
ROOT
ATOM      1  O   UNL     1       4.567  -2.530   2.909  1.00  0.00    -0.374 OA
ENDROOT
BRANCH   1   2
ATOM      2  C   UNL     1       5.281  -1.558   3.674  1.00  0.00     0.202 C 
BRANCH   2   3
ATOM      3  C   UNL     1       6.388  -0.789   2.942  1.00  0.00     0.261 C 
BRANCH   3   4
ATOM      4  O   UNL     1       5.894   0.065   1.890  1.00  0.00    -0.463 OA
BRANCH   4   5
ATOM      5  C   UNL     1       6.342  -0.206   0.634  1.00  0.00     0.316 C 
ATOM      6  O   UNL     1       7.114  -1.123   0.362  1.00  0.00    -0.251 OA
BRANCH   5   7
ATOM      7  C   UNL     1       5.876   0.754  -0.440  1.00  0.00     0.197 C 
BRANCH   7   8
ATOM      8  S   UNL     1       4.466   1.825  -0.026  1.00  0.00    -0.114 SA
BRANCH   8   9
ATOM      9  C   UNL     1       2.990   0.922  -0.489  1.00  0.00     0.010 A 
ATOM     10  C   UNL     1      -3.087   0.766  -0.037  1.00  0.00     0.079 C 
ATOM     11  C   UNL     1      -1.641   0.562  -0.331  1.00  0.00     0.091 A 
ATOM     12  N   UNL     1      -0.705   1.445  -0.064  1.00  0.00    -0.241 NA
ATOM     13  S   UNL     1      -1.098  -0.907  -1.034  1.00  0.00    -0.119 S 
ATOM     14  C   UNL     1       0.538   0.930  -0.392  1.00  0.00     0.083 A 
ATOM     15  C   UNL     1       0.529  -0.348  -0.948  1.00  0.00     0.055 A 
ATOM     16  C   UNL     1       1.778   1.567  -0.182  1.00  0.00     0.045 A 
ATOM     17  C   UNL     1       1.718  -0.994  -1.321  1.00  0.00     0.022 A 
ATOM     18  C   UNL     1       2.941  -0.341  -1.080  1.00  0.00     0.016 A 
ENDBRANCH   8   9
ENDBRANCH   7   8
ENDBRANCH   5   7
ENDBRANCH   4   5
ENDBRANCH   3   4
ENDBRANCH   2   3
ENDBRANCH   1   2
BRANCH   1  19
ATOM     19  C   UNL     1       3.658  -2.042   1.925  1.00  0.00     0.202 C 
BRANCH  19  20
ATOM     20  C   UNL     1       2.343  -1.463   2.452  1.00  0.00     0.261 C 
BRANCH  20  21
ATOM     21  O   UNL     1       2.557  -0.340   3.319  1.00  0.00    -0.460 OA
BRANCH  21  22
ATOM     22  C   UNL     1       1.894  -0.423   4.491  1.00  0.00     0.338 C 
ATOM     23  O   UNL     1       1.044  -1.245   4.814  1.00  0.00    -0.246 OA
BRANCH  22  24
ATOM     24  C   UNL     1       2.454   0.529   5.457  1.00  0.00     0.060 A 
ATOM     25  C   UNL     1       3.005  -0.004   6.628  1.00  0.00     0.016 A 
ATOM     26  C   UNL     1       2.332   1.909   5.283  1.00  0.00     0.016 A 
ATOM     27  C   UNL     1       3.369   0.845   7.666  1.00  0.00     0.010 A 
ATOM     28  C   UNL     1       2.697   2.761   6.330  1.00  0.00     0.010 A 
ATOM     29  C   UNL     1       3.171   2.227   7.541  1.00  0.00    -0.014 A 
BRANCH  29  30
ATOM     30  C   UNL     1       3.319   3.071   8.749  1.00  0.00     0.031 A 
ATOM     31  C   UNL     1       2.094   3.421   9.548  1.00  0.00     0.074 A 
ATOM     32  C   UNL     1       4.540   3.440   9.172  1.00  0.00     0.049 A 
ATOM     33  N   UNL     1       2.001   4.059  10.686  1.00  0.00    -0.248 NA
ATOM     34  C   UNL     1       0.801   2.991   8.991  1.00  0.00     0.031 C 
ATOM     35  C   UNL     1       5.796   3.134   8.488  1.00  0.00     0.029 A 
ATOM     36  N   UNL     1       4.922   4.141  10.286  1.00  0.00    -0.354 N 
ATOM     37  C   UNL     1       0.645   4.098  10.986  1.00  0.00     0.074 A 
ATOM     38  C   UNL     1      -0.051   3.455   9.893  1.00  0.00     0.031 C 
ATOM     39  C   UNL     1       6.815   3.639   9.205  1.00  0.00     0.029 A 
ATOM     40  C   UNL     1       6.280   4.314  10.386  1.00  0.00     0.049 A 
ATOM     41  H   UNL     1       4.284   4.487  10.951  1.00  0.00     0.167 HD
ATOM     42  C   UNL     1       0.036   4.610  12.082  1.00  0.00     0.037 A 
ATOM     43  C   UNL     1       7.006   4.945  11.327  1.00  0.00     0.037 A 
ATOM     44  C   UNL     1       0.733   5.252  13.164  1.00  0.00     0.049 A 
ATOM     45  C   UNL     1       6.302   5.548  12.512  1.00  0.00     0.074 A 
ATOM     46  C   UNL     1       0.215   5.793  14.328  1.00  0.00     0.029 A 
ATOM     47  N   UNL     1       2.106   5.446  13.209  1.00  0.00    -0.354 N 
ATOM     48  N   UNL     1       5.024   5.545  12.805  1.00  0.00    -0.248 NA
ATOM     49  C   UNL     1       7.143   6.236  13.502  1.00  0.00     0.031 C 
ATOM     50  C   UNL     1       1.271   6.351  15.057  1.00  0.00     0.029 A 
ATOM     51  C   UNL     1       2.451   6.120  14.368  1.00  0.00     0.049 A 
ATOM     52  H   UNL     1       2.741   5.148  12.518  1.00  0.00     0.167 HD
ATOM     53  C   UNL     1       4.908   6.211  14.017  1.00  0.00     0.074 A 
ATOM     54  C   UNL     1       6.249   6.588  14.415  1.00  0.00     0.031 C 
ATOM     55  C   UNL     1       3.794   6.489  14.738  1.00  0.00     0.037 A 
BRANCH  42  56
ATOM     56  C   UNL     1      -1.459   4.510  12.149  1.00  0.00     0.057 A 
ATOM     57  C   UNL     1      -2.107   3.291  12.391  1.00  0.00     0.134 A 
ATOM     58  C   UNL     1      -2.261   5.646  11.986  1.00  0.00     0.134 A 
ATOM     59  F   UNL     1      -1.398   2.162  12.541  1.00  0.00    -0.206 F 
ATOM     60  C   UNL     1      -3.500   3.203  12.445  1.00  0.00     0.040 A 
ATOM     61  C   UNL     1      -3.653   5.574  12.060  1.00  0.00     0.040 A 
ATOM     62  F   UNL     1      -1.704   6.844  11.754  1.00  0.00    -0.206 F 
ATOM     63  C   UNL     1      -4.277   4.348  12.284  1.00  0.00     0.006 A 
ENDBRANCH  42  56
BRANCH  43  64
ATOM     64  C   UNL     1       8.481   5.030  11.192  1.00  0.00     0.057 A 
ATOM     65  C   UNL     1       9.334   4.319  12.043  1.00  0.00     0.134 A 
ATOM     66  C   UNL     1       9.073   5.832  10.208  1.00  0.00     0.134 A 
ATOM     67  F   UNL     1       8.826   3.550  13.018  1.00  0.00    -0.206 F 
ATOM     68  C   UNL     1      10.722   4.411  11.930  1.00  0.00     0.040 A 
ATOM     69  C   UNL     1      10.459   5.916  10.069  1.00  0.00     0.040 A 
ATOM     70  F   UNL     1       8.310   6.537   9.360  1.00  0.00    -0.206 F 
ATOM     71  C   UNL     1      11.288   5.208  10.937  1.00  0.00     0.006 A 
ENDBRANCH  43  64
BRANCH  55  72
ATOM     72  C   UNL     1       3.986   7.223  16.032  1.00  0.00     0.057 A 
ATOM     73  C   UNL     1       4.305   8.586  16.062  1.00  0.00     0.134 A 
ATOM     74  C   UNL     1       3.822   6.567  17.258  1.00  0.00     0.134 A 
ATOM     75  F   UNL     1       4.489   9.267  14.921  1.00  0.00    -0.206 F 
ATOM     76  C   UNL     1       4.478   9.267  17.268  1.00  0.00     0.040 A 
ATOM     77  C   UNL     1       3.968   7.242  18.470  1.00  0.00     0.040 A 
ATOM     78  F   UNL     1       3.507   5.264  17.297  1.00  0.00    -0.206 F 
ATOM     79  C   UNL     1       4.304   8.595  18.477  1.00  0.00     0.006 A 
ENDBRANCH  55  72
ENDBRANCH  29  30
ENDBRANCH  22  24
ENDBRANCH  21  22
ENDBRANCH  20  21
ENDBRANCH  19  20
ENDBRANCH   1  19
TORSDOF 16
