REMARK SMILES O=C(OCCOCCOC(=O)[C@@H]1CS[C@H](c2ncc(-c3ccccc3)s2)[NH2+]1)c1ccc(-c2c3nc(c(-c4c(F)cccc4F)c4ccc([nH]4)c(-c4c(F)cccc4F)c4nc(c(-c5c(F)cccc5F)c5ccc2[nH]5)C=C4)C=C3)cc1
REMARK SMILES IDX 6 1 5 2 4 3 3 4 2 5 1 6 28 7 29 8 81 9 30 10 80 11 31 12
REMARK SMILES IDX 32 13 33 14 74 15 34 16 79 17 73 18 75 19 35 20 78 21 72 22
REMARK SMILES IDX 71 23 36 25 62 26 45 27 61 28 46 29 49 30 60 31 76 32 47 33
REMARK SMILES IDX 48 34 59 36 77 37 50 38 37 39 38 40 43 41 39 42 40 43 42 44
REMARK SMILES IDX 44 45 41 46 63 47 64 48 69 49 65 50 66 51 68 52 70 53 67 54
REMARK SMILES IDX 51 55 52 56 57 57 53 58 54 59 56 60 58 61 55 62 7 63 8 64
REMARK SMILES IDX 9 65 10 66 11 67 12 68 13 69 27 70 14 71 15 72 16 75 17 76
REMARK SMILES IDX 26 77 18 78 19 79 20 80 21 81 25 82 22 83 24 84 23 85
REMARK H PARENT 75 24 49 35 27 73 27 74
REMARK Flexibility Score: inf
ROOT
ATOM      1  O   UNL     1       7.358  -2.268   4.046  1.00  0.00    -0.374 OA
ENDROOT
BRANCH   1   2
ATOM      2  C   UNL     1       7.402  -1.205   3.098  1.00  0.00     0.202 C 
BRANCH   2   3
ATOM      3  C   UNL     1       8.730  -1.063   2.353  1.00  0.00     0.261 C 
BRANCH   3   4
ATOM      4  O   UNL     1       9.130  -2.319   1.794  1.00  0.00    -0.460 OA
BRANCH   4   5
ATOM      5  C   UNL     1       9.969  -3.211   2.373  1.00  0.00     0.338 C 
ATOM      6  O   UNL     1      10.144  -4.307   1.846  1.00  0.00    -0.246 OA
BRANCH   5   7
ATOM      7  C   UNL     1      10.743  -2.892   3.603  1.00  0.00     0.060 A 
ATOM      8  C   UNL     1      10.211  -2.235   4.714  1.00  0.00     0.016 A 
ATOM      9  C   UNL     1      12.053  -3.384   3.685  1.00  0.00     0.016 A 
ATOM     10  C   UNL     1      10.941  -2.040   5.864  1.00  0.00     0.010 A 
ATOM     11  C   UNL     1      12.789  -3.234   4.862  1.00  0.00     0.010 A 
ATOM     12  C   UNL     1      12.216  -2.575   5.954  1.00  0.00    -0.014 A 
BRANCH  12  13
ATOM     13  C   UNL     1      12.909  -2.383   7.228  1.00  0.00     0.031 A 
ATOM     14  C   UNL     1      13.940  -1.315   7.312  1.00  0.00     0.074 A 
ATOM     15  C   UNL     1      12.472  -3.069   8.299  1.00  0.00     0.049 A 
ATOM     16  N   UNL     1      14.734  -1.022   8.301  1.00  0.00    -0.248 NA
ATOM     17  C   UNL     1      14.098  -0.454   6.126  1.00  0.00     0.031 C 
ATOM     18  C   UNL     1      11.349  -4.016   8.293  1.00  0.00     0.029 A 
ATOM     19  N   UNL     1      12.877  -3.047   9.603  1.00  0.00    -0.354 N 
ATOM     20  C   UNL     1      15.541   0.002   7.831  1.00  0.00     0.074 A 
ATOM     21  C   UNL     1      15.108   0.321   6.490  1.00  0.00     0.031 C 
ATOM     22  C   UNL     1      11.137  -4.454   9.543  1.00  0.00     0.029 A 
ATOM     23  C   UNL     1      12.165  -3.899  10.412  1.00  0.00     0.049 A 
ATOM     24  H   UNL     1      13.609  -2.476   9.931  1.00  0.00     0.167 HD
ATOM     25  C   UNL     1      16.584   0.574   8.470  1.00  0.00     0.037 A 
ATOM     26  C   UNL     1      12.373  -4.222  11.701  1.00  0.00     0.037 A 
ATOM     27  C   UNL     1      16.954   0.220   9.813  1.00  0.00     0.049 A 
ATOM     28  C   UNL     1      13.570  -3.602  12.370  1.00  0.00     0.074 A 
ATOM     29  C   UNL     1      18.015   0.676  10.567  1.00  0.00     0.029 A 
ATOM     30  N   UNL     1      16.256  -0.692  10.598  1.00  0.00    -0.354 N 
ATOM     31  N   UNL     1      14.393  -2.688  11.906  1.00  0.00    -0.248 NA
ATOM     32  C   UNL     1      13.903  -4.086  13.714  1.00  0.00     0.031 C 
ATOM     33  C   UNL     1      17.993  -0.004  11.789  1.00  0.00     0.029 A 
ATOM     34  C   UNL     1      16.885  -0.841  11.819  1.00  0.00     0.049 A 
ATOM     35  H   UNL     1      15.435  -1.161  10.325  1.00  0.00     0.167 HD
ATOM     36  C   UNL     1      15.348  -2.497  12.893  1.00  0.00     0.074 A 
ATOM     37  C   UNL     1      14.972  -3.355  14.001  1.00  0.00     0.031 C 
ATOM     38  C   UNL     1      16.452  -1.710  12.885  1.00  0.00     0.037 A 
BRANCH  25  39
ATOM     39  C   UNL     1      17.443   1.512   7.683  1.00  0.00     0.057 A 
ATOM     40  C   UNL     1      17.034   2.801   7.325  1.00  0.00     0.134 A 
ATOM     41  C   UNL     1      18.708   1.092   7.250  1.00  0.00     0.134 A 
ATOM     42  F   UNL     1      15.820   3.252   7.675  1.00  0.00    -0.206 F 
ATOM     43  C   UNL     1      17.848   3.635   6.554  1.00  0.00     0.040 A 
ATOM     44  C   UNL     1      19.539   1.923   6.498  1.00  0.00     0.040 A 
ATOM     45  F   UNL     1      19.153  -0.140   7.542  1.00  0.00    -0.206 F 
ATOM     46  C   UNL     1      19.107   3.198   6.144  1.00  0.00     0.006 A 
ENDBRANCH  25  39
BRANCH  26  47
ATOM     47  C   UNL     1      11.521  -5.226  12.392  1.00  0.00     0.057 A 
ATOM     48  C   UNL     1      10.789  -4.895  13.539  1.00  0.00     0.134 A 
ATOM     49  C   UNL     1      11.442  -6.555  11.951  1.00  0.00     0.134 A 
ATOM     50  F   UNL     1      10.827  -3.645  14.025  1.00  0.00    -0.206 F 
ATOM     51  C   UNL     1      10.040  -5.848  14.234  1.00  0.00     0.040 A 
ATOM     52  C   UNL     1      10.667  -7.509  12.612  1.00  0.00     0.040 A 
ATOM     53  F   UNL     1      12.116  -6.950  10.860  1.00  0.00    -0.206 F 
ATOM     54  C   UNL     1       9.973  -7.159  13.767  1.00  0.00     0.006 A 
ENDBRANCH  26  47
BRANCH  38  55
ATOM     55  C   UNL     1      17.314  -1.751  14.108  1.00  0.00     0.057 A 
ATOM     56  C   UNL     1      18.144  -2.846  14.379  1.00  0.00     0.134 A 
ATOM     57  C   UNL     1      17.376  -0.651  14.970  1.00  0.00     0.134 A 
ATOM     58  F   UNL     1      18.115  -3.933  13.593  1.00  0.00    -0.206 F 
ATOM     59  C   UNL     1      19.003  -2.847  15.475  1.00  0.00     0.040 A 
ATOM     60  C   UNL     1      18.253  -0.629  16.052  1.00  0.00     0.040 A 
ATOM     61  F   UNL     1      16.612   0.430  14.753  1.00  0.00    -0.206 F 
ATOM     62  C   UNL     1      19.069  -1.731  16.308  1.00  0.00     0.006 A 
ENDBRANCH  38  55
ENDBRANCH  12  13
ENDBRANCH   5   7
ENDBRANCH   4   5
ENDBRANCH   3   4
ENDBRANCH   2   3
ENDBRANCH   1   2
BRANCH   1  63
ATOM     63  C   UNL     1       6.902  -3.531   3.569  1.00  0.00     0.202 C 
BRANCH  63  64
ATOM     64  C   UNL     1       5.540  -3.848   4.181  1.00  0.00     0.261 C 
BRANCH  64  65
ATOM     65  O   UNL     1       4.606  -2.803   3.846  1.00  0.00    -0.459 OA
BRANCH  65  66
ATOM     66  C   UNL     1       4.560  -1.774   4.751  1.00  0.00     0.365 C 
ATOM     67  O   UNL     1       5.171  -1.750   5.804  1.00  0.00    -0.245 OA
BRANCH  66  68
ATOM     68  C   UNL     1       3.681  -0.639   4.213  1.00  0.00     0.304 C 
ATOM     69  C   UNL     1       4.542   0.494   3.651  1.00  0.00     0.153 C 
ATOM     70  N   UNL     1       2.752  -0.141   5.282  1.00  0.00    -0.317 N 
ATOM     71  S   UNL     1       3.655   1.984   4.123  1.00  0.00    -0.085 SA
ATOM     72  C   UNL     1       3.189   1.208   5.707  1.00  0.00     0.303 C 
ATOM     73  H   UNL     1       2.777  -0.776   6.080  1.00  0.00     0.348 HD
ATOM     74  H   UNL     1       1.800  -0.098   4.919  1.00  0.00     0.348 HD
BRANCH  72  75
ATOM     75  C   UNL     1       4.325   1.237   6.729  1.00  0.00     0.162 A 
ATOM     76  N   UNL     1       5.361   2.060   6.686  1.00  0.00    -0.242 NA
ATOM     77  S   UNL     1       4.320   0.181   8.107  1.00  0.00    -0.112 S 
ATOM     78  C   UNL     1       6.270   1.727   7.669  1.00  0.00     0.132 A 
ATOM     79  C   UNL     1       5.929   0.652   8.463  1.00  0.00     0.055 A 
BRANCH  79  80
ATOM     80  C   UNL     1       6.753  -0.059   9.434  1.00  0.00    -0.007 A 
ATOM     81  C   UNL     1       7.870  -0.778   8.981  1.00  0.00     0.009 A 
ATOM     82  C   UNL     1       6.501   0.007  10.808  1.00  0.00     0.009 A 
ATOM     83  C   UNL     1       8.729  -1.403   9.885  1.00  0.00     0.001 A 
ATOM     84  C   UNL     1       7.362  -0.625  11.713  1.00  0.00     0.001 A 
ATOM     85  C   UNL     1       8.476  -1.325  11.252  1.00  0.00     0.000 A 
ENDBRANCH  79  80
ENDBRANCH  72  75
ENDBRANCH  66  68
ENDBRANCH  65  66
ENDBRANCH  64  65
ENDBRANCH  63  64
ENDBRANCH   1  63
TORSDOF 16
