REMARK SMILES Cc1csc(=O)n1CC(=O)N[C@@H](C(=O)OCCOCCOC(=O)c1ccc(-c2c3nc(c(-c4c(F)cccc4F)c4ccc([nH]4)c(-c4c(F)cccc4F)c4nc(c(-c5c(F)cccc5F)c5ccc2[nH]5)C=C4)C=C3)cc1)[C@@H](C)O
REMARK SMILES IDX 17 1 16 2 15 3 13 4 14 5 12 6 11 7 9 8 10 9 8 11 7 12 1 13
REMARK SMILES IDX 2 14 3 15 4 16 5 17 6 18 78 19 79 20 80 21 18 23 19 24 20 25
REMARK SMILES IDX 21 26 22 27 23 28 24 29 25 30 77 31 26 32 76 33 27 34 28 35
REMARK SMILES IDX 29 36 70 37 30 38 75 39 69 40 71 41 31 42 74 43 68 44 67 45
REMARK SMILES IDX 32 47 58 48 41 49 57 50 42 51 45 52 56 53 72 54 43 55 44 56
REMARK SMILES IDX 55 58 73 59 46 60 33 61 34 62 39 63 35 64 36 65 38 66 40 67
REMARK SMILES IDX 37 68 59 69 60 70 65 71 61 72 62 73 64 74 66 75 63 76 47 77
REMARK SMILES IDX 48 78 53 79 49 80 50 81 52 82 54 83 51 84
REMARK H PARENT 11 10 80 22 71 46 45 57
REMARK Flexibility Score: inf
ROOT
ATOM      1  C   UNL     1      -3.788   2.846  -3.126  1.00  0.00     0.202 C 
ENDROOT
BRANCH   1   2
ATOM      2  C   UNL     1      -2.941   2.255  -1.998  1.00  0.00     0.261 C 
BRANCH   2   3
ATOM      3  O   UNL     1      -1.527   2.324  -2.263  1.00  0.00    -0.462 OA
BRANCH   3   4
ATOM      4  C   UNL     1      -0.892   1.124  -2.298  1.00  0.00     0.331 C 
ATOM      5  O   UNL     1      -1.432   0.041  -2.083  1.00  0.00    -0.250 OA
BRANCH   4   6
ATOM      6  C   UNL     1       0.579   1.203  -2.729  1.00  0.00     0.221 C 
BRANCH   6   7
ATOM      7  N   UNL     1       1.124   2.550  -2.870  1.00  0.00    -0.339 N 
ATOM      8  C   UNL     1       2.004   3.171  -2.028  1.00  0.00     0.240 C 
ATOM      9  O   UNL     1       2.603   4.160  -2.453  1.00  0.00    -0.273 OA
ATOM     10  H   UNL     1       0.828   3.065  -3.655  1.00  0.00     0.164 HD
BRANCH   8  11
ATOM     11  C   UNL     1       2.309   2.566  -0.643  1.00  0.00     0.226 C 
BRANCH  11  12
ATOM     12  N   UNL     1       1.101   2.450   0.162  1.00  0.00    -0.294 N 
ATOM     13  C   UNL     1       1.154  -0.072   0.570  1.00  0.00     0.065 C 
ATOM     14  C   UNL     1       0.562   1.293   0.718  1.00  0.00     0.029 A 
ATOM     15  C   UNL     1      -0.545   1.528   1.439  1.00  0.00     0.091 A 
ATOM     16  S   UNL     1      -0.957   3.208   1.498  1.00  0.00    -0.082 S 
ATOM     17  C   UNL     1       0.453   3.639   0.522  1.00  0.00     0.307 A 
ATOM     18  O   UNL     1       0.752   4.771   0.231  1.00  0.00    -0.257 OA
ENDBRANCH  11  12
ENDBRANCH   8  11
ENDBRANCH   6   7
BRANCH   6  19
ATOM     19  C   UNL     1       0.813   0.344  -3.997  1.00  0.00     0.145 C 
ATOM     20  C   UNL     1       2.307   0.181  -4.273  1.00  0.00     0.041 C 
BRANCH  19  21
ATOM     21  O   UNL     1       0.314  -0.992  -3.861  1.00  0.00    -0.391 OA
ATOM     22  H   UNL     1       0.790  -1.443  -3.147  1.00  0.00     0.211 HD
ENDBRANCH  19  21
ENDBRANCH   6  19
ENDBRANCH   4   6
ENDBRANCH   3   4
ENDBRANCH   2   3
ENDBRANCH   1   2
BRANCH   1  23
ATOM     23  O   UNL     1      -3.688   2.272  -4.428  1.00  0.00    -0.374 OA
BRANCH  23  24
ATOM     24  C   UNL     1      -2.445   2.245  -5.116  1.00  0.00     0.202 C 
BRANCH  24  25
ATOM     25  C   UNL     1      -1.839   3.559  -5.594  1.00  0.00     0.261 C 
BRANCH  25  26
ATOM     26  O   UNL     1      -1.609   4.461  -4.524  1.00  0.00    -0.460 OA
BRANCH  26  27
ATOM     27  C   UNL     1      -2.561   5.419  -4.422  1.00  0.00     0.338 C 
ATOM     28  O   UNL     1      -3.629   5.458  -5.010  1.00  0.00    -0.246 OA
BRANCH  27  29
ATOM     29  C   UNL     1      -2.046   6.522  -3.607  1.00  0.00     0.060 A 
ATOM     30  C   UNL     1      -2.786   7.700  -3.701  1.00  0.00     0.016 A 
ATOM     31  C   UNL     1      -0.722   6.498  -3.146  1.00  0.00     0.016 A 
ATOM     32  C   UNL     1      -2.100   8.884  -3.647  1.00  0.00     0.010 A 
ATOM     33  C   UNL     1      -0.035   7.686  -3.096  1.00  0.00     0.010 A 
ATOM     34  C   UNL     1      -0.713   8.844  -3.461  1.00  0.00    -0.014 A 
BRANCH  34  35
ATOM     35  C   UNL     1      -0.011  10.094  -3.624  1.00  0.00     0.031 A 
ATOM     36  C   UNL     1      -0.271  11.040  -2.522  1.00  0.00     0.074 A 
ATOM     37  C   UNL     1       0.811  10.328  -4.661  1.00  0.00     0.049 A 
ATOM     38  N   UNL     1      -0.880  12.177  -2.575  1.00  0.00    -0.248 NA
ATOM     39  C   UNL     1       0.036  10.571  -1.162  1.00  0.00     0.031 C 
ATOM     40  C   UNL     1       1.343   9.375  -5.639  1.00  0.00     0.029 A 
ATOM     41  N   UNL     1       1.430  11.488  -4.995  1.00  0.00    -0.354 N 
ATOM     42  C   UNL     1      -0.858  12.660  -1.272  1.00  0.00     0.074 A 
ATOM     43  C   UNL     1      -0.455  11.567  -0.429  1.00  0.00     0.031 C 
ATOM     44  C   UNL     1       2.376   9.951  -6.298  1.00  0.00     0.029 A 
ATOM     45  C   UNL     1       2.489  11.337  -5.875  1.00  0.00     0.049 A 
ATOM     46  H   UNL     1       1.150  12.364  -4.642  1.00  0.00     0.167 HD
ATOM     47  C   UNL     1      -0.913  13.993  -1.019  1.00  0.00     0.037 A 
ATOM     48  C   UNL     1       3.436  12.271  -6.135  1.00  0.00     0.037 A 
ATOM     49  C   UNL     1      -1.500  14.716  -2.117  1.00  0.00     0.049 A 
ATOM     50  C   UNL     1       2.906  13.587  -5.689  1.00  0.00     0.074 A 
ATOM     51  C   UNL     1      -2.724  14.678  -2.758  1.00  0.00     0.029 A 
ATOM     52  N   UNL     1      -0.664  15.408  -2.959  1.00  0.00    -0.354 N 
ATOM     53  N   UNL     1       1.924  14.216  -6.273  1.00  0.00    -0.248 NA
ATOM     54  C   UNL     1       3.174  13.993  -4.316  1.00  0.00     0.031 C 
ATOM     55  C   UNL     1      -2.434  14.921  -4.133  1.00  0.00     0.029 A 
ATOM     56  C   UNL     1      -1.060  15.133  -4.243  1.00  0.00     0.049 A 
ATOM     57  H   UNL     1       0.081  15.992  -2.690  1.00  0.00     0.167 HD
ATOM     58  C   UNL     1       1.193  14.778  -5.235  1.00  0.00     0.074 A 
ATOM     59  C   UNL     1       2.058  14.682  -4.063  1.00  0.00     0.031 C 
ATOM     60  C   UNL     1      -0.148  15.008  -5.356  1.00  0.00     0.037 A 
BRANCH  47  61
ATOM     61  C   UNL     1      -0.070  14.652   0.043  1.00  0.00     0.057 A 
ATOM     62  C   UNL     1      -0.261  16.015   0.317  1.00  0.00     0.134 A 
ATOM     63  C   UNL     1       1.105  14.089   0.592  1.00  0.00     0.134 A 
ATOM     64  F   UNL     1      -1.331  16.669  -0.160  1.00  0.00    -0.206 F 
ATOM     65  C   UNL     1       0.684  16.778   1.012  1.00  0.00     0.040 A 
ATOM     66  C   UNL     1       2.026  14.829   1.334  1.00  0.00     0.040 A 
ATOM     67  F   UNL     1       1.483  12.828   0.360  1.00  0.00    -0.206 F 
ATOM     68  C   UNL     1       1.836  16.187   1.516  1.00  0.00     0.006 A 
ENDBRANCH  47  61
BRANCH  48  69
ATOM     69  C   UNL     1       4.875  12.049  -6.406  1.00  0.00     0.057 A 
ATOM     70  C   UNL     1       5.674  13.062  -6.952  1.00  0.00     0.134 A 
ATOM     71  C   UNL     1       5.560  10.933  -5.891  1.00  0.00     0.134 A 
ATOM     72  F   UNL     1       5.118  14.187  -7.425  1.00  0.00    -0.206 F 
ATOM     73  C   UNL     1       7.073  12.978  -6.970  1.00  0.00     0.040 A 
ATOM     74  C   UNL     1       6.954  10.832  -5.911  1.00  0.00     0.040 A 
ATOM     75  F   UNL     1       4.906   9.942  -5.269  1.00  0.00    -0.206 F 
ATOM     76  C   UNL     1       7.718  11.864  -6.440  1.00  0.00     0.006 A 
ENDBRANCH  48  69
BRANCH  60  77
ATOM     77  C   UNL     1      -0.762  14.859  -6.721  1.00  0.00     0.057 A 
ATOM     78  C   UNL     1      -0.818  13.644  -7.421  1.00  0.00     0.134 A 
ATOM     79  C   UNL     1      -1.453  15.941  -7.275  1.00  0.00     0.134 A 
ATOM     80  F   UNL     1      -0.275  12.529  -6.918  1.00  0.00    -0.206 F 
ATOM     81  C   UNL     1      -1.492  13.526  -8.640  1.00  0.00     0.040 A 
ATOM     82  C   UNL     1      -2.159  15.827  -8.476  1.00  0.00     0.040 A 
ATOM     83  F   UNL     1      -1.495  17.119  -6.632  1.00  0.00    -0.206 F 
ATOM     84  C   UNL     1      -2.172  14.619  -9.168  1.00  0.00     0.006 A 
ENDBRANCH  60  77
ENDBRANCH  34  35
ENDBRANCH  27  29
ENDBRANCH  26  27
ENDBRANCH  25  26
ENDBRANCH  24  25
ENDBRANCH  23  24
ENDBRANCH   1  23
TORSDOF 19
