REMARK SMILES CC(C)c1noc(C[N@@H+]2[C@@H](C(=O)OCCOCCOC(=O)c3ccc(-c4c5nc(c(-c6c(F)cccc6F)c6ccc([nH]6)c(-c6c(F)cccc6F)c6nc(c(-c7c(F)cccc7F)c7ccc4[nH]7)C=C6)C=C5)cc3)C[C@H]3CCCC[C@@H]32)n1
REMARK SMILES IDX 15 1 14 2 13 3 11 4 12 5 10 6 9 7 82 8 76 10 77 11 81 12
REMARK SMILES IDX 78 13 80 14 79 15 8 16 7 17 4 18 5 19 83 20 6 21 2 22 1 23
REMARK SMILES IDX 3 24 16 25 17 26 18 27 19 28 20 29 21 30 22 31 23 32 75 33
REMARK SMILES IDX 24 34 74 35 25 36 26 37 27 38 68 39 28 40 73 41 67 42 69 43
REMARK SMILES IDX 29 44 72 45 66 46 65 47 30 49 56 50 39 51 55 52 40 53 43 54
REMARK SMILES IDX 54 55 70 56 41 57 42 58 53 60 71 61 44 62 31 63 32 64 37 65
REMARK SMILES IDX 33 66 34 67 36 68 38 69 35 70 57 71 58 72 63 73 59 74 60 75
REMARK SMILES IDX 62 76 64 77 61 78 45 79 46 80 51 81 47 82 48 83 50 84 52 85
REMARK SMILES IDX 49 86
REMARK H PARENT 9 9 69 48 43 59
REMARK Flexibility Score: inf
ROOT
ATOM      1  C   UNL     1      -9.670  -0.015   0.878  1.00  0.00     0.202 C 
ENDROOT
BRANCH   1   2
ATOM      2  C   UNL     1      -8.619   0.776   1.657  1.00  0.00     0.261 C 
BRANCH   2   3
ATOM      3  O   UNL     1      -7.405   0.901   0.897  1.00  0.00    -0.459 OA
BRANCH   3   4
ATOM      4  C   UNL     1      -6.327   0.261   1.436  1.00  0.00     0.365 C 
ATOM      5  O   UNL     1      -6.309  -0.241   2.554  1.00  0.00    -0.245 OA
BRANCH   4   6
ATOM      6  C   UNL     1      -5.132   0.273   0.452  1.00  0.00     0.296 C 
ATOM      7  N   UNL     1      -4.670  -1.127   0.208  1.00  0.00    -0.313 N 
ATOM      8  C   UNL     1      -3.751  -1.397   1.323  1.00  0.00     0.188 C 
ATOM      9  H   UNL     1      -5.434  -1.802   0.212  1.00  0.00     0.349 HD
ATOM     10  C   UNL     1      -3.984   1.010   1.153  1.00  0.00     0.087 C 
ATOM     11  C   UNL     1      -2.989  -0.085   1.516  1.00  0.00     0.054 C 
ATOM     12  C   UNL     1      -2.793  -2.584   1.355  1.00  0.00     0.065 C 
ATOM     13  C   UNL     1      -2.390  -0.046   2.911  1.00  0.00     0.010 C 
ATOM     14  C   UNL     1      -2.037  -2.583   2.696  1.00  0.00     0.006 C 
ATOM     15  C   UNL     1      -1.420  -1.224   3.066  1.00  0.00     0.001 C 
BRANCH   7  16
ATOM     16  C   UNL     1      -4.180  -1.396  -1.159  1.00  0.00     0.364 C 
BRANCH  16  17
ATOM     17  C   UNL     1      -2.884  -0.786  -1.577  1.00  0.00     0.281 A 
ATOM     18  C   UNL     1      -0.890  -0.211  -1.840  1.00  0.00     0.174 A 
ATOM     19  N   UNL     1      -1.574   0.878  -2.220  1.00  0.00    -0.062 NA
ATOM     20  N   UNL     1      -1.669  -1.278  -1.481  1.00  0.00    -0.191 NA
ATOM     21  O   UNL     1      -2.910   0.493  -2.052  1.00  0.00    -0.333 OA
BRANCH  18  22
ATOM     22  C   UNL     1       0.595  -0.224  -1.681  1.00  0.00     0.055 C 
ATOM     23  C   UNL     1       0.984   0.065  -0.228  1.00  0.00     0.016 C 
ATOM     24  C   UNL     1       1.207  -1.556  -2.121  1.00  0.00     0.016 C 
ENDBRANCH  18  22
ENDBRANCH  16  17
ENDBRANCH   7  16
ENDBRANCH   4   6
ENDBRANCH   3   4
ENDBRANCH   2   3
ENDBRANCH   1   2
BRANCH   1  25
ATOM     25  O   UNL     1      -9.351  -1.374   0.589  1.00  0.00    -0.374 OA
BRANCH  25  26
ATOM     26  C   UNL     1      -8.442  -1.626  -0.485  1.00  0.00     0.202 C 
BRANCH  26  27
ATOM     27  C   UNL     1      -9.014  -1.498  -1.901  1.00  0.00     0.261 C 
BRANCH  27  28
ATOM     28  O   UNL     1      -9.347  -0.136  -2.229  1.00  0.00    -0.460 OA
BRANCH  28  29
ATOM     29  C   UNL     1     -10.671   0.108  -2.371  1.00  0.00     0.338 C 
ATOM     30  O   UNL     1     -11.584  -0.707  -2.336  1.00  0.00    -0.246 OA
BRANCH  29  31
ATOM     31  C   UNL     1     -10.921   1.560  -2.404  1.00  0.00     0.060 A 
ATOM     32  C   UNL     1     -11.849   2.078  -1.489  1.00  0.00     0.016 A 
ATOM     33  C   UNL     1     -10.332   2.388  -3.360  1.00  0.00     0.016 A 
ATOM     34  C   UNL     1     -12.230   3.415  -1.561  1.00  0.00     0.010 A 
ATOM     35  C   UNL     1     -10.725   3.729  -3.439  1.00  0.00     0.010 A 
ATOM     36  C   UNL     1     -11.703   4.238  -2.564  1.00  0.00    -0.014 A 
BRANCH  36  37
ATOM     37  C   UNL     1     -12.291   5.580  -2.790  1.00  0.00     0.031 A 
ATOM     38  C   UNL     1     -13.320   5.750  -3.875  1.00  0.00     0.074 A 
ATOM     39  C   UNL     1     -11.934   6.628  -2.026  1.00  0.00     0.049 A 
ATOM     40  N   UNL     1     -13.940   6.833  -4.268  1.00  0.00    -0.248 NA
ATOM     41  C   UNL     1     -13.699   4.537  -4.618  1.00  0.00     0.031 C 
ATOM     42  C   UNL     1     -10.973   6.584  -0.926  1.00  0.00     0.029 A 
ATOM     43  N   UNL     1     -12.335   7.940  -2.072  1.00  0.00    -0.354 N 
ATOM     44  C   UNL     1     -14.768   6.437  -5.311  1.00  0.00     0.074 A 
ATOM     45  C   UNL     1     -14.562   5.018  -5.502  1.00  0.00     0.031 C 
ATOM     46  C   UNL     1     -10.845   7.820  -0.410  1.00  0.00     0.029 A 
ATOM     47  C   UNL     1     -11.694   8.743  -1.161  1.00  0.00     0.049 A 
ATOM     48  H   UNL     1     -13.018   8.273  -2.698  1.00  0.00     0.167 HD
ATOM     49  C   UNL     1     -15.626   7.188  -6.039  1.00  0.00     0.037 A 
ATOM     50  C   UNL     1     -11.768  10.075  -0.973  1.00  0.00     0.037 A 
ATOM     51  C   UNL     1     -15.849   8.594  -5.835  1.00  0.00     0.049 A 
ATOM     52  C   UNL     1     -12.699  10.893  -1.830  1.00  0.00     0.074 A 
ATOM     53  C   UNL     1     -16.739   9.429  -6.489  1.00  0.00     0.029 A 
ATOM     54  N   UNL     1     -15.171   9.374  -4.912  1.00  0.00    -0.354 N 
ATOM     55  N   UNL     1     -13.514  10.498  -2.778  1.00  0.00    -0.248 NA
ATOM     56  C   UNL     1     -12.720  12.344  -1.589  1.00  0.00     0.031 C 
ATOM     57  C   UNL     1     -16.567  10.725  -5.993  1.00  0.00     0.029 A 
ATOM     58  C   UNL     1     -15.602  10.687  -4.999  1.00  0.00     0.049 A 
ATOM     59  H   UNL     1     -14.486   9.043  -4.287  1.00  0.00     0.167 HD
ATOM     60  C   UNL     1     -14.166  11.643  -3.222  1.00  0.00     0.074 A 
ATOM     61  C   UNL     1     -13.659  12.746  -2.434  1.00  0.00     0.031 C 
ATOM     62  C   UNL     1     -15.100  11.770  -4.195  1.00  0.00     0.037 A 
BRANCH  49  63
ATOM     63  C   UNL     1     -16.380   6.514  -7.146  1.00  0.00     0.057 A 
ATOM     64  C   UNL     1     -17.463   5.664  -6.893  1.00  0.00     0.134 A 
ATOM     65  C   UNL     1     -16.059   6.776  -8.483  1.00  0.00     0.134 A 
ATOM     66  F   UNL     1     -17.813   5.364  -5.633  1.00  0.00    -0.206 F 
ATOM     67  C   UNL     1     -18.197   5.091  -7.934  1.00  0.00     0.040 A 
ATOM     68  C   UNL     1     -16.797   6.226  -9.532  1.00  0.00     0.040 A 
ATOM     69  F   UNL     1     -15.034   7.585  -8.791  1.00  0.00    -0.206 F 
ATOM     70  C   UNL     1     -17.869   5.379  -9.258  1.00  0.00     0.006 A 
ENDBRANCH  49  63
BRANCH  50  71
ATOM     71  C   UNL     1     -10.921  10.737   0.051  1.00  0.00     0.057 A 
ATOM     72  C   UNL     1     -11.481  11.323   1.192  1.00  0.00     0.134 A 
ATOM     73  C   UNL     1      -9.535  10.846  -0.116  1.00  0.00     0.134 A 
ATOM     74  F   UNL     1     -12.806  11.274   1.394  1.00  0.00    -0.206 F 
ATOM     75  C   UNL     1     -10.699  12.017   2.117  1.00  0.00     0.040 A 
ATOM     76  C   UNL     1      -8.737  11.515   0.814  1.00  0.00     0.040 A 
ATOM     77  F   UNL     1      -8.937  10.307  -1.188  1.00  0.00    -0.206 F 
ATOM     78  C   UNL     1      -9.321  12.112   1.929  1.00  0.00     0.006 A 
ENDBRANCH  50  71
BRANCH  62  79
ATOM     79  C   UNL     1     -15.666  13.138  -4.434  1.00  0.00     0.057 A 
ATOM     80  C   UNL     1     -14.928  14.142  -5.073  1.00  0.00     0.134 A 
ATOM     81  C   UNL     1     -16.982  13.440  -4.059  1.00  0.00     0.134 A 
ATOM     82  F   UNL     1     -13.659  13.920  -5.446  1.00  0.00    -0.206 F 
ATOM     83  C   UNL     1     -15.472  15.405  -5.312  1.00  0.00     0.040 A 
ATOM     84  C   UNL     1     -17.544  14.691  -4.314  1.00  0.00     0.040 A 
ATOM     85  F   UNL     1     -17.745  12.519  -3.452  1.00  0.00    -0.206 F 
ATOM     86  C   UNL     1     -16.787  15.680  -4.938  1.00  0.00     0.006 A 
ENDBRANCH  62  79
ENDBRANCH  36  37
ENDBRANCH  29  31
ENDBRANCH  28  29
ENDBRANCH  27  28
ENDBRANCH  26  27
ENDBRANCH  25  26
ENDBRANCH   1  25
TORSDOF 17
