REMARK SMILES O=C(OCCOCCOC(=O)[C@@H]([NH2+]CC1CC1)c1cccc(C2CC2)c1)c1ccc(-c2c3nc(c(-c4c(F)cccc4F)c4ccc([nH]4)c(-c4c(F)cccc4F)c4nc(c(-c5c(F)cccc5F)c5ccc2[nH]5)C=C4)C=C3)cc1
REMARK SMILES IDX 7 1 6 2 5 3 4 4 3 5 2 6 1 7 27 8 28 9 80 10 29 11 79 12
REMARK SMILES IDX 30 13 31 14 32 15 73 16 33 17 78 18 72 19 74 20 34 21 77 22
REMARK SMILES IDX 71 23 70 24 35 26 61 27 44 28 60 29 45 30 48 31 59 32 75 33
REMARK SMILES IDX 46 34 47 35 58 37 76 38 49 39 36 40 37 41 42 42 38 43 39 44
REMARK SMILES IDX 41 45 43 46 40 47 62 48 63 49 68 50 64 51 65 52 67 53 69 54
REMARK SMILES IDX 66 55 50 56 51 57 56 58 52 59 53 60 55 61 57 62 54 63 8 64
REMARK SMILES IDX 9 65 10 66 11 67 12 68 13 69 14 72 15 73 16 74 17 75 18 76
REMARK SMILES IDX 19 77 26 78 20 79 22 80 21 81 23 82 24 83 25 84
REMARK H PARENT 74 25 48 36 13 70 13 71
REMARK Flexibility Score: inf
ROOT
ATOM      1  C   UNL     1       2.493   1.742  -0.780  1.00  0.00     0.202 C 
ENDROOT
BRANCH   1   2
ATOM      2  O   UNL     1       3.762   1.126  -0.564  1.00  0.00    -0.374 OA
BRANCH   2   3
ATOM      3  C   UNL     1       4.059   0.011  -1.401  1.00  0.00     0.202 C 
BRANCH   3   4
ATOM      4  C   UNL     1       3.908  -1.339  -0.700  1.00  0.00     0.261 C 
BRANCH   4   5
ATOM      5  O   UNL     1       2.554  -1.517  -0.256  1.00  0.00    -0.460 OA
BRANCH   5   6
ATOM      6  C   UNL     1       2.008  -1.119   0.915  1.00  0.00     0.338 C 
ATOM      7  O   UNL     1       0.785  -1.167   1.041  1.00  0.00    -0.246 OA
BRANCH   6   8
ATOM      8  C   UNL     1       2.813  -0.703   2.104  1.00  0.00     0.060 A 
ATOM      9  C   UNL     1       4.045  -0.051   2.057  1.00  0.00     0.016 A 
ATOM     10  C   UNL     1       2.236  -0.927   3.367  1.00  0.00     0.016 A 
ATOM     11  C   UNL     1       4.707   0.338   3.205  1.00  0.00     0.010 A 
ATOM     12  C   UNL     1       2.888  -0.524   4.536  1.00  0.00     0.010 A 
ATOM     13  C   UNL     1       4.133   0.101   4.447  1.00  0.00    -0.014 A 
BRANCH  13  14
ATOM     14  C   UNL     1       4.959   0.421   5.616  1.00  0.00     0.031 A 
ATOM     15  C   UNL     1       5.738  -0.687   6.245  1.00  0.00     0.074 A 
ATOM     16  C   UNL     1       5.157   1.711   5.937  1.00  0.00     0.049 A 
ATOM     17  N   UNL     1       6.553  -0.649   7.261  1.00  0.00    -0.248 NA
ATOM     18  C   UNL     1       5.602  -2.018   5.625  1.00  0.00     0.031 C 
ATOM     19  C   UNL     1       4.556   2.852   5.240  1.00  0.00     0.029 A 
ATOM     20  N   UNL     1       5.959   2.281   6.885  1.00  0.00    -0.354 N 
ATOM     21  C   UNL     1       7.004  -1.951   7.422  1.00  0.00     0.074 A 
ATOM     22  C   UNL     1       6.388  -2.755   6.393  1.00  0.00     0.031 C 
ATOM     23  C   UNL     1       5.039   3.988   5.766  1.00  0.00     0.029 A 
ATOM     24  C   UNL     1       5.922   3.654   6.877  1.00  0.00     0.049 A 
ATOM     25  H   UNL     1       6.510   1.759   7.512  1.00  0.00     0.167 HD
ATOM     26  C   UNL     1       7.847  -2.423   8.367  1.00  0.00     0.037 A 
ATOM     27  C   UNL     1       6.518   4.529   7.706  1.00  0.00     0.037 A 
ATOM     28  C   UNL     1       8.431  -1.588   9.380  1.00  0.00     0.049 A 
ATOM     29  C   UNL     1       7.369   3.969   8.811  1.00  0.00     0.074 A 
ATOM     30  C   UNL     1       9.206  -1.947  10.465  1.00  0.00     0.029 A 
ATOM     31  N   UNL     1       8.295  -0.205   9.417  1.00  0.00    -0.354 N 
ATOM     32  N   UNL     1       7.701   2.720   9.042  1.00  0.00    -0.248 NA
ATOM     33  C   UNL     1       7.902   4.926   9.787  1.00  0.00     0.031 C 
ATOM     34  C   UNL     1       9.512  -0.781  11.178  1.00  0.00     0.029 A 
ATOM     35  C   UNL     1       8.961   0.306  10.514  1.00  0.00     0.049 A 
ATOM     36  H   UNL     1       7.797   0.331   8.759  1.00  0.00     0.167 HD
ATOM     37  C   UNL     1       8.481   2.737  10.188  1.00  0.00     0.074 A 
ATOM     38  C   UNL     1       8.595   4.128  10.587  1.00  0.00     0.031 C 
ATOM     39  C   UNL     1       9.043   1.703  10.863  1.00  0.00     0.037 A 
BRANCH  26  40
ATOM     40  C   UNL     1       8.080  -3.902   8.383  1.00  0.00     0.057 A 
ATOM     41  C   UNL     1       8.887  -4.543   7.434  1.00  0.00     0.134 A 
ATOM     42  C   UNL     1       7.426  -4.706   9.325  1.00  0.00     0.134 A 
ATOM     43  F   UNL     1       9.510  -3.834   6.481  1.00  0.00    -0.206 F 
ATOM     44  C   UNL     1       9.016  -5.934   7.409  1.00  0.00     0.040 A 
ATOM     45  C   UNL     1       7.561  -6.095   9.321  1.00  0.00     0.040 A 
ATOM     46  F   UNL     1       6.625  -4.156  10.249  1.00  0.00    -0.206 F 
ATOM     47  C   UNL     1       8.352  -6.714   8.355  1.00  0.00     0.006 A 
ENDBRANCH  26  40
BRANCH  27  48
ATOM     48  C   UNL     1       6.272   5.987   7.563  1.00  0.00     0.057 A 
ATOM     49  C   UNL     1       7.298   6.877   7.228  1.00  0.00     0.134 A 
ATOM     50  C   UNL     1       4.994   6.530   7.761  1.00  0.00     0.134 A 
ATOM     51  F   UNL     1       8.549   6.428   7.045  1.00  0.00    -0.206 F 
ATOM     52  C   UNL     1       7.066   8.249   7.102  1.00  0.00     0.040 A 
ATOM     53  C   UNL     1       4.742   7.894   7.611  1.00  0.00     0.040 A 
ATOM     54  F   UNL     1       3.964   5.736   8.087  1.00  0.00    -0.206 F 
ATOM     55  C   UNL     1       5.782   8.760   7.286  1.00  0.00     0.006 A 
ENDBRANCH  27  48
BRANCH  39  56
ATOM     56  C   UNL     1       9.833   2.055  12.083  1.00  0.00     0.057 A 
ATOM     57  C   UNL     1       9.206   2.407  13.283  1.00  0.00     0.134 A 
ATOM     58  C   UNL     1      11.231   1.995  12.065  1.00  0.00     0.134 A 
ATOM     59  F   UNL     1       7.869   2.493  13.353  1.00  0.00    -0.206 F 
ATOM     60  C   UNL     1       9.946   2.705  14.426  1.00  0.00     0.040 A 
ATOM     61  C   UNL     1      11.981   2.269  13.207  1.00  0.00     0.040 A 
ATOM     62  F   UNL     1      11.885   1.656  10.944  1.00  0.00    -0.206 F 
ATOM     63  C   UNL     1      11.338   2.629  14.391  1.00  0.00     0.006 A 
ENDBRANCH  39  56
ENDBRANCH  13  14
ENDBRANCH   6   8
ENDBRANCH   5   6
ENDBRANCH   4   5
ENDBRANCH   3   4
ENDBRANCH   2   3
ENDBRANCH   1   2
BRANCH   1  64
ATOM     64  C   UNL     1       2.682   3.089  -1.471  1.00  0.00     0.261 C 
BRANCH  64  65
ATOM     65  O   UNL     1       3.270   2.881  -2.761  1.00  0.00    -0.459 OA
BRANCH  65  66
ATOM     66  C   UNL     1       4.633   2.970  -2.841  1.00  0.00     0.369 C 
ATOM     67  O   UNL     1       5.382   3.311  -1.930  1.00  0.00    -0.245 OA
BRANCH  66  68
ATOM     68  C   UNL     1       5.130   2.528  -4.243  1.00  0.00     0.324 C 
BRANCH  68  69
ATOM     69  N   UNL     1       4.762   1.101  -4.425  1.00  0.00    -0.330 N 
ATOM     70  H   UNL     1       3.744   1.045  -4.451  1.00  0.00     0.347 HD
ATOM     71  H   UNL     1       5.197   0.611  -3.642  1.00  0.00     0.347 HD
BRANCH  69  72
ATOM     72  C   UNL     1       5.269   0.440  -5.614  1.00  0.00     0.264 C 
BRANCH  72  73
ATOM     73  C   UNL     1       6.740   0.192  -5.520  1.00  0.00     0.044 C 
ATOM     74  C   UNL     1       7.422  -0.584  -6.617  1.00  0.00     0.010 C 
ATOM     75  C   UNL     1       7.682   0.888  -6.465  1.00  0.00     0.010 C 
ENDBRANCH  72  73
ENDBRANCH  69  72
ENDBRANCH  68  69
BRANCH  68  76
ATOM     76  C   UNL     1       4.563   3.505  -5.256  1.00  0.00     0.021 A 
ATOM     77  C   UNL     1       5.113   4.790  -5.343  1.00  0.00     0.010 A 
ATOM     78  C   UNL     1       3.405   3.216  -5.996  1.00  0.00     0.014 A 
ATOM     79  C   UNL     1       4.514   5.753  -6.146  1.00  0.00     0.001 A 
ATOM     80  C   UNL     1       2.798   4.151  -6.847  1.00  0.00    -0.044 A 
ATOM     81  C   UNL     1       3.375   5.432  -6.889  1.00  0.00     0.004 A 
BRANCH  80  82
ATOM     82  C   UNL     1       1.569   3.836  -7.676  1.00  0.00     0.019 C 
ATOM     83  C   UNL     1       1.131   2.419  -7.968  1.00  0.00     0.009 C 
ATOM     84  C   UNL     1       0.340   3.263  -7.011  1.00  0.00     0.009 C 
ENDBRANCH  80  82
ENDBRANCH  68  76
ENDBRANCH  66  68
ENDBRANCH  65  66
ENDBRANCH  64  65
ENDBRANCH   1  64
TORSDOF 19
