REMARK SMILES O=C(OCCOCCOC(=O)[C@@H]1CCCCC[C@H]1NC(=O)C1CC1)c1ccc(-c2c3nc(c(-c4c(F)cccc4F)c4ccc([nH]4)c(-c4c(F)cccc4F)c4nc(c(-c5c(F)cccc5F)c5ccc2[nH]5)C=C4)C=C3)cc1
REMARK SMILES IDX 7 1 6 2 5 3 4 4 3 5 2 6 1 7 25 8 26 9 78 10 27 11 77 12
REMARK SMILES IDX 28 13 29 14 30 15 71 16 31 17 76 18 70 19 72 20 32 21 75 22
REMARK SMILES IDX 69 23 68 24 33 26 59 27 42 28 58 29 43 30 46 31 57 32 73 33
REMARK SMILES IDX 44 34 45 35 56 37 74 38 47 39 34 40 35 41 40 42 36 43 37 44
REMARK SMILES IDX 39 45 41 46 38 47 60 48 61 49 66 50 62 51 63 52 65 53 67 54
REMARK SMILES IDX 64 55 48 56 49 57 54 58 50 59 51 60 53 61 55 62 52 63 8 64
REMARK SMILES IDX 9 65 10 66 11 67 12 68 13 69 14 70 18 72 17 73 16 74 15 75
REMARK SMILES IDX 19 77 20 78 21 80 22 81 23 82 24 83
REMARK H PARENT 72 25 46 36 19 79
REMARK Flexibility Score: 90.00
ROOT
ATOM      1  C   UNL     1       2.122  -1.167  -2.249  1.00  0.00     0.202 C 
ENDROOT
BRANCH   1   2
ATOM      2  O   UNL     1       3.288  -0.496  -1.787  1.00  0.00    -0.374 OA
BRANCH   2   3
ATOM      3  C   UNL     1       3.711  -0.856  -0.482  1.00  0.00     0.202 C 
BRANCH   3   4
ATOM      4  C   UNL     1       3.084  -0.072   0.677  1.00  0.00     0.261 C 
BRANCH   4   5
ATOM      5  O   UNL     1       1.674   0.165   0.481  1.00  0.00    -0.460 OA
BRANCH   5   6
ATOM      6  C   UNL     1       1.121   1.399   0.316  1.00  0.00     0.338 C 
ATOM      7  O   UNL     1      -0.076   1.593   0.473  1.00  0.00    -0.246 OA
BRANCH   6   8
ATOM      8  C   UNL     1       2.014   2.525  -0.038  1.00  0.00     0.060 A 
ATOM      9  C   UNL     1       2.980   2.356  -1.020  1.00  0.00     0.016 A 
ATOM     10  C   UNL     1       1.901   3.761   0.595  1.00  0.00     0.016 A 
ATOM     11  C   UNL     1       3.984   3.277  -1.202  1.00  0.00     0.010 A 
ATOM     12  C   UNL     1       2.791   4.786   0.253  1.00  0.00     0.010 A 
ATOM     13  C   UNL     1       3.852   4.538  -0.637  1.00  0.00    -0.014 A 
BRANCH  13  14
ATOM     14  C   UNL     1       4.810   5.586  -1.043  1.00  0.00     0.031 A 
ATOM     15  C   UNL     1       5.622   6.280   0.000  1.00  0.00     0.074 A 
ATOM     16  C   UNL     1       4.969   5.864  -2.354  1.00  0.00     0.049 A 
ATOM     17  N   UNL     1       6.313   7.381  -0.094  1.00  0.00    -0.248 NA
ATOM     18  C   UNL     1       5.643   5.661   1.336  1.00  0.00     0.031 C 
ATOM     19  C   UNL     1       4.301   5.168  -3.462  1.00  0.00     0.029 A 
ATOM     20  N   UNL     1       5.758   6.787  -2.986  1.00  0.00    -0.354 N 
ATOM     21  C   UNL     1       6.782   7.636   1.187  1.00  0.00     0.074 A 
ATOM     22  C   UNL     1       6.321   6.559   2.035  1.00  0.00     0.031 C 
ATOM     23  C   UNL     1       4.757   5.641  -4.628  1.00  0.00     0.029 A 
ATOM     24  C   UNL     1       5.630   6.769  -4.354  1.00  0.00     0.049 A 
ATOM     25  H   UNL     1       6.359   7.404  -2.507  1.00  0.00     0.167 HD
ATOM     26  C   UNL     1       7.505   8.701   1.603  1.00  0.00     0.037 A 
ATOM     27  C   UNL     1       6.100   7.620  -5.282  1.00  0.00     0.037 A 
ATOM     28  C   UNL     1       7.965   9.730   0.709  1.00  0.00     0.049 A 
ATOM     29  C   UNL     1       6.866   8.813  -4.796  1.00  0.00     0.074 A 
ATOM     30  C   UNL     1       8.649  10.896   0.997  1.00  0.00     0.029 A 
ATOM     31  N   UNL     1       7.792   9.696  -0.671  1.00  0.00    -0.354 N 
ATOM     32  N   UNL     1       7.196   9.131  -3.566  1.00  0.00    -0.248 NA
ATOM     33  C   UNL     1       7.289   9.784  -5.809  1.00  0.00     0.031 C 
ATOM     34  C   UNL     1       8.867  11.577  -0.207  1.00  0.00     0.029 A 
ATOM     35  C   UNL     1       8.356  10.818  -1.250  1.00  0.00     0.049 A 
ATOM     36  H   UNL     1       7.335   8.976  -1.165  1.00  0.00     0.167 HD
ATOM     37  C   UNL     1       7.869  10.338  -3.653  1.00  0.00     0.074 A 
ATOM     38  C   UNL     1       7.919  10.681  -5.063  1.00  0.00     0.031 C 
ATOM     39  C   UNL     1       8.388  11.104  -2.663  1.00  0.00     0.037 A 
BRANCH  26  40
ATOM     40  C   UNL     1       7.743   8.825   3.078  1.00  0.00     0.057 A 
ATOM     41  C   UNL     1       8.618   7.980   3.773  1.00  0.00     0.134 A 
ATOM     42  C   UNL     1       7.029   9.769   3.828  1.00  0.00     0.134 A 
ATOM     43  F   UNL     1       9.309   7.032   3.122  1.00  0.00    -0.206 F 
ATOM     44  C   UNL     1       8.746   8.045   5.163  1.00  0.00     0.040 A 
ATOM     45  C   UNL     1       7.167   9.861   5.214  1.00  0.00     0.040 A 
ATOM     46  F   UNL     1       6.169  10.606   3.228  1.00  0.00    -0.206 F 
ATOM     47  C   UNL     1       8.018   8.988   5.888  1.00  0.00     0.006 A 
ENDBRANCH  26  40
BRANCH  27  48
ATOM     48  C   UNL     1       5.785   7.413  -6.719  1.00  0.00     0.057 A 
ATOM     49  C   UNL     1       6.787   7.090  -7.640  1.00  0.00     0.134 A 
ATOM     50  C   UNL     1       4.472   7.496  -7.205  1.00  0.00     0.134 A 
ATOM     51  F   UNL     1       8.066   7.010  -7.245  1.00  0.00    -0.206 F 
ATOM     52  C   UNL     1       6.498   6.862  -8.988  1.00  0.00     0.040 A 
ATOM     53  C   UNL     1       4.164   7.240  -8.542  1.00  0.00     0.040 A 
ATOM     54  F   UNL     1       3.460   7.793  -6.376  1.00  0.00    -0.206 F 
ATOM     55  C   UNL     1       5.181   6.927  -9.440  1.00  0.00     0.006 A 
ENDBRANCH  27  48
BRANCH  39  56
ATOM     56  C   UNL     1       9.084  12.356  -3.091  1.00  0.00     0.057 A 
ATOM     57  C   UNL     1       8.372  13.493  -3.490  1.00  0.00     0.134 A 
ATOM     58  C   UNL     1      10.481  12.431  -3.064  1.00  0.00     0.134 A 
ATOM     59  F   UNL     1       7.032  13.470  -3.553  1.00  0.00    -0.206 F 
ATOM     60  C   UNL     1       9.031  14.663  -3.864  1.00  0.00     0.040 A 
ATOM     61  C   UNL     1      11.149  13.602  -3.414  1.00  0.00     0.040 A 
ATOM     62  F   UNL     1      11.213  11.371  -2.688  1.00  0.00    -0.206 F 
ATOM     63  C   UNL     1      10.424  14.721  -3.818  1.00  0.00     0.006 A 
ENDBRANCH  39  56
ENDBRANCH  13  14
ENDBRANCH   6   8
ENDBRANCH   5   6
ENDBRANCH   4   5
ENDBRANCH   3   4
ENDBRANCH   2   3
ENDBRANCH   1   2
BRANCH   1  64
ATOM     64  C   UNL     1       2.518  -2.278  -3.211  1.00  0.00     0.261 C 
BRANCH  64  65
ATOM     65  O   UNL     1       3.244  -3.308  -2.513  1.00  0.00    -0.463 OA
BRANCH  65  66
ATOM     66  C   UNL     1       4.603  -3.246  -2.585  1.00  0.00     0.311 C 
ATOM     67  O   UNL     1       5.247  -2.358  -3.127  1.00  0.00    -0.252 OA
BRANCH  66  68
ATOM     68  C   UNL     1       5.248  -4.457  -1.929  1.00  0.00     0.121 C 
BRANCH  68  69
ATOM     69  C   UNL     1       4.730  -5.706  -2.653  1.00  0.00     0.017 C 
BRANCH  69  70
ATOM     70  C   UNL     1       5.106  -7.032  -2.014  1.00  0.00     0.001 CG0
ATOM     71  G   UNL     1       4.095  -7.469  -0.961  1.00  0.00     0.000 G0
ENDBRANCH  69  70
ENDBRANCH  68  69
BRANCH  68  72
ATOM     72  C   UNL     1       5.139  -4.396  -0.386  1.00  0.00     0.096 C 
BRANCH  72  73
ATOM     73  C   UNL     1       3.944  -5.158   0.211  1.00  0.00     0.026 C 
BRANCH  73  74
ATOM     74  C   UNL     1       4.106  -6.674   0.340  1.00  0.00     0.002 C 
BRANCH  74  75
ATOM     75  C   UNL     1       4.095  -7.469  -0.961  1.00  0.00     0.000 CG0
ATOM     76  G   UNL     1       5.106  -7.032  -2.014  1.00  0.00     0.000 G0
ENDBRANCH  74  75
ENDBRANCH  73  74
ENDBRANCH  72  73
BRANCH  72  77
ATOM     77  N   UNL     1       6.410  -4.816   0.223  1.00  0.00    -0.352 N 
ATOM     78  C   UNL     1       7.158  -4.373   1.275  1.00  0.00     0.223 C 
ATOM     79  H   UNL     1       6.811  -5.593  -0.230  1.00  0.00     0.163 HD
ATOM     80  O   UNL     1       8.209  -4.958   1.521  1.00  0.00    -0.275 OA
BRANCH  78  81
ATOM     81  C   UNL     1       6.746  -3.265   2.171  1.00  0.00     0.078 C 
ATOM     82  C   UNL     1       7.613  -2.011   2.124  1.00  0.00     0.014 C 
ATOM     83  C   UNL     1       6.160  -1.936   1.802  1.00  0.00     0.014 C 
ENDBRANCH  78  81
ENDBRANCH  72  77
ENDBRANCH  68  72
ENDBRANCH  66  68
ENDBRANCH  65  66
ENDBRANCH  64  65
ENDBRANCH   1  64
TORSDOF 16
