REMARK SMILES C=CCCC[C@@]1(C(=O)OCCOCCOC(=O)c2ccc(-c3c4nc(c(-c5c(F)cccc5F)c5ccc([nH]5)c(-c5c(F)cccc5F)c5nc(c(-c6c(F)cccc6F)c6ccc3[nH]6)C=C5)C=C4)cc2)CCCN(C(=O)OC(C)(C)C)C1
REMARK SMILES IDX 11 1 10 2 9 3 7 4 8 5 6 6 72 7 83 8 73 9 75 10 74 11 5 12
REMARK SMILES IDX 4 13 3 14 2 15 1 16 76 17 77 18 78 19 79 20 80 21 81 22
REMARK SMILES IDX 82 23 12 24 13 25 14 26 15 27 16 28 17 29 18 30 19 31 71 32
REMARK SMILES IDX 20 33 70 34 21 35 22 36 23 37 64 38 24 39 69 40 63 41 65 42
REMARK SMILES IDX 25 43 68 44 62 45 61 46 26 48 52 49 35 50 51 51 36 52 39 53
REMARK SMILES IDX 50 54 66 55 37 56 38 57 49 59 67 60 40 61 27 62 28 63 33 64
REMARK SMILES IDX 29 65 30 66 32 67 34 68 31 69 53 70 54 71 59 72 55 73 56 74
REMARK SMILES IDX 58 75 60 76 57 77 41 78 42 79 47 80 43 81 44 82 46 83 48 84
REMARK SMILES IDX 45 85
REMARK H PARENT 65 47 39 58
REMARK Flexibility Score: inf
ROOT
ATOM      1  C   UNL     1       0.281   4.404  -1.362  1.00  0.00     0.202 C 
ENDROOT
BRANCH   1   2
ATOM      2  C   UNL     1      -0.033   2.924  -1.117  1.00  0.00     0.261 C 
BRANCH   2   3
ATOM      3  O   UNL     1      -0.299   2.160  -2.304  1.00  0.00    -0.463 OA
BRANCH   3   4
ATOM      4  C   UNL     1      -1.618   1.923  -2.528  1.00  0.00     0.313 C 
ATOM      5  O   UNL     1      -2.521   2.481  -1.909  1.00  0.00    -0.252 OA
BRANCH   4   6
ATOM      6  C   UNL     1      -1.892   0.940  -3.681  1.00  0.00     0.086 C 
ATOM      7  C   UNL     1      -3.187   0.192  -3.266  1.00  0.00     0.022 C 
ATOM      8  C   UNL     1      -0.778  -0.098  -3.857  1.00  0.00     0.141 C 
ATOM      9  C   UNL     1      -2.962  -0.665  -2.006  1.00  0.00     0.023 C 
ATOM     10  N   UNL     1      -0.592  -0.910  -2.669  1.00  0.00    -0.307 N 
ATOM     11  C   UNL     1      -1.770  -1.612  -2.166  1.00  0.00     0.123 C 
BRANCH   6  12
ATOM     12  C   UNL     1      -2.014   1.801  -4.970  1.00  0.00     0.021 C 
BRANCH  12  13
ATOM     13  C   UNL     1      -2.043   1.124  -6.351  1.00  0.00     0.005 C 
BRANCH  13  14
ATOM     14  C   UNL     1      -3.226   0.213  -6.670  1.00  0.00     0.027 C 
BRANCH  14  15
ATOM     15  C   UNL     1      -4.556   0.896  -6.542  1.00  0.00    -0.035 C 
ATOM     16  C   UNL     1      -5.512   0.845  -7.477  1.00  0.00     0.004 C 
ENDBRANCH  14  15
ENDBRANCH  13  14
ENDBRANCH  12  13
ENDBRANCH   6  12
BRANCH  10  17
ATOM     17  C   UNL     1       0.685  -1.020  -2.156  1.00  0.00     0.410 C 
ATOM     18  O   UNL     1       1.660  -0.480  -2.673  1.00  0.00    -0.224 OA
BRANCH  17  19
ATOM     19  O   UNL     1       0.742  -1.761  -1.024  1.00  0.00    -0.444 OA
BRANCH  19  20
ATOM     20  C   UNL     1       2.013  -1.906  -0.339  1.00  0.00     0.106 C 
ATOM     21  C   UNL     1       3.039  -2.639  -1.214  1.00  0.00     0.056 C 
ATOM     22  C   UNL     1       2.535  -0.549   0.155  1.00  0.00     0.056 C 
ATOM     23  C   UNL     1       1.702  -2.779   0.884  1.00  0.00     0.056 C 
ENDBRANCH  19  20
ENDBRANCH  17  19
ENDBRANCH  10  17
ENDBRANCH   4   6
ENDBRANCH   3   4
ENDBRANCH   2   3
ENDBRANCH   1   2
BRANCH   1  24
ATOM     24  O   UNL     1      -0.671   5.219  -2.033  1.00  0.00    -0.374 OA
BRANCH  24  25
ATOM     25  C   UNL     1      -0.882   5.010  -3.426  1.00  0.00     0.202 C 
BRANCH  25  26
ATOM     26  C   UNL     1       0.240   5.380  -4.403  1.00  0.00     0.261 C 
BRANCH  26  27
ATOM     27  O   UNL     1       1.421   4.578  -4.233  1.00  0.00    -0.460 OA
BRANCH  27  28
ATOM     28  C   UNL     1       2.486   5.245  -3.726  1.00  0.00     0.338 C 
ATOM     29  O   UNL     1       2.555   6.431  -3.448  1.00  0.00    -0.246 OA
BRANCH  28  30
ATOM     30  C   UNL     1       3.552   4.295  -3.367  1.00  0.00     0.060 A 
ATOM     31  C   UNL     1       4.010   4.290  -2.041  1.00  0.00     0.016 A 
ATOM     32  C   UNL     1       4.169   3.510  -4.339  1.00  0.00     0.016 A 
ATOM     33  C   UNL     1       5.128   3.539  -1.691  1.00  0.00     0.010 A 
ATOM     34  C   UNL     1       5.299   2.768  -3.990  1.00  0.00     0.010 A 
ATOM     35  C   UNL     1       5.806   2.815  -2.677  1.00  0.00    -0.014 A 
BRANCH  35  36
ATOM     36  C   UNL     1       7.150   2.255  -2.404  1.00  0.00     0.031 A 
ATOM     37  C   UNL     1       8.350   3.003  -2.911  1.00  0.00     0.074 A 
ATOM     38  C   UNL     1       7.298   1.097  -1.741  1.00  0.00     0.049 A 
ATOM     39  N   UNL     1       9.602   2.632  -2.958  1.00  0.00    -0.248 NA
ATOM     40  C   UNL     1       8.098   4.350  -3.450  1.00  0.00     0.031 C 
ATOM     41  C   UNL     1       6.214   0.319  -1.149  1.00  0.00     0.029 A 
ATOM     42  N   UNL     1       8.427   0.360  -1.483  1.00  0.00    -0.354 N 
ATOM     43  C   UNL     1      10.282   3.685  -3.557  1.00  0.00     0.074 A 
ATOM     44  C   UNL     1       9.303   4.703  -3.870  1.00  0.00     0.031 C 
ATOM     45  C   UNL     1       6.726  -0.805  -0.618  1.00  0.00     0.029 A 
ATOM     46  C   UNL     1       8.163  -0.847  -0.885  1.00  0.00     0.049 A 
ATOM     47  H   UNL     1       9.335   0.667  -1.705  1.00  0.00     0.167 HD
ATOM     48  C   UNL     1      11.606   3.788  -3.822  1.00  0.00     0.037 A 
ATOM     49  C   UNL     1       8.983  -1.885  -0.629  1.00  0.00     0.037 A 
ATOM     50  C   UNL     1      12.569   2.768  -3.503  1.00  0.00     0.049 A 
ATOM     51  C   UNL     1      10.437  -1.784  -1.010  1.00  0.00     0.074 A 
ATOM     52  C   UNL     1      13.935   2.774  -3.720  1.00  0.00     0.029 A 
ATOM     53  N   UNL     1      12.262   1.555  -2.904  1.00  0.00    -0.354 N 
ATOM     54  N   UNL     1      11.078  -0.790  -1.578  1.00  0.00    -0.248 NA
ATOM     55  C   UNL     1      11.284  -2.951  -0.719  1.00  0.00     0.031 C 
ATOM     56  C   UNL     1      14.446   1.542  -3.304  1.00  0.00     0.029 A 
ATOM     57  C   UNL     1      13.410   0.796  -2.764  1.00  0.00     0.049 A 
ATOM     58  H   UNL     1      11.361   1.276  -2.621  1.00  0.00     0.167 HD
ATOM     59  C   UNL     1      12.405  -1.192  -1.669  1.00  0.00     0.074 A 
ATOM     60  C   UNL     1      12.479  -2.522  -1.104  1.00  0.00     0.031 C 
ATOM     61  C   UNL     1      13.469  -0.515  -2.168  1.00  0.00     0.037 A 
BRANCH  48  62
ATOM     62  C   UNL     1      12.080   5.026  -4.525  1.00  0.00     0.057 A 
ATOM     63  C   UNL     1      12.103   6.278  -3.898  1.00  0.00     0.134 A 
ATOM     64  C   UNL     1      12.552   4.957  -5.843  1.00  0.00     0.134 A 
ATOM     65  F   UNL     1      11.653   6.418  -2.641  1.00  0.00    -0.206 F 
ATOM     66  C   UNL     1      12.554   7.420  -4.563  1.00  0.00     0.040 A 
ATOM     67  C   UNL     1      13.033   6.085  -6.508  1.00  0.00     0.040 A 
ATOM     68  F   UNL     1      12.562   3.788  -6.503  1.00  0.00    -0.206 F 
ATOM     69  C   UNL     1      13.028   7.323  -5.870  1.00  0.00     0.006 A 
ENDBRANCH  48  62
BRANCH  49  70
ATOM     70  C   UNL     1       8.445  -3.119  -0.003  1.00  0.00     0.057 A 
ATOM     71  C   UNL     1       8.820  -3.497   1.291  1.00  0.00     0.134 A 
ATOM     72  C   UNL     1       7.557  -3.960  -0.687  1.00  0.00     0.134 A 
ATOM     73  F   UNL     1       9.683  -2.745   1.990  1.00  0.00    -0.206 F 
ATOM     74  C   UNL     1       8.348  -4.674   1.875  1.00  0.00     0.040 A 
ATOM     75  C   UNL     1       7.055  -5.125  -0.104  1.00  0.00     0.040 A 
ATOM     76  F   UNL     1       7.154  -3.655  -1.929  1.00  0.00    -0.206 F 
ATOM     77  C   UNL     1       7.459  -5.489   1.178  1.00  0.00     0.006 A 
ENDBRANCH  49  70
BRANCH  61  78
ATOM     78  C   UNL     1      14.822  -1.157  -2.058  1.00  0.00     0.057 A 
ATOM     79  C   UNL     1      15.207  -2.233  -2.865  1.00  0.00     0.134 A 
ATOM     80  C   UNL     1      15.782  -0.625  -1.185  1.00  0.00     0.134 A 
ATOM     81  F   UNL     1      14.333  -2.795  -3.713  1.00  0.00    -0.206 F 
ATOM     82  C   UNL     1      16.497  -2.764  -2.801  1.00  0.00     0.040 A 
ATOM     83  C   UNL     1      17.081  -1.129  -1.133  1.00  0.00     0.040 A 
ATOM     84  F   UNL     1      15.480   0.414  -0.392  1.00  0.00    -0.206 F 
ATOM     85  C   UNL     1      17.441  -2.204  -1.942  1.00  0.00     0.006 A 
ENDBRANCH  61  78
ENDBRANCH  35  36
ENDBRANCH  28  30
ENDBRANCH  27  28
ENDBRANCH  26  27
ENDBRANCH  25  26
ENDBRANCH  24  25
ENDBRANCH   1  24
TORSDOF 21
