REMARK SMILES O=C(OCCOCCOC(=O)c1ccc(-c2c3nc(c(-c4c(F)cccc4F)c4ccc([nH]4)c(-c4c(F)cccc4F)c4nc(c(-c5c(F)cccc5F)c5ccc2[nH]5)C=C4)C=C3)cc1)C1=Cc2cc(C(F)(F)F)ccc2O[C@@H]1C(F)(F)F
REMARK SMILES IDX 7 1 6 2 5 3 4 4 3 5 2 6 1 7 66 8 67 9 79 10 68 11 78 12
REMARK SMILES IDX 69 13 77 14 70 15 76 16 75 17 80 18 81 19 82 20 83 21 71 22
REMARK SMILES IDX 72 23 73 24 74 25 8 26 9 27 10 28 11 29 12 30 13 31 65 32
REMARK SMILES IDX 14 33 64 34 15 35 16 36 17 37 58 38 18 39 63 40 57 41 59 42
REMARK SMILES IDX 19 43 62 44 56 45 55 46 20 48 46 49 29 50 45 51 30 52 33 53
REMARK SMILES IDX 44 54 60 55 31 56 32 57 43 59 61 60 34 61 21 62 22 63 27 64
REMARK SMILES IDX 23 65 24 66 26 67 28 68 25 69 47 70 48 71 53 72 49 73 50 74
REMARK SMILES IDX 52 75 54 76 51 77 35 78 36 79 41 80 37 81 38 82 40 83 42 84
REMARK SMILES IDX 39 85
REMARK H PARENT 59 47 33 58
REMARK Flexibility Score: inf
ROOT
ATOM      1  C   UNL     1       2.764   2.546  -1.590  1.00  0.00     0.202 C 
ENDROOT
BRANCH   1   2
ATOM      2  O   UNL     1       3.937   2.262  -0.804  1.00  0.00    -0.374 OA
BRANCH   2   3
ATOM      3  C   UNL     1       4.260   1.165   0.353  1.00  0.00     0.202 C 
BRANCH   3   4
ATOM      4  C   UNL     1       3.330  -0.741   0.820  1.00  0.00     0.261 C 
BRANCH   4   5
ATOM      5  O   UNL     1       2.286  -1.011   1.912  1.00  0.00    -0.460 OA
BRANCH   5   6
ATOM      6  C   UNL     1       2.421  -0.192   2.957  1.00  0.00     0.338 C 
ATOM      7  O   UNL     1       1.739  -0.094   3.945  1.00  0.00    -0.246 OA
BRANCH   6   8
ATOM      8  C   UNL     1       3.363   0.711   2.329  1.00  0.00     0.087 C 
ATOM      9  C   UNL     1       4.734   0.162   2.344  1.00  0.00     0.027 C 
ATOM     10  C   UNL     1       2.315   1.014   0.733  1.00  0.00     0.316 C 
ATOM     11  C   UNL     1       5.547  -0.537   0.893  1.00  0.00     0.018 A 
ATOM     12  O   UNL     1       3.137   0.215  -0.826  1.00  0.00    -0.475 OA
ATOM     13  C   UNL     1       6.747  -1.172   1.050  1.00  0.00     0.025 A 
ATOM     14  C   UNL     1       4.759  -0.611  -0.650  1.00  0.00     0.128 A 
ATOM     15  C   UNL     1       7.218  -1.887  -0.076  1.00  0.00     0.056 A 
ATOM     16  C   UNL     1       5.208  -1.421  -1.648  1.00  0.00     0.048 A 
ATOM     17  C   UNL     1       6.455  -2.035  -1.328  1.00  0.00     0.017 A 
BRANCH  10  18
ATOM     18  C   UNL     1       1.909   2.523   1.069  1.00  0.00     0.430 C 
ATOM     19  F   UNL     1       1.062   3.109   0.205  1.00  0.00    -0.167 F 
ATOM     20  F   UNL     1       1.226   2.497   2.255  1.00  0.00    -0.167 F 
ATOM     21  F   UNL     1       2.947   3.360   1.297  1.00  0.00    -0.167 F 
ENDBRANCH  10  18
BRANCH  15  22
ATOM     22  C   UNL     1       8.590  -2.536   0.082  1.00  0.00     0.416 C 
ATOM     23  F   UNL     1       9.543  -1.628   0.441  1.00  0.00    -0.166 F 
ATOM     24  F   UNL     1       8.601  -3.484   1.060  1.00  0.00    -0.166 F 
ATOM     25  F   UNL     1       9.053  -3.140  -1.043  1.00  0.00    -0.166 F 
ENDBRANCH  15  22
ENDBRANCH   6   8
ENDBRANCH   5   6
ENDBRANCH   4   5
ENDBRANCH   3   4
ENDBRANCH   2   3
ENDBRANCH   1   2
BRANCH   1  26
ATOM     26  C   UNL     1       2.935   2.604  -3.103  1.00  0.00     0.261 C 
BRANCH  26  27
ATOM     27  O   UNL     1       3.473   1.408  -3.640  1.00  0.00    -0.460 OA
BRANCH  27  28
ATOM     28  C   UNL     1       4.805   1.457  -3.861  1.00  0.00     0.338 C 
ATOM     29  O   UNL     1       5.592   2.325  -3.532  1.00  0.00    -0.246 OA
BRANCH  28  30
ATOM     30  C   UNL     1       5.177   0.232  -4.585  1.00  0.00     0.060 A 
ATOM     31  C   UNL     1       6.434  -0.326  -4.333  1.00  0.00     0.016 A 
ATOM     32  C   UNL     1       4.272  -0.393  -5.454  1.00  0.00     0.016 A 
ATOM     33  C   UNL     1       6.758  -1.559  -4.889  1.00  0.00     0.010 A 
ATOM     34  C   UNL     1       4.608  -1.609  -6.031  1.00  0.00     0.010 A 
ATOM     35  C   UNL     1       5.844  -2.200  -5.735  1.00  0.00    -0.014 A 
BRANCH  35  36
ATOM     36  C   UNL     1       6.229  -3.431  -6.443  1.00  0.00     0.031 A 
ATOM     37  C   UNL     1       6.872  -3.286  -7.785  1.00  0.00     0.074 A 
ATOM     38  C   UNL     1       5.958  -4.636  -5.914  1.00  0.00     0.049 A 
ATOM     39  N   UNL     1       7.206  -4.212  -8.641  1.00  0.00    -0.248 NA
ATOM     40  C   UNL     1       7.172  -1.912  -8.224  1.00  0.00     0.031 C 
ATOM     41  C   UNL     1       5.354  -4.872  -4.603  1.00  0.00     0.029 A 
ATOM     42  N   UNL     1       6.135  -5.892  -6.434  1.00  0.00    -0.354 N 
ATOM     43  C   UNL     1       7.752  -3.534  -9.721  1.00  0.00     0.074 A 
ATOM     44  C   UNL     1       7.693  -2.121  -9.423  1.00  0.00     0.031 C 
ATOM     45  C   UNL     1       5.185  -6.196  -4.433  1.00  0.00     0.029 A 
ATOM     46  C   UNL     1       5.630  -6.892  -5.638  1.00  0.00     0.049 A 
ATOM     47  H   UNL     1       6.581  -6.062  -7.295  1.00  0.00     0.167 HD
ATOM     48  C   UNL     1       8.250  -4.055 -10.862  1.00  0.00     0.037 A 
ATOM     49  C   UNL     1       5.506  -8.211  -5.886  1.00  0.00     0.037 A 
ATOM     50  C   UNL     1       8.280  -5.462 -11.150  1.00  0.00     0.049 A 
ATOM     51  C   UNL     1       5.996  -8.749  -7.210  1.00  0.00     0.074 A 
ATOM     52  C   UNL     1       8.795  -6.097 -12.264  1.00  0.00     0.029 A 
ATOM     53  N   UNL     1       7.748  -6.447 -10.332  1.00  0.00    -0.354 N 
ATOM     54  N   UNL     1       6.581  -8.114  -8.198  1.00  0.00    -0.248 NA
ATOM     55  C   UNL     1       5.804 -10.186  -7.458  1.00  0.00     0.031 C 
ATOM     56  C   UNL     1       8.503  -7.458 -12.159  1.00  0.00     0.029 A 
ATOM     57  C   UNL     1       7.877  -7.681 -10.942  1.00  0.00     0.049 A 
ATOM     58  H   UNL     1       7.341  -6.291  -9.449  1.00  0.00     0.167 HD
ATOM     59  C   UNL     1       6.850  -9.075  -9.166  1.00  0.00     0.074 A 
ATOM     60  C   UNL     1       6.390 -10.340  -8.636  1.00  0.00     0.031 C 
ATOM     61  C   UNL     1       7.419  -8.929 -10.387  1.00  0.00     0.037 A 
BRANCH  48  62
ATOM     62  C   UNL     1       8.760  -3.107 -11.902  1.00  0.00     0.057 A 
ATOM     63  C   UNL     1       9.954  -2.397 -11.739  1.00  0.00     0.134 A 
ATOM     64  C   UNL     1       8.076  -2.961 -13.115  1.00  0.00     0.134 A 
ATOM     65  F   UNL     1      10.644  -2.477 -10.590  1.00  0.00    -0.206 F 
ATOM     66  C   UNL     1      10.452  -1.572 -12.748  1.00  0.00     0.040 A 
ATOM     67  C   UNL     1       8.577  -2.162 -14.142  1.00  0.00     0.040 A 
ATOM     68  F   UNL     1       6.921  -3.610 -13.329  1.00  0.00    -0.206 F 
ATOM     69  C   UNL     1       9.770  -1.465 -13.959  1.00  0.00     0.006 A 
ENDBRANCH  48  62
BRANCH  49  70
ATOM     70  C   UNL     1       4.843  -9.117  -4.907  1.00  0.00     0.057 A 
ATOM     71  C   UNL     1       5.530 -10.187  -4.320  1.00  0.00     0.134 A 
ATOM     72  C   UNL     1       3.482  -8.988  -4.602  1.00  0.00     0.134 A 
ATOM     73  F   UNL     1       6.831 -10.381  -4.586  1.00  0.00    -0.206 F 
ATOM     74  C   UNL     1       4.881 -11.120  -3.509  1.00  0.00     0.040 A 
ATOM     75  C   UNL     1       2.829  -9.892  -3.762  1.00  0.00     0.040 A 
ATOM     76  F   UNL     1       2.760  -7.985  -5.124  1.00  0.00    -0.206 F 
ATOM     77  C   UNL     1       3.525 -10.973  -3.227  1.00  0.00     0.006 A 
ENDBRANCH  49  70
BRANCH  61  78
ATOM     78  C   UNL     1       7.603 -10.163 -11.223  1.00  0.00     0.057 A 
ATOM     79  C   UNL     1       6.519 -10.832 -11.804  1.00  0.00     0.134 A 
ATOM     80  C   UNL     1       8.888 -10.646 -11.507  1.00  0.00     0.134 A 
ATOM     81  F   UNL     1       5.262 -10.427 -11.565  1.00  0.00    -0.206 F 
ATOM     82  C   UNL     1       6.704 -11.948 -12.621  1.00  0.00     0.040 A 
ATOM     83  C   UNL     1       9.087 -11.738 -12.351  1.00  0.00     0.040 A 
ATOM     84  F   UNL     1       9.972 -10.043 -10.995  1.00  0.00    -0.206 F 
ATOM     85  C   UNL     1       7.992 -12.396 -12.906  1.00  0.00     0.006 A 
ENDBRANCH  61  78
ENDBRANCH  35  36
ENDBRANCH  28  30
ENDBRANCH  27  28
ENDBRANCH  26  27
ENDBRANCH   1  26
TORSDOF 16
