REMARK SMILES O=C(OCCOCCOC(=O)[C@H]1[C@@H](C(=O)Nc2ccccc2-c2ccccc2)[C@@H]2C=C[C@H]1O2)c1ccc(-c2c3nc(c(-c4c(F)cccc4F)c4ccc([nH]4)c(-c4c(F)cccc4F)c4nc(c(-c5c(F)cccc5F)c5ccc2[nH]5)C=C4)C=C3)cc1
REMARK SMILES IDX 7 1 6 2 5 3 4 4 3 5 2 6 1 7 34 8 35 9 87 10 36 11 86 12
REMARK SMILES IDX 37 13 38 14 39 15 80 16 40 17 85 18 79 19 81 20 41 21 84 22
REMARK SMILES IDX 78 23 77 24 42 26 68 27 51 28 67 29 52 30 55 31 66 32 82 33
REMARK SMILES IDX 53 34 54 35 65 37 83 38 56 39 43 40 44 41 49 42 45 43 46 44
REMARK SMILES IDX 48 45 50 46 47 47 69 48 70 49 75 50 71 51 72 52 74 53 76 54
REMARK SMILES IDX 73 55 57 56 58 57 63 58 59 59 60 60 62 61 64 62 61 63 8 64
REMARK SMILES IDX 9 65 10 66 11 67 12 68 13 69 32 70 29 71 31 72 33 73 30 74
REMARK SMILES IDX 14 75 15 76 16 77 17 79 18 80 22 81 19 82 21 83 20 84 23 85
REMARK SMILES IDX 24 86 28 87 25 88 27 89 26 90
REMARK H PARENT 81 25 55 36 16 78
REMARK Flexibility Score: inf
ROOT
ATOM      1  C   UNL     1       6.247  -0.121   1.705  1.00  0.00     0.202 C 
ENDROOT
BRANCH   1   2
ATOM      2  O   UNL     1       5.967  -0.691   2.972  1.00  0.00    -0.374 OA
BRANCH   2   3
ATOM      3  C   UNL     1       4.672  -1.224   3.216  1.00  0.00     0.202 C 
BRANCH   3   4
ATOM      4  C   UNL     1       4.112  -0.765   4.565  1.00  0.00     0.261 C 
BRANCH   4   5
ATOM      5  O   UNL     1       4.193   0.653   4.725  1.00  0.00    -0.460 OA
BRANCH   5   6
ATOM      6  C   UNL     1       5.387   1.291   4.622  1.00  0.00     0.338 C 
ATOM      7  O   UNL     1       5.472   2.359   4.023  1.00  0.00    -0.246 OA
BRANCH   6   8
ATOM      8  C   UNL     1       6.547   0.810   5.435  1.00  0.00     0.060 A 
ATOM      9  C   UNL     1       7.045  -0.504   5.465  1.00  0.00     0.016 A 
ATOM     10  C   UNL     1       7.235   1.808   6.133  1.00  0.00     0.016 A 
ATOM     11  C   UNL     1       8.196  -0.824   6.158  1.00  0.00     0.010 A 
ATOM     12  C   UNL     1       8.383   1.494   6.850  1.00  0.00     0.010 A 
ATOM     13  C   UNL     1       8.853   0.174   6.860  1.00  0.00    -0.014 A 
BRANCH  13  14
ATOM     14  C   UNL     1       9.928  -0.224   7.766  1.00  0.00     0.031 A 
ATOM     15  C   UNL     1       9.576  -0.359   9.206  1.00  0.00     0.074 A 
ATOM     16  C   UNL     1      11.142  -0.508   7.276  1.00  0.00     0.049 A 
ATOM     17  N   UNL     1      10.354  -0.489  10.240  1.00  0.00    -0.248 NA
ATOM     18  C   UNL     1       8.136  -0.333   9.524  1.00  0.00     0.031 C 
ATOM     19  C   UNL     1      11.492  -0.540   5.855  1.00  0.00     0.029 A 
ATOM     20  N   UNL     1      12.305  -0.813   7.922  1.00  0.00    -0.354 N 
ATOM     21  C   UNL     1       9.505  -0.503  11.336  1.00  0.00     0.074 A 
ATOM     22  C   UNL     1       8.153  -0.380  10.844  1.00  0.00     0.031 C 
ATOM     23  C   UNL     1      12.800  -0.820   5.738  1.00  0.00     0.029 A 
ATOM     24  C   UNL     1      13.380  -0.904   7.074  1.00  0.00     0.049 A 
ATOM     25  H   UNL     1      12.367  -0.953   8.894  1.00  0.00     0.167 HD
ATOM     26  C   UNL     1       9.851  -0.585  12.639  1.00  0.00     0.037 A 
ATOM     27  C   UNL     1      14.689  -0.972   7.370  1.00  0.00     0.037 A 
ATOM     28  C   UNL     1      11.222  -0.693  13.058  1.00  0.00     0.049 A 
ATOM     29  C   UNL     1      15.068  -0.974   8.825  1.00  0.00     0.074 A 
ATOM     30  C   UNL     1      11.740  -0.739  14.335  1.00  0.00     0.029 A 
ATOM     31  N   UNL     1      12.298  -0.762  12.177  1.00  0.00    -0.354 N 
ATOM     32  N   UNL     1      14.284  -0.917   9.879  1.00  0.00    -0.248 NA
ATOM     33  C   UNL     1      16.498  -1.033   9.141  1.00  0.00     0.031 C 
ATOM     34  C   UNL     1      13.135  -0.779  14.226  1.00  0.00     0.029 A 
ATOM     35  C   UNL     1      13.484  -0.827  12.882  1.00  0.00     0.049 A 
ATOM     36  H   UNL     1      12.225  -0.765  11.195  1.00  0.00     0.167 HD
ATOM     37  C   UNL     1      15.119  -0.957  10.985  1.00  0.00     0.074 A 
ATOM     38  C   UNL     1      16.474  -1.044  10.468  1.00  0.00     0.031 C 
ATOM     39  C   UNL     1      14.805  -0.928  12.305  1.00  0.00     0.037 A 
BRANCH  26  40
ATOM     40  C   UNL     1       8.746  -0.441  13.642  1.00  0.00     0.057 A 
ATOM     41  C   UNL     1       7.731  -1.397  13.791  1.00  0.00     0.134 A 
ATOM     42  C   UNL     1       8.640   0.731  14.403  1.00  0.00     0.134 A 
ATOM     43  F   UNL     1       7.749  -2.527  13.069  1.00  0.00    -0.206 F 
ATOM     44  C   UNL     1       6.627  -1.169  14.618  1.00  0.00     0.040 A 
ATOM     45  C   UNL     1       7.559   0.955  15.257  1.00  0.00     0.040 A 
ATOM     46  F   UNL     1       9.569   1.693  14.306  1.00  0.00    -0.206 F 
ATOM     47  C   UNL     1       6.540   0.011  15.354  1.00  0.00     0.006 A 
ENDBRANCH  26  40
BRANCH  27  48
ATOM     48  C   UNL     1      15.691  -0.974   6.276  1.00  0.00     0.057 A 
ATOM     49  C   UNL     1      16.462  -2.105   5.990  1.00  0.00     0.134 A 
ATOM     50  C   UNL     1      15.860   0.143   5.444  1.00  0.00     0.134 A 
ATOM     51  F   UNL     1      16.358  -3.202   6.754  1.00  0.00    -0.206 F 
ATOM     52  C   UNL     1      17.360  -2.128   4.920  1.00  0.00     0.040 A 
ATOM     53  C   UNL     1      16.734   0.126   4.356  1.00  0.00     0.040 A 
ATOM     54  F   UNL     1      15.147   1.260   5.656  1.00  0.00    -0.206 F 
ATOM     55  C   UNL     1      17.490  -1.013   4.093  1.00  0.00     0.006 A 
ENDBRANCH  27  48
BRANCH  39  56
ATOM     56  C   UNL     1      15.939  -1.046  13.275  1.00  0.00     0.057 A 
ATOM     57  C   UNL     1      16.796   0.026  13.544  1.00  0.00     0.134 A 
ATOM     58  C   UNL     1      16.096  -2.217  14.027  1.00  0.00     0.134 A 
ATOM     59  F   UNL     1      16.699   1.168  12.846  1.00  0.00    -0.206 F 
ATOM     60  C   UNL     1      17.774  -0.063  14.533  1.00  0.00     0.040 A 
ATOM     61  C   UNL     1      17.050  -2.307  15.037  1.00  0.00     0.040 A 
ATOM     62  F   UNL     1      15.294  -3.272  13.819  1.00  0.00    -0.206 F 
ATOM     63  C   UNL     1      17.893  -1.227  15.292  1.00  0.00     0.006 A 
ENDBRANCH  39  56
ENDBRANCH  13  14
ENDBRANCH   6   8
ENDBRANCH   5   6
ENDBRANCH   4   5
ENDBRANCH   3   4
ENDBRANCH   2   3
ENDBRANCH   1   2
BRANCH   1  64
ATOM     64  C   UNL     1       7.019  -1.091   0.815  1.00  0.00     0.261 C 
BRANCH  64  65
ATOM     65  O   UNL     1       6.171  -2.178   0.422  1.00  0.00    -0.463 OA
BRANCH  65  66
ATOM     66  C   UNL     1       6.087  -3.196   1.325  1.00  0.00     0.312 C 
ATOM     67  O   UNL     1       6.690  -3.259   2.391  1.00  0.00    -0.252 OA
BRANCH  66  68
ATOM     68  C   UNL     1       5.066  -4.189   0.853  1.00  0.00     0.147 C 
ATOM     69  C   UNL     1       5.615  -5.613   0.694  1.00  0.00     0.129 C 
ATOM     70  C   UNL     1       3.961  -4.409   1.889  1.00  0.00     0.157 C 
ATOM     71  C   UNL     1       4.857  -6.378   1.794  1.00  0.00     0.155 C 
ATOM     72  C   UNL     1       2.893  -5.315   1.342  1.00  0.00     0.004 C 
ATOM     73  O   UNL     1       4.619  -5.344   2.780  1.00  0.00    -0.365 OA
ATOM     74  C   UNL     1       3.433  -6.542   1.314  1.00  0.00     0.004 C 
BRANCH  69  75
ATOM     75  C   UNL     1       7.120  -5.844   0.672  1.00  0.00     0.231 C 
ATOM     76  O   UNL     1       7.974  -5.018   0.983  1.00  0.00    -0.274 OA
ATOM     77  N   UNL     1       7.580  -7.069   0.290  1.00  0.00    -0.325 N 
ATOM     78  H   UNL     1       8.451  -7.326   0.670  1.00  0.00     0.169 HD
BRANCH  77  79
ATOM     79  C   UNL     1       7.001  -8.020  -0.564  1.00  0.00     0.049 A 
ATOM     80  C   UNL     1       7.216  -9.345  -0.157  1.00  0.00     0.027 A 
ATOM     81  C   UNL     1       6.274  -7.727  -1.754  1.00  0.00     0.005 A 
ATOM     82  C   UNL     1       6.629 -10.399  -0.844  1.00  0.00     0.002 A 
ATOM     83  C   UNL     1       5.703  -8.823  -2.428  1.00  0.00     0.011 A 
ATOM     84  C   UNL     1       5.861 -10.136  -1.971  1.00  0.00     0.001 A 
BRANCH  81  85
ATOM     85  C   UNL     1       6.081  -6.358  -2.326  1.00  0.00    -0.016 A 
ATOM     86  C   UNL     1       4.783  -5.900  -2.649  1.00  0.00     0.009 A 
ATOM     87  C   UNL     1       7.128  -5.423  -2.407  1.00  0.00     0.009 A 
ATOM     88  C   UNL     1       4.531  -4.553  -2.933  1.00  0.00     0.001 A 
ATOM     89  C   UNL     1       6.875  -4.073  -2.688  1.00  0.00     0.001 A 
ATOM     90  C   UNL     1       5.576  -3.636  -2.932  1.00  0.00     0.000 A 
ENDBRANCH  81  85
ENDBRANCH  77  79
ENDBRANCH  69  75
ENDBRANCH  66  68
ENDBRANCH  65  66
ENDBRANCH  64  65
ENDBRANCH   1  64
TORSDOF 17
