REMARK SMILES CCCCCCNC(=O)Oc1cccc(-c2ccc(CC(=O)OCCOCCOC(=O)c3ccc(-c4c5nc(c(-c6c(F)cccc6F)c6ccc([nH]6)c(-c6c(F)cccc6F)c6nc(c(-c7c(F)cccc7F)c7ccc4[nH]7)C=C6)C=C5)cc3)cc2F)c1
REMARK SMILES IDX 21 1 22 2 20 3 19 4 16 5 17 6 87 7 18 8 86 9 88 10 15 11
REMARK SMILES IDX 11 12 12 13 89 14 13 15 14 16 10 17 8 18 7 19 9 21 6 22 5 23
REMARK SMILES IDX 4 24 3 25 2 26 1 27 23 28 24 29 25 30 26 31 27 32 28 33
REMARK SMILES IDX 29 34 30 35 31 36 32 37 33 38 85 39 34 40 84 41 35 42 36 43
REMARK SMILES IDX 37 44 78 45 38 46 83 47 77 48 79 49 39 50 82 51 76 52 75 53
REMARK SMILES IDX 40 55 66 56 49 57 65 58 50 59 53 60 64 61 80 62 51 63 52 64
REMARK SMILES IDX 63 66 81 67 54 68 41 69 42 70 47 71 43 72 44 73 46 74 48 75
REMARK SMILES IDX 45 76 67 77 68 78 73 79 69 80 70 81 72 82 74 83 71 84 55 85
REMARK SMILES IDX 56 86 61 87 57 88 58 89 60 90 62 91 59 92
REMARK H PARENT 7 20 79 54 53 65
REMARK Flexibility Score: inf
ROOT
ATOM      1  C   UNL     1      -5.413 -11.654   8.606  1.00  0.00     0.310 C 
ATOM      2  O   UNL     1      -5.155 -12.388   9.555  1.00  0.00    -0.252 OA
ENDROOT
BRANCH   1   3
ATOM      3  C   UNL     1      -4.321 -10.912   7.872  1.00  0.00     0.158 C 
BRANCH   3   4
ATOM      4  C   UNL     1      -4.620 -10.334   6.507  1.00  0.00    -0.034 A 
ATOM      5  C   UNL     1      -4.987  -9.173   3.940  1.00  0.00     0.018 A 
ATOM      6  C   UNL     1      -4.646 -10.527   4.074  1.00  0.00     0.012 A 
ATOM      7  C   UNL     1      -5.162  -8.427   5.112  1.00  0.00     0.131 A 
ATOM      8  C   UNL     1      -4.453 -11.096   5.341  1.00  0.00     0.005 A 
ATOM      9  C   UNL     1      -4.994  -8.992   6.377  1.00  0.00     0.044 A 
ATOM     10  F   UNL     1      -5.481  -7.125   5.040  1.00  0.00    -0.206 F 
BRANCH   5  11
ATOM     11  C   UNL     1      -5.120  -8.550   2.618  1.00  0.00    -0.012 A 
ATOM     12  C   UNL     1      -4.316  -7.002   0.929  1.00  0.00     0.133 A 
ATOM     13  C   UNL     1      -5.412  -7.279   0.117  1.00  0.00     0.047 A 
ATOM     14  C   UNL     1      -4.170  -7.615   2.174  1.00  0.00     0.056 A 
ATOM     15  C   UNL     1      -6.356  -8.213   0.541  1.00  0.00     0.004 A 
ATOM     16  C   UNL     1      -6.207  -8.848   1.780  1.00  0.00     0.009 A 
BRANCH  12  17
ATOM     17  O   UNL     1      -3.437  -5.992   0.508  1.00  0.00    -0.410 OA
BRANCH  17  18
ATOM     18  C   UNL     1      -2.092  -6.322   0.409  1.00  0.00     0.412 C 
ATOM     19  N   UNL     1      -1.298  -5.260   0.074  1.00  0.00    -0.321 N 
ATOM     20  H   UNL     1      -0.335  -5.444  -0.020  1.00  0.00     0.167 HD
ATOM     21  O   UNL     1      -1.608  -7.434   0.584  1.00  0.00    -0.224 OA
BRANCH  19  22
ATOM     22  C   UNL     1      -1.717  -3.892  -0.159  1.00  0.00     0.119 C 
BRANCH  22  23
ATOM     23  C   UNL     1      -1.106  -2.922   0.853  1.00  0.00     0.021 C 
BRANCH  23  24
ATOM     24  C   UNL     1       0.424  -2.818   0.811  1.00  0.00     0.002 C 
BRANCH  24  25
ATOM     25  C   UNL     1       1.024  -2.384  -0.532  1.00  0.00    -0.000 C 
BRANCH  25  26
ATOM     26  C   UNL     1       0.552  -1.025  -1.056  1.00  0.00    -0.003 C 
ATOM     27  C   UNL     1       0.934   0.137  -0.153  1.00  0.00     0.004 C 
ENDBRANCH  25  26
ENDBRANCH  24  25
ENDBRANCH  23  24
ENDBRANCH  22  23
ENDBRANCH  19  22
ENDBRANCH  17  18
ENDBRANCH  12  17
ENDBRANCH   5  11
ENDBRANCH   3   4
ENDBRANCH   1   3
BRANCH   1  28
ATOM     28  O   UNL     1      -6.668 -11.400   8.149  1.00  0.00    -0.463 OA
BRANCH  28  29
ATOM     29  C   UNL     1      -7.727 -12.140   8.788  1.00  0.00     0.261 C 
BRANCH  29  30
ATOM     30  C   UNL     1      -8.521 -12.985   7.787  1.00  0.00     0.202 C 
BRANCH  30  31
ATOM     31  O   UNL     1      -7.806 -14.052   7.162  1.00  0.00    -0.374 OA
BRANCH  31  32
ATOM     32  C   UNL     1      -6.907 -13.696   6.113  1.00  0.00     0.202 C 
BRANCH  32  33
ATOM     33  C   UNL     1      -7.543 -13.408   4.747  1.00  0.00     0.261 C 
BRANCH  33  34
ATOM     34  O   UNL     1      -8.401 -12.253   4.781  1.00  0.00    -0.460 OA
BRANCH  34  35
ATOM     35  C   UNL     1      -9.714 -12.521   4.581  1.00  0.00     0.338 C 
ATOM     36  O   UNL     1     -10.210 -13.590   4.268  1.00  0.00    -0.246 OA
BRANCH  35  37
ATOM     37  C   UNL     1     -10.541 -11.355   4.953  1.00  0.00     0.060 A 
ATOM     38  C   UNL     1     -11.641 -11.595   5.787  1.00  0.00     0.016 A 
ATOM     39  C   UNL     1     -10.308 -10.078   4.439  1.00  0.00     0.016 A 
ATOM     40  C   UNL     1     -12.548 -10.574   6.060  1.00  0.00     0.010 A 
ATOM     41  C   UNL     1     -11.226  -9.054   4.708  1.00  0.00     0.010 A 
ATOM     42  C   UNL     1     -12.370  -9.309   5.486  1.00  0.00    -0.014 A 
BRANCH  42  43
ATOM     43  C   UNL     1     -13.464  -8.311   5.585  1.00  0.00     0.031 A 
ATOM     44  C   UNL     1     -14.424  -8.164   4.435  1.00  0.00     0.074 A 
ATOM     45  C   UNL     1     -13.632  -7.582   6.702  1.00  0.00     0.049 A 
ATOM     46  N   UNL     1     -15.452  -7.364   4.310  1.00  0.00    -0.248 NA
ATOM     47  C   UNL     1     -14.195  -9.036   3.272  1.00  0.00     0.031 C 
ATOM     48  C   UNL     1     -12.790  -7.657   7.895  1.00  0.00     0.029 A 
ATOM     49  N   UNL     1     -14.572  -6.631   7.011  1.00  0.00    -0.354 N 
ATOM     50  C   UNL     1     -15.990  -7.634   3.057  1.00  0.00     0.074 A 
ATOM     51  C   UNL     1     -15.160  -8.651   2.449  1.00  0.00     0.031 C 
ATOM     52  C   UNL     1     -13.247  -6.779   8.805  1.00  0.00     0.029 A 
ATOM     53  C   UNL     1     -14.396  -6.066   8.251  1.00  0.00     0.049 A 
ATOM     54  H   UNL     1     -15.303  -6.377   6.402  1.00  0.00     0.167 HD
ATOM     55  C   UNL     1     -17.082  -7.090   2.471  1.00  0.00     0.037 A 
ATOM     56  C   UNL     1     -15.077  -5.076   8.860  1.00  0.00     0.037 A 
ATOM     57  C   UNL     1     -17.914  -6.085   3.078  1.00  0.00     0.049 A 
ATOM     58  C   UNL     1     -16.256  -4.451   8.163  1.00  0.00     0.074 A 
ATOM     59  C   UNL     1     -19.057  -5.490   2.571  1.00  0.00     0.029 A 
ATOM     60  N   UNL     1     -17.689  -5.523   4.324  1.00  0.00    -0.354 N 
ATOM     61  N   UNL     1     -16.774  -4.738   6.994  1.00  0.00    -0.248 NA
ATOM     62  C   UNL     1     -16.948  -3.365   8.874  1.00  0.00     0.031 C 
ATOM     63  C   UNL     1     -19.500  -4.538   3.494  1.00  0.00     0.029 A 
ATOM     64  C   UNL     1     -18.658  -4.572   4.594  1.00  0.00     0.049 A 
ATOM     65  H   UNL     1     -16.950  -5.765   4.928  1.00  0.00     0.167 HD
ATOM     66  C   UNL     1     -17.866  -3.892   6.842  1.00  0.00     0.074 A 
ATOM     67  C   UNL     1     -17.944  -3.088   8.043  1.00  0.00     0.031 C 
ATOM     68  C   UNL     1     -18.728  -3.790   5.801  1.00  0.00     0.037 A 
BRANCH  55  69
ATOM     69  C   UNL     1     -17.436  -7.559   1.091  1.00  0.00     0.057 A 
ATOM     70  C   UNL     1     -18.013  -8.815   0.864  1.00  0.00     0.134 A 
ATOM     71  C   UNL     1     -17.247  -6.723  -0.016  1.00  0.00     0.134 A 
ATOM     72  F   UNL     1     -18.209  -9.667   1.881  1.00  0.00    -0.206 F 
ATOM     73  C   UNL     1     -18.377  -9.228  -0.419  1.00  0.00     0.040 A 
ATOM     74  C   UNL     1     -17.626  -7.116  -1.300  1.00  0.00     0.040 A 
ATOM     75  F   UNL     1     -16.703  -5.506   0.135  1.00  0.00    -0.206 F 
ATOM     76  C   UNL     1     -18.190  -8.373  -1.505  1.00  0.00     0.006 A 
ENDBRANCH  55  69
BRANCH  56  77
ATOM     77  C   UNL     1     -14.657  -4.597  10.201  1.00  0.00     0.057 A 
ATOM     78  C   UNL     1     -15.448  -4.817  11.334  1.00  0.00     0.134 A 
ATOM     79  C   UNL     1     -13.471  -3.874  10.373  1.00  0.00     0.134 A 
ATOM     80  F   UNL     1     -16.608  -5.482  11.228  1.00  0.00    -0.206 F 
ATOM     81  C   UNL     1     -15.086  -4.318  12.587  1.00  0.00     0.040 A 
ATOM     82  C   UNL     1     -13.084  -3.390  11.624  1.00  0.00     0.040 A 
ATOM     83  F   UNL     1     -12.669  -3.628   9.327  1.00  0.00    -0.206 F 
ATOM     84  C   UNL     1     -13.898  -3.605  12.734  1.00  0.00     0.006 A 
ENDBRANCH  56  77
BRANCH  68  85
ATOM     85  C   UNL     1     -19.850  -2.802   5.930  1.00  0.00     0.057 A 
ATOM     86  C   UNL     1     -19.635  -1.423   5.823  1.00  0.00     0.134 A 
ATOM     87  C   UNL     1     -21.167  -3.241   6.118  1.00  0.00     0.134 A 
ATOM     88  F   UNL     1     -18.395  -0.939   5.654  1.00  0.00    -0.206 F 
ATOM     89  C   UNL     1     -20.689  -0.513   5.919  1.00  0.00     0.040 A 
ATOM     90  C   UNL     1     -22.231  -2.342   6.192  1.00  0.00     0.040 A 
ATOM     91  F   UNL     1     -21.441  -4.550   6.218  1.00  0.00    -0.206 F 
ATOM     92  C   UNL     1     -21.993  -0.973   6.097  1.00  0.00     0.006 A 
ENDBRANCH  68  85
ENDBRANCH  42  43
ENDBRANCH  35  37
ENDBRANCH  34  35
ENDBRANCH  33  34
ENDBRANCH  32  33
ENDBRANCH  31  32
ENDBRANCH  30  31
ENDBRANCH  29  30
ENDBRANCH  28  29
ENDBRANCH   1  28
TORSDOF 23
