REMARK SMILES NS(=O)(=O)c1ccc(-n2nc(NC(=O)NCCCC(=O)OCCOCCOC(=O)c3ccc(-c4c5nc(c(-c6c(F)cccc6F)c6ccc([nH]6)c(-c6c(F)cccc6F)c6nc(c(-c7c(F)cccc7F)c7ccc4[nH]7)C=C6)C=C5)cc3)cc2-c2ccccc2)cc1
REMARK SMILES IDX 22 1 21 2 19 3 20 4 18 5 17 6 16 7 15 8 12 9 13 10 14 12
REMARK SMILES IDX 11 14 9 15 10 16 85 17 84 18 8 19 5 20 6 21 93 22 7 23 92 24
REMARK SMILES IDX 2 25 3 26 4 27 1 28 86 31 87 32 91 33 88 34 90 35 89 36
REMARK SMILES IDX 23 37 24 38 25 39 26 40 27 41 28 42 29 43 30 44 31 45 83 46
REMARK SMILES IDX 32 47 82 48 33 49 34 50 35 51 76 52 36 53 81 54 75 55 77 56
REMARK SMILES IDX 37 57 80 58 74 59 73 60 38 62 64 63 47 64 63 65 48 66 51 67
REMARK SMILES IDX 62 68 78 69 49 70 50 71 61 73 79 74 52 75 39 76 40 77 45 78
REMARK SMILES IDX 41 79 42 80 44 81 46 82 43 83 65 84 66 85 71 86 67 87 68 88
REMARK SMILES IDX 70 89 72 90 69 91 53 92 54 93 59 94 55 95 56 96 58 97 60 98
REMARK SMILES IDX 57 99
REMARK H PARENT 12 11 15 13 1 29 1 30 77 61 51 72
REMARK Flexibility Score: inf
ROOT
ATOM      1  C   UNL     1      -1.680   6.093   6.576  1.00  0.00     0.261 C 
ENDROOT
BRANCH   1   2
ATOM      2  O   UNL     1      -1.715   4.775   7.151  1.00  0.00    -0.463 OA
BRANCH   2   3
ATOM      3  C   UNL     1      -2.957   4.335   7.481  1.00  0.00     0.305 C 
ATOM      4  O   UNL     1      -3.994   4.966   7.301  1.00  0.00    -0.252 OA
BRANCH   3   5
ATOM      5  C   UNL     1      -2.965   3.003   8.192  1.00  0.00     0.124 C 
BRANCH   5   6
ATOM      6  C   UNL     1      -1.943   1.945   7.823  1.00  0.00     0.033 C 
BRANCH   6   7
ATOM      7  C   UNL     1      -0.475   2.176   8.147  1.00  0.00     0.118 C 
BRANCH   7   8
ATOM      8  N   UNL     1      -0.129   2.546   9.498  1.00  0.00    -0.338 N 
ATOM      9  N   UNL     1       2.006   1.502   9.852  1.00  0.00    -0.291 N 
ATOM     10  C   UNL     1       0.977   2.292  10.229  1.00  0.00     0.320 C 
ATOM     11  H   UNL     1       2.620   1.295  10.593  1.00  0.00     0.173 HD
ATOM     12  O   UNL     1       1.007   2.751  11.377  1.00  0.00    -0.248 OA
ATOM     13  H   UNL     1      -0.815   3.075   9.966  1.00  0.00     0.165 HD
BRANCH   9  14
ATOM     14  C   UNL     1       2.389   0.923   8.662  1.00  0.00     0.157 A 
ATOM     15  N   UNL     1       2.280   0.276   6.645  1.00  0.00    -0.231 N 
ATOM     16  N   UNL     1       2.045   1.339   7.444  1.00  0.00    -0.149 NA
ATOM     17  C   UNL     1       3.246  -0.553   7.220  1.00  0.00     0.076 A 
ATOM     18  C   UNL     1       3.289  -0.172   8.550  1.00  0.00     0.078 A 
BRANCH  15  19
ATOM     19  C   UNL     1       1.818   0.281   5.292  1.00  0.00     0.065 A 
ATOM     20  C   UNL     1       1.189   0.442   2.561  1.00  0.00     0.082 A 
ATOM     21  C   UNL     1       0.766  -0.659   3.326  1.00  0.00     0.024 A 
ATOM     22  C   UNL     1       1.990   1.411   3.132  1.00  0.00     0.024 A 
ATOM     23  C   UNL     1       1.118  -0.764   4.692  1.00  0.00     0.030 A 
ATOM     24  C   UNL     1       2.250   1.327   4.489  1.00  0.00     0.030 A 
BRANCH  20  25
ATOM     25  S   UNL     1       0.561   0.767   0.940  1.00  0.00     0.238 S 
ATOM     26  O   UNL     1       1.053   2.053   0.493  1.00  0.00    -0.207 OA
ATOM     27  O   UNL     1      -0.840   0.432   0.923  1.00  0.00    -0.207 OA
BRANCH  25  28
ATOM     28  N   UNL     1       1.347  -0.352  -0.025  1.00  0.00    -0.225 NA
ATOM     29  H   UNL     1       1.044  -0.239  -0.992  1.00  0.00     0.137 HD
ATOM     30  H   UNL     1       1.121  -1.294   0.294  1.00  0.00     0.137 HD
ENDBRANCH  25  28
ENDBRANCH  20  25
ENDBRANCH  15  19
BRANCH  17  31
ATOM     31  C   UNL     1       3.950  -1.548   6.423  1.00  0.00     0.000 A 
ATOM     32  C   UNL     1       4.345  -1.158   5.147  1.00  0.00     0.010 A 
ATOM     33  C   UNL     1       4.018  -2.894   6.758  1.00  0.00     0.010 A 
ATOM     34  C   UNL     1       4.479  -2.089   4.132  1.00  0.00     0.001 A 
ATOM     35  C   UNL     1       4.333  -3.831   5.764  1.00  0.00     0.001 A 
ATOM     36  C   UNL     1       4.508  -3.432   4.439  1.00  0.00     0.000 A 
ENDBRANCH  17  31
ENDBRANCH   9  14
ENDBRANCH   7   8
ENDBRANCH   6   7
ENDBRANCH   5   6
ENDBRANCH   3   5
ENDBRANCH   2   3
ENDBRANCH   1   2
BRANCH   1  37
ATOM     37  C   UNL     1      -1.479   6.156   5.057  1.00  0.00     0.202 C 
BRANCH  37  38
ATOM     38  O   UNL     1      -2.152   5.213   4.240  1.00  0.00    -0.374 OA
BRANCH  38  39
ATOM     39  C   UNL     1      -1.767   3.854   4.347  1.00  0.00     0.202 C 
BRANCH  39  40
ATOM     40  C   UNL     1      -0.315   3.475   4.083  1.00  0.00     0.261 C 
BRANCH  40  41
ATOM     41  O   UNL     1       0.700   4.127   4.869  1.00  0.00    -0.460 OA
BRANCH  41  42
ATOM     42  C   UNL     1       1.519   4.957   4.156  1.00  0.00     0.338 C 
ATOM     43  O   UNL     1       1.219   5.541   3.127  1.00  0.00    -0.246 OA
BRANCH  42  44
ATOM     44  C   UNL     1       2.928   4.809   4.601  1.00  0.00     0.060 A 
ATOM     45  C   UNL     1       3.905   4.938   3.599  1.00  0.00     0.016 A 
ATOM     46  C   UNL     1       3.245   4.194   5.806  1.00  0.00     0.016 A 
ATOM     47  C   UNL     1       5.084   4.196   3.668  1.00  0.00     0.010 A 
ATOM     48  C   UNL     1       4.413   3.435   5.853  1.00  0.00     0.010 A 
ATOM     49  C   UNL     1       5.277   3.334   4.740  1.00  0.00    -0.014 A 
BRANCH  49  50
ATOM     50  C   UNL     1       6.468   2.479   4.868  1.00  0.00     0.031 A 
ATOM     51  C   UNL     1       7.410   3.090   5.815  1.00  0.00     0.074 A 
ATOM     52  C   UNL     1       6.826   1.331   4.247  1.00  0.00     0.049 A 
ATOM     53  N   UNL     1       8.328   3.918   5.440  1.00  0.00    -0.248 NA
ATOM     54  C   UNL     1       7.173   3.046   7.259  1.00  0.00     0.031 C 
ATOM     55  C   UNL     1       6.167   0.629   3.145  1.00  0.00     0.029 A 
ATOM     56  N   UNL     1       7.899   0.505   4.524  1.00  0.00    -0.354 N 
ATOM     57  C   UNL     1       8.936   4.315   6.611  1.00  0.00     0.074 A 
ATOM     58  C   UNL     1       7.994   4.022   7.655  1.00  0.00     0.031 C 
ATOM     59  C   UNL     1       6.771  -0.572   2.948  1.00  0.00     0.029 A 
ATOM     60  C   UNL     1       7.840  -0.752   3.923  1.00  0.00     0.049 A 
ATOM     61  H   UNL     1       8.647   0.782   5.100  1.00  0.00     0.167 HD
ATOM     62  C   UNL     1      10.285   4.470   6.647  1.00  0.00     0.037 A 
ATOM     63  C   UNL     1       8.771  -1.744   3.857  1.00  0.00     0.037 A 
ATOM     64  C   UNL     1      10.838   4.465   5.306  1.00  0.00     0.049 A 
ATOM     65  C   UNL     1      10.079  -1.077   3.887  1.00  0.00     0.074 A 
ATOM     66  C   UNL     1      10.812   5.288   4.198  1.00  0.00     0.029 A 
ATOM     67  N   UNL     1      11.241   3.228   4.872  1.00  0.00    -0.354 N 
ATOM     68  N   UNL     1      10.544  -0.421   2.866  1.00  0.00    -0.248 NA
ATOM     69  C   UNL     1      10.738  -0.822   5.162  1.00  0.00     0.031 C 
ATOM     70  C   UNL     1      11.028   4.447   3.064  1.00  0.00     0.029 A 
ATOM     71  C   UNL     1      11.201   3.141   3.508  1.00  0.00     0.049 A 
ATOM     72  H   UNL     1      11.524   2.497   5.467  1.00  0.00     0.167 HD
ATOM     73  C   UNL     1      11.180   0.657   3.443  1.00  0.00     0.074 A 
ATOM     74  C   UNL     1      11.438   0.264   4.823  1.00  0.00     0.031 C 
ATOM     75  C   UNL     1      11.137   1.871   2.830  1.00  0.00     0.037 A 
BRANCH  62  76
ATOM     76  C   UNL     1      11.138   4.102   7.844  1.00  0.00     0.057 A 
ATOM     77  C   UNL     1      12.520   4.348   7.770  1.00  0.00     0.134 A 
ATOM     78  C   UNL     1      10.742   3.282   8.924  1.00  0.00     0.134 A 
ATOM     79  F   UNL     1      13.033   5.107   6.790  1.00  0.00    -0.206 F 
ATOM     80  C   UNL     1      13.437   3.758   8.647  1.00  0.00     0.040 A 
ATOM     81  C   UNL     1      11.644   2.732   9.835  1.00  0.00     0.040 A 
ATOM     82  F   UNL     1       9.486   2.873   9.121  1.00  0.00    -0.206 F 
ATOM     83  C   UNL     1      13.001   2.940   9.680  1.00  0.00     0.006 A 
ENDBRANCH  62  76
BRANCH  63  84
ATOM     84  C   UNL     1       8.661  -3.139   4.369  1.00  0.00     0.057 A 
ATOM     85  C   UNL     1       9.508  -4.153   3.889  1.00  0.00     0.134 A 
ATOM     86  C   UNL     1       7.902  -3.468   5.500  1.00  0.00     0.134 A 
ATOM     87  F   UNL     1      10.339  -3.909   2.865  1.00  0.00    -0.206 F 
ATOM     88  C   UNL     1       9.573  -5.425   4.479  1.00  0.00     0.040 A 
ATOM     89  C   UNL     1       7.936  -4.744   6.086  1.00  0.00     0.040 A 
ATOM     90  F   UNL     1       7.186  -2.526   6.129  1.00  0.00    -0.206 F 
ATOM     91  C   UNL     1       8.776  -5.729   5.578  1.00  0.00     0.006 A 
ENDBRANCH  63  84
BRANCH  75  92
ATOM     92  C   UNL     1      10.818   1.850   1.368  1.00  0.00     0.057 A 
ATOM     93  C   UNL     1       9.531   1.663   0.847  1.00  0.00     0.134 A 
ATOM     94  C   UNL     1      11.853   2.055   0.455  1.00  0.00     0.134 A 
ATOM     95  F   UNL     1       8.476   1.533   1.656  1.00  0.00    -0.206 F 
ATOM     96  C   UNL     1       9.290   1.639  -0.530  1.00  0.00     0.040 A 
ATOM     97  C   UNL     1      11.623   2.067  -0.922  1.00  0.00     0.040 A 
ATOM     98  F   UNL     1      13.103   2.272   0.892  1.00  0.00    -0.206 F 
ATOM     99  C   UNL     1      10.340   1.847  -1.419  1.00  0.00     0.006 A 
ENDBRANCH  75  92
ENDBRANCH  49  50
ENDBRANCH  42  44
ENDBRANCH  41  42
ENDBRANCH  40  41
ENDBRANCH  39  40
ENDBRANCH  38  39
ENDBRANCH  37  38
ENDBRANCH   1  37
TORSDOF 22
