REMARK SMILES Cc1ccc(-c2cc(Cl)cc3c2O[C@H](C(F)(F)F)C(C(=O)OCCOCCOC(=O)c2ccc(-c4c5nc(c(-c6c(F)cccc6F)c6ccc([nH]6)c(-c6c(F)cccc6F)c6nc(c(-c7c(F)cccc7F)c7ccc4[nH]7)C=C6)C=C5)cc2)=C3)cc1F
REMARK SMILES IDX 26 1 25 2 24 3 23 4 22 5 20 6 21 7 19 8 6 9 7 10 12 11 8 12
REMARK SMILES IDX 11 13 13 14 9 15 10 16 85 17 14 18 5 19 1 20 2 21 3 22 87 23
REMARK SMILES IDX 4 24 86 25 88 26 15 27 16 28 17 29 18 30 27 31 28 32 29 33
REMARK SMILES IDX 30 34 31 35 32 36 84 37 33 38 83 39 34 40 35 41 36 42 77 43
REMARK SMILES IDX 37 44 82 45 76 46 78 47 38 48 81 49 75 50 74 51 39 53 65 54
REMARK SMILES IDX 48 55 64 56 49 57 52 58 63 59 79 60 50 61 51 62 62 64 80 65
REMARK SMILES IDX 53 66 40 67 41 68 46 69 42 70 43 71 45 72 47 73 44 74 66 75
REMARK SMILES IDX 67 76 72 77 68 78 69 79 71 80 73 81 70 82 54 83 55 84 60 85
REMARK SMILES IDX 56 86 57 87 59 88 61 89 58 90
REMARK H PARENT 78 52 52 63
REMARK Flexibility Score: inf
ROOT
ATOM      1  C   UNL     1      -6.563  -4.775   6.926  1.00  0.00     0.202 C 
ENDROOT
BRANCH   1   2
ATOM      2  O   UNL     1      -5.613  -5.710   6.408  1.00  0.00    -0.374 OA
BRANCH   2   3
ATOM      3  C   UNL     1      -4.258  -5.631   6.813  1.00  0.00     0.202 C 
BRANCH   3   4
ATOM      4  C   UNL     1      -3.119  -6.217   5.810  1.00  0.00     0.261 C 
BRANCH   4   5
ATOM      5  O   UNL     1      -2.657  -5.598   3.957  1.00  0.00    -0.460 OA
BRANCH   5   6
ATOM      6  C   UNL     1      -2.283  -5.468   2.612  1.00  0.00     0.338 C 
ATOM      7  O   UNL     1      -1.792  -6.322   1.890  1.00  0.00    -0.246 OA
BRANCH   6   8
ATOM      8  C   UNL     1      -2.712  -4.171   2.045  1.00  0.00     0.087 C 
ATOM      9  C   UNL     1      -3.042  -1.056  -0.600  1.00  0.00     0.026 A 
ATOM     10  C   UNL     1      -4.035  -1.096  -1.584  1.00  0.00     0.033 A 
ATOM     11  C   UNL     1      -3.109  -1.980   0.460  1.00  0.00     0.135 A 
ATOM     12  C   UNL     1      -5.067  -2.036  -1.495  1.00  0.00     0.042 A 
ATOM     13  C   UNL     1      -4.080  -2.983   0.492  1.00  0.00     0.019 A 
ATOM     14  O   UNL     1      -2.176  -1.847   1.457  1.00  0.00    -0.475 OA
ATOM     15  Cl  UNL     1      -6.270  -2.095  -2.726  1.00  0.00    -0.084 Cl
ATOM     16  C   UNL     1      -5.095  -2.980  -0.465  1.00  0.00     0.032 A 
ATOM     17  C   UNL     1      -3.881  -4.119   1.384  1.00  0.00     0.027 C 
ATOM     18  C   UNL     1      -1.720  -3.055   2.099  1.00  0.00     0.316 C 
BRANCH   9  19
ATOM     19  C   UNL     1      -1.863  -0.187  -0.700  1.00  0.00    -0.012 A 
ATOM     20  C   UNL     1       1.772   2.040  -0.055  1.00  0.00     0.047 C 
ATOM     21  C   UNL     1       0.504   1.309  -0.369  1.00  0.00    -0.015 A 
ATOM     22  C   UNL     1      -0.749   1.923  -0.246  1.00  0.00     0.007 A 
ATOM     23  C   UNL     1       0.558  -0.039  -0.716  1.00  0.00     0.126 A 
ATOM     24  C   UNL     1      -1.925   1.181  -0.411  1.00  0.00     0.009 A 
ATOM     25  C   UNL     1      -0.603  -0.775  -0.905  1.00  0.00     0.048 A 
ATOM     26  F   UNL     1       1.741  -0.661  -0.813  1.00  0.00    -0.207 F 
ENDBRANCH   9  19
BRANCH  18  27
ATOM     27  C   UNL     1      -0.334  -3.442   1.579  1.00  0.00     0.430 C 
ATOM     28  F   UNL     1       0.514  -2.389   1.634  1.00  0.00    -0.167 F 
ATOM     29  F   UNL     1       0.222  -4.415   2.337  1.00  0.00    -0.167 F 
ATOM     30  F   UNL     1      -0.373  -3.875   0.301  1.00  0.00    -0.167 F 
ENDBRANCH  18  27
ENDBRANCH   6   8
ENDBRANCH   5   6
ENDBRANCH   4   5
ENDBRANCH   3   4
ENDBRANCH   2   3
ENDBRANCH   1   2
BRANCH   1  31
ATOM     31  C   UNL     1      -6.230  -3.398   7.575  1.00  0.00     0.261 C 
BRANCH  31  32
ATOM     32  O   UNL     1      -4.950  -3.276   8.206  1.00  0.00    -0.460 OA
BRANCH  32  33
ATOM     33  C   UNL     1      -4.864  -3.514   9.535  1.00  0.00     0.338 C 
ATOM     34  O   UNL     1      -5.763  -3.444  10.350  1.00  0.00    -0.246 OA
BRANCH  33  35
ATOM     35  C   UNL     1      -3.595  -4.264   9.728  1.00  0.00     0.060 A 
ATOM     36  C   UNL     1      -2.388  -3.897   9.109  1.00  0.00     0.016 A 
ATOM     37  C   UNL     1      -3.740  -5.536  10.290  1.00  0.00     0.016 A 
ATOM     38  C   UNL     1      -1.365  -4.847   8.970  1.00  0.00     0.010 A 
ATOM     39  C   UNL     1      -2.734  -6.481  10.127  1.00  0.00     0.010 A 
ATOM     40  C   UNL     1      -1.562  -6.156   9.433  1.00  0.00    -0.014 A 
BRANCH  40  41
ATOM     41  C   UNL     1      -0.568  -7.218   9.251  1.00  0.00     0.031 A 
ATOM     42  C   UNL     1       0.604  -7.270  10.147  1.00  0.00     0.074 A 
ATOM     43  C   UNL     1      -0.658  -8.171   8.292  1.00  0.00     0.049 A 
ATOM     44  N   UNL     1       1.791  -7.627   9.781  1.00  0.00    -0.248 NA
ATOM     45  C   UNL     1       0.495  -6.939  11.562  1.00  0.00     0.031 C 
ATOM     46  C   UNL     1       0.235  -9.310   8.084  1.00  0.00     0.029 A 
ATOM     47  N   UNL     1      -1.448  -8.167   7.138  1.00  0.00    -0.354 N 
ATOM     48  C   UNL     1       2.475  -7.930  10.933  1.00  0.00     0.074 A 
ATOM     49  C   UNL     1       1.679  -7.369  12.008  1.00  0.00     0.031 C 
ATOM     50  C   UNL     1       0.224  -9.623   6.777  1.00  0.00     0.029 A 
ATOM     51  C   UNL     1      -0.611  -8.642   6.099  1.00  0.00     0.049 A 
ATOM     52  H   UNL     1      -2.390  -7.891   7.063  1.00  0.00     0.167 HD
ATOM     53  C   UNL     1       3.530  -8.795  10.906  1.00  0.00     0.037 A 
ATOM     54  C   UNL     1      -0.242  -7.858   5.046  1.00  0.00     0.037 A 
ATOM     55  C   UNL     1       3.848  -9.275   9.563  1.00  0.00     0.049 A 
ATOM     56  C   UNL     1       1.270  -7.669   4.921  1.00  0.00     0.074 A 
ATOM     57  C   UNL     1       3.681 -10.479   8.895  1.00  0.00     0.029 A 
ATOM     58  N   UNL     1       4.193  -8.355   8.584  1.00  0.00    -0.354 N 
ATOM     59  N   UNL     1       2.135  -8.126   5.790  1.00  0.00    -0.248 NA
ATOM     60  C   UNL     1       1.936  -6.907   3.861  1.00  0.00     0.031 C 
ATOM     61  C   UNL     1       3.942 -10.277   7.514  1.00  0.00     0.029 A 
ATOM     62  C   UNL     1       4.232  -8.941   7.335  1.00  0.00     0.049 A 
ATOM     63  H   UNL     1       4.385  -7.406   8.758  1.00  0.00     0.167 HD
ATOM     64  C   UNL     1       3.409  -7.759   5.432  1.00  0.00     0.074 A 
ATOM     65  C   UNL     1       3.232  -6.981   4.223  1.00  0.00     0.031 C 
ATOM     66  C   UNL     1       4.503  -8.124   6.165  1.00  0.00     0.037 A 
BRANCH  53  67
ATOM     67  C   UNL     1       4.035  -9.409  12.187  1.00  0.00     0.057 A 
ATOM     68  C   UNL     1       4.298 -10.785  12.305  1.00  0.00     0.134 A 
ATOM     69  C   UNL     1       4.205  -8.672  13.371  1.00  0.00     0.134 A 
ATOM     70  F   UNL     1       4.269 -11.607  11.251  1.00  0.00    -0.206 F 
ATOM     71  C   UNL     1       4.584 -11.399  13.529  1.00  0.00     0.040 A 
ATOM     72  C   UNL     1       4.442  -9.279  14.612  1.00  0.00     0.040 A 
ATOM     73  F   UNL     1       4.132  -7.331  13.364  1.00  0.00    -0.206 F 
ATOM     74  C   UNL     1       4.616 -10.653  14.696  1.00  0.00     0.006 A 
ENDBRANCH  53  67
BRANCH  54  75
ATOM     75  C   UNL     1      -1.297  -6.885   4.614  1.00  0.00     0.057 A 
ATOM     76  C   UNL     1      -2.892  -7.514   4.010  1.00  0.00     0.134 A 
ATOM     77  C   UNL     1      -1.182  -5.165   5.131  1.00  0.00     0.134 A 
ATOM     78  F   UNL     1      -3.044  -8.821   3.756  1.00  0.00    -0.206 F 
ATOM     79  C   UNL     1      -4.363  -6.443   3.979  1.00  0.00     0.040 A 
ATOM     80  C   UNL     1      -2.628  -4.090   5.130  1.00  0.00     0.040 A 
ATOM     81  F   UNL     1      -0.046  -4.706   5.676  1.00  0.00    -0.206 F 
ATOM     82  C   UNL     1      -4.220  -4.707   4.515  1.00  0.00     0.006 A 
ENDBRANCH  54  75
BRANCH  66  83
ATOM     83  C   UNL     1       5.942  -7.837   5.831  1.00  0.00     0.057 A 
ATOM     84  C   UNL     1       6.481  -8.028   4.553  1.00  0.00     0.134 A 
ATOM     85  C   UNL     1       6.877  -7.558   6.852  1.00  0.00     0.134 A 
ATOM     86  F   UNL     1       5.696  -8.345   3.514  1.00  0.00    -0.206 F 
ATOM     87  C   UNL     1       7.861  -7.949   4.308  1.00  0.00     0.040 A 
ATOM     88  C   UNL     1       8.256  -7.518   6.628  1.00  0.00     0.040 A 
ATOM     89  F   UNL     1       6.483  -7.313   8.111  1.00  0.00    -0.206 F 
ATOM     90  C   UNL     1       8.755  -7.713   5.349  1.00  0.00     0.006 A 
ENDBRANCH  66  83
ENDBRANCH  40  41
ENDBRANCH  33  35
ENDBRANCH  32  33
ENDBRANCH  31  32
ENDBRANCH   1  31
TORSDOF 16
