REMARK SMILES CC1(C)CC[C@@]2(C(=O)OCCOCCOC(=O)c3ccc(-c4c5nc(c(-c6c(F)cccc6F)c6ccc([nH]6)c(-c6c(F)cccc6F)c6nc(c(-c7c(F)cccc7F)c7ccc4[nH]7)C=C6)C=C5)cc3)CC[C@@]3(C)C(=CC[C@H]4[C@@]5(C)CC[C@H](O)C(C)(C)[C@@H]5CC[C@]43C)[C@@H]2C1
REMARK SMILES IDX 13 1 12 2 11 3 10 4 9 5 7 6 8 7 6 8 1 9 2 10 3 11 4 12 95 13
REMARK SMILES IDX 5 14 94 15 76 16 72 17 74 18 77 19 73 20 75 21 92 22 78 23
REMARK SMILES IDX 79 24 91 25 93 26 80 27 90 28 81 29 82 30 89 31 83 32 86 33
REMARK SMILES IDX 84 34 87 35 88 36 85 37 14 39 15 40 16 41 17 42 18 43 19 44
REMARK SMILES IDX 71 45 20 46 70 47 21 48 22 49 23 50 64 51 24 52 69 53 63 54
REMARK SMILES IDX 65 55 25 56 68 57 62 58 61 59 26 61 52 62 35 63 51 64 36 65
REMARK SMILES IDX 39 66 50 67 66 68 37 69 38 70 49 72 67 73 40 74 27 75 28 76
REMARK SMILES IDX 33 77 29 78 30 79 32 80 34 81 31 82 53 83 54 84 59 85 55 86
REMARK SMILES IDX 56 87 58 88 60 89 57 90 41 91 42 92 47 93 43 94 44 95 46 96
REMARK SMILES IDX 48 97 45 98
REMARK H PARENT 85 38 65 60 39 71
REMARK Flexibility Score: inf
ROOT
ATOM      1  C   UNL     1      -1.387  -5.523   0.924  1.00  0.00     0.202 C 
ENDROOT
BRANCH   1   2
ATOM      2  O   UNL     1      -0.478  -5.513   2.005  1.00  0.00    -0.374 OA
BRANCH   2   3
ATOM      3  C   UNL     1      -0.248  -4.271   2.633  1.00  0.00     0.202 C 
BRANCH   3   4
ATOM      4  C   UNL     1      -0.401  -3.000   1.878  1.00  0.00     0.261 C 
BRANCH   4   5
ATOM      5  O   UNL     1       0.691  -2.743   1.015  1.00  0.00    -0.463 OA
BRANCH   5   6
ATOM      6  C   UNL     1       1.646  -3.611   0.651  1.00  0.00     0.312 C 
ATOM      7  O   UNL     1       1.512  -4.815   0.424  1.00  0.00    -0.252 OA
BRANCH   6   8
ATOM      8  C   UNL     1       2.904  -2.820   0.393  1.00  0.00     0.075 C 
ATOM      9  C   UNL     1       1.574   1.102  -0.881  1.00  0.00     0.011 C 
ATOM     10  C   UNL     1       1.280  -0.218  -0.127  1.00  0.00    -0.035 C 
ATOM     11  C   UNL     1      -0.192   0.028   0.365  1.00  0.00     0.011 C 
ATOM     12  C   UNL     1       1.375  -1.368  -1.164  1.00  0.00     0.007 C 
ATOM     13  C   UNL     1       2.243  -0.371   1.120  1.00  0.00     0.015 C 
ATOM     14  C   UNL     1       2.642  -2.270  -1.042  1.00  0.00     0.020 C 
ATOM     15  C   UNL     1       3.149  -1.672   1.406  1.00  0.00     0.033 C 
ATOM     16  C   UNL     1       3.197  -2.303   2.870  1.00  0.00    -0.063 C 
ATOM     17  C   UNL     1       4.110  -3.796   0.576  1.00  0.00     0.020 C 
ATOM     18  C   UNL     1       4.214  -3.481   3.283  1.00  0.00    -0.006 C 
ATOM     19  C   UNL     1       2.210  -1.962   3.711  1.00  0.00    -0.027 C 
ATOM     20  C   UNL     1       4.233  -4.449   2.033  1.00  0.00     0.013 C 
ATOM     21  C   UNL     1       5.682  -2.947   3.288  1.00  0.00     0.017 C 
ATOM     22  C   UNL     1       3.872  -4.010   4.974  1.00  0.00    -0.020 C 
ATOM     23  C   UNL     1       1.706  -2.745   4.861  1.00  0.00     0.032 C 
ATOM     24  C   UNL     1       2.357  -4.117   5.170  1.00  0.00     0.006 C 
ATOM     25  C   UNL     1       4.380  -5.268   5.885  1.00  0.00     0.008 C 
ATOM     26  C   UNL     1       4.418  -2.796   5.851  1.00  0.00     0.012 C 
ATOM     27  C   UNL     1       1.702  -5.630   4.908  1.00  0.00    -0.025 C 
ATOM     28  C   UNL     1       3.234  -6.065   6.822  1.00  0.00     0.005 C 
ATOM     29  C   UNL     1       0.254  -5.463   5.350  1.00  0.00     0.012 C 
ATOM     30  C   UNL     1       2.012  -6.363   3.562  1.00  0.00     0.010 C 
ATOM     31  C   UNL     1       2.281  -6.739   5.842  1.00  0.00     0.003 C 
ATOM     32  C   UNL     1       1.468  -7.799   3.364  1.00  0.00     0.033 C 
ATOM     33  C   UNL     1       1.372  -8.107   5.912  1.00  0.00    -0.006 C 
ATOM     34  C   UNL     1       1.725  -8.782   4.533  1.00  0.00     0.120 C 
ATOM     35  C   UNL     1      -0.203  -8.140   5.955  1.00  0.00     0.014 C 
ATOM     36  C   UNL     1       1.759  -8.973   7.115  1.00  0.00     0.014 C 
BRANCH  34  37
ATOM     37  O   UNL     1       1.025 -10.005   4.305  1.00  0.00    -0.393 OA
ATOM     38  H   UNL     1       0.072  -9.828   4.256  1.00  0.00     0.210 HD
ENDBRANCH  34  37
ENDBRANCH   6   8
ENDBRANCH   5   6
ENDBRANCH   4   5
ENDBRANCH   3   4
ENDBRANCH   2   3
ENDBRANCH   1   2
BRANCH   1  39
ATOM     39  C   UNL     1      -2.835  -5.488   1.408  1.00  0.00     0.261 C 
BRANCH  39  40
ATOM     40  O   UNL     1      -3.154  -4.269   2.124  1.00  0.00    -0.460 OA
BRANCH  40  41
ATOM     41  C   UNL     1      -3.252  -4.382   3.470  1.00  0.00     0.338 C 
ATOM     42  O   UNL     1      -3.185  -5.416   4.130  1.00  0.00    -0.246 OA
BRANCH  41  43
ATOM     43  C   UNL     1      -3.223  -3.053   4.121  1.00  0.00     0.060 A 
ATOM     44  C   UNL     1      -2.282  -2.843   5.140  1.00  0.00     0.016 A 
ATOM     45  C   UNL     1      -4.161  -2.069   3.850  1.00  0.00     0.016 A 
ATOM     46  C   UNL     1      -2.246  -1.690   5.902  1.00  0.00     0.010 A 
ATOM     47  C   UNL     1      -4.200  -0.940   4.676  1.00  0.00     0.010 A 
ATOM     48  C   UNL     1      -3.270  -0.774   5.725  1.00  0.00    -0.014 A 
BRANCH  48  49
ATOM     49  C   UNL     1      -3.552   0.185   6.806  1.00  0.00     0.031 A 
ATOM     50  C   UNL     1      -4.667  -0.152   7.748  1.00  0.00     0.074 A 
ATOM     51  C   UNL     1      -2.839   1.311   6.938  1.00  0.00     0.049 A 
ATOM     52  N   UNL     1      -5.340   0.625   8.549  1.00  0.00    -0.248 NA
ATOM     53  C   UNL     1      -5.096  -1.562   7.768  1.00  0.00     0.031 C 
ATOM     54  C   UNL     1      -1.644   1.656   6.170  1.00  0.00     0.029 A 
ATOM     55  N   UNL     1      -3.058   2.397   7.741  1.00  0.00    -0.354 N 
ATOM     56  C   UNL     1      -6.319  -0.183   9.114  1.00  0.00     0.074 A 
ATOM     57  C   UNL     1      -6.142  -1.514   8.578  1.00  0.00     0.031 C 
ATOM     58  C   UNL     1      -1.274   2.907   6.489  1.00  0.00     0.029 A 
ATOM     59  C   UNL     1      -2.247   3.459   7.427  1.00  0.00     0.049 A 
ATOM     60  H   UNL     1      -3.725   2.415   8.464  1.00  0.00     0.167 HD
ATOM     61  C   UNL     1      -7.291   0.177   9.983  1.00  0.00     0.037 A 
ATOM     62  C   UNL     1      -2.342   4.747   7.801  1.00  0.00     0.037 A 
ATOM     63  C   UNL     1      -7.423   1.515  10.498  1.00  0.00     0.049 A 
ATOM     64  C   UNL     1      -3.473   5.148   8.709  1.00  0.00     0.074 A 
ATOM     65  C   UNL     1      -8.359   2.016  11.382  1.00  0.00     0.029 A 
ATOM     66  N   UNL     1      -6.579   2.568  10.166  1.00  0.00    -0.354 N 
ATOM     67  N   UNL     1      -4.442   4.412   9.203  1.00  0.00    -0.248 NA
ATOM     68  C   UNL     1      -3.525   6.559   9.108  1.00  0.00     0.031 C 
ATOM     69  C   UNL     1      -8.114   3.385  11.541  1.00  0.00     0.029 A 
ATOM     70  C   UNL     1      -6.986   3.723  10.808  1.00  0.00     0.049 A 
ATOM     71  H   UNL     1      -5.805   2.501   9.562  1.00  0.00     0.167 HD
ATOM     72  C   UNL     1      -5.206   5.264   9.991  1.00  0.00     0.074 A 
ATOM     73  C   UNL     1      -4.569   6.566   9.924  1.00  0.00     0.031 C 
ATOM     74  C   UNL     1      -6.330   5.004  10.707  1.00  0.00     0.037 A 
BRANCH  61  75
ATOM     75  C   UNL     1      -8.309  -0.861  10.357  1.00  0.00     0.057 A 
ATOM     76  C   UNL     1      -7.995  -1.976  11.144  1.00  0.00     0.134 A 
ATOM     77  C   UNL     1      -9.632  -0.743   9.908  1.00  0.00     0.134 A 
ATOM     78  F   UNL     1      -6.743  -2.167  11.586  1.00  0.00    -0.206 F 
ATOM     79  C   UNL     1      -8.952  -2.948  11.451  1.00  0.00     0.040 A 
ATOM     80  C   UNL     1     -10.604  -1.691  10.233  1.00  0.00     0.040 A 
ATOM     81  F   UNL     1     -10.002   0.295   9.143  1.00  0.00    -0.206 F 
ATOM     82  C   UNL     1     -10.263  -2.802  11.000  1.00  0.00     0.006 A 
ENDBRANCH  61  75
BRANCH  62  83
ATOM     83  C   UNL     1      -1.374   5.744   7.280  1.00  0.00     0.057 A 
ATOM     84  C   UNL     1      -0.443   6.352   8.127  1.00  0.00     0.134 A 
ATOM     85  C   UNL     1      -1.348   6.106   5.927  1.00  0.00     0.134 A 
ATOM     86  F   UNL     1      -0.431   6.061   9.436  1.00  0.00    -0.206 F 
ATOM     87  C   UNL     1       0.471   7.295   7.653  1.00  0.00     0.040 A 
ATOM     88  C   UNL     1      -0.421   7.026   5.433  1.00  0.00     0.040 A 
ATOM     89  F   UNL     1      -2.210   5.555   5.059  1.00  0.00    -0.206 F 
ATOM     90  C   UNL     1       0.488   7.628   6.300  1.00  0.00     0.006 A 
ENDBRANCH  62  83
BRANCH  74  91
ATOM     91  C   UNL     1      -6.902   6.147  11.495  1.00  0.00     0.057 A 
ATOM     92  C   UNL     1      -7.515   7.244  10.874  1.00  0.00     0.134 A 
ATOM     93  C   UNL     1      -6.837   6.148  12.894  1.00  0.00     0.134 A 
ATOM     94  F   UNL     1      -7.599   7.309   9.537  1.00  0.00    -0.206 F 
ATOM     95  C   UNL     1      -7.999   8.322  11.616  1.00  0.00     0.040 A 
ATOM     96  C   UNL     1      -7.350   7.203  13.647  1.00  0.00     0.040 A 
ATOM     97  F   UNL     1      -6.276   5.121  13.551  1.00  0.00    -0.206 F 
ATOM     98  C   UNL     1      -7.920   8.301  13.007  1.00  0.00     0.006 A 
ENDBRANCH  74  91
ENDBRANCH  48  49
ENDBRANCH  41  43
ENDBRANCH  40  41
ENDBRANCH  39  40
ENDBRANCH   1  39
TORSDOF 15
