REMARK SMILES NC(=O)[C@@H]1CCCCN1c1cncc(C(=O)OCCOCCOC(=O)c2ccc(-c3c4nc(c(-c5c(F)cccc5F)c5ccc([nH]5)c(-c5c(F)cccc5F)c5nc(c(-c6c(F)cccc6F)c6ccc3[nH]6)C=C5)C=C4)cc2)n1
REMARK SMILES IDX 20 1 19 2 18 3 17 4 15 5 16 6 14 7 10 8 11 9 80 10 12 11
REMARK SMILES IDX 13 12 9 13 4 14 5 15 6 16 8 17 7 18 2 19 1 20 3 23 21 24
REMARK SMILES IDX 22 25 23 26 24 27 25 28 26 29 27 30 79 31 28 32 78 33 29 34
REMARK SMILES IDX 30 35 31 36 72 37 32 38 77 39 71 40 73 41 33 42 76 43 70 44
REMARK SMILES IDX 69 45 34 47 60 48 43 49 59 50 44 51 47 52 58 53 74 54 45 55
REMARK SMILES IDX 46 56 57 58 75 59 48 60 35 61 36 62 41 63 37 64 38 65 40 66
REMARK SMILES IDX 42 67 39 68 61 69 62 70 67 71 63 72 64 73 66 74 68 75 65 76
REMARK SMILES IDX 49 77 50 78 55 79 51 80 52 81 54 82 56 83 53 84
REMARK H PARENT 1 21 1 22 73 46 47 57
REMARK Flexibility Score: inf
ROOT
ATOM      1  O   UNL     1      -6.441   2.973   0.291  1.00  0.00    -0.374 OA
ENDROOT
BRANCH   1   2
ATOM      2  C   UNL     1      -6.264   1.612   0.689  1.00  0.00     0.202 C 
BRANCH   2   3
ATOM      3  C   UNL     1      -5.186   0.838  -0.077  1.00  0.00     0.261 C 
BRANCH   3   4
ATOM      4  O   UNL     1      -3.879   1.375   0.186  1.00  0.00    -0.458 OA
BRANCH   4   5
ATOM      5  C   UNL     1      -3.278   1.992  -0.861  1.00  0.00     0.358 C 
ATOM      6  O   UNL     1      -3.684   2.036  -2.013  1.00  0.00    -0.244 OA
BRANCH   5   7
ATOM      7  C   UNL     1      -2.140   2.811  -0.392  1.00  0.00     0.169 A 
ATOM      8  C   UNL     1      -0.308   3.154   0.981  1.00  0.00     0.148 A 
ATOM      9  C   UNL     1      -0.204   4.429   0.392  1.00  0.00     0.157 A 
ATOM     10  N   UNL     1      -1.316   2.345   0.588  1.00  0.00    -0.220 NA
ATOM     11  N   UNL     1      -1.029   4.918  -0.571  1.00  0.00    -0.258 NA
ATOM     12  C   UNL     1      -1.997   4.066  -0.961  1.00  0.00     0.147 A 
BRANCH   8  13
ATOM     13  N   UNL     1       0.610   2.705   1.908  1.00  0.00    -0.343 N 
ATOM     14  C   UNL     1       0.978   1.274   2.080  1.00  0.00     0.172 C 
ATOM     15  C   UNL     1       0.635   0.810   3.498  1.00  0.00     0.035 C 
ATOM     16  C   UNL     1       1.308   1.710   4.531  1.00  0.00     0.004 C 
ATOM     17  C   UNL     1       1.186   3.632   2.889  1.00  0.00     0.119 C 
ATOM     18  C   UNL     1       0.893   3.161   4.316  1.00  0.00     0.022 C 
BRANCH  14  19
ATOM     19  C   UNL     1       0.450   0.276   1.029  1.00  0.00     0.240 C 
ATOM     20  N   UNL     1       1.062   0.342  -0.197  1.00  0.00    -0.368 N 
ATOM     21  H   UNL     1       0.781  -0.263  -0.921  1.00  0.00     0.159 HD
ATOM     22  H   UNL     1       1.783   0.995  -0.353  1.00  0.00     0.159 HD
ATOM     23  O   UNL     1      -0.387  -0.596   1.247  1.00  0.00    -0.273 OA
ENDBRANCH  14  19
ENDBRANCH   8  13
ENDBRANCH   5   7
ENDBRANCH   4   5
ENDBRANCH   3   4
ENDBRANCH   2   3
ENDBRANCH   1   2
BRANCH   1  24
ATOM     24  C   UNL     1      -5.555   3.930   0.876  1.00  0.00     0.202 C 
BRANCH  24  25
ATOM     25  C   UNL     1      -5.936   4.420   2.277  1.00  0.00     0.261 C 
BRANCH  25  26
ATOM     26  O   UNL     1      -5.805   3.373   3.255  1.00  0.00    -0.460 OA
BRANCH  26  27
ATOM     27  C   UNL     1      -6.971   2.920   3.766  1.00  0.00     0.338 C 
ATOM     28  O   UNL     1      -8.091   3.377   3.577  1.00  0.00    -0.246 OA
BRANCH  27  29
ATOM     29  C   UNL     1      -6.749   1.653   4.486  1.00  0.00     0.060 A 
ATOM     30  C   UNL     1      -7.600   0.584   4.179  1.00  0.00     0.016 A 
ATOM     31  C   UNL     1      -5.777   1.523   5.481  1.00  0.00     0.016 A 
ATOM     32  C   UNL     1      -7.520  -0.601   4.906  1.00  0.00     0.010 A 
ATOM     33  C   UNL     1      -5.701   0.334   6.214  1.00  0.00     0.010 A 
ATOM     34  C   UNL     1      -6.597  -0.719   5.955  1.00  0.00    -0.014 A 
BRANCH  34  35
ATOM     35  C   UNL     1      -6.677  -1.891   6.859  1.00  0.00     0.031 A 
ATOM     36  C   UNL     1      -7.394  -1.755   8.174  1.00  0.00     0.074 A 
ATOM     37  C   UNL     1      -6.167  -3.078   6.491  1.00  0.00     0.049 A 
ATOM     38  N   UNL     1      -7.617  -2.655   9.097  1.00  0.00    -0.248 NA
ATOM     39  C   UNL     1      -7.932  -0.422   8.488  1.00  0.00     0.031 C 
ATOM     40  C   UNL     1      -5.481  -3.348   5.229  1.00  0.00     0.029 A 
ATOM     41  N   UNL     1      -6.159  -4.284   7.146  1.00  0.00    -0.354 N 
ATOM     42  C   UNL     1      -8.326  -2.003  10.097  1.00  0.00     0.074 A 
ATOM     43  C   UNL     1      -8.457  -0.620   9.688  1.00  0.00     0.031 C 
ATOM     44  C   UNL     1      -5.127  -4.644   5.196  1.00  0.00     0.029 A 
ATOM     45  C   UNL     1      -5.539  -5.286   6.443  1.00  0.00     0.049 A 
ATOM     46  H   UNL     1      -6.559  -4.417   8.036  1.00  0.00     0.167 HD
ATOM     47  C   UNL     1      -8.835  -2.510  11.246  1.00  0.00     0.037 A 
ATOM     48  C   UNL     1      -5.326  -6.574   6.773  1.00  0.00     0.037 A 
ATOM     49  C   UNL     1      -8.694  -3.881  11.661  1.00  0.00     0.049 A 
ATOM     50  C   UNL     1      -5.826  -7.094   8.093  1.00  0.00     0.074 A 
ATOM     51  C   UNL     1      -9.181  -4.494  12.802  1.00  0.00     0.029 A 
ATOM     52  N   UNL     1      -8.003  -4.852  10.951  1.00  0.00    -0.354 N 
ATOM     53  N   UNL     1      -6.516  -6.476   9.021  1.00  0.00    -0.248 NA
ATOM     54  C   UNL     1      -5.518  -8.497   8.408  1.00  0.00     0.031 C 
ATOM     55  C   UNL     1      -8.745  -5.824  12.805  1.00  0.00     0.029 A 
ATOM     56  C   UNL     1      -8.027  -6.053  11.642  1.00  0.00     0.049 A 
ATOM     57  H   UNL     1      -7.561  -4.709  10.083  1.00  0.00     0.167 HD
ATOM     58  C   UNL     1      -6.745  -7.417  10.017  1.00  0.00     0.074 A 
ATOM     59  C   UNL     1      -6.132  -8.652   9.572  1.00  0.00     0.031 C 
ATOM     60  C   UNL     1      -7.405  -7.273  11.193  1.00  0.00     0.037 A 
BRANCH  47  61
ATOM     61  C   UNL     1      -9.568  -1.556  12.144  1.00  0.00     0.057 A 
ATOM     62  C   UNL     1     -10.825  -1.038  11.802  1.00  0.00     0.134 A 
ATOM     63  C   UNL     1      -9.009  -1.144  13.360  1.00  0.00     0.134 A 
ATOM     64  F   UNL     1     -11.410  -1.380  10.644  1.00  0.00    -0.206 F 
ATOM     65  C   UNL     1     -11.484  -0.119  12.622  1.00  0.00     0.040 A 
ATOM     66  C   UNL     1      -9.670  -0.246  14.200  1.00  0.00     0.040 A 
ATOM     67  F   UNL     1      -7.811  -1.604  13.749  1.00  0.00    -0.206 F 
ATOM     68  C   UNL     1     -10.907   0.277  13.827  1.00  0.00     0.006 A 
ENDBRANCH  47  61
BRANCH  48  69
ATOM     69  C   UNL     1      -4.614  -7.470   5.829  1.00  0.00     0.057 A 
ATOM     70  C   UNL     1      -5.291  -8.492   5.155  1.00  0.00     0.134 A 
ATOM     71  C   UNL     1      -3.243  -7.331   5.584  1.00  0.00     0.134 A 
ATOM     72  F   UNL     1      -6.600  -8.689   5.370  1.00  0.00    -0.206 F 
ATOM     73  C   UNL     1      -4.630  -9.351   4.277  1.00  0.00     0.040 A 
ATOM     74  C   UNL     1      -2.572  -8.169   4.692  1.00  0.00     0.040 A 
ATOM     75  F   UNL     1      -2.537  -6.374   6.204  1.00  0.00    -0.206 F 
ATOM     76  C   UNL     1      -3.266  -9.186   4.039  1.00  0.00     0.006 A 
ENDBRANCH  48  69
BRANCH  60  77
ATOM     77  C   UNL     1      -7.517  -8.489  12.067  1.00  0.00     0.057 A 
ATOM     78  C   UNL     1      -6.415  -9.004  12.762  1.00  0.00     0.134 A 
ATOM     79  C   UNL     1      -8.745  -9.144  12.227  1.00  0.00     0.134 A 
ATOM     80  F   UNL     1      -5.207  -8.432  12.642  1.00  0.00    -0.206 F 
ATOM     81  C   UNL     1      -6.524 -10.143  13.562  1.00  0.00     0.040 A 
ATOM     82  C   UNL     1      -8.872 -10.268  13.044  1.00  0.00     0.040 A 
ATOM     83  F   UNL     1      -9.842  -8.699  11.596  1.00  0.00    -0.206 F 
ATOM     84  C   UNL     1      -7.757 -10.775  13.708  1.00  0.00     0.006 A 
ENDBRANCH  60  77
ENDBRANCH  34  35
ENDBRANCH  27  29
ENDBRANCH  26  27
ENDBRANCH  25  26
ENDBRANCH  24  25
ENDBRANCH   1  24
TORSDOF 16
