REMARK SMILES CCc1cc(S(F)(F)(F)(F)F)cc2c1O[C@@H](C(F)(F)F)C(C(=O)OCCOCCOC(=O)c1ccc(-c3c4nc(c(-c5c(F)cccc5F)c5ccc([nH]5)c(-c5c(F)cccc5F)c5nc(c(-c6c(F)cccc6F)c6ccc3[nH]6)C=C5)C=C4)cc1)=C2
REMARK SMILES IDX 28 1 27 2 26 3 25 4 24 5 22 6 23 7 21 8 3 9 4 10 14 11 5 12
REMARK SMILES IDX 13 13 15 14 12 15 87 16 16 17 2 18 1 19 6 20 7 21 8 22 9 23
REMARK SMILES IDX 10 24 11 25 17 26 18 27 19 28 20 29 29 30 30 31 31 32 32 33
REMARK SMILES IDX 33 34 34 35 86 36 35 37 85 38 36 39 37 40 38 41 79 42 39 43
REMARK SMILES IDX 84 44 78 45 80 46 40 47 83 48 77 49 76 50 41 52 67 53 50 54
REMARK SMILES IDX 66 55 51 56 54 57 65 58 81 59 52 60 53 61 64 63 82 64 55 65
REMARK SMILES IDX 42 66 43 67 48 68 44 69 45 70 47 71 49 72 46 73 68 74 69 75
REMARK SMILES IDX 74 76 70 77 71 78 73 79 75 80 72 81 56 82 57 83 62 84 58 85
REMARK SMILES IDX 59 86 61 87 63 88 60 89
REMARK H PARENT 80 51 54 62
REMARK Flexibility Score: inf
ROOT
ATOM      1  C   UNL     1       1.641   6.569  -5.699  1.00  0.00     0.202 C 
ENDROOT
BRANCH   1   2
ATOM      2  O   UNL     1       2.160   7.703  -6.378  1.00  0.00    -0.374 OA
BRANCH   2   3
ATOM      3  C   UNL     1       2.849   7.280  -7.546  1.00  0.00     0.202 C 
BRANCH   3   4
ATOM      4  C   UNL     1       3.991   6.357  -7.154  1.00  0.00     0.261 C 
BRANCH   4   5
ATOM      5  O   UNL     1       3.472   5.223  -6.475  1.00  0.00    -0.460 OA
BRANCH   5   6
ATOM      6  C   UNL     1       2.739   5.392  -5.271  1.00  0.00     0.338 C 
ATOM      7  O   UNL     1       2.547   6.557  -4.801  1.00  0.00    -0.246 OA
BRANCH   6   8
ATOM      8  C   UNL     1       2.183   4.178  -4.544  1.00  0.00     0.087 C 
ATOM      9  C   UNL     1       1.062   0.881  -2.237  1.00  0.00    -0.004 A 
ATOM     10  C   UNL     1       1.073  -0.386  -2.792  1.00  0.00     0.032 A 
ATOM     11  C   UNL     1       1.486   1.940  -3.001  1.00  0.00     0.131 A 
ATOM     12  C   UNL     1       1.501  -0.587  -4.078  1.00  0.00     0.108 A 
ATOM     13  C   UNL     1       1.908   1.777  -4.309  1.00  0.00     0.019 A 
ATOM     14  O   UNL     1       1.577   3.173  -2.401  1.00  0.00    -0.475 OA
ATOM     15  C   UNL     1       1.910   0.491  -4.835  1.00  0.00     0.036 A 
ATOM     16  C   UNL     1       2.374   2.955  -5.021  1.00  0.00     0.027 C 
ATOM     17  C   UNL     1       1.394   4.340  -3.251  1.00  0.00     0.316 C 
BRANCH   9  18
ATOM     18  C   UNL     1       0.556   1.095  -0.820  1.00  0.00     0.036 C 
ATOM     19  C   UNL     1       1.062  -0.026   0.074  1.00  0.00     0.009 C 
ENDBRANCH   9  18
BRANCH  12  20
ATOM     20  S   UNL     1       1.529  -2.256  -4.778  1.00  0.00     0.310 S 
ATOM     21  F   UNL     1       2.359  -1.790  -6.047  1.00  0.00    -0.094 F 
ATOM     22  F   UNL     1       0.225  -1.890  -5.582  1.00  0.00    -0.094 F 
ATOM     23  F   UNL     1       1.531  -3.690  -5.380  1.00  0.00    -0.094 F 
ATOM     24  F   UNL     1       2.911  -2.558  -4.075  1.00  0.00    -0.094 F 
ATOM     25  F   UNL     1       1.601  -0.768  -4.249  1.00  0.00    -0.094 F 
ENDBRANCH  12  20
BRANCH  17  26
ATOM     26  C   UNL     1       1.894   5.572  -2.515  1.00  0.00     0.430 C 
ATOM     27  F   UNL     1       1.727   6.645  -3.283  1.00  0.00    -0.167 F 
ATOM     28  F   UNL     1       1.208   5.724  -1.386  1.00  0.00    -0.167 F 
ATOM     29  F   UNL     1       3.186   5.426  -2.233  1.00  0.00    -0.167 F 
ENDBRANCH  17  26
ENDBRANCH   6   8
ENDBRANCH   5   6
ENDBRANCH   4   5
ENDBRANCH   3   4
ENDBRANCH   2   3
ENDBRANCH   1   2
BRANCH   1  30
ATOM     30  C   UNL     1       0.680   5.827  -6.613  1.00  0.00     0.261 C 
BRANCH  30  31
ATOM     31  O   UNL     1       1.369   5.404  -7.781  1.00  0.00    -0.460 OA
BRANCH  31  32
ATOM     32  C   UNL     1       1.980   6.364  -8.631  1.00  0.00     0.338 C 
ATOM     33  O   UNL     1       1.910   7.600  -8.347  1.00  0.00    -0.246 OA
BRANCH  32  34
ATOM     34  C   UNL     1       2.717   5.911  -9.881  1.00  0.00     0.060 A 
ATOM     35  C   UNL     1       3.983   6.423 -10.112  1.00  0.00     0.016 A 
ATOM     36  C   UNL     1       2.185   5.000 -10.687  1.00  0.00     0.016 A 
ATOM     37  C   UNL     1       4.500   6.119 -11.394  1.00  0.00     0.010 A 
ATOM     38  C   UNL     1       2.812   4.651 -11.859  1.00  0.00     0.010 A 
ATOM     39  C   UNL     1       4.038   5.162 -12.180  1.00  0.00    -0.014 A 
BRANCH  39  40
ATOM     40  C   UNL     1       4.829   4.658 -13.376  1.00  0.00     0.031 A 
ATOM     41  C   UNL     1       4.272   4.765 -14.651  1.00  0.00     0.074 A 
ATOM     42  C   UNL     1       6.040   4.044 -13.109  1.00  0.00     0.049 A 
ATOM     43  N   UNL     1       4.794   4.345 -15.805  1.00  0.00    -0.248 NA
ATOM     44  C   UNL     1       2.969   5.386 -14.933  1.00  0.00     0.031 C 
ATOM     45  C   UNL     1       6.613   3.940 -11.826  1.00  0.00     0.029 A 
ATOM     46  N   UNL     1       6.894   3.436 -14.003  1.00  0.00    -0.354 N 
ATOM     47  C   UNL     1       3.975   4.642 -16.817  1.00  0.00     0.074 A 
ATOM     48  C   UNL     1       2.787   5.310 -16.269  1.00  0.00     0.031 C 
ATOM     49  C   UNL     1       7.789   3.269 -11.943  1.00  0.00     0.029 A 
ATOM     50  C   UNL     1       7.972   2.943 -13.300  1.00  0.00     0.049 A 
ATOM     51  H   UNL     1       6.758   3.366 -14.975  1.00  0.00     0.167 HD
ATOM     52  C   UNL     1       4.174   4.383 -18.174  1.00  0.00     0.037 A 
ATOM     53  C   UNL     1       9.061   2.245 -13.797  1.00  0.00     0.037 A 
ATOM     54  C   UNL     1       5.285   3.723 -18.675  1.00  0.00     0.049 A 
ATOM     55  C   UNL     1       9.232   1.935 -15.148  1.00  0.00     0.074 A 
ATOM     56  C   UNL     1       5.504   3.461 -20.041  1.00  0.00     0.029 A 
ATOM     57  N   UNL     1       6.350   3.208 -17.970  1.00  0.00    -0.354 N 
ATOM     58  N   UNL     1       8.433   2.266 -16.164  1.00  0.00    -0.248 NA
ATOM     59  C   UNL     1      10.366   1.167 -15.681  1.00  0.00     0.031 C 
ATOM     60  C   UNL     1       6.681   2.790 -20.158  1.00  0.00     0.029 A 
ATOM     61  C   UNL     1       7.215   2.621 -18.866  1.00  0.00     0.049 A 
ATOM     62  H   UNL     1       6.472   3.253 -16.994  1.00  0.00     0.167 HD
ATOM     63  C   UNL     1       8.936   1.810 -17.312  1.00  0.00     0.074 A 
ATOM     64  C   UNL     1      10.183   1.090 -17.018  1.00  0.00     0.031 C 
ATOM     65  C   UNL     1       8.408   1.967 -18.595  1.00  0.00     0.037 A 
BRANCH  52  66
ATOM     66  C   UNL     1       3.114   4.852 -19.156  1.00  0.00     0.057 A 
ATOM     67  C   UNL     1       2.861   6.210 -19.254  1.00  0.00     0.134 A 
ATOM     68  C   UNL     1       2.480   3.976 -19.927  1.00  0.00     0.134 A 
ATOM     69  F   UNL     1       3.637   7.135 -18.696  1.00  0.00    -0.206 F 
ATOM     70  C   UNL     1       1.702   6.525 -20.002  1.00  0.00     0.040 A 
ATOM     71  C   UNL     1       1.445   4.377 -20.736  1.00  0.00     0.040 A 
ATOM     72  F   UNL     1       2.852   2.699 -19.916  1.00  0.00    -0.206 F 
ATOM     73  C   UNL     1       1.101   5.696 -20.837  1.00  0.00     0.006 A 
ENDBRANCH  52  66
BRANCH  53  74
ATOM     74  C   UNL     1      10.130   1.791 -12.816  1.00  0.00     0.057 A 
ATOM     75  C   UNL     1      11.435   2.213 -13.010  1.00  0.00     0.134 A 
ATOM     76  C   UNL     1       9.812   0.972 -11.820  1.00  0.00     0.134 A 
ATOM     77  F   UNL     1      11.760   3.215 -13.822  1.00  0.00    -0.206 F 
ATOM     78  C   UNL     1      12.391   1.480 -12.268  1.00  0.00     0.040 A 
ATOM     79  C   UNL     1      10.791   0.397 -11.047  1.00  0.00     0.040 A 
ATOM     80  F   UNL     1       8.533   0.706 -11.569  1.00  0.00    -0.206 F 
ATOM     81  C   UNL     1      12.107   0.723 -11.223  1.00  0.00     0.006 A 
ENDBRANCH  53  74
BRANCH  65  82
ATOM     82  C   UNL     1       9.187   1.388 -19.764  1.00  0.00     0.057 A 
ATOM     83  C   UNL     1       9.337   0.011 -19.807  1.00  0.00     0.134 A 
ATOM     84  C   UNL     1       9.629   2.160 -20.749  1.00  0.00     0.134 A 
ATOM     85  F   UNL     1       8.697  -0.814 -18.984  1.00  0.00    -0.206 F 
ATOM     86  C   UNL     1      10.232  -0.436 -20.807  1.00  0.00     0.040 A 
ATOM     87  C   UNL     1      10.385   1.631 -21.767  1.00  0.00     0.040 A 
ATOM     88  F   UNL     1       9.338   3.458 -20.751  1.00  0.00    -0.206 F 
ATOM     89  C   UNL     1      10.623   0.287 -21.841  1.00  0.00     0.006 A 
ENDBRANCH  65  82
ENDBRANCH  39  40
ENDBRANCH  32  34
ENDBRANCH  31  32
ENDBRANCH  30  31
ENDBRANCH   1  30
TORSDOF 17
