REMARK SMILES C[C@@H](C(=O)OCCOCCOC(=O)c1ccc(-c2c3nc(c(-c4c(F)cccc4F)c4ccc([nH]4)c(-c4c(F)cccc4F)c4nc(c(-c5c(F)cccc5F)c5ccc2[nH]5)C=C4)C=C3)cc1)S(=O)(=O)N[C@@]12C[C@@H]3C[C@@](C)(C[C@@](C)(C3)C1)C2
REMARK SMILES IDX 7 1 6 2 5 3 3 4 4 5 2 6 1 7 68 8 69 9 70 10 71 11 72 13
REMARK SMILES IDX 73 14 82 15 83 16 74 17 79 18 76 19 81 20 75 21 78 22 80 23
REMARK SMILES IDX 77 24 8 25 9 26 10 27 11 28 12 29 13 30 14 31 15 32 67 33
REMARK SMILES IDX 16 34 66 35 17 36 18 37 19 38 60 39 20 40 65 41 59 42 61 43
REMARK SMILES IDX 21 44 64 45 58 46 57 47 22 49 48 50 31 51 47 52 32 53 35 54
REMARK SMILES IDX 46 55 62 56 33 57 34 58 45 60 63 61 36 62 23 63 24 64 29 65
REMARK SMILES IDX 25 66 26 67 28 68 30 69 27 70 49 71 50 72 55 73 51 74 52 75
REMARK SMILES IDX 54 76 56 77 53 78 37 79 38 80 43 81 39 82 40 83 42 84 44 85
REMARK SMILES IDX 41 86
REMARK H PARENT 71 12 61 48 35 59
REMARK Flexibility Score: inf
ROOT
ATOM      1  C   UNL     1       2.148  -4.942   1.250  1.00  0.00     0.202 C 
ENDROOT
BRANCH   1   2
ATOM      2  C   UNL     1       2.283  -4.280  -0.128  1.00  0.00     0.261 C 
BRANCH   2   3
ATOM      3  O   UNL     1       1.739  -2.950  -0.218  1.00  0.00    -0.462 OA
BRANCH   3   4
ATOM      4  C   UNL     1       0.628  -2.800  -1.010  1.00  0.00     0.325 C 
ATOM      5  O   UNL     1       0.092  -3.735  -1.588  1.00  0.00    -0.251 OA
BRANCH   4   6
ATOM      6  C   UNL     1       0.254  -1.351  -1.203  1.00  0.00     0.230 C 
ATOM      7  C   UNL     1       1.247  -0.345  -0.645  1.00  0.00     0.039 C 
BRANCH   6   8
ATOM      8  S   UNL     1      -1.512  -1.014  -0.935  1.00  0.00     0.225 S 
ATOM      9  O   UNL     1      -1.839   0.188  -1.674  1.00  0.00    -0.212 OA
ATOM     10  O   UNL     1      -2.262  -2.221  -1.213  1.00  0.00    -0.212 OA
BRANCH   8  11
ATOM     11  N   UNL     1      -1.894  -0.722   0.665  1.00  0.00    -0.208 NA
ATOM     12  H   UNL     1      -1.403  -1.456   1.177  1.00  0.00     0.141 HD
BRANCH  11  13
ATOM     13  C   UNL     1      -1.683   0.501   1.488  1.00  0.00     0.034 C 
ATOM     14  C   UNL     1      -1.164   1.704   0.694  1.00  0.00     0.027 C 
ATOM     15  C   UNL     1      -2.943   0.990   2.256  1.00  0.00     0.030 C 
ATOM     16  C   UNL     1      -0.710   0.051   2.582  1.00  0.00     0.030 C 
ATOM     17  C   UNL     1      -0.713   2.828   1.626  1.00  0.00    -0.008 C 
ATOM     18  C   UNL     1      -2.555   2.172   3.225  1.00  0.00    -0.030 C 
ATOM     19  C   UNL     1      -0.238   1.185   3.488  1.00  0.00    -0.030 C 
ATOM     20  C   UNL     1      -1.933   3.328   2.406  1.00  0.00     0.010 C 
ATOM     21  C   UNL     1       0.354   2.291   2.591  1.00  0.00     0.010 C 
ATOM     22  C   UNL     1      -1.475   1.706   4.234  1.00  0.00     0.013 C 
ATOM     23  C   UNL     1      -3.772   2.682   4.002  1.00  0.00     0.011 C 
ATOM     24  C   UNL     1       0.821   0.685   4.476  1.00  0.00     0.011 C 
ENDBRANCH  11  13
ENDBRANCH   8  11
ENDBRANCH   6   8
ENDBRANCH   4   6
ENDBRANCH   3   4
ENDBRANCH   2   3
ENDBRANCH   1   2
BRANCH   1  25
ATOM     25  O   UNL     1       0.933  -4.789   1.971  1.00  0.00    -0.374 OA
BRANCH  25  26
ATOM     26  C   UNL     1       0.473  -3.484   2.275  1.00  0.00     0.202 C 
BRANCH  26  27
ATOM     27  C   UNL     1       1.419  -2.491   2.947  1.00  0.00     0.261 C 
BRANCH  27  28
ATOM     28  O   UNL     1       2.795  -2.789   2.885  1.00  0.00    -0.460 OA
BRANCH  28  29
ATOM     29  C   UNL     1       3.449  -2.676   4.049  1.00  0.00     0.338 C 
ATOM     30  O   UNL     1       3.016  -2.511   5.174  1.00  0.00    -0.246 OA
BRANCH  29  31
ATOM     31  C   UNL     1       4.850  -2.639   3.668  1.00  0.00     0.060 A 
ATOM     32  C   UNL     1       5.519  -3.841   3.449  1.00  0.00     0.016 A 
ATOM     33  C   UNL     1       5.462  -1.393   3.507  1.00  0.00     0.016 A 
ATOM     34  C   UNL     1       6.869  -3.797   3.155  1.00  0.00     0.010 A 
ATOM     35  C   UNL     1       6.807  -1.352   3.178  1.00  0.00     0.010 A 
ATOM     36  C   UNL     1       7.518  -2.556   3.060  1.00  0.00    -0.014 A 
BRANCH  36  37
ATOM     37  C   UNL     1       8.986  -2.533   2.988  1.00  0.00     0.031 A 
ATOM     38  C   UNL     1       9.756  -2.187   4.226  1.00  0.00     0.074 A 
ATOM     39  C   UNL     1       9.591  -2.878   1.842  1.00  0.00     0.049 A 
ATOM     40  N   UNL     1      11.047  -2.124   4.404  1.00  0.00    -0.248 NA
ATOM     41  C   UNL     1       8.965  -1.861   5.427  1.00  0.00     0.031 C 
ATOM     42  C   UNL     1       8.901  -3.250   0.605  1.00  0.00     0.029 A 
ATOM     43  N   UNL     1      10.918  -2.980   1.535  1.00  0.00    -0.354 N 
ATOM     44  C   UNL     1      11.223  -1.752   5.730  1.00  0.00     0.074 A 
ATOM     45  C   UNL     1       9.911  -1.555   6.300  1.00  0.00     0.031 C 
ATOM     46  C   UNL     1       9.817  -3.550  -0.329  1.00  0.00     0.029 A 
ATOM     47  C   UNL     1      11.148  -3.352   0.236  1.00  0.00     0.049 A 
ATOM     48  H   UNL     1      11.638  -2.804   2.183  1.00  0.00     0.167 HD
ATOM     49  C   UNL     1      12.384  -1.607   6.409  1.00  0.00     0.037 A 
ATOM     50  C   UNL     1      12.312  -3.494  -0.420  1.00  0.00     0.037 A 
ATOM     51  C   UNL     1      13.676  -1.808   5.809  1.00  0.00     0.049 A 
ATOM     52  C   UNL     1      13.588  -3.267   0.341  1.00  0.00     0.074 A 
ATOM     53  C   UNL     1      14.925  -1.699   6.390  1.00  0.00     0.029 A 
ATOM     54  N   UNL     1      13.878  -2.152   4.478  1.00  0.00    -0.354 N 
ATOM     55  N   UNL     1      13.752  -2.941   1.603  1.00  0.00    -0.248 NA
ATOM     56  C   UNL     1      14.840  -3.434  -0.405  1.00  0.00     0.031 C 
ATOM     57  C   UNL     1      15.884  -1.920   5.396  1.00  0.00     0.029 A 
ATOM     58  C   UNL     1      15.233  -2.233   4.211  1.00  0.00     0.049 A 
ATOM     59  H   UNL     1      13.162  -2.315   3.822  1.00  0.00     0.167 HD
ATOM     60  C   UNL     1      15.123  -2.887   1.809  1.00  0.00     0.074 A 
ATOM     61  C   UNL     1      15.743  -3.233   0.544  1.00  0.00     0.031 C 
ATOM     62  C   UNL     1      15.812  -2.581   2.936  1.00  0.00     0.037 A 
BRANCH  49  63
ATOM     63  C   UNL     1      12.299  -1.185   7.847  1.00  0.00     0.057 A 
ATOM     64  C   UNL     1      11.779  -2.025   8.842  1.00  0.00     0.134 A 
ATOM     65  C   UNL     1      12.749   0.080   8.246  1.00  0.00     0.134 A 
ATOM     66  F   UNL     1      11.310  -3.243   8.528  1.00  0.00    -0.206 F 
ATOM     67  C   UNL     1      11.685  -1.613  10.173  1.00  0.00     0.040 A 
ATOM     68  C   UNL     1      12.689   0.492   9.579  1.00  0.00     0.040 A 
ATOM     69  F   UNL     1      13.256   0.937   7.348  1.00  0.00    -0.206 F 
ATOM     70  C   UNL     1      12.148  -0.353  10.545  1.00  0.00     0.006 A 
ENDBRANCH  49  63
BRANCH  50  71
ATOM     71  C   UNL     1      12.311  -3.859  -1.857  1.00  0.00     0.057 A 
ATOM     72  C   UNL     1      12.791  -5.098  -2.296  1.00  0.00     0.134 A 
ATOM     73  C   UNL     1      11.813  -2.980  -2.828  1.00  0.00     0.134 A 
ATOM     74  F   UNL     1      13.288  -5.979  -1.416  1.00  0.00    -0.206 F 
ATOM     75  C   UNL     1      12.794  -5.442  -3.649  1.00  0.00     0.040 A 
ATOM     76  C   UNL     1      11.784  -3.322  -4.180  1.00  0.00     0.040 A 
ATOM     77  F   UNL     1      11.325  -1.783  -2.472  1.00  0.00    -0.206 F 
ATOM     78  C   UNL     1      12.284  -4.554  -4.595  1.00  0.00     0.006 A 
ENDBRANCH  50  71
BRANCH  62  79
ATOM     79  C   UNL     1      17.309  -2.643   2.853  1.00  0.00     0.057 A 
ATOM     80  C   UNL     1      18.052  -1.698   2.133  1.00  0.00     0.134 A 
ATOM     81  C   UNL     1      18.016  -3.640   3.537  1.00  0.00     0.134 A 
ATOM     82  F   UNL     1      17.433  -0.725   1.447  1.00  0.00    -0.206 F 
ATOM     83  C   UNL     1      19.444  -1.762   2.072  1.00  0.00     0.040 A 
ATOM     84  C   UNL     1      19.409  -3.694   3.510  1.00  0.00     0.040 A 
ATOM     85  F   UNL     1      17.365  -4.568   4.255  1.00  0.00    -0.206 F 
ATOM     86  C   UNL     1      20.126  -2.758   2.769  1.00  0.00     0.006 A 
ENDBRANCH  62  79
ENDBRANCH  36  37
ENDBRANCH  29  31
ENDBRANCH  28  29
ENDBRANCH  27  28
ENDBRANCH  26  27
ENDBRANCH  25  26
ENDBRANCH   1  25
TORSDOF 17
