REMARK SMILES O=C(Cn1c(=O)c2c3c(sc2n(Cc2ccc(Cl)cc2Cl)c1=O)CCCC3)OCCOCCOC(=O)c1ccc(-c2c3nc(c(-c4c(F)cccc4F)c4ccc([nH]4)c(-c4c(F)cccc4F)c4nc(c(-c5c(F)cccc5F)c5ccc2[nH]5)C=C4)C=C3)cc1
REMARK SMILES IDX 30 1 29 2 28 3 2 4 1 5 3 6 4 7 5 8 22 9 6 10 7 11 12 12
REMARK SMILES IDX 23 13 8 14 11 15 9 16 27 17 10 18 24 19 26 20 25 21 13 22
REMARK SMILES IDX 14 23 15 24 20 25 16 26 19 27 21 28 17 29 18 30 31 31 32 32
REMARK SMILES IDX 33 33 34 34 35 35 36 36 37 37 38 38 90 39 39 40 89 41 40 42
REMARK SMILES IDX 41 43 42 44 83 45 43 46 88 47 82 48 84 49 44 50 87 51 81 52
REMARK SMILES IDX 80 53 45 55 71 56 54 57 70 58 55 59 58 60 69 61 85 62 56 63
REMARK SMILES IDX 57 64 68 66 86 67 59 68 46 69 47 70 52 71 48 72 49 73 51 74
REMARK SMILES IDX 53 75 50 76 72 77 73 78 78 79 74 80 75 81 77 82 79 83 76 84
REMARK SMILES IDX 60 85 61 86 66 87 62 88 63 89 65 90 67 91 64 92
REMARK H PARENT 84 54 58 65
REMARK Flexibility Score: inf
ROOT
ATOM      1  C   UNL     1       4.911  -0.578   0.972  1.00  0.00     0.202 C 
ENDROOT
BRANCH   1   2
ATOM      2  C   UNL     1       4.339   0.825   0.776  1.00  0.00     0.261 C 
BRANCH   2   3
ATOM      3  O   UNL     1       2.906   0.894   0.761  1.00  0.00    -0.462 OA
BRANCH   3   4
ATOM      4  C   UNL     1       2.105   0.591  -0.286  1.00  0.00     0.326 C 
ATOM      5  O   UNL     1       0.940   0.251  -0.058  1.00  0.00    -0.250 OA
BRANCH   4   6
ATOM      6  C   UNL     1       2.642   0.519  -1.711  1.00  0.00     0.253 C 
BRANCH   6   7
ATOM      7  N   UNL     1       3.678   1.465  -2.096  1.00  0.00    -0.248 N 
ATOM      8  C   UNL     1       4.889   0.960  -2.574  1.00  0.00     0.265 A 
ATOM      9  C   UNL     1       3.323   2.820  -1.996  1.00  0.00     0.332 A 
ATOM     10  O   UNL     1       5.162  -0.239  -2.635  1.00  0.00    -0.268 OA
ATOM     11  C   UNL     1       5.826   1.970  -3.001  1.00  0.00     0.079 A 
ATOM     12  N   UNL     1       4.254   3.770  -2.413  1.00  0.00    -0.280 N 
ATOM     13  O   UNL     1       2.233   3.148  -1.521  1.00  0.00    -0.247 OA
ATOM     14  C   UNL     1       7.197   1.852  -3.434  1.00  0.00    -0.019 A 
ATOM     15  C   UNL     1       5.434   3.285  -2.956  1.00  0.00     0.113 A 
ATOM     16  C   UNL     1       7.709   3.092  -3.770  1.00  0.00     0.011 A 
ATOM     17  C   UNL     1       8.062   0.624  -3.481  1.00  0.00     0.037 C 
ATOM     18  S   UNL     1       6.541   4.306  -3.706  1.00  0.00    -0.122 S 
ATOM     19  C   UNL     1       9.107   3.394  -4.199  1.00  0.00     0.047 C 
ATOM     20  C   UNL     1       9.342   0.870  -4.307  1.00  0.00     0.005 C 
ATOM     21  C   UNL     1      10.020   2.195  -3.928  1.00  0.00     0.006 C 
BRANCH  12  22
ATOM     22  C   UNL     1       3.939   5.204  -2.207  1.00  0.00     0.165 C 
BRANCH  22  23
ATOM     23  C   UNL     1       4.633   5.806  -0.990  1.00  0.00    -0.009 A 
ATOM     24  C   UNL     1       4.111   5.538   0.291  1.00  0.00     0.008 A 
ATOM     25  C   UNL     1       5.780   6.620  -1.064  1.00  0.00     0.047 A 
ATOM     26  C   UNL     1       4.750   6.007   1.446  1.00  0.00     0.021 A 
ATOM     27  C   UNL     1       6.473   7.001   0.090  1.00  0.00     0.041 A 
ATOM     28  Cl  UNL     1       6.332   7.345  -2.533  1.00  0.00    -0.084 Cl
ATOM     29  C   UNL     1       5.953   6.697   1.340  1.00  0.00     0.042 A 
ATOM     30  Cl  UNL     1       6.776   7.222   2.756  1.00  0.00    -0.084 Cl
ENDBRANCH  22  23
ENDBRANCH  12  22
ENDBRANCH   6   7
ENDBRANCH   4   6
ENDBRANCH   3   4
ENDBRANCH   2   3
ENDBRANCH   1   2
BRANCH   1  31
ATOM     31  O   UNL     1       4.395  -1.603   0.132  1.00  0.00    -0.374 OA
BRANCH  31  32
ATOM     32  C   UNL     1       3.213  -2.273   0.567  1.00  0.00     0.202 C 
BRANCH  32  33
ATOM     33  C   UNL     1       3.297  -3.295   1.707  1.00  0.00     0.261 C 
BRANCH  33  34
ATOM     34  O   UNL     1       4.020  -2.862   2.862  1.00  0.00    -0.460 OA
BRANCH  34  35
ATOM     35  C   UNL     1       5.335  -3.163   2.801  1.00  0.00     0.338 C 
ATOM     36  O   UNL     1       5.948  -3.648   1.855  1.00  0.00    -0.246 OA
BRANCH  35  37
ATOM     37  C   UNL     1       6.005  -2.798   4.045  1.00  0.00     0.060 A 
ATOM     38  C   UNL     1       7.126  -1.963   3.991  1.00  0.00     0.016 A 
ATOM     39  C   UNL     1       5.641  -3.448   5.220  1.00  0.00     0.016 A 
ATOM     40  C   UNL     1       7.922  -1.809   5.123  1.00  0.00     0.010 A 
ATOM     41  C   UNL     1       6.460  -3.319   6.334  1.00  0.00     0.010 A 
ATOM     42  C   UNL     1       7.607  -2.505   6.297  1.00  0.00    -0.014 A 
BRANCH  42  43
ATOM     43  C   UNL     1       8.442  -2.279   7.499  1.00  0.00     0.031 A 
ATOM     44  C   UNL     1       7.637  -2.128   8.753  1.00  0.00     0.074 A 
ATOM     45  C   UNL     1       9.688  -2.793   7.610  1.00  0.00     0.049 A 
ATOM     46  N   UNL     1       7.119  -3.155   9.363  1.00  0.00    -0.248 NA
ATOM     47  C   UNL     1       7.080  -0.848   9.186  1.00  0.00     0.031 C 
ATOM     48  C   UNL     1      10.104  -4.056   6.984  1.00  0.00     0.029 A 
ATOM     49  N   UNL     1      10.728  -2.480   8.461  1.00  0.00    -0.354 N 
ATOM     50  C   UNL     1       6.106  -2.688  10.175  1.00  0.00     0.074 A 
ATOM     51  C   UNL     1       6.144  -1.245  10.065  1.00  0.00     0.031 C 
ATOM     52  C   UNL     1      11.207  -4.507   7.614  1.00  0.00     0.029 A 
ATOM     53  C   UNL     1      11.657  -3.513   8.587  1.00  0.00     0.049 A 
ATOM     54  H   UNL     1      10.807  -1.618   8.930  1.00  0.00     0.167 HD
ATOM     55  C   UNL     1       5.279  -3.523  10.859  1.00  0.00     0.037 A 
ATOM     56  C   UNL     1      12.341  -3.804   9.730  1.00  0.00     0.037 A 
ATOM     57  C   UNL     1       5.520  -4.926  10.681  1.00  0.00     0.049 A 
ATOM     58  C   UNL     1      11.260  -4.479  10.540  1.00  0.00     0.074 A 
ATOM     59  C   UNL     1       4.981  -5.983   9.980  1.00  0.00     0.029 A 
ATOM     60  N   UNL     1       6.582  -5.473  11.358  1.00  0.00    -0.354 N 
ATOM     61  N   UNL     1      10.825  -5.702  10.386  1.00  0.00    -0.248 NA
ATOM     62  C   UNL     1      10.374  -3.611  11.317  1.00  0.00     0.031 C 
ATOM     63  C   UNL     1       6.024  -6.963   9.909  1.00  0.00     0.029 A 
ATOM     64  C   UNL     1       7.141  -6.420  10.542  1.00  0.00     0.049 A 
ATOM     65  H   UNL     1       6.884  -5.230  12.263  1.00  0.00     0.167 HD
ATOM     66  C   UNL     1       9.489  -5.674  10.796  1.00  0.00     0.074 A 
ATOM     67  C   UNL     1       9.291  -4.369  11.393  1.00  0.00     0.031 C 
ATOM     68  C   UNL     1       8.570  -6.626  10.457  1.00  0.00     0.037 A 
BRANCH  55  69
ATOM     69  C   UNL     1       4.327  -3.094  11.897  1.00  0.00     0.057 A 
ATOM     70  C   UNL     1       4.711  -3.288  13.232  1.00  0.00     0.134 A 
ATOM     71  C   UNL     1       3.009  -2.721  11.643  1.00  0.00     0.134 A 
ATOM     72  F   UNL     1       5.971  -3.653  13.523  1.00  0.00    -0.206 F 
ATOM     73  C   UNL     1       3.804  -3.171  14.280  1.00  0.00     0.040 A 
ATOM     74  C   UNL     1       2.090  -2.584  12.689  1.00  0.00     0.040 A 
ATOM     75  F   UNL     1       2.579  -2.534  10.386  1.00  0.00    -0.206 F 
ATOM     76  C   UNL     1       2.484  -2.828  14.008  1.00  0.00     0.006 A 
ENDBRANCH  55  69
BRANCH  56  77
ATOM     77  C   UNL     1      13.223  -2.718  10.265  1.00  0.00     0.057 A 
ATOM     78  C   UNL     1      14.131  -2.105   9.380  1.00  0.00     0.134 A 
ATOM     79  C   UNL     1      13.248  -2.237  11.581  1.00  0.00     0.134 A 
ATOM     80  F   UNL     1      14.293  -2.583   8.136  1.00  0.00    -0.206 F 
ATOM     81  C   UNL     1      14.895  -0.990   9.736  1.00  0.00     0.040 A 
ATOM     82  C   UNL     1      13.984  -1.102  11.946  1.00  0.00     0.040 A 
ATOM     83  F   UNL     1      12.558  -2.837  12.559  1.00  0.00    -0.206 F 
ATOM     84  C   UNL     1      14.791  -0.458  11.014  1.00  0.00     0.006 A 
ENDBRANCH  56  77
BRANCH  68  85
ATOM     85  C   UNL     1       9.105  -7.825   9.753  1.00  0.00     0.057 A 
ATOM     86  C   UNL     1       9.910  -8.746  10.431  1.00  0.00     0.134 A 
ATOM     87  C   UNL     1       8.791  -8.105   8.415  1.00  0.00     0.134 A 
ATOM     88  F   UNL     1      10.239  -8.546  11.718  1.00  0.00    -0.206 F 
ATOM     89  C   UNL     1      10.369  -9.909   9.812  1.00  0.00     0.040 A 
ATOM     90  C   UNL     1       9.220  -9.279   7.793  1.00  0.00     0.040 A 
ATOM     91  F   UNL     1       8.042  -7.259   7.690  1.00  0.00    -0.206 F 
ATOM     92  C   UNL     1      10.011 -10.186   8.493  1.00  0.00     0.006 A 
ENDBRANCH  68  85
ENDBRANCH  42  43
ENDBRANCH  35  37
ENDBRANCH  34  35
ENDBRANCH  33  34
ENDBRANCH  32  33
ENDBRANCH  31  32
ENDBRANCH   1  31
TORSDOF 17
