REMARK SMILES O=C(OCCOCCOC(=O)c1ccc(-c2c3nc(c(-c4c(F)cccc4F)c4ccc([nH]4)c(-c4c(F)cccc4F)c4nc(c(-c5c(F)cccc5F)c5ccc2[nH]5)C=C4)C=C3)cc1)C1=Cc2ccc(Cl)c(Cl)c2O[C@@H]1C(F)(F)F
REMARK SMILES IDX 7 1 6 2 5 3 4 4 3 5 2 6 1 7 66 8 67 9 77 10 68 11 76 12
REMARK SMILES IDX 69 13 75 14 70 15 73 16 71 17 74 18 72 19 78 20 79 21 80 22
REMARK SMILES IDX 81 23 8 24 9 25 10 26 11 27 12 28 13 29 65 30 14 31 64 32
REMARK SMILES IDX 15 33 16 34 17 35 58 36 18 37 63 38 57 39 59 40 19 41 62 42
REMARK SMILES IDX 56 43 55 44 20 46 46 47 29 48 45 49 30 50 33 51 44 52 60 53
REMARK SMILES IDX 31 54 32 55 43 57 61 58 34 59 21 60 22 61 27 62 23 63 24 64
REMARK SMILES IDX 26 65 28 66 25 67 47 68 48 69 53 70 49 71 50 72 52 73 54 74
REMARK SMILES IDX 51 75 35 76 36 77 41 78 37 79 38 80 40 81 42 82 39 83
REMARK H PARENT 59 45 33 56
REMARK Flexibility Score: inf
ROOT
ATOM      1  C   UNL     1       2.680  -1.405  -2.742  1.00  0.00     0.202 C 
ENDROOT
BRANCH   1   2
ATOM      2  O   UNL     1       3.907  -0.759  -2.361  1.00  0.00    -0.374 OA
BRANCH   2   3
ATOM      3  C   UNL     1       4.261   0.347  -1.243  1.00  0.00     0.202 C 
BRANCH   3   4
ATOM      4  C   UNL     1       3.461   0.670   0.749  1.00  0.00     0.261 C 
BRANCH   4   5
ATOM      5  O   UNL     1       2.477   1.772   1.177  1.00  0.00    -0.460 OA
BRANCH   5   6
ATOM      6  C   UNL     1       2.578   2.873   0.429  1.00  0.00     0.338 C 
ATOM      7  O   UNL     1       1.906   3.872   0.437  1.00  0.00    -0.246 OA
BRANCH   6   8
ATOM      8  C   UNL     1       3.451   2.293  -0.568  1.00  0.00     0.087 C 
ATOM      9  C   UNL     1       4.853   2.227  -0.101  1.00  0.00     0.027 C 
ATOM     10  C   UNL     1       2.337   0.757  -0.943  1.00  0.00     0.316 C 
ATOM     11  C   UNL     1       5.666   0.692   0.410  1.00  0.00     0.019 A 
ATOM     12  O   UNL     1       3.149  -0.882  -0.325  1.00  0.00    -0.474 OA
ATOM     13  C   UNL     1       6.910   0.770   0.970  1.00  0.00     0.013 A 
ATOM     14  C   UNL     1       4.826  -0.832   0.410  1.00  0.00     0.148 A 
ATOM     15  C   UNL     1       7.353  -0.412   1.572  1.00  0.00     0.023 A 
ATOM     16  C   UNL     1       5.268  -1.870   1.190  1.00  0.00     0.102 A 
ATOM     17  C   UNL     1       6.567  -1.631   1.728  1.00  0.00     0.063 A 
ATOM     18  Cl  UNL     1       4.210  -3.083   1.760  1.00  0.00    -0.079 Cl
ATOM     19  Cl  UNL     1       7.360  -2.779   2.757  1.00  0.00    -0.083 Cl
BRANCH  10  20
ATOM     20  C   UNL     1       1.849   1.223  -2.389  1.00  0.00     0.430 C 
ATOM     21  F   UNL     1       0.938   0.432  -2.982  1.00  0.00    -0.167 F 
ATOM     22  F   UNL     1       1.215   2.424  -2.231  1.00  0.00    -0.167 F 
ATOM     23  F   UNL     1       2.842   1.477  -3.271  1.00  0.00    -0.167 F 
ENDBRANCH  10  20
ENDBRANCH   6   8
ENDBRANCH   5   6
ENDBRANCH   4   5
ENDBRANCH   3   4
ENDBRANCH   2   3
ENDBRANCH   1   2
BRANCH   1  24
ATOM     24  C   UNL     1       2.775  -2.905  -2.996  1.00  0.00     0.261 C 
BRANCH  24  25
ATOM     25  O   UNL     1       3.380  -3.597  -1.917  1.00  0.00    -0.460 OA
BRANCH  25  26
ATOM     26  C   UNL     1       4.715  -3.747  -2.059  1.00  0.00     0.338 C 
ATOM     27  O   UNL     1       5.440  -3.253  -2.905  1.00  0.00    -0.246 OA
BRANCH  26  28
ATOM     28  C   UNL     1       5.194  -4.649  -1.004  1.00  0.00     0.060 A 
ATOM     29  C   UNL     1       6.519  -4.506  -0.588  1.00  0.00     0.016 A 
ATOM     30  C   UNL     1       4.348  -5.605  -0.420  1.00  0.00     0.016 A 
ATOM     31  C   UNL     1       6.998  -5.318   0.429  1.00  0.00     0.010 A 
ATOM     32  C   UNL     1       4.825  -6.406   0.610  1.00  0.00     0.010 A 
ATOM     33  C   UNL     1       6.155  -6.269   1.024  1.00  0.00    -0.014 A 
BRANCH  33  34
ATOM     34  C   UNL     1       6.747  -7.238   1.960  1.00  0.00     0.031 A 
ATOM     35  C   UNL     1       7.235  -8.531   1.398  1.00  0.00     0.074 A 
ATOM     36  C   UNL     1       6.919  -6.924   3.254  1.00  0.00     0.049 A 
ATOM     37  N   UNL     1       7.911  -9.478   1.987  1.00  0.00    -0.248 NA
ATOM     38  C   UNL     1       6.912  -8.795  -0.015  1.00  0.00     0.031 C 
ATOM     39  C   UNL     1       6.436  -5.706   3.890  1.00  0.00     0.029 A 
ATOM     40  N   UNL     1       7.568  -7.591   4.257  1.00  0.00    -0.354 N 
ATOM     41  C   UNL     1       8.120 -10.438   1.010  1.00  0.00     0.074 A 
ATOM     42  C   UNL     1       7.448  -9.992  -0.190  1.00  0.00     0.031 C 
ATOM     43  C   UNL     1       6.867  -5.668   5.160  1.00  0.00     0.029 A 
ATOM     44  C   UNL     1       7.588  -6.903   5.446  1.00  0.00     0.049 A 
ATOM     45  H   UNL     1       7.980  -8.477   4.139  1.00  0.00     0.167 HD
ATOM     46  C   UNL     1       8.832 -11.581   1.109  1.00  0.00     0.037 A 
ATOM     47  C   UNL     1       8.115  -7.250   6.634  1.00  0.00     0.037 A 
ATOM     48  C   UNL     1       9.453 -12.027   2.326  1.00  0.00     0.049 A 
ATOM     49  C   UNL     1       8.833  -8.569   6.732  1.00  0.00     0.074 A 
ATOM     50  C   UNL     1      10.175 -13.184   2.549  1.00  0.00     0.029 A 
ATOM     51  N   UNL     1       9.408 -11.340   3.532  1.00  0.00    -0.354 N 
ATOM     52  N   UNL     1       9.069  -9.456   5.793  1.00  0.00    -0.248 NA
ATOM     53  C   UNL     1       9.360  -8.936   8.051  1.00  0.00     0.031 C 
ATOM     54  C   UNL     1      10.515 -13.227   3.904  1.00  0.00     0.029 A 
ATOM     55  C   UNL     1      10.071 -12.062   4.511  1.00  0.00     0.049 A 
ATOM     56  H   UNL     1       8.971 -10.470   3.670  1.00  0.00     0.167 HD
ATOM     57  C   UNL     1       9.790 -10.474   6.403  1.00  0.00     0.074 A 
ATOM     58  C   UNL     1       9.984 -10.072   7.782  1.00  0.00     0.031 C 
ATOM     59  C   UNL     1      10.244 -11.640   5.878  1.00  0.00     0.037 A 
BRANCH  46  60
ATOM     60  C   UNL     1       8.943 -12.420  -0.126  1.00  0.00     0.057 A 
ATOM     61  C   UNL     1       9.686 -12.000  -1.238  1.00  0.00     0.134 A 
ATOM     62  C   UNL     1       8.306 -13.663  -0.204  1.00  0.00     0.134 A 
ATOM     63  F   UNL     1      10.296 -10.805  -1.238  1.00  0.00    -0.206 F 
ATOM     64  C   UNL     1       9.775 -12.780  -2.392  1.00  0.00     0.040 A 
ATOM     65  C   UNL     1       8.414 -14.465  -1.341  1.00  0.00     0.040 A 
ATOM     66  F   UNL     1       7.571 -14.119   0.821  1.00  0.00    -0.206 F 
ATOM     67  C   UNL     1       9.145 -14.021  -2.441  1.00  0.00     0.006 A 
ENDBRANCH  46  60
BRANCH  47  68
ATOM     68  C   UNL     1       7.952  -6.375   7.825  1.00  0.00     0.057 A 
ATOM     69  C   UNL     1       9.052  -5.814   8.485  1.00  0.00     0.134 A 
ATOM     70  C   UNL     1       6.685  -6.125   8.371  1.00  0.00     0.134 A 
ATOM     71  F   UNL     1      10.295  -6.027   8.028  1.00  0.00    -0.206 F 
ATOM     72  C   UNL     1       8.905  -5.078   9.663  1.00  0.00     0.040 A 
ATOM     73  C   UNL     1       6.519  -5.359   9.525  1.00  0.00     0.040 A 
ATOM     74  F   UNL     1       5.585  -6.625   7.789  1.00  0.00    -0.206 F 
ATOM     75  C   UNL     1       7.633  -4.846  10.185  1.00  0.00     0.006 A 
ENDBRANCH  47  68
BRANCH  59  76
ATOM     76  C   UNL     1      11.024 -12.537   6.799  1.00  0.00     0.057 A 
ATOM     77  C   UNL     1      10.431 -13.178   7.894  1.00  0.00     0.134 A 
ATOM     78  C   UNL     1      12.390 -12.760   6.583  1.00  0.00     0.134 A 
ATOM     79  F   UNL     1       9.128 -13.001   8.164  1.00  0.00    -0.206 F 
ATOM     80  C   UNL     1      11.179 -13.964   8.772  1.00  0.00     0.040 A 
ATOM     81  C   UNL     1      13.139 -13.579   7.428  1.00  0.00     0.040 A 
ATOM     82  F   UNL     1      13.020 -12.193   5.543  1.00  0.00    -0.206 F 
ATOM     83  C   UNL     1      12.536 -14.169   8.536  1.00  0.00     0.006 A 
ENDBRANCH  59  76
ENDBRANCH  33  34
ENDBRANCH  26  28
ENDBRANCH  25  26
ENDBRANCH  24  25
ENDBRANCH   1  24
TORSDOF 15
