REMARK SMILES O=C(OCCOCCOC(=O)[C@@H]1CCCCC[C@H]1NS(=O)(=O)C(F)F)c1ccc(-c2c3nc(c(-c4c(F)cccc4F)c4ccc([nH]4)c(-c4c(F)cccc4F)c4nc(c(-c5c(F)cccc5F)c5ccc2[nH]5)C=C4)C=C3)cc1
REMARK SMILES IDX 7 1 6 2 5 3 4 4 3 5 2 6 1 7 26 8 27 9 79 10 28 11 78 12
REMARK SMILES IDX 29 13 30 14 31 15 72 16 32 17 77 18 71 19 73 20 33 21 76 22
REMARK SMILES IDX 70 23 69 24 34 26 60 27 43 28 59 29 44 30 47 31 58 32 74 33
REMARK SMILES IDX 45 34 46 35 57 37 75 38 48 39 35 40 36 41 41 42 37 43 38 44
REMARK SMILES IDX 40 45 42 46 39 47 61 48 62 49 67 50 63 51 64 52 66 53 68 54
REMARK SMILES IDX 65 55 49 56 50 57 55 58 51 59 52 60 54 61 56 62 53 63 8 64
REMARK SMILES IDX 9 65 10 66 11 67 12 68 13 69 14 70 18 72 17 73 16 74 15 75
REMARK SMILES IDX 19 77 20 79 21 80 22 81 23 82 24 83 25 84
REMARK H PARENT 73 25 47 36 19 78
REMARK Flexibility Score: 100.00
ROOT
ATOM      1  C   UNL     1       2.775  -1.343  -1.438  1.00  0.00     0.202 C 
ENDROOT
BRANCH   1   2
ATOM      2  O   UNL     1       4.173  -1.051  -1.358  1.00  0.00    -0.374 OA
BRANCH   2   3
ATOM      3  C   UNL     1       4.837  -1.167  -0.095  1.00  0.00     0.202 C 
BRANCH   3   4
ATOM      4  C   UNL     1       4.450  -0.191   1.030  1.00  0.00     0.261 C 
BRANCH   4   5
ATOM      5  O   UNL     1       3.030  -0.045   1.181  1.00  0.00    -0.460 OA
BRANCH   5   6
ATOM      6  C   UNL     1       2.256   0.941   0.666  1.00  0.00     0.338 C 
ATOM      7  O   UNL     1       1.056   0.965   0.926  1.00  0.00    -0.246 OA
BRANCH   6   8
ATOM      8  C   UNL     1       2.808   1.997  -0.230  1.00  0.00     0.060 A 
ATOM      9  C   UNL     1       3.946   1.834  -1.019  1.00  0.00     0.016 A 
ATOM     10  C   UNL     1       2.106   3.204  -0.336  1.00  0.00     0.016 A 
ATOM     11  C   UNL     1       4.434   2.819  -1.832  1.00  0.00     0.010 A 
ATOM     12  C   UNL     1       2.576   4.218  -1.172  1.00  0.00     0.010 A 
ATOM     13  C   UNL     1       3.754   4.017  -1.900  1.00  0.00    -0.014 A 
BRANCH  13  14
ATOM     14  C   UNL     1       4.459   5.084  -2.599  1.00  0.00     0.031 A 
ATOM     15  C   UNL     1       5.222   6.050  -1.762  1.00  0.00     0.074 A 
ATOM     16  C   UNL     1       4.572   5.020  -3.934  1.00  0.00     0.049 A 
ATOM     17  N   UNL     1       5.843   7.136  -2.116  1.00  0.00    -0.248 NA
ATOM     18  C   UNL     1       5.313   5.738  -0.322  1.00  0.00     0.031 C 
ATOM     19  C   UNL     1       4.034   3.947  -4.779  1.00  0.00     0.029 A 
ATOM     20  N   UNL     1       5.199   5.856  -4.808  1.00  0.00    -0.354 N 
ATOM     21  C   UNL     1       6.342   7.672  -0.939  1.00  0.00     0.074 A 
ATOM     22  C   UNL     1       5.980   6.783   0.138  1.00  0.00     0.031 C 
ATOM     23  C   UNL     1       4.342   4.207  -6.058  1.00  0.00     0.029 A 
ATOM     24  C   UNL     1       5.013   5.498  -6.118  1.00  0.00     0.049 A 
ATOM     25  H   UNL     1       5.730   6.636  -4.527  1.00  0.00     0.167 HD
ATOM     26  C   UNL     1       7.017   8.833  -0.795  1.00  0.00     0.037 A 
ATOM     27  C   UNL     1       5.295   6.195  -7.231  1.00  0.00     0.037 A 
ATOM     28  C   UNL     1       7.335   9.671  -1.917  1.00  0.00     0.049 A 
ATOM     29  C   UNL     1       5.932   7.543  -7.047  1.00  0.00     0.074 A 
ATOM     30  C   UNL     1       7.933  10.914  -1.934  1.00  0.00     0.029 A 
ATOM     31  N   UNL     1       7.066   9.329  -3.240  1.00  0.00    -0.354 N 
ATOM     32  N   UNL     1       6.299   8.134  -5.931  1.00  0.00    -0.248 NA
ATOM     33  C   UNL     1       6.177   8.332  -8.256  1.00  0.00     0.031 C 
ATOM     34  C   UNL     1       7.976  11.346  -3.265  1.00  0.00     0.029 A 
ATOM     35  C   UNL     1       7.467  10.345  -4.083  1.00  0.00     0.049 A 
ATOM     36  H   UNL     1       6.650   8.486  -3.531  1.00  0.00     0.167 HD
ATOM     37  C   UNL     1       6.843   9.353  -6.301  1.00  0.00     0.074 A 
ATOM     38  C   UNL     1       6.757   9.412  -7.750  1.00  0.00     0.031 C 
ATOM     39  C   UNL     1       7.369  10.334  -5.525  1.00  0.00     0.037 A 
BRANCH  26  40
ATOM     40  C   UNL     1       7.305   9.276   0.608  1.00  0.00     0.057 A 
ATOM     41  C   UNL     1       8.217   8.613   1.440  1.00  0.00     0.134 A 
ATOM     42  C   UNL     1       6.576  10.333   1.167  1.00  0.00     0.134 A 
ATOM     43  F   UNL     1       8.919   7.564   0.982  1.00  0.00    -0.206 F 
ATOM     44  C   UNL     1       8.364   8.959   2.786  1.00  0.00     0.040 A 
ATOM     45  C   UNL     1       6.735  10.707   2.503  1.00  0.00     0.040 A 
ATOM     46  F   UNL     1       5.673  11.002   0.434  1.00  0.00    -0.206 F 
ATOM     47  C   UNL     1       7.621  10.010   3.320  1.00  0.00     0.006 A 
ENDBRANCH  26  40
BRANCH  27  48
ATOM     48  C   UNL     1       4.903   5.662  -8.558  1.00  0.00     0.057 A 
ATOM     49  C   UNL     1       5.857   5.277  -9.503  1.00  0.00     0.134 A 
ATOM     50  C   UNL     1       3.554   5.480  -8.898  1.00  0.00     0.134 A 
ATOM     51  F   UNL     1       7.164   5.433  -9.245  1.00  0.00    -0.206 F 
ATOM     52  C   UNL     1       5.488   4.737 -10.738  1.00  0.00     0.040 A 
ATOM     53  C   UNL     1       3.170   4.917 -10.116  1.00  0.00     0.040 A 
ATOM     54  F   UNL     1       2.585   5.819  -8.033  1.00  0.00    -0.206 F 
ATOM     55  C   UNL     1       4.141   4.548 -11.043  1.00  0.00     0.006 A 
ENDBRANCH  27  48
BRANCH  39  56
ATOM     56  C   UNL     1       7.945  11.517  -6.237  1.00  0.00     0.057 A 
ATOM     57  C   UNL     1       7.136  12.502  -6.812  1.00  0.00     0.134 A 
ATOM     58  C   UNL     1       9.332  11.708  -6.261  1.00  0.00     0.134 A 
ATOM     59  F   UNL     1       5.802  12.364  -6.829  1.00  0.00    -0.206 F 
ATOM     60  C   UNL     1       7.691  13.639  -7.397  1.00  0.00     0.040 A 
ATOM     61  C   UNL     1       9.896  12.854  -6.817  1.00  0.00     0.040 A 
ATOM     62  F   UNL     1      10.155  10.800  -5.714  1.00  0.00    -0.206 F 
ATOM     63  C   UNL     1       9.073  13.822  -7.389  1.00  0.00     0.006 A 
ENDBRANCH  39  56
ENDBRANCH  13  14
ENDBRANCH   6   8
ENDBRANCH   5   6
ENDBRANCH   4   5
ENDBRANCH   3   4
ENDBRANCH   2   3
ENDBRANCH   1   2
BRANCH   1  64
ATOM     64  C   UNL     1       2.518  -2.484  -2.417  1.00  0.00     0.261 C 
BRANCH  64  65
ATOM     65  O   UNL     1       2.935  -3.689  -1.763  1.00  0.00    -0.463 OA
BRANCH  65  66
ATOM     66  C   UNL     1       4.274  -3.898  -1.803  1.00  0.00     0.310 C 
ATOM     67  O   UNL     1       5.041  -3.435  -2.638  1.00  0.00    -0.252 OA
BRANCH  66  68
ATOM     68  C   UNL     1       4.723  -4.842  -0.709  1.00  0.00     0.117 C 
BRANCH  68  69
ATOM     69  C   UNL     1       4.702  -6.214  -1.382  1.00  0.00     0.017 C 
BRANCH  69  70
ATOM     70  C   UNL     1       4.862  -7.403  -0.459  1.00  0.00     0.001 CG0
ATOM     71  G   UNL     1       3.525  -7.855   0.111  1.00  0.00     0.000 G0
ENDBRANCH  69  70
ENDBRANCH  68  69
BRANCH  68  72
ATOM     72  C   UNL     1       3.979  -4.644   0.654  1.00  0.00     0.084 C 
BRANCH  72  73
ATOM     73  C   UNL     1       2.744  -5.524   0.848  1.00  0.00     0.021 C 
BRANCH  73  74
ATOM     74  C   UNL     1       2.998  -6.976   1.231  1.00  0.00     0.002 C 
BRANCH  74  75
ATOM     75  C   UNL     1       3.525  -7.855   0.111  1.00  0.00     0.000 CG0
ATOM     76  G   UNL     1       4.862  -7.403  -0.459  1.00  0.00     0.000 G0
ENDBRANCH  74  75
ENDBRANCH  73  74
ENDBRANCH  72  73
BRANCH  72  77
ATOM     77  N   UNL     1       4.980  -4.759   1.754  1.00  0.00    -0.206 NA
ATOM     78  H   UNL     1       5.687  -4.055   1.538  1.00  0.00     0.141 HD
BRANCH  77  79
ATOM     79  S   UNL     1       4.702  -4.600   3.405  1.00  0.00     0.274 S 
ATOM     80  O   UNL     1       3.442  -5.233   3.739  1.00  0.00    -0.206 OA
ATOM     81  O   UNL     1       5.927  -5.098   4.001  1.00  0.00    -0.206 OA
BRANCH  79  82
ATOM     82  C   UNL     1       4.580  -2.816   3.770  1.00  0.00     0.473 C 
ATOM     83  F   UNL     1       5.706  -2.133   3.411  1.00  0.00    -0.191 F 
ATOM     84  F   UNL     1       3.545  -2.227   3.111  1.00  0.00    -0.191 F 
ENDBRANCH  79  82
ENDBRANCH  77  79
ENDBRANCH  72  77
ENDBRANCH  68  72
ENDBRANCH  66  68
ENDBRANCH  65  66
ENDBRANCH  64  65
ENDBRANCH   1  64
TORSDOF 17
