REMARK SMILES Nc1nonc1C(=O)N1[C@@H]2CC[C@H]1C[C@H](CC(=O)OCCOCCOC(=O)c1ccc(-c3c4nc(c(-c5c(F)cccc5F)c5ccc([nH]5)c(-c5c(F)cccc5F)c5nc(c(-c6c(F)cccc6F)c6ccc3[nH]6)C=C5)C=C4)cc1)C2
REMARK SMILES IDX 21 1 20 2 19 3 17 4 18 5 16 6 15 7 9 8 10 9 13 10 11 11
REMARK SMILES IDX 82 12 12 13 14 14 7 15 8 16 6 17 2 18 3 19 4 20 5 21 1 22
REMARK SMILES IDX 22 25 23 26 24 27 25 28 26 29 27 30 28 31 29 32 81 33 30 34
REMARK SMILES IDX 80 35 31 36 32 37 33 38 74 39 34 40 79 41 73 42 75 43 35 44
REMARK SMILES IDX 78 45 72 46 71 47 36 49 62 50 45 51 61 52 46 53 49 54 60 55
REMARK SMILES IDX 76 56 47 57 48 58 59 60 77 61 50 62 37 63 38 64 43 65 39 66
REMARK SMILES IDX 40 67 42 68 44 69 41 70 63 71 64 72 69 73 65 74 66 75 68 76
REMARK SMILES IDX 70 77 67 78 51 79 52 80 57 81 53 82 54 83 56 84 58 85 55 86
REMARK H PARENT 1 23 1 24 75 48 49 59
REMARK Flexibility Score: inf
ROOT
ATOM      1  C   UNL     1       8.065  -0.162   0.299  1.00  0.00     0.202 C 
ENDROOT
BRANCH   1   2
ATOM      2  C   UNL     1       7.132   0.814  -0.421  1.00  0.00     0.261 C 
BRANCH   2   3
ATOM      3  O   UNL     1       5.900   0.159  -0.779  1.00  0.00    -0.463 OA
BRANCH   3   4
ATOM      4  C   UNL     1       5.680  -0.025  -2.104  1.00  0.00     0.306 C 
ATOM      5  O   UNL     1       6.381   0.419  -3.004  1.00  0.00    -0.252 OA
BRANCH   4   6
ATOM      6  C   UNL     1       4.407  -0.796  -2.370  1.00  0.00     0.126 C 
BRANCH   6   7
ATOM      7  C   UNL     1       4.114  -2.074  -1.543  1.00  0.00     0.004 C 
ATOM      8  N   UNL     1       1.616  -2.647  -0.329  1.00  0.00    -0.331 N 
ATOM      9  C   UNL     1       2.041  -3.614  -1.321  1.00  0.00     0.086 C 
ATOM     10  C   UNL     1       2.715  -2.560   0.619  1.00  0.00     0.086 C 
ATOM     11  C   UNL     1       2.784  -4.694  -0.527  1.00  0.00     0.027 C 
ATOM     12  C   UNL     1       2.962  -2.840  -2.260  1.00  0.00     0.029 C 
ATOM     13  C   UNL     1       3.109  -4.031   0.814  1.00  0.00     0.027 C 
ATOM     14  C   UNL     1       3.867  -1.775  -0.032  1.00  0.00     0.029 C 
BRANCH   8  15
ATOM     15  C   UNL     1       0.279  -2.604   0.064  1.00  0.00     0.280 C 
ATOM     16  O   UNL     1      -0.404  -3.629   0.051  1.00  0.00    -0.267 OA
BRANCH  15  17
ATOM     17  C   UNL     1      -0.285  -1.286   0.368  1.00  0.00     0.216 A 
ATOM     18  C   UNL     1       0.207   0.029   0.152  1.00  0.00     0.201 A 
ATOM     19  N   UNL     1      -0.691   0.920   0.562  1.00  0.00    -0.032 NA
ATOM     20  O   UNL     1      -1.776   0.174   0.986  1.00  0.00    -0.242 OA
ATOM     21  N   UNL     1      -1.525  -1.183   0.875  1.00  0.00    -0.042 NA
BRANCH  18  22
ATOM     22  N   UNL     1       1.371   0.380  -0.415  1.00  0.00    -0.379 N 
ATOM     23  H   UNL     1       1.605   1.332  -0.511  1.00  0.00     0.158 HD
ATOM     24  H   UNL     1       1.992  -0.314  -0.735  1.00  0.00     0.158 HD
ENDBRANCH  18  22
ENDBRANCH  15  17
ENDBRANCH   8  15
ENDBRANCH   6   7
ENDBRANCH   4   6
ENDBRANCH   3   4
ENDBRANCH   2   3
ENDBRANCH   1   2
BRANCH   1  25
ATOM     25  O   UNL     1       8.687  -1.145  -0.530  1.00  0.00    -0.374 OA
BRANCH  25  26
ATOM     26  C   UNL     1       7.895  -2.272  -0.898  1.00  0.00     0.202 C 
BRANCH  26  27
ATOM     27  C   UNL     1       7.844  -3.415   0.120  1.00  0.00     0.261 C 
BRANCH  27  28
ATOM     28  O   UNL     1       7.217  -3.004   1.349  1.00  0.00    -0.460 OA
BRANCH  28  29
ATOM     29  C   UNL     1       8.077  -2.816   2.375  1.00  0.00     0.338 C 
ATOM     30  O   UNL     1       9.276  -3.074   2.389  1.00  0.00    -0.246 OA
BRANCH  29  31
ATOM     31  C   UNL     1       7.427  -2.076   3.473  1.00  0.00     0.060 A 
ATOM     32  C   UNL     1       8.149  -1.016   4.034  1.00  0.00     0.016 A 
ATOM     33  C   UNL     1       6.184  -2.441   3.999  1.00  0.00     0.016 A 
ATOM     34  C   UNL     1       7.674  -0.371   5.171  1.00  0.00     0.010 A 
ATOM     35  C   UNL     1       5.706  -1.789   5.144  1.00  0.00     0.010 A 
ATOM     36  C   UNL     1       6.474  -0.787   5.764  1.00  0.00    -0.014 A 
BRANCH  36  37
ATOM     37  C   UNL     1       6.145  -0.279   7.121  1.00  0.00     0.031 A 
ATOM     38  C   UNL     1       6.442  -1.144   8.317  1.00  0.00     0.074 A 
ATOM     39  C   UNL     1       5.689   0.973   7.297  1.00  0.00     0.049 A 
ATOM     40  N   UNL     1       6.339  -0.864   9.592  1.00  0.00    -0.248 NA
ATOM     41  C   UNL     1       6.927  -2.505   8.038  1.00  0.00     0.031 C 
ATOM     42  C   UNL     1       5.402   1.927   6.228  1.00  0.00     0.029 A 
ATOM     43  N   UNL     1       5.410   1.664   8.450  1.00  0.00    -0.354 N 
ATOM     44  C   UNL     1       6.751  -2.008  10.265  1.00  0.00     0.074 A 
ATOM     45  C   UNL     1       7.060  -3.001   9.258  1.00  0.00     0.031 C 
ATOM     46  C   UNL     1       5.008   3.089   6.775  1.00  0.00     0.029 A 
ATOM     47  C   UNL     1       4.994   2.954   8.231  1.00  0.00     0.049 A 
ATOM     48  H   UNL     1       5.501   1.272   9.348  1.00  0.00     0.167 HD
ATOM     49  C   UNL     1       6.882  -2.211  11.598  1.00  0.00     0.037 A 
ATOM     50  C   UNL     1       4.647   3.917   9.106  1.00  0.00     0.037 A 
ATOM     51  C   UNL     1       6.571  -1.230  12.604  1.00  0.00     0.049 A 
ATOM     52  C   UNL     1       4.721   3.641  10.584  1.00  0.00     0.074 A 
ATOM     53  C   UNL     1       6.676  -1.339  13.980  1.00  0.00     0.029 A 
ATOM     54  N   UNL     1       6.084   0.042  12.341  1.00  0.00    -0.354 N 
ATOM     55  N   UNL     1       5.141   2.566  11.207  1.00  0.00    -0.248 NA
ATOM     56  C   UNL     1       4.279   4.719  11.480  1.00  0.00     0.031 C 
ATOM     57  C   UNL     1       6.208  -0.150  14.551  1.00  0.00     0.029 A 
ATOM     58  C   UNL     1       5.861   0.719  13.529  1.00  0.00     0.049 A 
ATOM     59  H   UNL     1       5.922   0.410  11.442  1.00  0.00     0.167 HD
ATOM     60  C   UNL     1       5.048   2.852  12.565  1.00  0.00     0.074 A 
ATOM     61  C   UNL     1       4.540   4.204  12.673  1.00  0.00     0.031 C 
ATOM     62  C   UNL     1       5.360   2.067  13.626  1.00  0.00     0.037 A 
BRANCH  49  63
ATOM     63  C   UNL     1       7.362  -3.564  12.039  1.00  0.00     0.057 A 
ATOM     64  C   UNL     1       8.682  -3.986  11.832  1.00  0.00     0.134 A 
ATOM     65  C   UNL     1       6.493  -4.456  12.681  1.00  0.00     0.134 A 
ATOM     66  F   UNL     1       9.561  -3.187  11.209  1.00  0.00    -0.206 F 
ATOM     67  C   UNL     1       9.112  -5.257  12.218  1.00  0.00     0.040 A 
ATOM     68  C   UNL     1       6.919  -5.719  13.096  1.00  0.00     0.040 A 
ATOM     69  F   UNL     1       5.217  -4.115  12.914  1.00  0.00    -0.206 F 
ATOM     70  C   UNL     1       8.229  -6.126  12.856  1.00  0.00     0.006 A 
ENDBRANCH  49  63
BRANCH  50  71
ATOM     71  C   UNL     1       4.215   5.249   8.613  1.00  0.00     0.057 A 
ATOM     72  C   UNL     1       5.010   6.385   8.806  1.00  0.00     0.134 A 
ATOM     73  C   UNL     1       2.991   5.422   7.956  1.00  0.00     0.134 A 
ATOM     74  F   UNL     1       6.183   6.286   9.450  1.00  0.00    -0.206 F 
ATOM     75  C   UNL     1       4.598   7.647   8.378  1.00  0.00     0.040 A 
ATOM     76  C   UNL     1       2.577   6.674   7.501  1.00  0.00     0.040 A 
ATOM     77  F   UNL     1       2.184   4.373   7.741  1.00  0.00    -0.206 F 
ATOM     78  C   UNL     1       3.379   7.793   7.718  1.00  0.00     0.006 A 
ENDBRANCH  50  71
BRANCH  62  79
ATOM     79  C   UNL     1       5.202   2.666  14.994  1.00  0.00     0.057 A 
ATOM     80  C   UNL     1       3.944   2.916  15.557  1.00  0.00     0.134 A 
ATOM     81  C   UNL     1       6.328   2.979  15.768  1.00  0.00     0.134 A 
ATOM     82  F   UNL     1       2.825   2.651  14.865  1.00  0.00    -0.206 F 
ATOM     83  C   UNL     1       3.811   3.484  16.825  1.00  0.00     0.040 A 
ATOM     84  C   UNL     1       6.207   3.521  17.049  1.00  0.00     0.040 A 
ATOM     85  F   UNL     1       7.563   2.756  15.295  1.00  0.00    -0.206 F 
ATOM     86  C   UNL     1       4.945   3.784  17.577  1.00  0.00     0.006 A 
ENDBRANCH  62  79
ENDBRANCH  36  37
ENDBRANCH  29  31
ENDBRANCH  28  29
ENDBRANCH  27  28
ENDBRANCH  26  27
ENDBRANCH  25  26
ENDBRANCH   1  25
TORSDOF 18
