REMARK SMILES O=C(Cc1ccc(-c2ccc(Cl)cc2)cc1)OCCOCCOC(=O)c1ccc(-c2c3nc(c(-c4c(F)cccc4F)c4ccc([nH]4)c(-c4c(F)cccc4F)c4nc(c(-c5c(F)cccc5F)c5ccc2[nH]5)C=C4)C=C3)cc1
REMARK SMILES IDX 20 1 19 2 18 3 17 4 2 5 1 6 3 7 4 8 5 9 16 10 6 11 15 12
REMARK SMILES IDX 7 13 8 14 9 15 14 16 10 17 13 18 11 19 12 20 21 21 22 22
REMARK SMILES IDX 23 23 24 24 25 25 26 26 27 27 79 28 28 29 78 30 29 31 30 32
REMARK SMILES IDX 31 33 72 34 32 35 77 36 71 37 73 38 33 39 76 40 70 41 69 42
REMARK SMILES IDX 34 44 60 45 43 46 59 47 44 48 47 49 58 50 74 51 45 52 46 53
REMARK SMILES IDX 57 55 75 56 48 57 35 58 36 59 41 60 37 61 38 62 40 63 42 64
REMARK SMILES IDX 39 65 61 66 62 67 67 68 63 69 64 70 66 71 68 72 65 73 49 74
REMARK SMILES IDX 50 75 55 76 51 77 52 78 54 79 56 80 53 81
REMARK H PARENT 73 43 47 54
REMARK Flexibility Score: inf
ROOT
ATOM      1  O   UNL     1       4.042  -1.597   0.829  1.00  0.00    -0.374 OA
ENDROOT
BRANCH   1   2
ATOM      2  C   UNL     1       4.691  -0.339   0.942  1.00  0.00     0.202 C 
BRANCH   2   3
ATOM      3  C   UNL     1       4.106   0.848   0.179  1.00  0.00     0.261 C 
BRANCH   3   4
ATOM      4  O   UNL     1       2.674   0.944   0.184  1.00  0.00    -0.463 OA
BRANCH   4   5
ATOM      5  C   UNL     1       1.836   0.367  -0.712  1.00  0.00     0.310 C 
ATOM      6  O   UNL     1       0.626   0.585  -0.627  1.00  0.00    -0.252 OA
BRANCH   5   7
ATOM      7  C   UNL     1       2.365  -0.606  -1.743  1.00  0.00     0.158 C 
BRANCH   7   8
ATOM      8  C   UNL     1       3.416  -0.073  -2.678  1.00  0.00    -0.037 A 
ATOM      9  C   UNL     1       4.515  -0.872  -3.027  1.00  0.00     0.005 A 
ATOM     10  C   UNL     1       3.327   1.231  -3.176  1.00  0.00     0.005 A 
ATOM     11  C   UNL     1       5.528  -0.358  -3.839  1.00  0.00     0.009 A 
ATOM     12  C   UNL     1       4.351   1.747  -3.962  1.00  0.00     0.009 A 
ATOM     13  C   UNL     1       5.457   0.959  -4.312  1.00  0.00    -0.018 A 
BRANCH  13  14
ATOM     14  C   UNL     1       6.455   1.505  -5.229  1.00  0.00    -0.018 A 
ATOM     15  C   UNL     1       6.461   1.088  -6.569  1.00  0.00     0.010 A 
ATOM     16  C   UNL     1       7.332   2.525  -4.831  1.00  0.00     0.010 A 
ATOM     17  C   UNL     1       7.291   1.707  -7.503  1.00  0.00     0.021 A 
ATOM     18  C   UNL     1       8.169   3.142  -5.764  1.00  0.00     0.021 A 
ATOM     19  C   UNL     1       8.133   2.739  -7.098  1.00  0.00     0.041 A 
ATOM     20  Cl  UNL     1       9.114   3.542  -8.261  1.00  0.00    -0.084 Cl
ENDBRANCH  13  14
ENDBRANCH   7   8
ENDBRANCH   5   7
ENDBRANCH   4   5
ENDBRANCH   3   4
ENDBRANCH   2   3
ENDBRANCH   1   2
BRANCH   1  21
ATOM     21  C   UNL     1       2.839  -1.798   1.579  1.00  0.00     0.202 C 
BRANCH  21  22
ATOM     22  C   UNL     1       2.962  -1.941   3.098  1.00  0.00     0.261 C 
BRANCH  22  23
ATOM     23  O   UNL     1       3.300  -0.691   3.722  1.00  0.00    -0.460 OA
BRANCH  23  24
ATOM     24  C   UNL     1       4.543  -0.637   4.244  1.00  0.00     0.338 C 
ATOM     25  O   UNL     1       5.363  -1.548   4.301  1.00  0.00    -0.246 OA
BRANCH  24  26
ATOM     26  C   UNL     1       4.895   0.754   4.572  1.00  0.00     0.060 A 
ATOM     27  C   UNL     1       6.160   1.208   4.174  1.00  0.00     0.016 A 
ATOM     28  C   UNL     1       4.053   1.565   5.337  1.00  0.00     0.016 A 
ATOM     29  C   UNL     1       6.636   2.427   4.636  1.00  0.00     0.010 A 
ATOM     30  C   UNL     1       4.534   2.789   5.805  1.00  0.00     0.010 A 
ATOM     31  C   UNL     1       5.852   3.184   5.515  1.00  0.00    -0.014 A 
BRANCH  31  32
ATOM     32  C   UNL     1       6.516   4.228   6.327  1.00  0.00     0.031 A 
ATOM     33  C   UNL     1       6.952   3.868   7.723  1.00  0.00     0.074 A 
ATOM     34  C   UNL     1       6.795   5.436   5.811  1.00  0.00     0.049 A 
ATOM     35  N   UNL     1       7.574   4.593   8.616  1.00  0.00    -0.248 NA
ATOM     36  C   UNL     1       6.640   2.500   8.175  1.00  0.00     0.031 C 
ATOM     37  C   UNL     1       6.463   5.874   4.457  1.00  0.00     0.029 A 
ATOM     38  N   UNL     1       7.431   6.513   6.371  1.00  0.00    -0.354 N 
ATOM     39  C   UNL     1       7.714   3.777   9.733  1.00  0.00     0.074 A 
ATOM     40  C   UNL     1       7.083   2.515   9.422  1.00  0.00     0.031 C 
ATOM     41  C   UNL     1       6.902   7.133   4.289  1.00  0.00     0.029 A 
ATOM     42  C   UNL     1       7.522   7.593   5.531  1.00  0.00     0.049 A 
ATOM     43  H   UNL     1       7.788   6.511   7.289  1.00  0.00     0.167 HD
ATOM     44  C   UNL     1       8.324   4.052  10.909  1.00  0.00     0.037 A 
ATOM     45  C   UNL     1       8.043   8.815   5.750  1.00  0.00     0.037 A 
ATOM     46  C   UNL     1       8.960   5.307  11.206  1.00  0.00     0.049 A 
ATOM     47  C   UNL     1       8.674   9.113   7.084  1.00  0.00     0.074 A 
ATOM     48  C   UNL     1       9.623   5.689  12.358  1.00  0.00     0.029 A 
ATOM     49  N   UNL     1       9.007   6.389  10.338  1.00  0.00    -0.354 N 
ATOM     50  N   UNL     1       8.822   8.329   8.126  1.00  0.00    -0.248 NA
ATOM     51  C   UNL     1       9.222  10.464   7.267  1.00  0.00     0.031 C 
ATOM     52  C   UNL     1      10.028   7.019  12.207  1.00  0.00     0.029 A 
ATOM     53  C   UNL     1       9.671   7.446  10.937  1.00  0.00     0.049 A 
ATOM     54  H   UNL     1       8.624   6.402   9.431  1.00  0.00     0.167 HD
ATOM     55  C   UNL     1       9.517   9.076   9.070  1.00  0.00     0.074 A 
ATOM     56  C   UNL     1       9.764  10.373   8.473  1.00  0.00     0.031 C 
ATOM     57  C   UNL     1       9.920   8.722  10.316  1.00  0.00     0.037 A 
BRANCH  44  58
ATOM     58  C   UNL     1       8.299   2.986  11.967  1.00  0.00     0.057 A 
ATOM     59  C   UNL     1       9.038   1.801  11.851  1.00  0.00     0.134 A 
ATOM     60  C   UNL     1       7.529   3.154  13.124  1.00  0.00     0.134 A 
ATOM     61  F   UNL     1       9.781   1.567  10.758  1.00  0.00    -0.206 F 
ATOM     62  C   UNL     1       8.989   0.810  12.833  1.00  0.00     0.040 A 
ATOM     63  C   UNL     1       7.494   2.183  14.127  1.00  0.00     0.040 A 
ATOM     64  F   UNL     1       6.797   4.264  13.301  1.00  0.00    -0.206 F 
ATOM     65  C   UNL     1       8.220   1.004  13.979  1.00  0.00     0.006 A 
ENDBRANCH  44  58
BRANCH  45  66
ATOM     66  C   UNL     1       8.006   9.843   4.679  1.00  0.00     0.057 A 
ATOM     67  C   UNL     1       9.178  10.278   4.051  1.00  0.00     0.134 A 
ATOM     68  C   UNL     1       6.801  10.429   4.273  1.00  0.00     0.134 A 
ATOM     69  F   UNL     1      10.366   9.769   4.410  1.00  0.00    -0.206 F 
ATOM     70  C   UNL     1       9.157  11.273   3.072  1.00  0.00     0.040 A 
ATOM     71  C   UNL     1       6.762  11.406   3.277  1.00  0.00     0.040 A 
ATOM     72  F   UNL     1       5.642  10.053   4.833  1.00  0.00    -0.206 F 
ATOM     73  C   UNL     1       7.945  11.836   2.679  1.00  0.00     0.006 A 
ENDBRANCH  45  66
BRANCH  57  74
ATOM     74  C   UNL     1      10.725   9.728  11.087  1.00  0.00     0.057 A 
ATOM     75  C   UNL     1      10.158  10.898  11.606  1.00  0.00     0.134 A 
ATOM     76  C   UNL     1      12.086   9.503  11.334  1.00  0.00     0.134 A 
ATOM     77  F   UNL     1       8.863  11.178  11.397  1.00  0.00    -0.206 F 
ATOM     78  C   UNL     1      10.925  11.827  12.313  1.00  0.00     0.040 A 
ATOM     79  C   UNL     1      12.854  10.408  12.066  1.00  0.00     0.040 A 
ATOM     80  F   UNL     1      12.688   8.395  10.877  1.00  0.00    -0.206 F 
ATOM     81  C   UNL     1      12.276  11.580  12.549  1.00  0.00     0.006 A 
ENDBRANCH  57  74
ENDBRANCH  31  32
ENDBRANCH  24  26
ENDBRANCH  23  24
ENDBRANCH  22  23
ENDBRANCH  21  22
ENDBRANCH   1  21
TORSDOF 16
