REMARK SMILES C[N@@H+]1[C@H]2CC[C@@H]1[C@@H](C(=O)OCCOCCOC(=O)c1ccc(-c3c4nc(c(-c5c(F)cccc5F)c5ccc([nH]5)c(-c5c(F)cccc5F)c5nc(c(-c6c(F)cccc6F)c6ccc3[nH]6)C=C5)C=C4)cc1)[C@@H](OC(=O)c1ccccc1)C2
REMARK SMILES IDX 12 1 11 2 10 3 8 4 9 5 7 6 1 7 2 8 3 9 6 10 4 12 83 13 5 14
REMARK SMILES IDX 73 15 74 16 75 17 76 18 77 19 78 20 82 21 79 22 81 23 80 24
REMARK SMILES IDX 13 25 14 26 15 27 16 28 17 29 18 30 19 31 20 32 72 33 21 34
REMARK SMILES IDX 71 35 22 36 23 37 24 38 65 39 25 40 70 41 64 42 66 43 26 44
REMARK SMILES IDX 69 45 63 46 62 47 27 49 53 50 36 51 52 52 37 53 40 54 51 55
REMARK SMILES IDX 67 56 38 57 39 58 50 60 68 61 41 62 28 63 29 64 34 65 30 66
REMARK SMILES IDX 31 67 33 68 35 69 32 70 54 71 55 72 60 73 56 74 57 75 59 76
REMARK SMILES IDX 61 77 58 78 42 79 43 80 48 81 44 82 45 83 47 84 49 85 46 86
REMARK H PARENT 2 11 66 48 40 59
REMARK Flexibility Score: inf
ROOT
ATOM      1  C   UNL     1      -3.366  -3.941   2.224  1.00  0.00     0.202 C 
ENDROOT
BRANCH   1   2
ATOM      2  C   UNL     1      -3.007  -2.470   1.961  1.00  0.00     0.261 C 
BRANCH   2   3
ATOM      3  O   UNL     1      -1.781  -2.245   1.216  1.00  0.00    -0.463 OA
BRANCH   3   4
ATOM      4  C   UNL     1      -0.818  -1.551   1.867  1.00  0.00     0.318 C 
ATOM      5  O   UNL     1      -0.869  -1.292   3.071  1.00  0.00    -0.252 OA
BRANCH   4   6
ATOM      6  C   UNL     1       0.281  -0.944   1.018  1.00  0.00     0.198 C 
ATOM      7  C   UNL     1      -2.269   0.215  -0.464  1.00  0.00     0.333 C 
ATOM      8  N   UNL     1      -0.945   0.792  -0.379  1.00  0.00    -0.332 N 
ATOM      9  C   UNL     1      -0.052   0.485  -1.489  1.00  0.00     0.188 C 
ATOM     10  C   UNL     1      -0.135   0.537   0.817  1.00  0.00     0.202 C 
ATOM     11  H   UNL     1      -1.254   1.763  -0.371  1.00  0.00     0.348 HD
ATOM     12  C   UNL     1       1.155   1.339  -1.072  1.00  0.00     0.071 C 
ATOM     13  C   UNL     1       0.276  -1.021  -1.560  1.00  0.00     0.111 C 
ATOM     14  C   UNL     1       1.088   1.393   0.460  1.00  0.00     0.072 C 
ATOM     15  C   UNL     1       0.895  -1.577  -0.264  1.00  0.00     0.203 C 
BRANCH  15  16
ATOM     16  O   UNL     1       1.040  -3.025  -0.182  1.00  0.00    -0.457 OA
BRANCH  16  17
ATOM     17  C   UNL     1       1.511  -3.735  -1.255  1.00  0.00     0.338 C 
ATOM     18  O   UNL     1       1.711  -3.320  -2.381  1.00  0.00    -0.246 OA
BRANCH  17  19
ATOM     19  C   UNL     1       1.657  -5.178  -0.923  1.00  0.00     0.060 A 
ATOM     20  C   UNL     1       1.027  -6.125  -1.742  1.00  0.00     0.015 A 
ATOM     21  C   UNL     1       2.343  -5.604   0.219  1.00  0.00     0.015 A 
ATOM     22  C   UNL     1       0.943  -7.459  -1.338  1.00  0.00     0.001 A 
ATOM     23  C   UNL     1       2.279  -6.947   0.608  1.00  0.00     0.001 A 
ATOM     24  C   UNL     1       1.548  -7.864  -0.150  1.00  0.00     0.000 A 
ENDBRANCH  17  19
ENDBRANCH  16  17
ENDBRANCH  15  16
ENDBRANCH   4   6
ENDBRANCH   3   4
ENDBRANCH   2   3
ENDBRANCH   1   2
BRANCH   1  25
ATOM     25  O   UNL     1      -2.549  -4.697   3.108  1.00  0.00    -0.374 OA
BRANCH  25  26
ATOM     26  C   UNL     1      -1.153  -4.659   2.894  1.00  0.00     0.202 C 
BRANCH  26  27
ATOM     27  C   UNL     1      -0.611  -5.153   1.552  1.00  0.00     0.261 C 
BRANCH  27  28
ATOM     28  O   UNL     1      -1.307  -4.747   0.353  1.00  0.00    -0.460 OA
BRANCH  28  29
ATOM     29  C   UNL     1      -1.985  -5.739  -0.272  1.00  0.00     0.338 C 
ATOM     30  O   UNL     1      -2.076  -6.900   0.100  1.00  0.00    -0.246 OA
BRANCH  29  31
ATOM     31  C   UNL     1      -2.769  -5.264  -1.437  1.00  0.00     0.060 A 
ATOM     32  C   UNL     1      -4.130  -5.587  -1.431  1.00  0.00     0.016 A 
ATOM     33  C   UNL     1      -2.199  -4.706  -2.586  1.00  0.00     0.016 A 
ATOM     34  C   UNL     1      -4.900  -5.426  -2.582  1.00  0.00     0.010 A 
ATOM     35  C   UNL     1      -2.971  -4.564  -3.755  1.00  0.00     0.010 A 
ATOM     36  C   UNL     1      -4.321  -4.952  -3.769  1.00  0.00    -0.014 A 
BRANCH  36  37
ATOM     37  C   UNL     1      -5.167  -4.861  -4.989  1.00  0.00     0.031 A 
ATOM     38  C   UNL     1      -5.124  -5.926  -6.052  1.00  0.00     0.074 A 
ATOM     39  C   UNL     1      -6.054  -3.853  -5.092  1.00  0.00     0.049 A 
ATOM     40  N   UNL     1      -5.882  -6.066  -7.113  1.00  0.00    -0.248 NA
ATOM     41  C   UNL     1      -4.101  -6.971  -5.904  1.00  0.00     0.031 C 
ATOM     42  C   UNL     1      -6.206  -2.770  -4.122  1.00  0.00     0.029 A 
ATOM     43  N   UNL     1      -7.003  -3.587  -6.046  1.00  0.00    -0.354 N 
ATOM     44  C   UNL     1      -5.447  -7.224  -7.747  1.00  0.00     0.074 A 
ATOM     45  C   UNL     1      -4.326  -7.723  -6.975  1.00  0.00     0.031 C 
ATOM     46  C   UNL     1      -7.204  -1.965  -4.520  1.00  0.00     0.029 A 
ATOM     47  C   UNL     1      -7.743  -2.460  -5.784  1.00  0.00     0.049 A 
ATOM     48  H   UNL     1      -7.142  -4.150  -6.842  1.00  0.00     0.167 HD
ATOM     49  C   UNL     1      -5.945  -7.824  -8.857  1.00  0.00     0.037 A 
ATOM     50  C   UNL     1      -8.741  -1.887  -6.483  1.00  0.00     0.037 A 
ATOM     51  C   UNL     1      -7.047  -7.316  -9.639  1.00  0.00     0.049 A 
ATOM     52  C   UNL     1      -9.222  -2.534  -7.754  1.00  0.00     0.074 A 
ATOM     53  C   UNL     1      -7.623  -7.858 -10.777  1.00  0.00     0.029 A 
ATOM     54  N   UNL     1      -7.734  -6.141  -9.370  1.00  0.00    -0.354 N 
ATOM     55  N   UNL     1      -8.835  -3.655  -8.310  1.00  0.00    -0.248 NA
ATOM     56  C   UNL     1     -10.287  -1.836  -8.488  1.00  0.00     0.031 C 
ATOM     57  C   UNL     1      -8.623  -6.988 -11.224  1.00  0.00     0.029 A 
ATOM     58  C   UNL     1      -8.710  -5.931 -10.334  1.00  0.00     0.049 A 
ATOM     59  H   UNL     1      -7.555  -5.544  -8.608  1.00  0.00     0.167 HD
ATOM     60  C   UNL     1      -9.630  -3.814  -9.439  1.00  0.00     0.074 A 
ATOM     61  C   UNL     1     -10.533  -2.683  -9.477  1.00  0.00     0.031 C 
ATOM     62  C   UNL     1      -9.613  -4.808 -10.360  1.00  0.00     0.037 A 
BRANCH  49  63
ATOM     63  C   UNL     1      -5.304  -9.109  -9.307  1.00  0.00     0.057 A 
ATOM     64  C   UNL     1      -5.476 -10.304  -8.595  1.00  0.00     0.134 A 
ATOM     65  C   UNL     1      -4.572  -9.171 -10.500  1.00  0.00     0.134 A 
ATOM     66  F   UNL     1      -6.166 -10.316  -7.445  1.00  0.00    -0.206 F 
ATOM     67  C   UNL     1      -4.926 -11.508  -9.043  1.00  0.00     0.040 A 
ATOM     68  C   UNL     1      -4.039 -10.374 -10.971  1.00  0.00     0.040 A 
ATOM     69  F   UNL     1      -4.381  -8.069 -11.242  1.00  0.00    -0.206 F 
ATOM     70  C   UNL     1      -4.212 -11.546 -10.238  1.00  0.00     0.006 A 
ENDBRANCH  49  63
BRANCH  50  71
ATOM     71  C   UNL     1      -9.361  -0.626  -6.000  1.00  0.00     0.057 A 
ATOM     72  C   UNL     1     -10.693  -0.586  -5.574  1.00  0.00     0.134 A 
ATOM     73  C   UNL     1      -8.643   0.577  -5.987  1.00  0.00     0.134 A 
ATOM     74  F   UNL     1     -11.438  -1.701  -5.582  1.00  0.00    -0.206 F 
ATOM     75  C   UNL     1     -11.299   0.608  -5.180  1.00  0.00     0.040 A 
ATOM     76  C   UNL     1      -9.227   1.772  -5.567  1.00  0.00     0.040 A 
ATOM     77  F   UNL     1      -7.361   0.605  -6.378  1.00  0.00    -0.206 F 
ATOM     78  C   UNL     1     -10.563   1.791  -5.172  1.00  0.00     0.006 A 
ENDBRANCH  50  71
BRANCH  62  79
ATOM     79  C   UNL     1     -10.628  -4.739 -11.466  1.00  0.00     0.057 A 
ATOM     80  C   UNL     1     -10.550  -3.785 -12.488  1.00  0.00     0.134 A 
ATOM     81  C   UNL     1     -11.688  -5.654 -11.518  1.00  0.00     0.134 A 
ATOM     82  F   UNL     1      -9.570  -2.869 -12.491  1.00  0.00    -0.206 F 
ATOM     83  C   UNL     1     -11.505  -3.725 -13.506  1.00  0.00     0.040 A 
ATOM     84  C   UNL     1     -12.632  -5.623 -12.547  1.00  0.00     0.040 A 
ATOM     85  F   UNL     1     -11.820  -6.600 -10.576  1.00  0.00    -0.206 F 
ATOM     86  C   UNL     1     -12.546  -4.650 -13.540  1.00  0.00     0.006 A 
ENDBRANCH  62  79
ENDBRANCH  36  37
ENDBRANCH  29  31
ENDBRANCH  28  29
ENDBRANCH  27  28
ENDBRANCH  26  27
ENDBRANCH  25  26
ENDBRANCH   1  25
TORSDOF 17
