REMARK SMILES COc1cc(OC)cc(-c2ccc(C(=O)OCCOCCOC(=O)c3ccc(-c4c5nc(c(-c6c(F)cccc6F)c6ccc([nH]6)c(-c6c(F)cccc6F)c6nc(c(-c7c(F)cccc7F)c7ccc4[nH]7)C=C6)C=C5)cc3)o2)c1
REMARK SMILES IDX 19 1 18 2 17 3 16 4 14 5 15 6 13 7 10 8 11 9 79 10 12 11
REMARK SMILES IDX 9 12 3 13 4 14 80 15 5 16 8 17 2 18 1 19 6 20 7 21 20 22
REMARK SMILES IDX 21 23 22 24 23 25 24 26 25 27 26 28 78 29 27 30 77 31 28 32
REMARK SMILES IDX 29 33 30 34 71 35 31 36 76 37 70 38 72 39 32 40 75 41 69 42
REMARK SMILES IDX 68 43 33 45 59 46 42 47 58 48 43 49 46 50 57 51 73 52 44 53
REMARK SMILES IDX 45 54 56 56 74 57 47 58 34 59 35 60 40 61 36 62 37 63 39 64
REMARK SMILES IDX 41 65 38 66 60 67 61 68 66 69 62 70 63 71 65 72 67 73 64 74
REMARK SMILES IDX 48 75 49 76 54 77 50 78 51 79 53 80 55 81 52 82
REMARK H PARENT 72 44 46 55
REMARK Flexibility Score: inf
ROOT
ATOM      1  O   UNL     1       7.468   7.540   3.807  1.00  0.00    -0.374 OA
ENDROOT
BRANCH   1   2
ATOM      2  C   UNL     1       8.679   6.787   3.721  1.00  0.00     0.202 C 
BRANCH   2   3
ATOM      3  C   UNL     1       8.497   5.279   3.920  1.00  0.00     0.261 C 
BRANCH   3   4
ATOM      4  O   UNL     1       7.860   4.708   2.764  1.00  0.00    -0.457 OA
BRANCH   4   5
ATOM      5  C   UNL     1       6.590   4.243   2.948  1.00  0.00     0.374 C 
ATOM      6  O   UNL     1       6.060   4.070   4.038  1.00  0.00    -0.242 OA
BRANCH   5   7
ATOM      7  C   UNL     1       5.950   4.097   1.661  1.00  0.00     0.212 A 
ATOM      8  C   UNL     1       4.205   3.958   0.326  1.00  0.00     0.135 A 
ATOM      9  C   UNL     1       5.309   4.011  -0.495  1.00  0.00     0.052 A 
ATOM     10  O   UNL     1       4.584   3.996   1.630  1.00  0.00    -0.449 OA
ATOM     11  C   UNL     1       6.433   4.106   0.362  1.00  0.00     0.059 A 
BRANCH   8  12
ATOM     12  C   UNL     1       2.782   3.834   0.089  1.00  0.00     0.025 A 
ATOM     13  C   UNL     1       0.863   2.410  -0.295  1.00  0.00     0.123 A 
ATOM     14  C   UNL     1       0.071   3.550  -0.450  1.00  0.00     0.092 A 
ATOM     15  C   UNL     1       2.222   2.556  -0.032  1.00  0.00     0.058 A 
ATOM     16  C   UNL     1       0.616   4.832  -0.325  1.00  0.00     0.123 A 
ATOM     17  C   UNL     1       1.975   4.973  -0.043  1.00  0.00     0.058 A 
BRANCH  13  18
ATOM     18  O   UNL     1       0.208   1.220  -0.455  1.00  0.00    -0.497 OA
ATOM     19  C   UNL     1       0.868   0.066   0.052  1.00  0.00     0.278 C 
ENDBRANCH  13  18
BRANCH  16  20
ATOM     20  O   UNL     1      -0.283   5.849  -0.497  1.00  0.00    -0.497 OA
ATOM     21  C   UNL     1       0.240   7.169  -0.571  1.00  0.00     0.278 C 
ENDBRANCH  16  20
ENDBRANCH   8  12
ENDBRANCH   5   7
ENDBRANCH   4   5
ENDBRANCH   3   4
ENDBRANCH   2   3
ENDBRANCH   1   2
BRANCH   1  22
ATOM     22  C   UNL     1       6.702   7.655   2.606  1.00  0.00     0.202 C 
BRANCH  22  23
ATOM     23  C   UNL     1       7.127   8.800   1.681  1.00  0.00     0.261 C 
BRANCH  23  24
ATOM     24  O   UNL     1       8.405   8.527   1.077  1.00  0.00    -0.460 OA
BRANCH  24  25
ATOM     25  C   UNL     1       9.427   9.287   1.537  1.00  0.00     0.338 C 
ATOM     26  O   UNL     1       9.362  10.224   2.314  1.00  0.00    -0.246 OA
BRANCH  25  27
ATOM     27  C   UNL     1      10.714   8.721   1.086  1.00  0.00     0.060 A 
ATOM     28  C   UNL     1      11.722   8.572   2.046  1.00  0.00     0.016 A 
ATOM     29  C   UNL     1      10.957   8.397  -0.251  1.00  0.00     0.016 A 
ATOM     30  C   UNL     1      12.993   8.145   1.666  1.00  0.00     0.010 A 
ATOM     31  C   UNL     1      12.235   7.974  -0.633  1.00  0.00     0.010 A 
ATOM     32  C   UNL     1      13.267   7.879   0.318  1.00  0.00    -0.014 A 
BRANCH  32  33
ATOM     33  C   UNL     1      14.665   7.632  -0.110  1.00  0.00     0.031 A 
ATOM     34  C   UNL     1      15.460   8.763  -0.702  1.00  0.00     0.074 A 
ATOM     35  C   UNL     1      15.231   6.423   0.052  1.00  0.00     0.049 A 
ATOM     36  N   UNL     1      16.686   8.766  -1.158  1.00  0.00    -0.248 NA
ATOM     37  C   UNL     1      14.781  10.066  -0.791  1.00  0.00     0.031 C 
ATOM     38  C   UNL     1      14.579   5.257   0.644  1.00  0.00     0.029 A 
ATOM     39  N   UNL     1      16.488   5.978  -0.275  1.00  0.00    -0.354 N 
ATOM     40  C   UNL     1      16.924  10.063  -1.595  1.00  0.00     0.074 A 
ATOM     41  C   UNL     1      15.707  10.814  -1.373  1.00  0.00     0.031 C 
ATOM     42  C   UNL     1      15.441   4.224   0.633  1.00  0.00     0.029 A 
ATOM     43  C   UNL     1      16.692   4.651   0.009  1.00  0.00     0.049 A 
ATOM     44  H   UNL     1      17.177   6.556  -0.674  1.00  0.00     0.167 HD
ATOM     45  C   UNL     1      18.056  10.584  -2.125  1.00  0.00     0.037 A 
ATOM     46  C   UNL     1      17.762   3.866  -0.224  1.00  0.00     0.037 A 
ATOM     47  C   UNL     1      19.270   9.841  -2.338  1.00  0.00     0.049 A 
ATOM     48  C   UNL     1      18.985   4.454  -0.875  1.00  0.00     0.074 A 
ATOM     49  C   UNL     1      20.479  10.292  -2.838  1.00  0.00     0.029 A 
ATOM     50  N   UNL     1      19.425   8.491  -2.070  1.00  0.00    -0.354 N 
ATOM     51  N   UNL     1      19.210   5.690  -1.252  1.00  0.00    -0.248 NA
ATOM     52  C   UNL     1      20.105   3.536  -1.133  1.00  0.00     0.031 C 
ATOM     53  C   UNL     1      21.354   9.203  -2.913  1.00  0.00     0.029 A 
ATOM     54  C   UNL     1      20.702   8.084  -2.420  1.00  0.00     0.049 A 
ATOM     55  H   UNL     1      18.731   7.907  -1.687  1.00  0.00     0.167 HD
ATOM     56  C   UNL     1      20.503   5.704  -1.763  1.00  0.00     0.074 A 
ATOM     57  C   UNL     1      21.016   4.355  -1.640  1.00  0.00     0.031 C 
ATOM     58  C   UNL     1      21.203   6.741  -2.283  1.00  0.00     0.037 A 
BRANCH  45  59
ATOM     59  C   UNL     1      18.027  12.026  -2.534  1.00  0.00     0.057 A 
ATOM     60  C   UNL     1      18.047  13.062  -1.592  1.00  0.00     0.134 A 
ATOM     61  C   UNL     1      18.017  12.381  -3.889  1.00  0.00     0.134 A 
ATOM     62  F   UNL     1      18.043  12.787  -0.279  1.00  0.00    -0.206 F 
ATOM     63  C   UNL     1      18.040  14.402  -1.984  1.00  0.00     0.040 A 
ATOM     64  C   UNL     1      18.032  13.717  -4.292  1.00  0.00     0.040 A 
ATOM     65  F   UNL     1      18.001  11.436  -4.840  1.00  0.00    -0.206 F 
ATOM     66  C   UNL     1      18.039  14.732  -3.338  1.00  0.00     0.006 A 
ENDBRANCH  45  59
BRANCH  46  67
ATOM     67  C   UNL     1      17.729   2.431   0.150  1.00  0.00     0.057 A 
ATOM     68  C   UNL     1      18.517   1.937   1.196  1.00  0.00     0.134 A 
ATOM     69  C   UNL     1      16.933   1.515  -0.547  1.00  0.00     0.134 A 
ATOM     70  F   UNL     1      19.319   2.763   1.884  1.00  0.00    -0.206 F 
ATOM     71  C   UNL     1      18.527   0.581   1.525  1.00  0.00     0.040 A 
ATOM     72  C   UNL     1      16.916   0.160  -0.215  1.00  0.00     0.040 A 
ATOM     73  F   UNL     1      16.156   1.926  -1.561  1.00  0.00    -0.206 F 
ATOM     74  C   UNL     1      17.721  -0.312   0.820  1.00  0.00     0.006 A 
ENDBRANCH  46  67
BRANCH  58  75
ATOM     75  C   UNL     1      22.610   6.469  -2.726  1.00  0.00     0.057 A 
ATOM     76  C   UNL     1      22.891   5.756  -3.898  1.00  0.00     0.134 A 
ATOM     77  C   UNL     1      23.696   6.963  -1.992  1.00  0.00     0.134 A 
ATOM     78  F   UNL     1      21.896   5.246  -4.639  1.00  0.00    -0.206 F 
ATOM     79  C   UNL     1      24.204   5.528  -4.314  1.00  0.00     0.040 A 
ATOM     80  C   UNL     1      25.012   6.762  -2.410  1.00  0.00     0.040 A 
ATOM     81  F   UNL     1      23.494   7.662  -0.864  1.00  0.00    -0.206 F 
ATOM     82  C   UNL     1      25.269   6.037  -3.572  1.00  0.00     0.006 A 
ENDBRANCH  58  75
ENDBRANCH  32  33
ENDBRANCH  25  27
ENDBRANCH  24  25
ENDBRANCH  23  24
ENDBRANCH  22  23
ENDBRANCH   1  22
TORSDOF 17
