REMARK SMILES O=C(OCCOCCOC(=O)[C@@H]1CC2(CC[NH2+]CC2)C[N@H+]1Cc1cccc2nonc12)c1ccc(-c2c3nc(c(-c4c(F)cccc4F)c4ccc([nH]4)c(-c4c(F)cccc4F)c4nc(c(-c5c(F)cccc5F)c5ccc2[nH]5)C=C4)C=C3)cc1
REMARK SMILES IDX 6 1 5 2 4 3 3 4 2 5 1 6 32 7 33 8 85 9 34 10 84 11 35 12
REMARK SMILES IDX 36 13 37 14 78 15 38 16 83 17 77 18 79 19 39 20 82 21 76 22
REMARK SMILES IDX 75 23 40 25 66 26 49 27 65 28 50 29 53 30 64 31 80 32 51 33
REMARK SMILES IDX 52 34 63 36 81 37 54 38 41 39 42 40 47 41 43 42 44 43 46 44
REMARK SMILES IDX 48 45 45 46 67 47 68 48 73 49 69 50 70 51 72 52 74 53 71 54
REMARK SMILES IDX 55 55 56 56 61 57 57 58 58 59 60 60 62 61 59 62 7 63 8 64
REMARK SMILES IDX 9 65 10 66 11 67 12 68 13 69 21 70 14 71 20 72 15 74 19 75
REMARK SMILES IDX 16 76 18 77 17 78 22 81 23 82 24 83 31 84 25 85 27 86 30 87
REMARK SMILES IDX 26 88 28 89 29 90
REMARK H PARENT 79 24 53 35 21 73 17 79 17 80
REMARK Flexibility Score: inf
ROOT
ATOM      1  O   UNL     1       3.030   1.902  -0.487  1.00  0.00    -0.374 OA
ENDROOT
BRANCH   1   2
ATOM      2  C   UNL     1       3.930   0.824  -0.711  1.00  0.00     0.202 C 
BRANCH   2   3
ATOM      3  C   UNL     1       4.002  -0.218   0.410  1.00  0.00     0.261 C 
BRANCH   3   4
ATOM      4  O   UNL     1       2.705  -0.566   0.912  1.00  0.00    -0.460 OA
BRANCH   4   5
ATOM      5  C   UNL     1       2.041   0.030   1.932  1.00  0.00     0.338 C 
ATOM      6  O   UNL     1       1.058  -0.550   2.396  1.00  0.00    -0.246 OA
BRANCH   5   7
ATOM      7  C   UNL     1       2.387   1.376   2.502  1.00  0.00     0.060 A 
ATOM      8  C   UNL     1       1.449   1.961   3.370  1.00  0.00     0.016 A 
ATOM      9  C   UNL     1       3.529   2.119   2.215  1.00  0.00     0.016 A 
ATOM     10  C   UNL     1       1.651   3.240   3.905  1.00  0.00     0.010 A 
ATOM     11  C   UNL     1       3.705   3.408   2.682  1.00  0.00     0.010 A 
ATOM     12  C   UNL     1       2.790   3.973   3.559  1.00  0.00    -0.014 A 
BRANCH  12  13
ATOM     13  C   UNL     1       3.038   5.314   4.132  1.00  0.00     0.031 A 
ATOM     14  C   UNL     1       4.499   5.716   4.103  1.00  0.00     0.074 A 
ATOM     15  C   UNL     1       2.181   6.275   3.731  1.00  0.00     0.049 A 
ATOM     16  N   UNL     1       5.095   6.331   3.123  1.00  0.00    -0.248 NA
ATOM     17  C   UNL     1       5.427   5.170   5.099  1.00  0.00     0.031 C 
ATOM     18  C   UNL     1       1.920   6.620   2.330  1.00  0.00     0.029 A 
ATOM     19  N   UNL     1       1.693   7.335   4.459  1.00  0.00    -0.354 N 
ATOM     20  C   UNL     1       6.465   6.206   3.327  1.00  0.00     0.074 A 
ATOM     21  C   UNL     1       6.618   5.489   4.572  1.00  0.00     0.031 C 
ATOM     22  C   UNL     1       1.455   7.881   2.286  1.00  0.00     0.029 A 
ATOM     23  C   UNL     1       1.353   8.404   3.646  1.00  0.00     0.049 A 
ATOM     24  H   UNL     1       1.597   7.335   5.439  1.00  0.00     0.167 HD
ATOM     25  C   UNL     1       7.404   6.688   2.466  1.00  0.00     0.037 A 
ATOM     26  C   UNL     1       1.390   9.707   4.027  1.00  0.00     0.037 A 
ATOM     27  C   UNL     1       6.974   7.427   1.299  1.00  0.00     0.049 A 
ATOM     28  C   UNL     1       2.641  10.208   3.359  1.00  0.00     0.074 A 
ATOM     29  C   UNL     1       7.501   7.773   0.067  1.00  0.00     0.029 A 
ATOM     30  N   UNL     1       5.746   8.028   1.333  1.00  0.00    -0.354 N 
ATOM     31  N   UNL     1       2.768  10.577   2.110  1.00  0.00    -0.248 NA
ATOM     32  C   UNL     1       3.920   9.968   4.054  1.00  0.00     0.031 C 
ATOM     33  C   UNL     1       6.662   8.796  -0.483  1.00  0.00     0.029 A 
ATOM     34  C   UNL     1       5.670   9.066   0.443  1.00  0.00     0.049 A 
ATOM     35  H   UNL     1       5.009   7.750   1.924  1.00  0.00     0.167 HD
ATOM     36  C   UNL     1       4.102  10.316   1.809  1.00  0.00     0.074 A 
ATOM     37  C   UNL     1       4.792  10.110   3.063  1.00  0.00     0.031 C 
ATOM     38  C   UNL     1       4.546   9.954   0.573  1.00  0.00     0.037 A 
BRANCH  25  39
ATOM     39  C   UNL     1       8.854   6.701   2.800  1.00  0.00     0.057 A 
ATOM     40  C   UNL     1       9.728   5.634   2.584  1.00  0.00     0.134 A 
ATOM     41  C   UNL     1       9.416   7.921   3.208  1.00  0.00     0.134 A 
ATOM     42  F   UNL     1       9.268   4.429   2.223  1.00  0.00    -0.206 F 
ATOM     43  C   UNL     1      11.113   5.791   2.723  1.00  0.00     0.040 A 
ATOM     44  C   UNL     1      10.793   8.090   3.352  1.00  0.00     0.040 A 
ATOM     45  F   UNL     1       8.626   8.979   3.454  1.00  0.00    -0.206 F 
ATOM     46  C   UNL     1      11.649   7.025   3.094  1.00  0.00     0.006 A 
ENDBRANCH  25  39
BRANCH  26  47
ATOM     47  C   UNL     1       0.950  10.007   5.420  1.00  0.00     0.057 A 
ATOM     48  C   UNL     1       1.693  10.673   6.398  1.00  0.00     0.134 A 
ATOM     49  C   UNL     1      -0.326   9.557   5.822  1.00  0.00     0.134 A 
ATOM     50  F   UNL     1       2.868  11.246   6.115  1.00  0.00    -0.206 F 
ATOM     51  C   UNL     1       1.258  10.765   7.726  1.00  0.00     0.040 A 
ATOM     52  C   UNL     1      -0.782   9.659   7.140  1.00  0.00     0.040 A 
ATOM     53  F   UNL     1      -1.157   8.986   4.934  1.00  0.00    -0.206 F 
ATOM     54  C   UNL     1       0.027  10.242   8.105  1.00  0.00     0.006 A 
ENDBRANCH  26  47
BRANCH  38  55
ATOM     55  C   UNL     1       3.721  10.330  -0.592  1.00  0.00     0.057 A 
ATOM     56  C   UNL     1       3.186   9.371  -1.456  1.00  0.00     0.134 A 
ATOM     57  C   UNL     1       3.500  11.679  -0.889  1.00  0.00     0.134 A 
ATOM     58  F   UNL     1       3.355   8.061  -1.221  1.00  0.00    -0.206 F 
ATOM     59  C   UNL     1       2.457   9.744  -2.586  1.00  0.00     0.040 A 
ATOM     60  C   UNL     1       2.763  12.063  -2.007  1.00  0.00     0.040 A 
ATOM     61  F   UNL     1       4.025  12.644  -0.117  1.00  0.00    -0.206 F 
ATOM     62  C   UNL     1       2.243  11.094  -2.862  1.00  0.00     0.006 A 
ENDBRANCH  38  55
ENDBRANCH  12  13
ENDBRANCH   5   7
ENDBRANCH   4   5
ENDBRANCH   3   4
ENDBRANCH   2   3
ENDBRANCH   1   2
BRANCH   1  63
ATOM     63  C   UNL     1       1.953   1.983  -1.427  1.00  0.00     0.202 C 
BRANCH  63  64
ATOM     64  C   UNL     1       2.399   2.470  -2.813  1.00  0.00     0.261 C 
BRANCH  64  65
ATOM     65  O   UNL     1       3.012   1.368  -3.516  1.00  0.00    -0.459 OA
BRANCH  65  66
ATOM     66  C   UNL     1       4.277   1.538  -3.984  1.00  0.00     0.365 C 
ATOM     67  O   UNL     1       4.841   2.623  -4.080  1.00  0.00    -0.245 OA
BRANCH  66  68
ATOM     68  C   UNL     1       4.965   0.194  -4.302  1.00  0.00     0.296 C 
ATOM     69  C   UNL     1       4.013  -0.985  -4.588  1.00  0.00     0.091 C 
ATOM     70  N   UNL     1       5.803  -0.267  -3.160  1.00  0.00    -0.319 N 
ATOM     71  C   UNL     1       4.500  -2.170  -3.721  1.00  0.00     0.036 C 
ATOM     72  C   UNL     1       5.918  -1.720  -3.329  1.00  0.00     0.270 C 
ATOM     73  H   UNL     1       5.370  -0.030  -2.267  1.00  0.00     0.349 HD
ATOM     74  C   UNL     1       4.534  -3.494  -4.505  1.00  0.00     0.074 C 
ATOM     75  C   UNL     1       3.604  -2.405  -2.481  1.00  0.00     0.074 C 
ATOM     76  C   UNL     1       3.129  -4.035  -4.785  1.00  0.00     0.261 C 
ATOM     77  C   UNL     1       2.237  -3.003  -2.804  1.00  0.00     0.261 C 
ATOM     78  N   UNL     1       2.369  -4.247  -3.554  1.00  0.00    -0.346 N 
ATOM     79  H   UNL     1       2.853  -4.935  -2.977  1.00  0.00     0.346 HD
ATOM     80  H   UNL     1       1.437  -4.580  -3.800  1.00  0.00     0.346 HD
BRANCH  70  81
ATOM     81  C   UNL     1       7.115   0.412  -3.085  1.00  0.00     0.302 C 
BRANCH  81  82
ATOM     82  C   UNL     1       7.394   0.900  -1.686  1.00  0.00     0.038 A 
ATOM     83  C   UNL     1       7.647   0.010  -0.607  1.00  0.00     0.012 A 
ATOM     84  C   UNL     1       7.329   2.257  -1.282  1.00  0.00     0.144 A 
ATOM     85  C   UNL     1       7.766   0.417   0.751  1.00  0.00     0.003 A 
ATOM     86  C   UNL     1       7.428   2.667   0.114  1.00  0.00     0.135 A 
ATOM     87  N   UNL     1       7.142   3.359  -2.018  1.00  0.00    -0.049 NA
ATOM     88  C   UNL     1       7.642   1.754   1.162  1.00  0.00     0.034 A 
ATOM     89  N   UNL     1       7.251   3.989   0.178  1.00  0.00    -0.050 NA
ATOM     90  O   UNL     1       7.072   4.412  -1.124  1.00  0.00    -0.243 OA
ENDBRANCH  81  82
ENDBRANCH  70  81
ENDBRANCH  66  68
ENDBRANCH  65  66
ENDBRANCH  64  65
ENDBRANCH  63  64
ENDBRANCH   1  63
TORSDOF 16
