REMARK SMILES CCCCCCCCNC(=O)Oc1cccc(-c2ccc([C@@H](C)C(=O)OCCOCCOC(=O)c3ccc(-c4c5nc(c(-c6c(F)cccc6F)c6ccc([nH]6)c(-c6c(F)cccc6F)c6nc(c(-c7c(F)cccc7F)c7ccc4[nH]7)C=C6)C=C5)cc3)cc2F)c1
REMARK SMILES IDX 22 1 23 2 21 3 18 4 19 5 90 6 20 7 89 8 91 9 17 10 13 11
REMARK SMILES IDX 14 12 92 13 15 14 16 15 12 16 10 17 9 18 11 20 8 21 7 22
REMARK SMILES IDX 6 23 5 24 4 25 3 26 2 27 1 28 24 29 25 30 26 31 27 32 28 33
REMARK SMILES IDX 29 34 30 35 31 36 32 37 33 38 34 39 35 40 36 41 88 42 37 43
REMARK SMILES IDX 87 44 38 45 39 46 40 47 81 48 41 49 86 50 80 51 82 52 42 53
REMARK SMILES IDX 85 54 79 55 78 56 43 58 69 59 52 60 68 61 53 62 56 63 67 64
REMARK SMILES IDX 83 65 54 66 55 67 66 69 84 70 57 71 44 72 45 73 50 74 46 75
REMARK SMILES IDX 47 76 49 77 51 78 48 79 70 80 71 81 76 82 72 83 73 84 75 85
REMARK SMILES IDX 77 86 74 87 58 88 59 89 64 90 60 91 61 92 63 93 65 94 62 95
REMARK H PARENT 9 19 82 57 56 68
REMARK Flexibility Score: inf
ROOT
ATOM      1  C   UNL     1      -9.619  13.740  -1.820  1.00  0.00     0.126 C 
ATOM      2  C   UNL     1      -9.734  14.995  -2.682  1.00  0.00     0.025 C 
ENDROOT
BRANCH   1   3
ATOM      3  C   UNL     1      -8.632  12.738  -2.411  1.00  0.00    -0.031 A 
ATOM      4  C   UNL     1      -6.602  11.088  -3.561  1.00  0.00     0.018 A 
ATOM      5  C   UNL     1      -7.798  11.363  -4.246  1.00  0.00     0.012 A 
ATOM      6  C   UNL     1      -6.475  11.610  -2.268  1.00  0.00     0.131 A 
ATOM      7  C   UNL     1      -8.795  12.175  -3.684  1.00  0.00     0.005 A 
ATOM      8  C   UNL     1      -7.464  12.418  -1.700  1.00  0.00     0.044 A 
ATOM      9  F   UNL     1      -5.361  11.388  -1.553  1.00  0.00    -0.206 F 
BRANCH   4  10
ATOM     10  C   UNL     1      -5.505  10.347  -4.212  1.00  0.00    -0.012 A 
ATOM     11  C   UNL     1      -3.829   8.590  -4.241  1.00  0.00     0.133 A 
ATOM     12  C   UNL     1      -3.346   9.024  -5.473  1.00  0.00     0.047 A 
ATOM     13  C   UNL     1      -4.886   9.244  -3.601  1.00  0.00     0.056 A 
ATOM     14  C   UNL     1      -3.948  10.114  -6.091  1.00  0.00     0.004 A 
ATOM     15  C   UNL     1      -5.016  10.765  -5.467  1.00  0.00     0.009 A 
BRANCH  11  16
ATOM     16  O   UNL     1      -3.127   7.543  -3.626  1.00  0.00    -0.410 OA
BRANCH  16  17
ATOM     17  C   UNL     1      -3.839   6.398  -3.310  1.00  0.00     0.412 C 
ATOM     18  N   UNL     1      -3.055   5.403  -2.796  1.00  0.00    -0.321 N 
ATOM     19  H   UNL     1      -3.515   4.576  -2.525  1.00  0.00     0.167 HD
ATOM     20  O   UNL     1      -5.045   6.230  -3.469  1.00  0.00    -0.224 OA
BRANCH  18  21
ATOM     21  C   UNL     1      -1.617   5.437  -2.607  1.00  0.00     0.119 C 
BRANCH  21  22
ATOM     22  C   UNL     1      -1.223   5.225  -1.145  1.00  0.00     0.021 C 
BRANCH  22  23
ATOM     23  C   UNL     1      -1.610   3.859  -0.563  1.00  0.00     0.002 C 
BRANCH  23  24
ATOM     24  C   UNL     1      -1.018   2.645  -1.287  1.00  0.00     0.000 C 
BRANCH  24  25
ATOM     25  C   UNL     1       0.512   2.568  -1.285  1.00  0.00    -0.000 C 
BRANCH  25  26
ATOM     26  C   UNL     1       1.156   2.425   0.099  1.00  0.00    -0.000 C 
BRANCH  26  27
ATOM     27  C   UNL     1       0.726   1.192   0.899  1.00  0.00    -0.003 C 
ATOM     28  C   UNL     1       1.064  -0.123   0.214  1.00  0.00     0.004 C 
ENDBRANCH  26  27
ENDBRANCH  25  26
ENDBRANCH  24  25
ENDBRANCH  23  24
ENDBRANCH  22  23
ENDBRANCH  21  22
ENDBRANCH  18  21
ENDBRANCH  16  17
ENDBRANCH  11  16
ENDBRANCH   4  10
ENDBRANCH   1   3
BRANCH   1  29
ATOM     29  C   UNL     1     -11.015  13.251  -1.469  1.00  0.00     0.313 C 
ATOM     30  O   UNL     1     -11.677  13.774  -0.578  1.00  0.00    -0.252 OA
BRANCH  29  31
ATOM     31  O   UNL     1     -11.454  12.230  -2.251  1.00  0.00    -0.463 OA
BRANCH  31  32
ATOM     32  C   UNL     1     -12.713  11.646  -1.874  1.00  0.00     0.261 C 
BRANCH  32  33
ATOM     33  C   UNL     1     -12.542  10.184  -1.457  1.00  0.00     0.202 C 
BRANCH  33  34
ATOM     34  O   UNL     1     -11.795   9.952  -0.264  1.00  0.00    -0.374 OA
BRANCH  34  35
ATOM     35  C   UNL     1     -10.373  10.054  -0.345  1.00  0.00     0.202 C 
BRANCH  35  36
ATOM     36  C   UNL     1      -9.634   8.883  -1.003  1.00  0.00     0.261 C 
BRANCH  36  37
ATOM     37  O   UNL     1      -9.914   8.779  -2.410  1.00  0.00    -0.460 OA
BRANCH  37  38
ATOM     38  C   UNL     1     -10.637   7.689  -2.768  1.00  0.00     0.338 C 
ATOM     39  O   UNL     1     -11.025   6.788  -2.048  1.00  0.00    -0.246 OA
BRANCH  38  40
ATOM     40  C   UNL     1     -11.084   7.826  -4.168  1.00  0.00     0.060 A 
ATOM     41  C   UNL     1     -12.454   7.684  -4.424  1.00  0.00     0.016 A 
ATOM     42  C   UNL     1     -10.181   8.008  -5.216  1.00  0.00     0.016 A 
ATOM     43  C   UNL     1     -12.924   7.678  -5.736  1.00  0.00     0.010 A 
ATOM     44  C   UNL     1     -10.653   7.993  -6.534  1.00  0.00     0.010 A 
ATOM     45  C   UNL     1     -12.021   7.794  -6.800  1.00  0.00    -0.014 A 
BRANCH  45  46
ATOM     46  C   UNL     1     -12.488   7.561  -8.188  1.00  0.00     0.031 A 
ATOM     47  C   UNL     1     -12.239   6.222  -8.826  1.00  0.00     0.074 A 
ATOM     48  C   UNL     1     -13.144   8.518  -8.867  1.00  0.00     0.049 A 
ATOM     49  N   UNL     1     -12.499   5.820 -10.044  1.00  0.00    -0.248 NA
ATOM     50  C   UNL     1     -11.610   5.198  -7.975  1.00  0.00     0.031 C 
ATOM     51  C   UNL     1     -13.492   9.838  -8.344  1.00  0.00     0.029 A 
ATOM     52  N   UNL     1     -13.626   8.526 -10.152  1.00  0.00    -0.354 N 
ATOM     53  C   UNL     1     -12.057   4.505 -10.109  1.00  0.00     0.074 A 
ATOM     54  C   UNL     1     -11.491   4.183  -8.817  1.00  0.00     0.031 C 
ATOM     55  C   UNL     1     -14.117  10.536  -9.307  1.00  0.00     0.029 A 
ATOM     56  C   UNL     1     -14.181   9.726 -10.522  1.00  0.00     0.049 A 
ATOM     57  H   UNL     1     -13.578   7.747 -10.751  1.00  0.00     0.167 HD
ATOM     58  C   UNL     1     -12.122   3.642 -11.151  1.00  0.00     0.037 A 
ATOM     59  C   UNL     1     -14.660  10.133 -11.714  1.00  0.00     0.037 A 
ATOM     60  C   UNL     1     -12.688   3.962 -12.434  1.00  0.00     0.049 A 
ATOM     61  C   UNL     1     -14.650   9.181 -12.881  1.00  0.00     0.074 A 
ATOM     62  C   UNL     1     -12.819   3.148 -13.546  1.00  0.00     0.029 A 
ATOM     63  N   UNL     1     -13.212   5.198 -12.780  1.00  0.00    -0.354 N 
ATOM     64  N   UNL     1     -14.247   7.934 -12.929  1.00  0.00    -0.248 NA
ATOM     65  C   UNL     1     -15.160   9.694 -14.162  1.00  0.00     0.031 C 
ATOM     66  C   UNL     1     -13.377   3.906 -14.580  1.00  0.00     0.029 A 
ATOM     67  C   UNL     1     -13.641   5.178 -14.096  1.00  0.00     0.049 A 
ATOM     68  H   UNL     1     -13.271   5.975 -12.178  1.00  0.00     0.167 HD
ATOM     69  C   UNL     1     -14.481   7.506 -14.230  1.00  0.00     0.074 A 
ATOM     70  C   UNL     1     -15.069   8.623 -14.939  1.00  0.00     0.031 C 
ATOM     71  C   UNL     1     -14.234   6.295 -14.786  1.00  0.00     0.037 A 
BRANCH  58  72
ATOM     72  C   UNL     1     -11.539   2.274 -10.954  1.00  0.00     0.057 A 
ATOM     73  C   UNL     1     -12.164   1.310 -10.153  1.00  0.00     0.134 A 
ATOM     74  C   UNL     1     -10.354   1.906 -11.603  1.00  0.00     0.134 A 
ATOM     75  F   UNL     1     -13.295   1.603  -9.493  1.00  0.00    -0.206 F 
ATOM     76  C   UNL     1     -11.620   0.035  -9.988  1.00  0.00     0.040 A 
ATOM     77  C   UNL     1      -9.813   0.626 -11.466  1.00  0.00     0.040 A 
ATOM     78  F   UNL     1      -9.708   2.780 -12.389  1.00  0.00    -0.206 F 
ATOM     79  C   UNL     1     -10.444  -0.312 -10.652  1.00  0.00     0.006 A 
ENDBRANCH  58  72
BRANCH  59  80
ATOM     80  C   UNL     1     -15.168  11.518 -11.876  1.00  0.00     0.057 A 
ATOM     81  C   UNL     1     -16.528  11.773 -12.086  1.00  0.00     0.134 A 
ATOM     82  C   UNL     1     -14.303  12.619 -11.846  1.00  0.00     0.134 A 
ATOM     83  F   UNL     1     -17.403  10.759 -12.150  1.00  0.00    -0.206 F 
ATOM     84  C   UNL     1     -17.008  13.071 -12.274  1.00  0.00     0.040 A 
ATOM     85  C   UNL     1     -14.772  13.923 -12.008  1.00  0.00     0.040 A 
ATOM     86  F   UNL     1     -12.988  12.441 -11.649  1.00  0.00    -0.206 F 
ATOM     87  C   UNL     1     -16.128  14.151 -12.230  1.00  0.00     0.006 A 
ENDBRANCH  59  80
BRANCH  71  88
ATOM     88  C   UNL     1     -14.633   6.096 -16.220  1.00  0.00     0.057 A 
ATOM     89  C   UNL     1     -13.913   6.670 -17.274  1.00  0.00     0.134 A 
ATOM     90  C   UNL     1     -15.716   5.270 -16.549  1.00  0.00     0.134 A 
ATOM     91  F   UNL     1     -12.873   7.480 -17.026  1.00  0.00    -0.206 F 
ATOM     92  C   UNL     1     -14.267   6.444 -18.606  1.00  0.00     0.040 A 
ATOM     93  C   UNL     1     -16.063   5.016 -17.876  1.00  0.00     0.040 A 
ATOM     94  F   UNL     1     -16.441   4.682 -15.586  1.00  0.00    -0.206 F 
ATOM     95  C   UNL     1     -15.339   5.607 -18.909  1.00  0.00     0.006 A 
ENDBRANCH  71  88
ENDBRANCH  45  46
ENDBRANCH  38  40
ENDBRANCH  37  38
ENDBRANCH  36  37
ENDBRANCH  35  36
ENDBRANCH  34  35
ENDBRANCH  33  34
ENDBRANCH  32  33
ENDBRANCH  31  32
ENDBRANCH  29  31
ENDBRANCH   1  29
TORSDOF 25
