REMARK SMILES O=C(OCCOCCOC(=O)[C@H](NC(=O)[C@H]1CC[C@@H](CNC(=O)[C@@H]2Cc3ccccc3C[NH2+]2)CC1)c1ccccc1)c1ccc(-c2c3nc(c(-c4c(F)cccc4F)c4ccc([nH]4)c(-c4c(F)cccc4F)c4nc(c(-c5c(F)cccc5F)c5ccc2[nH]5)C=C4)C=C3)cc1
REMARK SMILES IDX 7 1 6 2 5 3 4 4 3 5 2 6 1 7 42 8 43 9 95 10 44 11 94 12
REMARK SMILES IDX 45 13 46 14 47 15 88 16 48 17 93 18 87 19 89 20 49 21 92 22
REMARK SMILES IDX 86 23 85 24 50 26 76 27 59 28 75 29 60 30 63 31 74 32 90 33
REMARK SMILES IDX 61 34 62 35 73 37 91 38 64 39 51 40 52 41 57 42 53 43 54 44
REMARK SMILES IDX 56 45 58 46 55 47 77 48 78 49 83 50 79 51 80 52 82 53 84 54
REMARK SMILES IDX 81 55 65 56 66 57 71 58 67 59 68 60 70 61 72 62 69 63 8 64
REMARK SMILES IDX 9 65 10 66 11 67 12 68 36 69 37 70 41 71 38 72 40 73 39 74
REMARK SMILES IDX 13 75 14 76 15 78 16 79 35 80 17 81 34 82 18 83 19 84 20 85
REMARK SMILES IDX 21 86 22 87 23 89 24 90 25 91 33 92 26 93 32 94 27 97 31 98
REMARK SMILES IDX 28 99 30 100 29 101
REMARK H PARENT 89 25 63 36 13 77 21 88 33 95 33 96
REMARK Flexibility Score: inf
ROOT
ATOM      1  C   UNL     1      -5.179 -14.517   3.616  1.00  0.00     0.202 C 
ENDROOT
BRANCH   1   2
ATOM      2  O   UNL     1      -4.376 -14.949   2.520  1.00  0.00    -0.374 OA
BRANCH   2   3
ATOM      3  C   UNL     1      -4.899 -15.455   1.296  1.00  0.00     0.202 C 
BRANCH   3   4
ATOM      4  C   UNL     1      -6.081 -16.430   1.244  1.00  0.00     0.261 C 
BRANCH   4   5
ATOM      5  O   UNL     1      -7.092 -16.110   2.221  1.00  0.00    -0.460 OA
BRANCH   5   6
ATOM      6  C   UNL     1      -7.373 -16.706   3.402  1.00  0.00     0.338 C 
ATOM      7  O   UNL     1      -8.194 -16.264   4.189  1.00  0.00    -0.246 OA
BRANCH   6   8
ATOM      8  C   UNL     1      -6.665 -17.942   3.684  1.00  0.00     0.060 A 
ATOM      9  C   UNL     1      -5.292 -17.971   3.463  1.00  0.00     0.016 A 
ATOM     10  C   UNL     1      -7.353 -19.032   4.217  1.00  0.00     0.016 A 
ATOM     11  C   UNL     1      -4.605 -19.124   3.606  1.00  0.00     0.010 A 
ATOM     12  C   UNL     1      -6.615 -20.141   4.581  1.00  0.00     0.010 A 
ATOM     13  C   UNL     1      -5.245 -20.139   4.299  1.00  0.00    -0.014 A 
BRANCH  13  14
ATOM     14  C   UNL     1      -4.318 -21.108   4.840  1.00  0.00     0.031 A 
ATOM     15  C   UNL     1      -4.173 -22.378   4.111  1.00  0.00     0.074 A 
ATOM     16  C   UNL     1      -3.502 -20.634   5.800  1.00  0.00     0.049 A 
ATOM     17  N   UNL     1      -3.365 -23.358   4.359  1.00  0.00    -0.248 NA
ATOM     18  C   UNL     1      -5.041 -22.567   2.934  1.00  0.00     0.031 C 
ATOM     19  C   UNL     1      -3.572 -19.275   6.376  1.00  0.00     0.029 A 
ATOM     20  N   UNL     1      -2.411 -21.179   6.394  1.00  0.00    -0.354 N 
ATOM     21  C   UNL     1      -3.662 -24.315   3.407  1.00  0.00     0.074 A 
ATOM     22  C   UNL     1      -4.703 -23.788   2.556  1.00  0.00     0.031 C 
ATOM     23  C   UNL     1      -2.529 -19.083   7.191  1.00  0.00     0.029 A 
ATOM     24  C   UNL     1      -1.809 -20.337   7.296  1.00  0.00     0.049 A 
ATOM     25  H   UNL     1      -2.084 -22.086   6.197  1.00  0.00     0.167 HD
ATOM     26  C   UNL     1      -3.111 -25.542   3.321  1.00  0.00     0.037 A 
ATOM     27  C   UNL     1      -0.822 -20.606   8.162  1.00  0.00     0.037 A 
ATOM     28  C   UNL     1      -2.108 -25.972   4.257  1.00  0.00     0.049 A 
ATOM     29  C   UNL     1      -0.293 -22.006   8.107  1.00  0.00     0.074 A 
ATOM     30  C   UNL     1      -1.514 -27.206   4.396  1.00  0.00     0.029 A 
ATOM     31  N   UNL     1      -1.563 -25.143   5.243  1.00  0.00    -0.354 N 
ATOM     32  N   UNL     1      -0.633 -22.972   7.280  1.00  0.00    -0.248 NA
ATOM     33  C   UNL     1       0.715 -22.377   9.096  1.00  0.00     0.031 C 
ATOM     34  C   UNL     1      -0.655 -27.139   5.500  1.00  0.00     0.029 A 
ATOM     35  C   UNL     1      -0.654 -25.843   6.008  1.00  0.00     0.049 A 
ATOM     36  H   UNL     1      -1.795 -24.195   5.372  1.00  0.00     0.167 HD
ATOM     37  C   UNL     1       0.123 -24.070   7.635  1.00  0.00     0.074 A 
ATOM     38  C   UNL     1       0.952 -23.638   8.753  1.00  0.00     0.031 C 
ATOM     39  C   UNL     1       0.140 -25.317   7.101  1.00  0.00     0.037 A 
BRANCH  26  40
ATOM     40  C   UNL     1      -3.714 -26.466   2.308  1.00  0.00     0.057 A 
ATOM     41  C   UNL     1      -3.606 -26.247   0.927  1.00  0.00     0.134 A 
ATOM     42  C   UNL     1      -4.550 -27.509   2.728  1.00  0.00     0.134 A 
ATOM     43  F   UNL     1      -2.865 -25.232   0.455  1.00  0.00    -0.206 F 
ATOM     44  C   UNL     1      -4.342 -26.999   0.007  1.00  0.00     0.040 A 
ATOM     45  C   UNL     1      -5.267 -28.286   1.817  1.00  0.00     0.040 A 
ATOM     46  F   UNL     1      -4.722 -27.759   4.035  1.00  0.00    -0.206 F 
ATOM     47  C   UNL     1      -5.176 -28.021   0.453  1.00  0.00     0.006 A 
ENDBRANCH  26  40
BRANCH  27  48
ATOM     48  C   UNL     1      -0.395 -19.582   9.147  1.00  0.00     0.057 A 
ATOM     49  C   UNL     1       0.881 -19.015   9.114  1.00  0.00     0.134 A 
ATOM     50  C   UNL     1      -1.292 -19.080  10.106  1.00  0.00     0.134 A 
ATOM     51  F   UNL     1       1.787 -19.442   8.223  1.00  0.00    -0.206 F 
ATOM     52  C   UNL     1       1.252 -17.993   9.995  1.00  0.00     0.040 A 
ATOM     53  C   UNL     1      -0.945 -18.041  10.972  1.00  0.00     0.040 A 
ATOM     54  F   UNL     1      -2.541 -19.563  10.184  1.00  0.00    -0.206 F 
ATOM     55  C   UNL     1       0.334 -17.497  10.920  1.00  0.00     0.006 A 
ENDBRANCH  27  48
BRANCH  39  56
ATOM     56  C   UNL     1       1.133 -26.262   7.691  1.00  0.00     0.057 A 
ATOM     57  C   UNL     1       0.923 -26.874   8.930  1.00  0.00     0.134 A 
ATOM     58  C   UNL     1       2.262 -26.629   6.950  1.00  0.00     0.134 A 
ATOM     59  F   UNL     1      -0.135 -26.542   9.684  1.00  0.00    -0.206 F 
ATOM     60  C   UNL     1       1.814 -27.827   9.417  1.00  0.00     0.040 A 
ATOM     61  C   UNL     1       3.140 -27.602   7.412  1.00  0.00     0.040 A 
ATOM     62  F   UNL     1       2.501 -26.073   5.752  1.00  0.00    -0.206 F 
ATOM     63  C   UNL     1       2.917 -28.203   8.650  1.00  0.00     0.006 A 
ENDBRANCH  39  56
ENDBRANCH  13  14
ENDBRANCH   6   8
ENDBRANCH   5   6
ENDBRANCH   4   5
ENDBRANCH   3   4
ENDBRANCH   2   3
ENDBRANCH   1   2
BRANCH   1  64
ATOM     64  C   UNL     1      -6.370 -13.560   3.444  1.00  0.00     0.261 C 
BRANCH  64  65
ATOM     65  O   UNL     1      -6.911 -13.536   2.119  1.00  0.00    -0.461 OA
BRANCH  65  66
ATOM     66  C   UNL     1      -6.356 -12.582   1.349  1.00  0.00     0.333 C 
ATOM     67  O   UNL     1      -5.619 -11.718   1.821  1.00  0.00    -0.249 OA
BRANCH  66  68
ATOM     68  C   UNL     1      -6.784 -12.627  -0.168  1.00  0.00     0.223 C 
BRANCH  68  69
ATOM     69  C   UNL     1      -5.514 -12.128  -0.920  1.00  0.00    -0.014 A 
ATOM     70  C   UNL     1      -4.611 -13.017  -1.537  1.00  0.00     0.006 A 
ATOM     71  C   UNL     1      -5.103 -10.795  -0.728  1.00  0.00     0.006 A 
ATOM     72  C   UNL     1      -3.315 -12.607  -1.860  1.00  0.00     0.000 A 
ATOM     73  C   UNL     1      -3.792 -10.405  -1.005  1.00  0.00     0.000 A 
ATOM     74  C   UNL     1      -2.896 -11.314  -1.559  1.00  0.00     0.000 A 
ENDBRANCH  68  69
BRANCH  68  75
ATOM     75  N   UNL     1      -7.341 -13.790  -0.922  1.00  0.00    -0.339 N 
ATOM     76  C   UNL     1      -8.466 -14.547  -0.923  1.00  0.00     0.224 C 
ATOM     77  H   UNL     1      -6.712 -14.093  -1.615  1.00  0.00     0.164 HD
ATOM     78  O   UNL     1      -8.822 -14.961  -2.034  1.00  0.00    -0.275 OA
BRANCH  76  79
ATOM     79  C   UNL     1      -9.175 -15.035   0.326  1.00  0.00     0.078 C 
ATOM     80  C   UNL     1     -10.532 -14.390   0.574  1.00  0.00     0.014 C 
ATOM     81  C   UNL     1      -9.388 -16.561   0.199  1.00  0.00     0.014 C 
ATOM     82  C   UNL     1     -11.145 -14.946   1.864  1.00  0.00     0.006 C 
ATOM     83  C   UNL     1      -9.975 -17.182   1.454  1.00  0.00     0.006 C 
ATOM     84  C   UNL     1     -11.242 -16.483   1.939  1.00  0.00     0.008 C 
BRANCH  84  85
ATOM     85  C   UNL     1     -12.420 -17.115   1.193  1.00  0.00     0.119 C 
BRANCH  85  86
ATOM     86  N   UNL     1     -12.645 -18.440   1.787  1.00  0.00    -0.351 N 
ATOM     87  C   UNL     1     -13.579 -18.768   2.738  1.00  0.00     0.278 C 
ATOM     88  H   UNL     1     -12.065 -19.169   1.469  1.00  0.00     0.163 HD
ATOM     89  O   UNL     1     -13.421 -19.766   3.437  1.00  0.00    -0.268 OA
BRANCH  87  90
ATOM     90  C   UNL     1     -14.864 -17.952   2.703  1.00  0.00     0.277 C 
ATOM     91  C   UNL     1     -15.679 -17.980   4.006  1.00  0.00     0.111 C 
ATOM     92  N   UNL     1     -15.589 -18.371   1.460  1.00  0.00    -0.332 N 
ATOM     93  C   UNL     1     -16.870 -17.087   3.721  1.00  0.00    -0.033 A 
ATOM     94  C   UNL     1     -17.032 -18.469   1.661  1.00  0.00     0.298 C 
ATOM     95  H   UNL     1     -15.237 -19.283   1.167  1.00  0.00     0.347 HD
ATOM     96  H   UNL     1     -15.423 -17.659   0.748  1.00  0.00     0.347 HD
ATOM     97  C   UNL     1     -17.201 -15.977   4.494  1.00  0.00     0.004 A 
ATOM     98  C   UNL     1     -17.523 -17.313   2.489  1.00  0.00     0.010 A 
ATOM     99  C   UNL     1     -18.164 -15.083   4.023  1.00  0.00     0.000 A 
ATOM    100  C   UNL     1     -18.489 -16.422   2.031  1.00  0.00     0.010 A 
ATOM    101  C   UNL     1     -18.801 -15.301   2.797  1.00  0.00     0.001 A 
ENDBRANCH  87  90
ENDBRANCH  85  86
ENDBRANCH  84  85
ENDBRANCH  76  79
ENDBRANCH  68  75
ENDBRANCH  66  68
ENDBRANCH  65  66
ENDBRANCH  64  65
ENDBRANCH   1  64
TORSDOF 20
