REMARK SMILES O=C(COc1cccc(C(=O)OCCOCCOC(=O)c2ccc(-c3c4nc(c(-c5c(F)cccc5F)c5ccc([nH]5)c(-c5c(F)cccc5F)c5nc(c(-c6c(F)cccc6F)c6ccc3[nH]6)C=C5)C=C4)cc2)c1)NCCc1cccs1
REMARK SMILES IDX 13 1 12 2 10 3 11 4 9 5 5 6 6 7 75 8 7 9 8 10 4 11 3 12 2 13
REMARK SMILES IDX 1 14 76 15 77 17 78 18 79 19 80 20 83 21 81 22 82 23 14 24
REMARK SMILES IDX 15 25 16 26 17 27 18 28 19 29 20 30 21 31 22 32 74 33 23 34
REMARK SMILES IDX 73 35 24 36 25 37 26 38 67 39 27 40 72 41 66 42 68 43 28 44
REMARK SMILES IDX 71 45 65 46 64 47 29 49 55 50 38 51 54 52 39 53 42 54 53 55
REMARK SMILES IDX 69 56 40 57 41 58 52 60 70 61 43 62 30 63 31 64 36 65 32 66
REMARK SMILES IDX 33 67 35 68 37 69 34 70 56 71 57 72 62 73 58 74 59 75 61 76
REMARK SMILES IDX 63 77 60 78 44 79 45 80 50 81 46 82 47 83 49 84 51 85 48 86
REMARK H PARENT 76 16 68 48 42 59
REMARK Flexibility Score: inf
ROOT
ATOM      1  C   UNL     1      -1.238   0.582  -4.291  1.00  0.00     0.261 C 
ENDROOT
BRANCH   1   2
ATOM      2  O   UNL     1      -0.273  -0.191  -3.560  1.00  0.00    -0.460 OA
BRANCH   2   3
ATOM      3  C   UNL     1      -0.196  -1.507  -3.873  1.00  0.00     0.338 C 
ATOM      4  O   UNL     1      -0.946  -2.132  -4.609  1.00  0.00    -0.246 OA
BRANCH   3   5
ATOM      5  C   UNL     1       1.068  -2.065  -3.330  1.00  0.00     0.063 A 
ATOM      6  C   UNL     1       2.908  -2.010  -1.754  1.00  0.00     0.120 A 
ATOM      7  C   UNL     1       3.548  -3.016  -2.480  1.00  0.00     0.046 A 
ATOM      8  C   UNL     1       1.673  -1.526  -2.188  1.00  0.00     0.062 A 
ATOM      9  C   UNL     1       2.941  -3.568  -3.611  1.00  0.00     0.005 A 
ATOM     10  C   UNL     1       1.698  -3.097  -4.034  1.00  0.00     0.016 A 
BRANCH   6  11
ATOM     11  O   UNL     1       3.603  -1.503  -0.687  1.00  0.00    -0.484 OA
BRANCH  11  12
ATOM     12  C   UNL     1       2.819  -1.208   0.470  1.00  0.00     0.329 C 
BRANCH  12  13
ATOM     13  C   UNL     1       2.104   0.147   0.454  1.00  0.00     0.257 C 
ATOM     14  O   UNL     1       1.062   0.353   1.069  1.00  0.00    -0.271 OA
ATOM     15  N   UNL     1       2.728   1.093  -0.323  1.00  0.00    -0.353 N 
ATOM     16  H   UNL     1       3.582   0.853  -0.751  1.00  0.00     0.163 HD
BRANCH  15  17
ATOM     17  C   UNL     1       2.201   2.424  -0.550  1.00  0.00     0.121 C 
BRANCH  17  18
ATOM     18  C   UNL     1       2.723   3.461   0.449  1.00  0.00     0.068 C 
BRANCH  18  19
ATOM     19  C   UNL     1       4.177   3.833   0.270  1.00  0.00     0.006 A 
ATOM     20  C   UNL     1       4.714   5.104   0.176  1.00  0.00     0.015 A 
ATOM     21  S   UNL     1       5.417   2.647   0.249  1.00  0.00    -0.149 S 
ATOM     22  C   UNL     1       6.128   5.094   0.008  1.00  0.00     0.012 A 
ATOM     23  C   UNL     1       6.637   3.816   0.022  1.00  0.00     0.065 A 
ENDBRANCH  18  19
ENDBRANCH  17  18
ENDBRANCH  15  17
ENDBRANCH  12  13
ENDBRANCH  11  12
ENDBRANCH   6  11
ENDBRANCH   3   5
ENDBRANCH   2   3
ENDBRANCH   1   2
BRANCH   1  24
ATOM     24  C   UNL     1      -0.540   1.563  -5.240  1.00  0.00     0.202 C 
BRANCH  24  25
ATOM     25  O   UNL     1       0.161   0.975  -6.337  1.00  0.00    -0.374 OA
BRANCH  25  26
ATOM     26  C   UNL     1       1.473   0.480  -6.070  1.00  0.00     0.202 C 
BRANCH  26  27
ATOM     27  C   UNL     1       2.607   1.510  -6.119  1.00  0.00     0.261 C 
BRANCH  27  28
ATOM     28  O   UNL     1       2.460   2.530  -5.115  1.00  0.00    -0.460 OA
BRANCH  28  29
ATOM     29  C   UNL     1       2.005   3.714  -5.587  1.00  0.00     0.338 C 
ATOM     30  O   UNL     1       1.784   4.017  -6.749  1.00  0.00    -0.246 OA
BRANCH  29  31
ATOM     31  C   UNL     1       1.654   4.602  -4.466  1.00  0.00     0.060 A 
ATOM     32  C   UNL     1       0.384   5.192  -4.478  1.00  0.00     0.016 A 
ATOM     33  C   UNL     1       2.579   4.930  -3.475  1.00  0.00     0.016 A 
ATOM     34  C   UNL     1       0.054   6.158  -3.530  1.00  0.00     0.010 A 
ATOM     35  C   UNL     1       2.243   5.901  -2.527  1.00  0.00     0.010 A 
ATOM     36  C   UNL     1       0.996   6.548  -2.569  1.00  0.00    -0.014 A 
BRANCH  36  37
ATOM     37  C   UNL     1       0.730   7.731  -1.711  1.00  0.00     0.031 A 
ATOM     38  C   UNL     1       1.460   9.020  -1.988  1.00  0.00     0.074 A 
ATOM     39  C   UNL     1      -0.172   7.670  -0.714  1.00  0.00     0.049 A 
ATOM     40  N   UNL     1       1.385  10.167  -1.363  1.00  0.00    -0.248 NA
ATOM     41  C   UNL     1       2.411   9.010  -3.112  1.00  0.00     0.031 C 
ATOM     42  C   UNL     1      -0.948   6.487  -0.345  1.00  0.00     0.029 A 
ATOM     43  N   UNL     1      -0.585   8.633   0.174  1.00  0.00    -0.354 N 
ATOM     44  C   UNL     1       2.284  11.009  -2.008  1.00  0.00     0.074 A 
ATOM     45  C   UNL     1       2.923  10.230  -3.046  1.00  0.00     0.031 C 
ATOM     46  C   UNL     1      -1.746   6.795   0.692  1.00  0.00     0.029 A 
ATOM     47  C   UNL     1      -1.519   8.187   1.077  1.00  0.00     0.049 A 
ATOM     48  H   UNL     1      -0.244   9.556   0.164  1.00  0.00     0.167 HD
ATOM     49  C   UNL     1       2.542  12.317  -1.770  1.00  0.00     0.037 A 
ATOM     50  C   UNL     1      -2.116   8.826   2.102  1.00  0.00     0.037 A 
ATOM     51  C   UNL     1       1.888  13.101  -0.756  1.00  0.00     0.049 A 
ATOM     52  C   UNL     1      -1.798  10.276   2.356  1.00  0.00     0.074 A 
ATOM     53  C   UNL     1       2.053  14.445  -0.466  1.00  0.00     0.029 A 
ATOM     54  N   UNL     1       0.945  12.613   0.135  1.00  0.00    -0.354 N 
ATOM     55  N   UNL     1      -0.979  11.071   1.709  1.00  0.00    -0.248 NA
ATOM     56  C   UNL     1      -2.499  10.922   3.475  1.00  0.00     0.031 C 
ATOM     57  C   UNL     1       1.247  14.758   0.633  1.00  0.00     0.029 A 
ATOM     58  C   UNL     1       0.535  13.624   0.989  1.00  0.00     0.049 A 
ATOM     59  H   UNL     1       0.615  11.686   0.158  1.00  0.00     0.167 HD
ATOM     60  C   UNL     1      -1.094  12.315   2.319  1.00  0.00     0.074 A 
ATOM     61  C   UNL     1      -2.072  12.173   3.376  1.00  0.00     0.031 C 
ATOM     62  C   UNL     1      -0.450  13.473   2.029  1.00  0.00     0.037 A 
BRANCH  49  63
ATOM     63  C   UNL     1       3.588  12.986  -2.615  1.00  0.00     0.057 A 
ATOM     64  C   UNL     1       3.373  13.285  -3.966  1.00  0.00     0.134 A 
ATOM     65  C   UNL     1       4.809  13.382  -2.053  1.00  0.00     0.134 A 
ATOM     66  F   UNL     1       2.231  12.921  -4.570  1.00  0.00    -0.206 F 
ATOM     67  C   UNL     1       4.341  13.937  -4.733  1.00  0.00     0.040 A 
ATOM     68  C   UNL     1       5.772  14.059  -2.801  1.00  0.00     0.040 A 
ATOM     69  F   UNL     1       5.078  13.129  -0.763  1.00  0.00    -0.206 F 
ATOM     70  C   UNL     1       5.541  14.334  -4.147  1.00  0.00     0.006 A 
ENDBRANCH  49  63
BRANCH  50  71
ATOM     71  C   UNL     1      -3.077   8.104   2.976  1.00  0.00     0.057 A 
ATOM     72  C   UNL     1      -4.438   8.432   2.992  1.00  0.00     0.134 A 
ATOM     73  C   UNL     1      -2.648   7.095   3.847  1.00  0.00     0.134 A 
ATOM     74  F   UNL     1      -4.907   9.406   2.197  1.00  0.00    -0.206 F 
ATOM     75  C   UNL     1      -5.332   7.804   3.861  1.00  0.00     0.040 A 
ATOM     76  C   UNL     1      -3.536   6.438   4.700  1.00  0.00     0.040 A 
ATOM     77  F   UNL     1      -1.358   6.731   3.878  1.00  0.00    -0.206 F 
ATOM     78  C   UNL     1      -4.881   6.800   4.716  1.00  0.00     0.006 A 
ENDBRANCH  50  71
BRANCH  62  79
ATOM     79  C   UNL     1      -0.822  14.688   2.830  1.00  0.00     0.057 A 
ATOM     80  C   UNL     1      -0.479  14.826   4.181  1.00  0.00     0.134 A 
ATOM     81  C   UNL     1      -1.517  15.747   2.230  1.00  0.00     0.134 A 
ATOM     82  F   UNL     1       0.178  13.846   4.819  1.00  0.00    -0.206 F 
ATOM     83  C   UNL     1      -0.846  15.955   4.916  1.00  0.00     0.040 A 
ATOM     84  C   UNL     1      -1.862  16.895   2.946  1.00  0.00     0.040 A 
ATOM     85  F   UNL     1      -1.865  15.688   0.936  1.00  0.00    -0.206 F 
ATOM     86  C   UNL     1      -1.535  16.996   4.296  1.00  0.00     0.006 A 
ENDBRANCH  62  79
ENDBRANCH  36  37
ENDBRANCH  29  31
ENDBRANCH  28  29
ENDBRANCH  27  28
ENDBRANCH  26  27
ENDBRANCH  25  26
ENDBRANCH  24  25
ENDBRANCH   1  24
TORSDOF 20
