REMARK SMILES O=C(N[C@@H](C(=O)OCCOCCOC(=O)c1ccc(-c2c3nc(c(-c4c(F)cccc4F)c4ccc([nH]4)c(-c4c(F)cccc4F)c4nc(c(-c5c(F)cccc5F)c5ccc2[nH]5)C=C4)C=C3)cc1)c1ccccc1)c1ccc(Br)nc1
REMARK SMILES IDX 10 1 9 2 8 3 7 4 5 5 6 6 4 7 3 8 1 9 2 10 76 12 77 13 82 14
REMARK SMILES IDX 78 15 81 16 79 17 80 18 70 19 71 20 75 21 72 22 74 23 73 24
REMARK SMILES IDX 11 25 12 26 13 27 14 28 15 29 16 30 17 31 69 32 18 33 68 34
REMARK SMILES IDX 19 35 20 36 21 37 62 38 22 39 67 40 61 41 63 42 23 43 66 44
REMARK SMILES IDX 60 45 59 46 24 48 50 49 33 50 49 51 34 52 37 53 48 54 64 55
REMARK SMILES IDX 35 56 36 57 47 59 65 60 38 61 25 62 26 63 31 64 27 65 28 66
REMARK SMILES IDX 30 67 32 68 29 69 51 70 52 71 57 72 53 73 54 74 56 75 58 76
REMARK SMILES IDX 55 77 39 78 40 79 45 80 41 81 42 82 44 83 46 84 43 85
REMARK H PARENT 3 11 63 47 37 58
REMARK Flexibility Score: inf
ROOT
ATOM      1  O   UNL     1       5.283   1.197  -5.212  1.00  0.00    -0.374 OA
ENDROOT
BRANCH   1   2
ATOM      2  C   UNL     1       5.349  -0.222  -5.083  1.00  0.00     0.202 C 
BRANCH   2   3
ATOM      3  C   UNL     1       5.991  -0.754  -3.800  1.00  0.00     0.261 C 
BRANCH   3   4
ATOM      4  O   UNL     1       5.219  -0.386  -2.644  1.00  0.00    -0.461 OA
BRANCH   4   5
ATOM      5  C   UNL     1       5.892   0.327  -1.696  1.00  0.00     0.333 C 
ATOM      6  O   UNL     1       7.103   0.520  -1.707  1.00  0.00    -0.249 OA
BRANCH   5   7
ATOM      7  C   UNL     1       4.962   0.836  -0.570  1.00  0.00     0.223 C 
BRANCH   7   8
ATOM      8  N   UNL     1       3.521   0.578  -0.728  1.00  0.00    -0.335 N 
ATOM      9  O   UNL     1       1.510  -0.364  -0.360  1.00  0.00    -0.269 OA
ATOM     10  C   UNL     1       2.684  -0.244  -0.024  1.00  0.00     0.253 C 
ATOM     11  H   UNL     1       3.090   1.078  -1.459  1.00  0.00     0.165 HD
BRANCH  10  12
ATOM     12  C   UNL     1       3.205  -1.060   1.080  1.00  0.00     0.058 A 
ATOM     13  C   UNL     1       3.042  -2.442   1.028  1.00  0.00     0.018 A 
ATOM     14  C   UNL     1       3.892  -0.513   2.153  1.00  0.00     0.126 A 
ATOM     15  C   UNL     1       3.657  -3.232   1.995  1.00  0.00     0.037 A 
ATOM     16  N   UNL     1       4.518  -1.259   3.094  1.00  0.00    -0.249 NA
ATOM     17  C   UNL     1       4.402  -2.603   2.985  1.00  0.00     0.106 A 
ATOM     18  Br  UNL     1       5.352  -3.672   4.229  1.00  0.00    -0.029 Br
ENDBRANCH  10  12
ENDBRANCH   7   8
BRANCH   7  19
ATOM     19  C   UNL     1       5.205   2.311  -0.275  1.00  0.00    -0.014 A 
ATOM     20  C   UNL     1       6.184   2.670   0.666  1.00  0.00     0.006 A 
ATOM     21  C   UNL     1       4.517   3.338  -0.944  1.00  0.00     0.006 A 
ATOM     22  C   UNL     1       6.462   4.011   0.933  1.00  0.00     0.000 A 
ATOM     23  C   UNL     1       4.799   4.680  -0.678  1.00  0.00     0.000 A 
ATOM     24  C   UNL     1       5.771   5.015   0.260  1.00  0.00     0.000 A 
ENDBRANCH   7  19
ENDBRANCH   5   7
ENDBRANCH   4   5
ENDBRANCH   3   4
ENDBRANCH   2   3
ENDBRANCH   1   2
BRANCH   1  25
ATOM     25  C   UNL     1       4.307   1.887  -4.434  1.00  0.00     0.202 C 
BRANCH  25  26
ATOM     26  C   UNL     1       2.857   1.820  -4.928  1.00  0.00     0.261 C 
BRANCH  26  27
ATOM     27  O   UNL     1       2.334   0.481  -4.890  1.00  0.00    -0.460 OA
BRANCH  27  28
ATOM     28  C   UNL     1       2.095  -0.063  -6.106  1.00  0.00     0.338 C 
ATOM     29  O   UNL     1       2.198   0.487  -7.197  1.00  0.00    -0.246 OA
BRANCH  28  30
ATOM     30  C   UNL     1       1.851  -1.511  -5.988  1.00  0.00     0.060 A 
ATOM     31  C   UNL     1       2.621  -2.360  -6.795  1.00  0.00     0.016 A 
ATOM     32  C   UNL     1       0.832  -2.026  -5.184  1.00  0.00     0.016 A 
ATOM     33  C   UNL     1       2.333  -3.720  -6.853  1.00  0.00     0.010 A 
ATOM     34  C   UNL     1       0.535  -3.392  -5.253  1.00  0.00     0.010 A 
ATOM     35  C   UNL     1       1.256  -4.235  -6.120  1.00  0.00    -0.014 A 
BRANCH  35  36
ATOM     36  C   UNL     1       0.775  -5.607  -6.406  1.00  0.00     0.031 A 
ATOM     37  C   UNL     1      -0.374  -5.784  -7.362  1.00  0.00     0.074 A 
ATOM     38  C   UNL     1       1.376  -6.681  -5.865  1.00  0.00     0.049 A 
ATOM     39  N   UNL     1      -0.984  -6.880  -7.736  1.00  0.00    -0.248 NA
ATOM     40  C   UNL     1      -0.904  -4.558  -7.984  1.00  0.00     0.031 C 
ATOM     41  C   UNL     1       2.532  -6.642  -4.972  1.00  0.00     0.029 A 
ATOM     42  N   UNL     1       1.090  -8.017  -5.990  1.00  0.00    -0.354 N 
ATOM     43  C   UNL     1      -1.967  -6.477  -8.631  1.00  0.00     0.074 A 
ATOM     44  C   UNL     1      -1.892  -5.035  -8.726  1.00  0.00     0.031 C 
ATOM     45  C   UNL     1       2.851  -7.900  -4.619  1.00  0.00     0.029 A 
ATOM     46  C   UNL     1       1.904  -8.826  -5.238  1.00  0.00     0.049 A 
ATOM     47  H   UNL     1       0.369  -8.362  -6.565  1.00  0.00     0.167 HD
ATOM     48  C   UNL     1      -2.847  -7.240  -9.320  1.00  0.00     0.037 A 
ATOM     49  C   UNL     1       1.871 -10.160  -5.055  1.00  0.00     0.037 A 
ATOM     50  C   UNL     1      -2.925  -8.673  -9.224  1.00  0.00     0.049 A 
ATOM     51  C   UNL     1       0.828 -10.979  -5.770  1.00  0.00     0.074 A 
ATOM     52  C   UNL     1      -3.789  -9.537  -9.874  1.00  0.00     0.029 A 
ATOM     53  N   UNL     1      -2.104  -9.453  -8.425  1.00  0.00    -0.354 N 
ATOM     54  N   UNL     1      -0.095 -10.589  -6.615  1.00  0.00    -0.248 NA
ATOM     55  C   UNL     1       0.824 -12.426  -5.503  1.00  0.00     0.031 C 
ATOM     56  C   UNL     1      -3.515 -10.838  -9.440  1.00  0.00     0.029 A 
ATOM     57  C   UNL     1      -2.452 -10.787  -8.552  1.00  0.00     0.049 A 
ATOM     58  H   UNL     1      -1.382  -9.110  -7.851  1.00  0.00     0.167 HD
ATOM     59  C   UNL     1      -0.765 -11.742  -7.007  1.00  0.00     0.074 A 
ATOM     60  C   UNL     1      -0.140 -12.847  -6.311  1.00  0.00     0.031 C 
ATOM     61  C   UNL     1      -1.804 -11.875  -7.867  1.00  0.00     0.037 A 
BRANCH  48  62
ATOM     62  C   UNL     1      -3.813  -6.534 -10.224  1.00  0.00     0.057 A 
ATOM     63  C   UNL     1      -3.408  -5.979 -11.445  1.00  0.00     0.134 A 
ATOM     64  C   UNL     1      -5.168  -6.437  -9.886  1.00  0.00     0.134 A 
ATOM     65  F   UNL     1      -2.120  -6.025 -11.818  1.00  0.00    -0.206 F 
ATOM     66  C   UNL     1      -4.315  -5.338 -12.290  1.00  0.00     0.040 A 
ATOM     67  C   UNL     1      -6.088  -5.818 -10.733  1.00  0.00     0.040 A 
ATOM     68  F   UNL     1      -5.620  -6.950  -8.732  1.00  0.00    -0.206 F 
ATOM     69  C   UNL     1      -5.661  -5.262 -11.938  1.00  0.00     0.006 A 
ENDBRANCH  48  62
BRANCH  49  70
ATOM     70  C   UNL     1       2.845 -10.814  -4.145  1.00  0.00     0.057 A 
ATOM     71  C   UNL     1       3.842 -11.664  -4.638  1.00  0.00     0.134 A 
ATOM     72  C   UNL     1       2.778 -10.634  -2.758  1.00  0.00     0.134 A 
ATOM     73  F   UNL     1       3.940 -11.896  -5.955  1.00  0.00    -0.206 F 
ATOM     74  C   UNL     1       4.724 -12.328  -3.784  1.00  0.00     0.040 A 
ATOM     75  C   UNL     1       3.669 -11.273  -1.894  1.00  0.00     0.040 A 
ATOM     76  F   UNL     1       1.846  -9.832  -2.223  1.00  0.00    -0.206 F 
ATOM     77  C   UNL     1       4.641 -12.130  -2.407  1.00  0.00     0.006 A 
ENDBRANCH  49  70
BRANCH  61  78
ATOM     78  C   UNL     1      -2.297 -13.264  -8.144  1.00  0.00     0.057 A 
ATOM     79  C   UNL     1      -3.056 -13.980  -7.211  1.00  0.00     0.134 A 
ATOM     80  C   UNL     1      -2.048 -13.871  -9.382  1.00  0.00     0.134 A 
ATOM     81  F   UNL     1      -3.318 -13.458  -6.004  1.00  0.00    -0.206 F 
ATOM     82  C   UNL     1      -3.536 -15.260  -7.493  1.00  0.00     0.040 A 
ATOM     83  C   UNL     1      -2.542 -15.141  -9.684  1.00  0.00     0.040 A 
ATOM     84  F   UNL     1      -1.335 -13.234 -10.322  1.00  0.00    -0.206 F 
ATOM     85  C   UNL     1      -3.284 -15.841  -8.735  1.00  0.00     0.006 A 
ENDBRANCH  61  78
ENDBRANCH  35  36
ENDBRANCH  28  30
ENDBRANCH  27  28
ENDBRANCH  26  27
ENDBRANCH  25  26
ENDBRANCH   1  25
TORSDOF 17
