REMARK SMILES Cc1ccc(C(N)=O)c(NCc2ccc(C(=O)OCCOCCOC(=O)c3ccc(-c4c5nc(c(-c6c(F)cccc6F)c6ccc([nH]6)c(-c6c(F)cccc6F)c6nc(c(-c7c(F)cccc7F)c7ccc4[nH]7)C=C6)C=C5)cc3)o2)n1
REMARK SMILES IDX 20 1 19 2 18 3 16 4 17 5 15 6 12 7 13 8 81 9 14 10 11 11
REMARK SMILES IDX 10 12 9 14 1 15 2 16 3 17 82 18 4 19 5 20 6 21 7 22 8 23
REMARK SMILES IDX 21 26 22 27 23 28 24 29 25 30 26 31 27 32 28 33 80 34 29 35
REMARK SMILES IDX 79 36 30 37 31 38 32 39 73 40 33 41 78 42 72 43 74 44 34 45
REMARK SMILES IDX 77 46 71 47 70 48 35 50 61 51 44 52 60 53 45 54 48 55 59 56
REMARK SMILES IDX 75 57 46 58 47 59 58 61 76 62 49 63 36 64 37 65 42 66 38 67
REMARK SMILES IDX 39 68 41 69 43 70 40 71 62 72 63 73 68 74 64 75 65 76 67 77
REMARK SMILES IDX 69 78 66 79 50 80 51 81 56 82 52 83 53 84 55 85 57 86 54 87
REMARK H PARENT 10 13 7 24 7 25 74 49 48 60
REMARK Flexibility Score: inf
ROOT
ATOM      1  C   UNL     1      -1.367   9.947  -4.143  1.00  0.00     0.202 C 
ENDROOT
BRANCH   1   2
ATOM      2  C   UNL     1      -0.051   9.195  -4.358  1.00  0.00     0.261 C 
BRANCH   2   3
ATOM      3  O   UNL     1      -0.248   7.785  -4.148  1.00  0.00    -0.457 OA
BRANCH   3   4
ATOM      4  C   UNL     1       0.368   7.261  -3.048  1.00  0.00     0.374 C 
ATOM      5  O   UNL     1       1.214   7.843  -2.379  1.00  0.00    -0.242 OA
BRANCH   4   6
ATOM      6  C   UNL     1      -0.211   5.976  -2.735  1.00  0.00     0.211 A 
ATOM      7  C   UNL     1      -0.728   4.335  -1.348  1.00  0.00     0.124 A 
ATOM      8  C   UNL     1      -1.329   4.030  -2.551  1.00  0.00     0.048 A 
ATOM      9  O   UNL     1      -0.034   5.501  -1.465  1.00  0.00    -0.452 OA
ATOM     10  C   UNL     1      -1.011   5.091  -3.439  1.00  0.00     0.058 A 
BRANCH   7  11
ATOM     11  C   UNL     1      -0.704   3.715   0.009  1.00  0.00     0.190 C 
BRANCH  11  12
ATOM     12  N   UNL     1      -1.575   2.560   0.184  1.00  0.00    -0.362 N 
ATOM     13  H   UNL     1      -2.530   2.685   0.389  1.00  0.00     0.162 HD
BRANCH  12  14
ATOM     14  C   UNL     1      -1.045   1.278   0.060  1.00  0.00     0.139 A 
ATOM     15  C   UNL     1       2.371  -0.097  -0.094  1.00  0.00     0.067 C 
ATOM     16  C   UNL     1       0.874  -0.061  -0.065  1.00  0.00     0.040 A 
ATOM     17  C   UNL     1       0.127  -1.228  -0.053  1.00  0.00     0.024 A 
ATOM     18  N   UNL     1       0.301   1.167  -0.025  1.00  0.00    -0.236 NA
ATOM     19  C   UNL     1      -1.258  -1.122  -0.003  1.00  0.00     0.019 A 
ATOM     20  C   UNL     1      -1.864   0.140   0.045  1.00  0.00     0.081 A 
BRANCH  20  21
ATOM     21  C   UNL     1      -3.351   0.172   0.082  1.00  0.00     0.252 C 
ATOM     22  N   UNL     1      -3.980   1.318  -0.314  1.00  0.00    -0.365 N 
ATOM     23  O   UNL     1      -4.005  -0.806   0.425  1.00  0.00    -0.269 OA
ATOM     24  H   UNL     1      -3.450   2.100  -0.589  1.00  0.00     0.159 HD
ATOM     25  H   UNL     1      -4.964   1.361  -0.325  1.00  0.00     0.159 HD
ENDBRANCH  20  21
ENDBRANCH  12  14
ENDBRANCH  11  12
ENDBRANCH   7  11
ENDBRANCH   4   6
ENDBRANCH   3   4
ENDBRANCH   2   3
ENDBRANCH   1   2
BRANCH   1  26
ATOM     26  O   UNL     1      -1.798  10.000  -2.782  1.00  0.00    -0.374 OA
BRANCH  26  27
ATOM     27  C   UNL     1      -2.584   8.898  -2.320  1.00  0.00     0.202 C 
BRANCH  27  28
ATOM     28  C   UNL     1      -4.082   9.007  -2.625  1.00  0.00     0.261 C 
BRANCH  28  29
ATOM     29  O   UNL     1      -4.335   8.835  -4.033  1.00  0.00    -0.460 OA
BRANCH  29  30
ATOM     30  C   UNL     1      -4.723   9.956  -4.686  1.00  0.00     0.338 C 
ATOM     31  O   UNL     1      -4.981  11.044  -4.200  1.00  0.00    -0.246 OA
BRANCH  30  32
ATOM     32  C   UNL     1      -4.636   9.739  -6.144  1.00  0.00     0.060 A 
ATOM     33  C   UNL     1      -4.000  10.728  -6.905  1.00  0.00     0.016 A 
ATOM     34  C   UNL     1      -5.207   8.625  -6.766  1.00  0.00     0.016 A 
ATOM     35  C   UNL     1      -3.975  10.632  -8.294  1.00  0.00     0.010 A 
ATOM     36  C   UNL     1      -5.186   8.534  -8.162  1.00  0.00     0.010 A 
ATOM     37  C   UNL     1      -4.599   9.553  -8.934  1.00  0.00    -0.014 A 
BRANCH  37  38
ATOM     38  C   UNL     1      -4.755   9.567 -10.408  1.00  0.00     0.031 A 
ATOM     39  C   UNL     1      -6.061  10.017 -11.002  1.00  0.00     0.074 A 
ATOM     40  C   UNL     1      -3.737   9.210 -11.211  1.00  0.00     0.049 A 
ATOM     41  N   UNL     1      -6.421  10.088 -12.258  1.00  0.00    -0.248 NA
ATOM     42  C   UNL     1      -7.100  10.444 -10.051  1.00  0.00     0.031 C 
ATOM     43  C   UNL     1      -2.412   8.788 -10.761  1.00  0.00     0.029 A 
ATOM     44  N   UNL     1      -3.665   9.144 -12.580  1.00  0.00    -0.354 N 
ATOM     45  C   UNL     1      -7.726  10.564 -12.249  1.00  0.00     0.074 A 
ATOM     46  C   UNL     1      -8.105  10.737 -10.863  1.00  0.00     0.031 C 
ATOM     47  C   UNL     1      -1.660   8.497 -11.836  1.00  0.00     0.029 A 
ATOM     48  C   UNL     1      -2.458   8.687 -13.046  1.00  0.00     0.049 A 
ATOM     49  H   UNL     1      -4.410   9.400 -13.172  1.00  0.00     0.167 HD
ATOM     50  C   UNL     1      -8.533  10.842 -13.301  1.00  0.00     0.037 A 
ATOM     51  C   UNL     1      -2.050   8.435 -14.305  1.00  0.00     0.037 A 
ATOM     52  C   UNL     1      -8.158  10.673 -14.679  1.00  0.00     0.049 A 
ATOM     53  C   UNL     1      -2.988   8.690 -15.454  1.00  0.00     0.074 A 
ATOM     54  C   UNL     1      -8.900  10.947 -15.815  1.00  0.00     0.029 A 
ATOM     55  N   UNL     1      -6.936  10.179 -15.109  1.00  0.00    -0.354 N 
ATOM     56  N   UNL     1      -4.210   9.165 -15.435  1.00  0.00    -0.248 NA
ATOM     57  C   UNL     1      -2.488   8.374 -16.800  1.00  0.00     0.031 C 
ATOM     58  C   UNL     1      -8.142  10.579 -16.932  1.00  0.00     0.029 A 
ATOM     59  C   UNL     1      -6.912  10.117 -16.493  1.00  0.00     0.049 A 
ATOM     60  H   UNL     1      -6.195   9.911 -14.519  1.00  0.00     0.167 HD
ATOM     61  C   UNL     1      -4.614   9.230 -16.763  1.00  0.00     0.074 A 
ATOM     62  C   UNL     1      -3.504   8.755 -17.563  1.00  0.00     0.031 C 
ATOM     63  C   UNL     1      -5.798   9.648 -17.275  1.00  0.00     0.037 A 
BRANCH  50  64
ATOM     64  C   UNL     1      -9.913  11.341 -12.996  1.00  0.00     0.057 A 
ATOM     65  C   UNL     1     -10.141  12.640 -12.524  1.00  0.00     0.134 A 
ATOM     66  C   UNL     1     -11.030  10.523 -13.204  1.00  0.00     0.134 A 
ATOM     67  F   UNL     1      -9.112  13.469 -12.290  1.00  0.00    -0.206 F 
ATOM     68  C   UNL     1     -11.430  13.101 -12.252  1.00  0.00     0.040 A 
ATOM     69  C   UNL     1     -12.325  10.980 -12.957  1.00  0.00     0.040 A 
ATOM     70  F   UNL     1     -10.880   9.269 -13.657  1.00  0.00    -0.206 F 
ATOM     71  C   UNL     1     -12.527  12.271 -12.475  1.00  0.00     0.006 A 
ENDBRANCH  50  64
BRANCH  51  72
ATOM     72  C   UNL     1      -0.688   7.900 -14.550  1.00  0.00     0.057 A 
ATOM     73  C   UNL     1       0.299   8.681 -15.161  1.00  0.00     0.134 A 
ATOM     74  C   UNL     1      -0.349   6.588 -14.199  1.00  0.00     0.134 A 
ATOM     75  F   UNL     1       0.026   9.938 -15.541  1.00  0.00    -0.206 F 
ATOM     76  C   UNL     1       1.571   8.172 -15.428  1.00  0.00     0.040 A 
ATOM     77  C   UNL     1       0.926   6.073 -14.440  1.00  0.00     0.040 A 
ATOM     78  F   UNL     1      -1.252   5.789 -13.612  1.00  0.00    -0.206 F 
ATOM     79  C   UNL     1       1.888   6.865 -15.063  1.00  0.00     0.006 A 
ENDBRANCH  51  72
BRANCH  63  80
ATOM     80  C   UNL     1      -5.943   9.642 -18.768  1.00  0.00     0.057 A 
ATOM     81  C   UNL     1      -6.109   8.453 -19.489  1.00  0.00     0.134 A 
ATOM     82  C   UNL     1      -5.960  10.844 -19.487  1.00  0.00     0.134 A 
ATOM     83  F   UNL     1      -6.090   7.269 -18.861  1.00  0.00    -0.206 F 
ATOM     84  C   UNL     1      -6.267   8.459 -20.877  1.00  0.00     0.040 A 
ATOM     85  C   UNL     1      -6.140  10.864 -20.871  1.00  0.00     0.040 A 
ATOM     86  F   UNL     1      -5.814  12.018 -18.855  1.00  0.00    -0.206 F 
ATOM     87  C   UNL     1      -6.289   9.668 -21.570  1.00  0.00     0.006 A 
ENDBRANCH  63  80
ENDBRANCH  37  38
ENDBRANCH  30  32
ENDBRANCH  29  30
ENDBRANCH  28  29
ENDBRANCH  27  28
ENDBRANCH  26  27
ENDBRANCH   1  26
TORSDOF 18
