REMARK SMILES COc1cccc([C@@H]2CN(C(=O)CSc3nc(C)n[nH]3)C[C@H]2C(=O)OCCOCCOC(=O)c2ccc(-c3c4nc(c(-c5c(F)cccc5F)c5ccc([nH]5)c(-c5c(F)cccc5F)c5nc(c(-c6c(F)cccc6F)c6ccc3[nH]6)C=C5)C=C4)cc2)c1
REMARK SMILES IDX 27 1 26 2 25 3 23 4 24 5 22 6 8 7 9 8 10 9 21 10 7 11 3 12
REMARK SMILES IDX 4 13 88 14 5 15 6 16 2 17 1 18 11 19 12 20 13 21 14 22 15 23
REMARK SMILES IDX 16 24 20 25 17 26 19 27 18 29 28 30 29 31 30 32 31 33 32 34
REMARK SMILES IDX 33 35 34 36 35 37 87 38 36 39 86 40 37 41 38 42 39 43 80 44
REMARK SMILES IDX 40 45 85 46 79 47 81 48 41 49 84 50 78 51 77 52 42 54 68 55
REMARK SMILES IDX 51 56 67 57 52 58 55 59 66 60 82 61 53 62 54 63 65 65 83 66
REMARK SMILES IDX 56 67 43 68 44 69 49 70 45 71 46 72 48 73 50 74 47 75 69 76
REMARK SMILES IDX 70 77 75 78 71 79 72 80 74 81 76 82 73 83 57 84 58 85 63 86
REMARK SMILES IDX 59 87 60 88 62 89 64 90 61 91
REMARK H PARENT 20 28 81 53 55 64
REMARK Flexibility Score: inf
ROOT
ATOM      1  C   UNL     1       3.418  -6.602   4.534  1.00  0.00     0.202 C 
ENDROOT
BRANCH   1   2
ATOM      2  C   UNL     1       4.747  -5.881   4.307  1.00  0.00     0.261 C 
BRANCH   2   3
ATOM      3  O   UNL     1       4.616  -4.453   4.185  1.00  0.00    -0.463 OA
BRANCH   3   4
ATOM      4  C   UNL     1       4.815  -3.975   2.931  1.00  0.00     0.311 C 
ATOM      5  O   UNL     1       5.069  -4.668   1.951  1.00  0.00    -0.252 OA
BRANCH   4   6
ATOM      6  C   UNL     1       4.790  -2.474   2.825  1.00  0.00     0.128 C 
ATOM      7  C   UNL     1       4.108  -1.624   3.921  1.00  0.00     0.055 C 
ATOM      8  C   UNL     1       5.004  -0.378   3.987  1.00  0.00     0.128 C 
ATOM      9  N   UNL     1       6.327  -0.848   3.629  1.00  0.00    -0.340 N 
ATOM     10  C   UNL     1       6.257  -2.065   2.854  1.00  0.00     0.135 C 
BRANCH   7  11
ATOM     11  C   UNL     1       2.666  -1.176   3.713  1.00  0.00    -0.039 A 
ATOM     12  C   UNL     1       0.830  -0.347   2.325  1.00  0.00     0.119 A 
ATOM     13  C   UNL     1       0.033  -0.205   3.461  1.00  0.00     0.046 A 
ATOM     14  C   UNL     1       2.136  -0.837   2.453  1.00  0.00     0.050 A 
ATOM     15  C   UNL     1       0.540  -0.512   4.718  1.00  0.00     0.004 A 
ATOM     16  C   UNL     1       1.852  -0.969   4.840  1.00  0.00     0.004 A 
BRANCH  12  17
ATOM     17  O   UNL     1       0.226   0.064   1.169  1.00  0.00    -0.497 OA
ATOM     18  C   UNL     1       0.913  -0.163  -0.053  1.00  0.00     0.278 C 
ENDBRANCH  12  17
ENDBRANCH   7  11
BRANCH   9  19
ATOM     19  C   UNL     1       7.534  -0.223   3.815  1.00  0.00     0.233 C 
ATOM     20  O   UNL     1       8.565  -0.689   3.321  1.00  0.00    -0.274 OA
BRANCH  19  21
ATOM     21  C   UNL     1       7.580   1.106   4.532  1.00  0.00     0.178 C 
BRANCH  21  22
ATOM     22  S   UNL     1       6.888   2.428   3.512  1.00  0.00    -0.077 SA
BRANCH  22  23
ATOM     23  C   UNL     1       7.876   2.483   2.098  1.00  0.00     0.184 A 
ATOM     24  N   UNL     1       8.158   3.578   1.435  1.00  0.00    -0.206 NA
ATOM     25  N   UNL     1       8.372   1.404   1.426  1.00  0.00    -0.254 N 
ATOM     26  C   UNL     1       8.842   3.112   0.344  1.00  0.00     0.148 A 
ATOM     27  N   UNL     1       8.981   1.782   0.287  1.00  0.00    -0.158 NA
ATOM     28  H   UNL     1       8.294   0.472   1.733  1.00  0.00     0.192 HD
ATOM     29  C   UNL     1       9.373   4.018  -0.691  1.00  0.00     0.092 C 
ENDBRANCH  22  23
ENDBRANCH  21  22
ENDBRANCH  19  21
ENDBRANCH   9  19
ENDBRANCH   4   6
ENDBRANCH   3   4
ENDBRANCH   2   3
ENDBRANCH   1   2
BRANCH   1  30
ATOM     30  O   UNL     1       2.389  -6.465   3.559  1.00  0.00    -0.374 OA
BRANCH  30  31
ATOM     31  C   UNL     1       1.797  -5.197   3.303  1.00  0.00     0.202 C 
BRANCH  31  32
ATOM     32  C   UNL     1       0.981  -4.539   4.405  1.00  0.00     0.261 C 
BRANCH  32  33
ATOM     33  O   UNL     1       1.751  -4.287   5.575  1.00  0.00    -0.460 OA
BRANCH  33  34
ATOM     34  C   UNL     1       1.488  -5.148   6.589  1.00  0.00     0.338 C 
ATOM     35  O   UNL     1       0.862  -6.187   6.527  1.00  0.00    -0.246 OA
BRANCH  34  36
ATOM     36  C   UNL     1       1.930  -4.549   7.854  1.00  0.00     0.060 A 
ATOM     37  C   UNL     1       1.466  -5.188   9.002  1.00  0.00     0.016 A 
ATOM     38  C   UNL     1       2.427  -3.241   7.880  1.00  0.00     0.016 A 
ATOM     39  C   UNL     1       1.213  -4.415  10.106  1.00  0.00     0.010 A 
ATOM     40  C   UNL     1       2.148  -2.458   8.973  1.00  0.00     0.010 A 
ATOM     41  C   UNL     1       1.453  -3.039  10.029  1.00  0.00    -0.014 A 
BRANCH  41  42
ATOM     42  C   UNL     1       1.072  -2.237  11.167  1.00  0.00     0.031 A 
ATOM     43  C   UNL     1       1.975  -2.462  12.314  1.00  0.00     0.074 A 
ATOM     44  C   UNL     1       0.058  -1.355  11.126  1.00  0.00     0.049 A 
ATOM     45  N   UNL     1       1.702  -3.069  13.418  1.00  0.00    -0.248 NA
ATOM     46  C   UNL     1       3.409  -2.193  12.110  1.00  0.00     0.031 C 
ATOM     47  C   UNL     1      -0.723  -0.913   9.969  1.00  0.00     0.029 A 
ATOM     48  N   UNL     1      -0.427  -0.584  12.135  1.00  0.00    -0.354 N 
ATOM     49  C   UNL     1       2.885  -3.045  14.148  1.00  0.00     0.074 A 
ATOM     50  C   UNL     1       3.928  -2.726  13.215  1.00  0.00     0.031 C 
ATOM     51  C   UNL     1      -1.413   0.205  10.298  1.00  0.00     0.029 A 
ATOM     52  C   UNL     1      -1.219   0.479  11.710  1.00  0.00     0.049 A 
ATOM     53  H   UNL     1      -0.235  -0.762  13.084  1.00  0.00     0.167 HD
ATOM     54  C   UNL     1       2.851  -2.969  15.505  1.00  0.00     0.037 A 
ATOM     55  C   UNL     1      -1.581   1.539  12.478  1.00  0.00     0.037 A 
ATOM     56  C   UNL     1       1.575  -3.427  16.008  1.00  0.00     0.049 A 
ATOM     57  C   UNL     1      -1.421   1.127  13.900  1.00  0.00     0.074 A 
ATOM     58  C   UNL     1       0.862  -4.607  15.910  1.00  0.00     0.029 A 
ATOM     59  N   UNL     1       0.666  -2.477  16.408  1.00  0.00    -0.354 N 
ATOM     60  N   UNL     1      -2.173   0.229  14.476  1.00  0.00    -0.248 NA
ATOM     61  C   UNL     1      -0.117   1.336  14.518  1.00  0.00     0.031 C 
ATOM     62  C   UNL     1      -0.501  -4.207  15.780  1.00  0.00     0.029 A 
ATOM     63  C   UNL     1      -0.552  -2.817  15.883  1.00  0.00     0.049 A 
ATOM     64  H   UNL     1       0.857  -1.692  16.970  1.00  0.00     0.167 HD
ATOM     65  C   UNL     1      -1.296  -0.536  15.232  1.00  0.00     0.074 A 
ATOM     66  C   UNL     1      -0.052   0.233  15.268  1.00  0.00     0.031 C 
ATOM     67  C   UNL     1      -1.554  -1.850  15.502  1.00  0.00     0.037 A 
BRANCH  54  68
ATOM     68  C   UNL     1       3.760  -2.055  16.301  1.00  0.00     0.057 A 
ATOM     69  C   UNL     1       3.607  -2.021  17.698  1.00  0.00     0.134 A 
ATOM     70  C   UNL     1       4.532  -1.000  15.766  1.00  0.00     0.134 A 
ATOM     71  F   UNL     1       2.919  -2.977  18.340  1.00  0.00    -0.206 F 
ATOM     72  C   UNL     1       4.064  -0.953  18.479  1.00  0.00     0.040 A 
ATOM     73  C   UNL     1       5.032   0.047  16.543  1.00  0.00     0.040 A 
ATOM     74  F   UNL     1       4.783  -0.858  14.461  1.00  0.00    -0.206 F 
ATOM     75  C   UNL     1       4.761   0.097  17.897  1.00  0.00     0.006 A 
ENDBRANCH  54  68
BRANCH  55  76
ATOM     76  C   UNL     1      -1.696   2.961  12.074  1.00  0.00     0.057 A 
ATOM     77  C   UNL     1      -2.309   3.909  12.906  1.00  0.00     0.134 A 
ATOM     78  C   UNL     1      -0.969   3.481  10.987  1.00  0.00     0.134 A 
ATOM     79  F   UNL     1      -2.986   3.520  13.997  1.00  0.00    -0.206 F 
ATOM     80  C   UNL     1      -2.191   5.289  12.682  1.00  0.00     0.040 A 
ATOM     81  C   UNL     1      -0.849   4.854  10.748  1.00  0.00     0.040 A 
ATOM     82  F   UNL     1      -0.272   2.678  10.170  1.00  0.00    -0.206 F 
ATOM     83  C   UNL     1      -1.451   5.765  11.605  1.00  0.00     0.006 A 
ENDBRANCH  55  76
BRANCH  67  84
ATOM     84  C   UNL     1      -2.915  -2.388  15.159  1.00  0.00     0.057 A 
ATOM     85  C   UNL     1      -3.422  -2.473  13.853  1.00  0.00     0.134 A 
ATOM     86  C   UNL     1      -3.669  -2.994  16.170  1.00  0.00     0.134 A 
ATOM     87  F   UNL     1      -2.724  -2.012  12.807  1.00  0.00    -0.206 F 
ATOM     88  C   UNL     1      -4.643  -3.097  13.575  1.00  0.00     0.040 A 
ATOM     89  C   UNL     1      -4.871  -3.650  15.901  1.00  0.00     0.040 A 
ATOM     90  F   UNL     1      -3.218  -3.003  17.434  1.00  0.00    -0.206 F 
ATOM     91  C   UNL     1      -5.368  -3.695  14.601  1.00  0.00     0.006 A 
ENDBRANCH  67  84
ENDBRANCH  41  42
ENDBRANCH  34  36
ENDBRANCH  33  34
ENDBRANCH  32  33
ENDBRANCH  31  32
ENDBRANCH  30  31
ENDBRANCH   1  30
TORSDOF 20
