REMARK SMILES C[C@@H]1C(C(=O)OCCOCCOC(=O)c2ccc(-c3c4nc(c(-c5c(F)cccc5F)c5ccc([nH]5)c(-c5c(F)cccc5F)c5nc(c(-c6c(F)cccc6F)c6ccc3[nH]6)C=C5)C=C4)cc2)=NC2=C1C(=O)C[C@H](c1ccccc1)C2
REMARK SMILES IDX 10 1 9 2 8 3 7 4 6 5 4 6 5 7 3 8 1 9 2 10 71 11 69 12 70 13
REMARK SMILES IDX 72 14 82 15 73 16 74 17 75 18 76 19 77 20 81 21 78 22 80 23
REMARK SMILES IDX 79 24 11 25 12 26 13 27 14 28 15 29 16 30 68 31 17 32 67 33
REMARK SMILES IDX 18 34 19 35 20 36 61 37 21 38 66 39 60 40 62 41 22 42 65 43
REMARK SMILES IDX 59 44 58 45 23 47 49 48 32 49 48 50 33 51 36 52 47 53 63 54
REMARK SMILES IDX 34 55 35 56 46 58 64 59 37 60 24 61 25 62 30 63 26 64 27 65
REMARK SMILES IDX 29 66 31 67 28 68 50 69 51 70 56 71 52 72 53 73 55 74 57 75
REMARK SMILES IDX 54 76 38 77 39 78 44 79 40 80 41 81 43 82 45 83 42 84
REMARK H PARENT 62 46 36 57
REMARK Flexibility Score: inf
ROOT
ATOM      1  C   UNL     1       3.429   1.744  -2.494  1.00  0.00     0.202 C 
ENDROOT
BRANCH   1   2
ATOM      2  O   UNL     1       4.716   1.203  -2.209  1.00  0.00    -0.374 OA
BRANCH   2   3
ATOM      3  C   UNL     1       4.722  -0.187  -1.891  1.00  0.00     0.202 C 
BRANCH   3   4
ATOM      4  C   UNL     1       4.292  -0.477  -0.448  1.00  0.00     0.261 C 
BRANCH   4   5
ATOM      5  O   UNL     1       2.975   0.061  -0.178  1.00  0.00    -0.459 OA
BRANCH   5   6
ATOM      6  C   UNL     1       2.905   1.091   0.702  1.00  0.00     0.353 C 
ATOM      7  O   UNL     1       3.771   1.454   1.474  1.00  0.00    -0.245 OA
BRANCH   6   8
ATOM      8  C   UNL     1       1.628   1.898   0.449  1.00  0.00     0.133 C 
ATOM      9  C   UNL     1      -0.508   0.808   1.042  1.00  0.00     0.020 C 
ATOM     10  C   UNL     1       0.391   1.237  -0.124  1.00  0.00     0.078 C 
ATOM     11  C   UNL     1      -0.087   2.509  -0.728  1.00  0.00     0.026 C 
ATOM     12  N   UNL     1       1.536   3.192   0.646  1.00  0.00    -0.249 NA
ATOM     13  C   UNL     1       0.438   3.557  -0.098  1.00  0.00     0.049 C 
ATOM     14  C   UNL     1      -0.657   2.736  -2.059  1.00  0.00     0.161 C 
ATOM     15  C   UNL     1       0.142   4.957  -0.543  1.00  0.00     0.065 C 
ATOM     16  O   UNL     1      -1.396   1.886  -2.551  1.00  0.00    -0.294 OA
ATOM     17  C   UNL     1      -0.223   4.001  -2.833  1.00  0.00     0.089 C 
ATOM     18  C   UNL     1       0.555   5.100  -2.021  1.00  0.00     0.033 C 
BRANCH  18  19
ATOM     19  C   UNL     1       2.085   5.179  -2.203  1.00  0.00    -0.044 A 
ATOM     20  C   UNL     1       2.958   5.302  -1.100  1.00  0.00     0.004 A 
ATOM     21  C   UNL     1       2.686   5.163  -3.468  1.00  0.00     0.004 A 
ATOM     22  C   UNL     1       4.344   5.197  -1.224  1.00  0.00     0.000 A 
ATOM     23  C   UNL     1       4.086   5.084  -3.600  1.00  0.00     0.000 A 
ATOM     24  C   UNL     1       4.909   5.046  -2.477  1.00  0.00     0.000 A 
ENDBRANCH  18  19
ENDBRANCH   6   8
ENDBRANCH   5   6
ENDBRANCH   4   5
ENDBRANCH   3   4
ENDBRANCH   2   3
ENDBRANCH   1   2
BRANCH   1  25
ATOM     25  C   UNL     1       3.244   2.069  -3.965  1.00  0.00     0.261 C 
BRANCH  25  26
ATOM     26  O   UNL     1       2.795   0.899  -4.616  1.00  0.00    -0.460 OA
BRANCH  26  27
ATOM     27  C   UNL     1       3.720  -0.025  -4.927  1.00  0.00     0.338 C 
ATOM     28  O   UNL     1       4.927   0.107  -5.033  1.00  0.00    -0.246 OA
BRANCH  27  29
ATOM     29  C   UNL     1       2.928  -1.218  -5.250  1.00  0.00     0.060 A 
ATOM     30  C   UNL     1       3.312  -1.831  -6.435  1.00  0.00     0.016 A 
ATOM     31  C   UNL     1       1.611  -1.266  -4.757  1.00  0.00     0.016 A 
ATOM     32  C   UNL     1       2.310  -2.126  -7.325  1.00  0.00     0.010 A 
ATOM     33  C   UNL     1       0.617  -1.514  -5.662  1.00  0.00     0.010 A 
ATOM     34  C   UNL     1       0.990  -1.823  -6.967  1.00  0.00    -0.014 A 
BRANCH  34  35
ATOM     35  C   UNL     1      -0.041  -1.970  -7.963  1.00  0.00     0.031 A 
ATOM     36  C   UNL     1      -0.506  -3.368  -8.014  1.00  0.00     0.074 A 
ATOM     37  C   UNL     1      -0.568  -0.944  -8.653  1.00  0.00     0.049 A 
ATOM     38  N   UNL     1      -0.109  -4.289  -8.828  1.00  0.00    -0.248 NA
ATOM     39  C   UNL     1      -1.240  -3.870  -6.840  1.00  0.00     0.031 C 
ATOM     40  C   UNL     1      -0.395   0.498  -8.476  1.00  0.00     0.029 A 
ATOM     41  N   UNL     1      -1.468  -1.023  -9.668  1.00  0.00    -0.354 N 
ATOM     42  C   UNL     1      -0.735  -5.442  -8.378  1.00  0.00     0.074 A 
ATOM     43  C   UNL     1      -1.120  -5.185  -7.020  1.00  0.00     0.031 C 
ATOM     44  C   UNL     1      -1.338   1.152  -9.201  1.00  0.00     0.029 A 
ATOM     45  C   UNL     1      -2.079   0.185  -9.990  1.00  0.00     0.049 A 
ATOM     46  H   UNL     1      -1.671  -1.865 -10.136  1.00  0.00     0.167 HD
ATOM     47  C   UNL     1      -1.187  -6.387  -9.244  1.00  0.00     0.037 A 
ATOM     48  C   UNL     1      -3.178   0.289 -10.783  1.00  0.00     0.037 A 
ATOM     49  C   UNL     1      -0.620  -6.193 -10.556  1.00  0.00     0.049 A 
ATOM     50  C   UNL     1      -3.269  -0.982 -11.563  1.00  0.00     0.074 A 
ATOM     51  C   UNL     1       0.662  -6.229 -11.071  1.00  0.00     0.029 A 
ATOM     52  N   UNL     1      -1.373  -5.491 -11.468  1.00  0.00    -0.354 N 
ATOM     53  N   UNL     1      -2.388  -1.335 -12.461  1.00  0.00    -0.248 NA
ATOM     54  C   UNL     1      -4.024  -2.077 -10.966  1.00  0.00     0.031 C 
ATOM     55  C   UNL     1       0.714  -5.159 -12.012  1.00  0.00     0.029 A 
ATOM     56  C   UNL     1      -0.553  -4.577 -12.081  1.00  0.00     0.049 A 
ATOM     57  H   UNL     1      -2.332  -5.621 -11.648  1.00  0.00     0.167 HD
ATOM     58  C   UNL     1      -2.184  -2.695 -12.250  1.00  0.00     0.074 A 
ATOM     59  C   UNL     1      -3.252  -3.103 -11.340  1.00  0.00     0.031 C 
ATOM     60  C   UNL     1      -1.005  -3.298 -12.586  1.00  0.00     0.037 A 
BRANCH  47  61
ATOM     61  C   UNL     1      -2.421  -7.220  -9.003  1.00  0.00     0.057 A 
ATOM     62  C   UNL     1      -2.702  -8.277  -9.882  1.00  0.00     0.134 A 
ATOM     63  C   UNL     1      -3.470  -6.890  -8.115  1.00  0.00     0.134 A 
ATOM     64  F   UNL     1      -1.794  -8.683 -10.782  1.00  0.00    -0.206 F 
ATOM     65  C   UNL     1      -3.950  -8.909  -9.918  1.00  0.00     0.040 A 
ATOM     66  C   UNL     1      -4.697  -7.553  -8.103  1.00  0.00     0.040 A 
ATOM     67  F   UNL     1      -3.420  -5.851  -7.274  1.00  0.00    -0.206 F 
ATOM     68  C   UNL     1      -4.955  -8.545  -9.030  1.00  0.00     0.006 A 
ENDBRANCH  47  61
BRANCH  48  69
ATOM     69  C   UNL     1      -4.343   1.190 -10.607  1.00  0.00     0.057 A 
ATOM     70  C   UNL     1      -5.256   1.424 -11.644  1.00  0.00     0.134 A 
ATOM     71  C   UNL     1      -4.742   1.619  -9.328  1.00  0.00     0.134 A 
ATOM     72  F   UNL     1      -4.992   1.004 -12.890  1.00  0.00    -0.206 F 
ATOM     73  C   UNL     1      -6.498   2.042 -11.421  1.00  0.00     0.040 A 
ATOM     74  C   UNL     1      -5.975   2.236  -9.092  1.00  0.00     0.040 A 
ATOM     75  F   UNL     1      -3.985   1.371  -8.250  1.00  0.00    -0.206 F 
ATOM     76  C   UNL     1      -6.864   2.441 -10.139  1.00  0.00     0.006 A 
ENDBRANCH  48  69
BRANCH  60  77
ATOM     77  C   UNL     1       0.003  -2.490 -13.362  1.00  0.00     0.057 A 
ATOM     78  C   UNL     1       0.670  -1.364 -12.851  1.00  0.00     0.134 A 
ATOM     79  C   UNL     1       0.443  -2.974 -14.598  1.00  0.00     0.134 A 
ATOM     80  F   UNL     1       0.385  -0.885 -11.635  1.00  0.00    -0.206 F 
ATOM     81  C   UNL     1       1.705  -0.735 -13.553  1.00  0.00     0.040 A 
ATOM     82  C   UNL     1       1.496  -2.374 -15.293  1.00  0.00     0.040 A 
ATOM     83  F   UNL     1      -0.107  -4.079 -15.123  1.00  0.00    -0.206 F 
ATOM     84  C   UNL     1       2.127  -1.246 -14.775  1.00  0.00     0.006 A 
ENDBRANCH  60  77
ENDBRANCH  34  35
ENDBRANCH  27  29
ENDBRANCH  26  27
ENDBRANCH  25  26
ENDBRANCH   1  25
TORSDOF 15
