REMARK SMILES C[C@]1(C(=O)OCCOCCOC(=O)c2ccc(-c3c4nc(c(-c5c(F)cccc5F)c5ccc([nH]5)c(-c5c(F)cccc5F)c5nc(c(-c6c(F)cccc6F)c6ccc3[nH]6)C=C5)C=C4)cc2)CCN(c2ccc([N+](=O)[O-])c(N)n2)C1
REMARK SMILES IDX 8 1 7 2 6 3 5 4 3 5 4 6 2 7 1 8 68 9 81 10 69 11 70 12 71 13
REMARK SMILES IDX 72 14 80 15 73 16 78 17 74 18 79 19 75 22 76 23 77 24 9 25
REMARK SMILES IDX 10 26 11 27 12 28 13 29 14 30 15 31 67 32 16 33 66 34 17 35
REMARK SMILES IDX 18 36 19 37 60 38 20 39 65 40 59 41 61 42 21 43 64 44 58 45
REMARK SMILES IDX 57 46 22 48 48 49 31 50 47 51 32 52 35 53 46 54 62 55 33 56
REMARK SMILES IDX 34 57 45 59 63 60 36 61 23 62 24 63 29 64 25 65 26 66 28 67
REMARK SMILES IDX 30 68 27 69 49 70 50 71 55 72 51 73 52 74 54 75 56 76 53 77
REMARK SMILES IDX 37 78 38 79 43 80 39 81 40 82 42 83 44 84 41 85
REMARK H PARENT 79 20 79 21 61 47 35 58
REMARK Flexibility Score: inf
ROOT
ATOM      1  O   UNL     1       0.866  -2.175   1.915  1.00  0.00    -0.374 OA
ENDROOT
BRANCH   1   2
ATOM      2  C   UNL     1       2.208  -1.699   1.834  1.00  0.00     0.202 C 
BRANCH   2   3
ATOM      3  C   UNL     1       2.674  -1.199   0.463  1.00  0.00     0.261 C 
BRANCH   3   4
ATOM      4  O   UNL     1       2.091   0.073   0.107  1.00  0.00    -0.463 OA
BRANCH   4   5
ATOM      5  C   UNL     1       1.204   0.053  -0.923  1.00  0.00     0.313 C 
ATOM      6  O   UNL     1       0.843  -0.970  -1.494  1.00  0.00    -0.252 OA
BRANCH   5   7
ATOM      7  C   UNL     1       0.637   1.424  -1.268  1.00  0.00     0.084 C 
ATOM      8  C   UNL     1       0.386   1.455  -2.788  1.00  0.00     0.026 C 
ATOM      9  C   UNL     1      -0.653   1.704  -0.480  1.00  0.00     0.042 C 
ATOM     10  C   UNL     1       1.508   2.620  -0.857  1.00  0.00     0.136 C 
ATOM     11  C   UNL     1      -0.820   3.220  -0.535  1.00  0.00     0.119 C 
ATOM     12  N   UNL     1       0.538   3.708  -0.729  1.00  0.00    -0.355 N 
BRANCH  12  13
ATOM     13  C   UNL     1       0.897   4.972  -0.340  1.00  0.00     0.131 A 
ATOM     14  C   UNL     1       1.925   5.643  -0.993  1.00  0.00     0.054 A 
ATOM     15  N   UNL     1       0.223   5.558   0.676  1.00  0.00    -0.207 NA
ATOM     16  C   UNL     1       2.271   6.930  -0.597  1.00  0.00     0.093 A 
ATOM     17  C   UNL     1       0.576   6.792   1.104  1.00  0.00     0.204 A 
ATOM     18  C   UNL     1       1.589   7.508   0.476  1.00  0.00     0.311 A 
BRANCH  17  19
ATOM     19  N   UNL     1      -0.207   7.271   2.134  1.00  0.00    -0.378 N 
ATOM     20  H   UNL     1      -0.028   8.162   2.515  1.00  0.00     0.158 HD
ATOM     21  H   UNL     1      -0.944   6.723   2.489  1.00  0.00     0.158 HD
ENDBRANCH  17  19
BRANCH  18  22
ATOM     22  N   UNL     1       1.975   8.839   0.923  1.00  0.00     0.066 N 
ATOM     23  O   UNL     1       2.578   9.559   0.113  1.00  0.00    -0.258 OA
ATOM     24  O   UNL     1       1.721   9.167   2.093  1.00  0.00    -0.258 OA
ENDBRANCH  18  22
ENDBRANCH  12  13
ENDBRANCH   5   7
ENDBRANCH   4   5
ENDBRANCH   3   4
ENDBRANCH   2   3
ENDBRANCH   1   2
BRANCH   1  25
ATOM     25  C   UNL     1      -0.159  -1.188   1.989  1.00  0.00     0.202 C 
BRANCH  25  26
ATOM     26  C   UNL     1      -0.396  -0.563   3.369  1.00  0.00     0.261 C 
BRANCH  26  27
ATOM     27  O   UNL     1       0.732   0.218   3.807  1.00  0.00    -0.460 OA
BRANCH  27  28
ATOM     28  C   UNL     1       1.401  -0.284   4.870  1.00  0.00     0.338 C 
ATOM     29  O   UNL     1       1.101  -1.260   5.545  1.00  0.00    -0.246 OA
BRANCH  28  30
ATOM     30  C   UNL     1       2.694   0.408   5.017  1.00  0.00     0.060 A 
ATOM     31  C   UNL     1       3.856  -0.373   4.984  1.00  0.00     0.016 A 
ATOM     32  C   UNL     1       2.771   1.786   5.226  1.00  0.00     0.016 A 
ATOM     33  C   UNL     1       5.102   0.220   5.179  1.00  0.00     0.010 A 
ATOM     34  C   UNL     1       4.022   2.377   5.437  1.00  0.00     0.010 A 
ATOM     35  C   UNL     1       5.191   1.595   5.431  1.00  0.00    -0.014 A 
BRANCH  35  36
ATOM     36  C   UNL     1       6.501   2.203   5.765  1.00  0.00     0.031 A 
ATOM     37  C   UNL     1       6.859   2.452   7.202  1.00  0.00     0.074 A 
ATOM     38  C   UNL     1       7.366   2.529   4.787  1.00  0.00     0.049 A 
ATOM     39  N   UNL     1       7.919   3.032   7.703  1.00  0.00    -0.248 NA
ATOM     40  C   UNL     1       5.894   1.983   8.209  1.00  0.00     0.031 C 
ATOM     41  C   UNL     1       7.150   2.300   3.360  1.00  0.00     0.029 A 
ATOM     42  N   UNL     1       8.595   3.135   4.850  1.00  0.00    -0.354 N 
ATOM     43  C   UNL     1       7.750   3.003   9.081  1.00  0.00     0.074 A 
ATOM     44  C   UNL     1       6.475   2.367   9.337  1.00  0.00     0.031 C 
ATOM     45  C   UNL     1       8.204   2.781   2.678  1.00  0.00     0.029 A 
ATOM     46  C   UNL     1       9.149   3.381   3.618  1.00  0.00     0.049 A 
ATOM     47  H   UNL     1       9.037   3.372   5.697  1.00  0.00     0.167 HD
ATOM     48  C   UNL     1       8.585   3.461  10.044  1.00  0.00     0.037 A 
ATOM     49  C   UNL     1      10.273   4.043   3.285  1.00  0.00     0.037 A 
ATOM     50  C   UNL     1       9.851   4.096   9.787  1.00  0.00     0.049 A 
ATOM     51  C   UNL     1      11.139   4.624   4.371  1.00  0.00     0.074 A 
ATOM     52  C   UNL     1      10.784   4.561  10.698  1.00  0.00     0.029 A 
ATOM     53  N   UNL     1      10.356   4.368   8.525  1.00  0.00    -0.354 N 
ATOM     54  N   UNL     1      10.987   4.562   5.672  1.00  0.00    -0.248 NA
ATOM     55  C   UNL     1      12.329   5.373   3.942  1.00  0.00     0.031 C 
ATOM     56  C   UNL     1      11.828   5.162   9.987  1.00  0.00     0.029 A 
ATOM     57  C   UNL     1      11.569   5.029   8.633  1.00  0.00     0.049 A 
ATOM     58  H   UNL     1       9.918   4.127   7.677  1.00  0.00     0.167 HD
ATOM     59  C   UNL     1      12.066   5.247   6.215  1.00  0.00     0.074 A 
ATOM     60  C   UNL     1      12.876   5.701   5.104  1.00  0.00     0.031 C 
ATOM     61  C   UNL     1      12.360   5.482   7.518  1.00  0.00     0.037 A 
BRANCH  48  62
ATOM     62  C   UNL     1       8.145   3.315  11.470  1.00  0.00     0.057 A 
ATOM     63  C   UNL     1       8.144   2.076  12.121  1.00  0.00     0.134 A 
ATOM     64  C   UNL     1       7.762   4.438  12.215  1.00  0.00     0.134 A 
ATOM     65  F   UNL     1       8.489   0.960  11.461  1.00  0.00    -0.206 F 
ATOM     66  C   UNL     1       7.762   1.955  13.459  1.00  0.00     0.040 A 
ATOM     67  C   UNL     1       7.399   4.334  13.558  1.00  0.00     0.040 A 
ATOM     68  F   UNL     1       7.745   5.656  11.651  1.00  0.00    -0.206 F 
ATOM     69  C   UNL     1       7.395   3.088  14.183  1.00  0.00     0.006 A 
ENDBRANCH  48  62
BRANCH  49  70
ATOM     70  C   UNL     1      10.630   4.230   1.857  1.00  0.00     0.057 A 
ATOM     71  C   UNL     1      11.740   3.589   1.295  1.00  0.00     0.134 A 
ATOM     72  C   UNL     1       9.881   5.072   1.025  1.00  0.00     0.134 A 
ATOM     73  F   UNL     1      12.510   2.790   2.048  1.00  0.00    -0.206 F 
ATOM     74  C   UNL     1      12.102   3.790  -0.038  1.00  0.00     0.040 A 
ATOM     75  C   UNL     1      10.218   5.264  -0.316  1.00  0.00     0.040 A 
ATOM     76  F   UNL     1       8.805   5.715   1.503  1.00  0.00    -0.206 F 
ATOM     77  C   UNL     1      11.336   4.626  -0.849  1.00  0.00     0.006 A 
ENDBRANCH  49  70
BRANCH  61  78
ATOM     78  C   UNL     1      13.612   6.255   7.812  1.00  0.00     0.057 A 
ATOM     79  C   UNL     1      13.696   7.634   7.580  1.00  0.00     0.134 A 
ATOM     80  C   UNL     1      14.731   5.623   8.369  1.00  0.00     0.134 A 
ATOM     81  F   UNL     1      12.664   8.296   7.035  1.00  0.00    -0.206 F 
ATOM     82  C   UNL     1      14.855   8.354   7.876  1.00  0.00     0.040 A 
ATOM     83  C   UNL     1      15.886   6.336   8.691  1.00  0.00     0.040 A 
ATOM     84  F   UNL     1      14.713   4.306   8.622  1.00  0.00    -0.206 F 
ATOM     85  C   UNL     1      15.952   7.705   8.440  1.00  0.00     0.006 A 
ENDBRANCH  61  78
ENDBRANCH  35  36
ENDBRANCH  28  30
ENDBRANCH  27  28
ENDBRANCH  26  27
ENDBRANCH  25  26
ENDBRANCH   1  25
TORSDOF 17
