REMARK SMILES O=C(/C=C/c1ccc(S(=O)(=O)Nc2ccc3c(c2)OCCO3)cc1)OCCOCCOC(=O)c1ccc(-c2c3nc(c(-c4c(F)cccc4F)c4ccc([nH]4)c(-c4c(F)cccc4F)c4nc(c(-c5c(F)cccc5F)c5ccc2[nH]5)C=C4)C=C3)cc1
REMARK SMILES IDX 27 1 26 2 25 3 2 4 1 5 3 6 4 7 5 8 6 9 24 10 7 11 23 12 8 13
REMARK SMILES IDX 9 14 10 15 11 16 12 17 13 19 14 20 18 21 15 22 17 23 16 24
REMARK SMILES IDX 19 25 22 26 20 27 21 28 28 29 29 30 30 31 31 32 32 33 33 34
REMARK SMILES IDX 34 35 35 36 87 37 36 38 86 39 37 40 38 41 39 42 80 43 40 44
REMARK SMILES IDX 85 45 79 46 81 47 41 48 84 49 78 50 77 51 42 53 68 54 51 55
REMARK SMILES IDX 67 56 52 57 55 58 66 59 82 60 53 61 54 62 65 64 83 65 56 66
REMARK SMILES IDX 43 67 44 68 49 69 45 70 46 71 48 72 50 73 47 74 69 75 70 76
REMARK SMILES IDX 75 77 71 78 72 79 74 80 76 81 73 82 57 83 58 84 63 85 59 86
REMARK SMILES IDX 60 87 62 88 64 89 61 90
REMARK H PARENT 12 18 81 52 55 63
REMARK Flexibility Score: inf
ROOT
ATOM      1  C   UNL     1       4.384   0.402   1.292  1.00  0.00     0.202 C 
ENDROOT
BRANCH   1   2
ATOM      2  C   UNL     1       4.207   1.355   0.114  1.00  0.00     0.261 C 
BRANCH   2   3
ATOM      3  O   UNL     1       2.887   1.382  -0.458  1.00  0.00    -0.460 OA
BRANCH   3   4
ATOM      4  C   UNL     1       2.336   0.527  -1.347  1.00  0.00     0.330 C 
ATOM      5  O   UNL     1       1.215   0.750  -1.799  1.00  0.00    -0.247 OA
BRANCH   4   6
ATOM      6  C   UNL     1       2.966  -0.764  -1.672  1.00  0.00     0.094 C 
ATOM      7  C   UNL     1       4.264  -1.008  -1.886  1.00  0.00     0.015 C 
BRANCH   7   8
ATOM      8  C   UNL     1       4.876  -2.328  -2.099  1.00  0.00    -0.025 A 
ATOM      9  C   UNL     1       6.218  -2.485  -1.728  1.00  0.00     0.009 A 
ATOM     10  C   UNL     1       4.235  -3.370  -2.775  1.00  0.00     0.009 A 
ATOM     11  C   UNL     1       6.954  -3.579  -2.181  1.00  0.00     0.023 A 
ATOM     12  C   UNL     1       4.957  -4.500  -3.177  1.00  0.00     0.023 A 
ATOM     13  C   UNL     1       6.335  -4.548  -2.976  1.00  0.00     0.087 A 
BRANCH  13  14
ATOM     14  S   UNL     1       7.373  -5.716  -3.836  1.00  0.00     0.261 S 
ATOM     15  O   UNL     1       8.631  -5.041  -4.098  1.00  0.00    -0.201 OA
ATOM     16  O   UNL     1       7.348  -6.957  -3.096  1.00  0.00    -0.201 OA
BRANCH  14  17
ATOM     17  N   UNL     1       6.718  -6.031  -5.408  1.00  0.00    -0.279 N 
ATOM     18  H   UNL     1       6.788  -6.918  -5.828  1.00  0.00     0.180 HD
BRANCH  17  19
ATOM     19  C   UNL     1       6.065  -4.934  -6.069  1.00  0.00     0.053 A 
ATOM     20  C   UNL     1       4.697  -5.073  -6.336  1.00  0.00     0.031 A 
ATOM     21  C   UNL     1       6.712  -3.721  -6.284  1.00  0.00     0.077 A 
ATOM     22  C   UNL     1       3.925  -3.944  -6.599  1.00  0.00     0.052 A 
ATOM     23  C   UNL     1       5.936  -2.587  -6.483  1.00  0.00     0.163 A 
ATOM     24  C   UNL     1       4.542  -2.699  -6.574  1.00  0.00     0.161 A 
ATOM     25  O   UNL     1       6.592  -1.386  -6.427  1.00  0.00    -0.486 OA
ATOM     26  O   UNL     1       3.734  -1.591  -6.487  1.00  0.00    -0.486 OA
ATOM     27  C   UNL     1       5.728  -0.270  -6.166  1.00  0.00     0.271 C 
ATOM     28  C   UNL     1       4.382  -0.680  -5.588  1.00  0.00     0.271 C 
ENDBRANCH  17  19
ENDBRANCH  14  17
ENDBRANCH  13  14
ENDBRANCH   7   8
ENDBRANCH   4   6
ENDBRANCH   3   4
ENDBRANCH   2   3
ENDBRANCH   1   2
BRANCH   1  29
ATOM     29  O   UNL     1       4.095  -0.971   1.040  1.00  0.00    -0.374 OA
BRANCH  29  30
ATOM     30  C   UNL     1       2.781  -1.390   1.430  1.00  0.00     0.202 C 
BRANCH  30  31
ATOM     31  C   UNL     1       2.701  -1.938   2.857  1.00  0.00     0.261 C 
BRANCH  31  32
ATOM     32  O   UNL     1       3.116  -0.943   3.800  1.00  0.00    -0.460 OA
BRANCH  32  33
ATOM     33  C   UNL     1       4.427  -1.011   4.132  1.00  0.00     0.338 C 
ATOM     34  O   UNL     1       5.209  -1.917   3.893  1.00  0.00    -0.246 OA
BRANCH  33  35
ATOM     35  C   UNL     1       4.852   0.295   4.671  1.00  0.00     0.060 A 
ATOM     36  C   UNL     1       6.128   0.751   4.314  1.00  0.00     0.016 A 
ATOM     37  C   UNL     1       4.029   1.058   5.505  1.00  0.00     0.016 A 
ATOM     38  C   UNL     1       6.622   1.929   4.859  1.00  0.00     0.010 A 
ATOM     39  C   UNL     1       4.527   2.237   6.059  1.00  0.00     0.010 A 
ATOM     40  C   UNL     1       5.847   2.635   5.787  1.00  0.00    -0.014 A 
BRANCH  40  41
ATOM     41  C   UNL     1       6.527   3.604   6.672  1.00  0.00     0.031 A 
ATOM     42  C   UNL     1       6.957   3.123   8.032  1.00  0.00     0.074 A 
ATOM     43  C   UNL     1       6.819   4.846   6.254  1.00  0.00     0.049 A 
ATOM     44  N   UNL     1       7.587   3.763   8.981  1.00  0.00    -0.248 NA
ATOM     45  C   UNL     1       6.626   1.726   8.367  1.00  0.00     0.031 C 
ATOM     46  C   UNL     1       6.490   5.397   4.941  1.00  0.00     0.029 A 
ATOM     47  N   UNL     1       7.469   5.865   6.898  1.00  0.00    -0.354 N 
ATOM     48  C   UNL     1       7.715   2.853  10.024  1.00  0.00     0.074 A 
ATOM     49  C   UNL     1       7.065   1.632   9.611  1.00  0.00     0.031 C 
ATOM     50  C   UNL     1       6.945   6.661   4.876  1.00  0.00     0.029 A 
ATOM     51  C   UNL     1       7.570   7.010   6.150  1.00  0.00     0.049 A 
ATOM     52  H   UNL     1       7.828   5.783   7.811  1.00  0.00     0.167 HD
ATOM     53  C   UNL     1       8.333   3.018  11.216  1.00  0.00     0.037 A 
ATOM     54  C   UNL     1       8.104   8.204   6.471  1.00  0.00     0.037 A 
ATOM     55  C   UNL     1       8.985   4.236  11.615  1.00  0.00     0.049 A 
ATOM     56  C   UNL     1       8.737   8.380   7.827  1.00  0.00     0.074 A 
ATOM     57  C   UNL     1       9.655   4.511  12.793  1.00  0.00     0.029 A 
ATOM     58  N   UNL     1       9.039   5.387  10.842  1.00  0.00    -0.354 N 
ATOM     59  N   UNL     1       8.876   7.510   8.798  1.00  0.00    -0.248 NA
ATOM     60  C   UNL     1       9.299   9.705   8.124  1.00  0.00     0.031 C 
ATOM     61  C   UNL     1      10.067   5.847  12.755  1.00  0.00     0.029 A 
ATOM     62  C   UNL     1       9.714   6.383  11.526  1.00  0.00     0.049 A 
ATOM     63  H   UNL     1       8.656   5.481   9.940  1.00  0.00     0.167 HD
ATOM     64  C   UNL     1       9.579   8.166   9.802  1.00  0.00     0.074 A 
ATOM     65  C   UNL     1       9.843   9.504   9.316  1.00  0.00     0.031 C 
ATOM     66  C   UNL     1       9.978   7.704  11.014  1.00  0.00     0.037 A 
BRANCH  53  67
ATOM     67  C   UNL     1       8.297   1.866  12.179  1.00  0.00     0.057 A 
ATOM     68  C   UNL     1       9.004   0.678  11.950  1.00  0.00     0.134 A 
ATOM     69  C   UNL     1       7.544   1.951  13.357  1.00  0.00     0.134 A 
ATOM     70  F   UNL     1       9.727   0.520  10.831  1.00  0.00    -0.206 F 
ATOM     71  C   UNL     1       8.942  -0.393  12.845  1.00  0.00     0.040 A 
ATOM     72  C   UNL     1       7.500   0.899  14.274  1.00  0.00     0.040 A 
ATOM     73  F   UNL     1       6.841   3.058  13.638  1.00  0.00    -0.206 F 
ATOM     74  C   UNL     1       8.193  -0.280  14.014  1.00  0.00     0.006 A 
ENDBRANCH  53  67
BRANCH  54  75
ATOM     75  C   UNL     1       8.075   9.322   5.494  1.00  0.00     0.057 A 
ATOM     76  C   UNL     1       9.253   9.814   4.918  1.00  0.00     0.134 A 
ATOM     77  C   UNL     1       6.874   9.944   5.132  1.00  0.00     0.134 A 
ATOM     78  F   UNL     1      10.438   9.274   5.239  1.00  0.00    -0.206 F 
ATOM     79  C   UNL     1       9.240  10.898   4.038  1.00  0.00     0.040 A 
ATOM     80  C   UNL     1       6.843  11.010   4.231  1.00  0.00     0.040 A 
ATOM     81  F   UNL     1       5.710   9.518   5.643  1.00  0.00    -0.206 F 
ATOM     82  C   UNL     1       8.031  11.496   3.690  1.00  0.00     0.006 A 
ENDBRANCH  54  75
BRANCH  66  83
ATOM     83  C   UNL     1      10.798   8.630  11.866  1.00  0.00     0.057 A 
ATOM     84  C   UNL     1      10.257   9.774  12.465  1.00  0.00     0.134 A 
ATOM     85  C   UNL     1      12.151   8.354  12.108  1.00  0.00     0.134 A 
ATOM     86  F   UNL     1       8.970  10.102  12.268  1.00  0.00    -0.206 F 
ATOM     87  C   UNL     1      11.040  10.630  13.242  1.00  0.00     0.040 A 
ATOM     88  C   UNL     1      12.935   9.183  12.910  1.00  0.00     0.040 A 
ATOM     89  F   UNL     1      12.730   7.266  11.577  1.00  0.00    -0.206 F 
ATOM     90  C   UNL     1      12.382  10.332  13.470  1.00  0.00     0.006 A 
ENDBRANCH  66  83
ENDBRANCH  40  41
ENDBRANCH  33  35
ENDBRANCH  32  33
ENDBRANCH  31  32
ENDBRANCH  30  31
ENDBRANCH  29  30
ENDBRANCH   1  29
TORSDOF 18
