REMARK SMILES COc1ccccc1Nc1snc(C)c1C(=O)OCCOCCOC(=O)c1ccc(-c2c3nc(c(-c4c(F)cccc4F)c4ccc([nH]4)c(-c4c(F)cccc4F)c4nc(c(-c5c(F)cccc5F)c5ccc2[nH]5)C=C4)C=C3)cc1
REMARK SMILES IDX 20 1 19 2 18 3 16 4 17 5 15 6 10 7 11 8 12 9 13 10 14 11
REMARK SMILES IDX 9 12 8 14 3 15 4 16 5 17 7 18 6 19 2 20 1 21 21 22 22 23
REMARK SMILES IDX 23 24 24 25 25 26 26 27 27 28 28 29 80 30 29 31 79 32 30 33
REMARK SMILES IDX 31 34 32 35 73 36 33 37 78 38 72 39 74 40 34 41 77 42 71 43
REMARK SMILES IDX 70 44 35 46 61 47 44 48 60 49 45 50 48 51 59 52 75 53 46 54
REMARK SMILES IDX 47 55 58 57 76 58 49 59 36 60 37 61 42 62 38 63 39 64 41 65
REMARK SMILES IDX 43 66 40 67 62 68 63 69 68 70 64 71 65 72 67 73 69 74 66 75
REMARK SMILES IDX 50 76 51 77 56 78 52 79 53 80 55 81 57 82 54 83
REMARK H PARENT 9 13 74 45 48 56
REMARK Flexibility Score: inf
ROOT
ATOM      1  C   UNL     1       1.952   0.883   6.161  1.00  0.00     0.202 C 
ENDROOT
BRANCH   1   2
ATOM      2  C   UNL     1       2.066   2.063   5.193  1.00  0.00     0.261 C 
BRANCH   2   3
ATOM      3  O   UNL     1       2.826   1.721   4.025  1.00  0.00    -0.460 OA
BRANCH   3   4
ATOM      4  C   UNL     1       4.007   2.397   3.871  1.00  0.00     0.343 C 
ATOM      5  O   UNL     1       4.406   3.277   4.607  1.00  0.00    -0.246 OA
BRANCH   4   6
ATOM      6  C   UNL     1       4.825   1.845   2.799  1.00  0.00     0.117 A 
ATOM      7  C   UNL     1       4.413   1.550   1.501  1.00  0.00     0.128 A 
ATOM      8  S   UNL     1       5.752   0.810   0.699  1.00  0.00    -0.017 S 
ATOM      9  N   UNL     1       6.831   0.957   1.933  1.00  0.00    -0.195 NA
ATOM     10  C   UNL     1       6.225   1.515   2.979  1.00  0.00     0.068 A 
ATOM     11  C   UNL     1       7.034   1.690   4.226  1.00  0.00     0.069 C 
BRANCH   7  12
ATOM     12  N   UNL     1       3.241   1.716   0.822  1.00  0.00    -0.342 N 
ATOM     13  H   UNL     1       3.109   1.120   0.049  1.00  0.00     0.168 HD
BRANCH  12  14
ATOM     14  C   UNL     1       2.192   2.624   1.078  1.00  0.00     0.082 A 
ATOM     15  C   UNL     1       0.863   2.351   0.699  1.00  0.00     0.142 A 
ATOM     16  C   UNL     1      -0.171   3.223   1.070  1.00  0.00     0.048 A 
ATOM     17  C   UNL     1       0.095   4.372   1.814  1.00  0.00     0.004 A 
ATOM     18  C   UNL     1       2.438   3.834   1.752  1.00  0.00     0.030 A 
ATOM     19  C   UNL     1       1.406   4.690   2.136  1.00  0.00     0.002 A 
BRANCH  15  20
ATOM     20  O   UNL     1       0.482   1.360  -0.172  1.00  0.00    -0.495 OA
ATOM     21  C   UNL     1       0.785   0.028   0.221  1.00  0.00     0.278 C 
ENDBRANCH  15  20
ENDBRANCH  12  14
ENDBRANCH   7  12
ENDBRANCH   4   6
ENDBRANCH   3   4
ENDBRANCH   2   3
ENDBRANCH   1   2
BRANCH   1  22
ATOM     22  O   UNL     1       3.157   0.360   6.718  1.00  0.00    -0.374 OA
BRANCH  22  23
ATOM     23  C   UNL     1       4.104  -0.273   5.870  1.00  0.00     0.202 C 
BRANCH  23  24
ATOM     24  C   UNL     1       3.744  -1.592   5.200  1.00  0.00     0.261 C 
BRANCH  24  25
ATOM     25  O   UNL     1       2.585  -1.540   4.375  1.00  0.00    -0.460 OA
BRANCH  25  26
ATOM     26  C   UNL     1       1.522  -2.159   4.939  1.00  0.00     0.338 C 
ATOM     27  O   UNL     1       1.290  -2.273   6.131  1.00  0.00    -0.246 OA
BRANCH  26  28
ATOM     28  C   UNL     1       0.776  -2.890   3.907  1.00  0.00     0.060 A 
ATOM     29  C   UNL     1      -0.330  -3.617   4.345  1.00  0.00     0.016 A 
ATOM     30  C   UNL     1       1.295  -3.054   2.612  1.00  0.00     0.016 A 
ATOM     31  C   UNL     1      -0.817  -4.622   3.538  1.00  0.00     0.010 A 
ATOM     32  C   UNL     1       0.796  -4.056   1.799  1.00  0.00     0.010 A 
ATOM     33  C   UNL     1      -0.213  -4.875   2.293  1.00  0.00    -0.014 A 
BRANCH  33  34
ATOM     34  C   UNL     1      -0.840  -5.880   1.450  1.00  0.00     0.031 A 
ATOM     35  C   UNL     1      -2.229  -5.494   1.116  1.00  0.00     0.074 A 
ATOM     36  C   UNL     1      -0.267  -7.015   1.000  1.00  0.00     0.049 A 
ATOM     37  N   UNL     1      -3.295  -5.984   1.649  1.00  0.00    -0.248 NA
ATOM     38  C   UNL     1      -2.459  -4.292   0.300  1.00  0.00     0.031 C 
ATOM     39  C   UNL     1       1.138  -7.415   1.075  1.00  0.00     0.029 A 
ATOM     40  N   UNL     1      -0.839  -8.050   0.315  1.00  0.00    -0.354 N 
ATOM     41  C   UNL     1      -4.351  -5.322   1.042  1.00  0.00     0.074 A 
ATOM     42  C   UNL     1      -3.786  -4.171   0.388  1.00  0.00     0.031 C 
ATOM     43  C   UNL     1       1.344  -8.484   0.267  1.00  0.00     0.029 A 
ATOM     44  C   UNL     1       0.068  -8.935  -0.265  1.00  0.00     0.049 A 
ATOM     45  H   UNL     1      -1.814  -8.161   0.237  1.00  0.00     0.167 HD
ATOM     46  C   UNL     1      -5.528  -5.976   0.866  1.00  0.00     0.037 A 
ATOM     47  C   UNL     1      -0.216  -9.944  -1.132  1.00  0.00     0.037 A 
ATOM     48  C   UNL     1      -5.633  -7.098   1.773  1.00  0.00     0.049 A 
ATOM     49  C   UNL     1      -1.642 -10.299  -0.946  1.00  0.00     0.074 A 
ATOM     50  C   UNL     1      -5.579  -7.265   3.144  1.00  0.00     0.029 A 
ATOM     51  N   UNL     1      -5.429  -8.345   1.238  1.00  0.00    -0.354 N 
ATOM     52  N   UNL     1      -2.107 -10.897   0.112  1.00  0.00    -0.248 NA
ATOM     53  C   UNL     1      -2.625  -9.598  -1.754  1.00  0.00     0.031 C 
ATOM     54  C   UNL     1      -4.899  -8.505   3.345  1.00  0.00     0.029 A 
ATOM     55  C   UNL     1      -4.647  -9.068   2.095  1.00  0.00     0.049 A 
ATOM     56  H   UNL     1      -5.787  -8.665   0.378  1.00  0.00     0.167 HD
ATOM     57  C   UNL     1      -3.301 -10.246   0.371  1.00  0.00     0.074 A 
ATOM     58  C   UNL     1      -3.622  -9.538  -0.868  1.00  0.00     0.031 C 
ATOM     59  C   UNL     1      -3.750 -10.109   1.653  1.00  0.00     0.037 A 
BRANCH  46  60
ATOM     60  C   UNL     1      -6.293  -5.928  -0.439  1.00  0.00     0.057 A 
ATOM     61  C   UNL     1      -7.519  -6.610  -0.523  1.00  0.00     0.134 A 
ATOM     62  C   UNL     1      -5.733  -5.550  -1.678  1.00  0.00     0.134 A 
ATOM     63  F   UNL     1      -8.142  -7.042   0.584  1.00  0.00    -0.206 F 
ATOM     64  C   UNL     1      -8.090  -6.976  -1.748  1.00  0.00     0.040 A 
ATOM     65  C   UNL     1      -6.322  -5.864  -2.904  1.00  0.00     0.040 A 
ATOM     66  F   UNL     1      -4.540  -4.957  -1.788  1.00  0.00    -0.206 F 
ATOM     67  C   UNL     1      -7.485  -6.611  -2.944  1.00  0.00     0.006 A 
ENDBRANCH  46  60
BRANCH  47  68
ATOM     68  C   UNL     1       0.536 -10.434  -2.316  1.00  0.00     0.057 A 
ATOM     69  C   UNL     1       0.139 -11.603  -2.992  1.00  0.00     0.134 A 
ATOM     70  C   UNL     1       1.440  -9.610  -3.004  1.00  0.00     0.134 A 
ATOM     71  F   UNL     1      -0.750 -12.443  -2.441  1.00  0.00    -0.206 F 
ATOM     72  C   UNL     1       0.574 -11.905  -4.291  1.00  0.00     0.040 A 
ATOM     73  C   UNL     1       1.887  -9.904  -4.299  1.00  0.00     0.040 A 
ATOM     74  F   UNL     1       1.845  -8.443  -2.484  1.00  0.00    -0.206 F 
ATOM     75  C   UNL     1       1.438 -11.044  -4.955  1.00  0.00     0.006 A 
ENDBRANCH  47  68
BRANCH  59  76
ATOM     76  C   UNL     1      -3.132 -10.983   2.711  1.00  0.00     0.057 A 
ATOM     77  C   UNL     1      -1.773 -10.995   3.063  1.00  0.00     0.134 A 
ATOM     78  C   UNL     1      -3.988 -11.790   3.471  1.00  0.00     0.134 A 
ATOM     79  F   UNL     1      -0.888 -10.189   2.460  1.00  0.00    -0.206 F 
ATOM     80  C   UNL     1      -1.288 -11.815   4.089  1.00  0.00     0.040 A 
ATOM     81  C   UNL     1      -3.522 -12.581   4.521  1.00  0.00     0.040 A 
ATOM     82  F   UNL     1      -5.307 -11.798   3.223  1.00  0.00    -0.206 F 
ATOM     83  C   UNL     1      -2.164 -12.608   4.824  1.00  0.00     0.006 A 
ENDBRANCH  59  76
ENDBRANCH  33  34
ENDBRANCH  26  28
ENDBRANCH  25  26
ENDBRANCH  24  25
ENDBRANCH  23  24
ENDBRANCH  22  23
ENDBRANCH   1  22
TORSDOF 17
