REMARK SMILES C[C@H](C(=O)OCCOCCOC(=O)c1ccc(-c2c3nc(c(-c4c(F)cccc4F)c4ccc([nH]4)c(-c4c(F)cccc4F)c4nc(c(-c5c(F)cccc5F)c5ccc2[nH]5)C=C4)C=C3)cc1)[C@@H](C)Sc1ccc2c(c1)OCCCO2
REMARK SMILES IDX 6 1 5 2 3 3 4 4 2 5 1 6 68 7 69 8 70 9 71 10 72 11 76 12
REMARK SMILES IDX 73 13 75 14 74 15 77 16 78 17 81 19 80 20 79 21 7 23 8 24
REMARK SMILES IDX 9 25 10 26 11 27 12 28 13 29 14 30 15 31 67 32 16 33 66 34
REMARK SMILES IDX 17 35 18 36 19 37 60 38 20 39 65 40 59 41 61 42 21 43 64 44
REMARK SMILES IDX 58 45 57 46 22 48 48 49 31 50 47 51 32 52 35 53 46 54 62 55
REMARK SMILES IDX 33 56 34 57 45 59 63 60 36 61 23 62 24 63 29 64 25 65 26 66
REMARK SMILES IDX 28 67 30 68 27 69 49 70 50 71 55 72 51 73 52 74 54 75 56 76
REMARK SMILES IDX 53 77 37 78 38 79 43 80 39 81 40 82 42 83 44 84 41 85
REMARK H PARENT 61 47 35 58
REMARK Flexibility Score: 90.00
ROOT
ATOM      1  C   UNL     1       1.312  -1.841   0.998  1.00  0.00     0.261 C 
ENDROOT
BRANCH   1   2
ATOM      2  O   UNL     1       0.603  -0.986   0.082  1.00  0.00    -0.463 OA
BRANCH   2   3
ATOM      3  C   UNL     1       0.334   0.257   0.551  1.00  0.00     0.309 C 
ATOM      4  O   UNL     1       0.634   0.665   1.668  1.00  0.00    -0.252 OA
BRANCH   3   5
ATOM      5  C   UNL     1      -0.406   1.132  -0.442  1.00  0.00     0.109 C 
ATOM      6  C   UNL     1      -0.116   0.801  -1.910  1.00  0.00     0.021 C 
BRANCH   5   7
ATOM      7  C   UNL     1      -1.916   1.161  -0.103  1.00  0.00     0.062 C 
ATOM      8  C   UNL     1      -2.314   1.014   1.367  1.00  0.00     0.020 C 
BRANCH   7   9
ATOM      9  S   UNL     1      -2.884   2.578  -0.793  1.00  0.00    -0.122 SA
BRANCH   9  10
ATOM     10  C   UNL     1      -2.102   4.094  -0.250  1.00  0.00     0.011 A 
ATOM     11  C   UNL     1      -0.968   4.206   0.564  1.00  0.00     0.019 A 
ATOM     12  C   UNL     1      -2.618   5.258  -0.837  1.00  0.00     0.065 A 
ATOM     13  C   UNL     1      -0.204   5.376   0.559  1.00  0.00     0.051 A 
ATOM     14  C   UNL     1      -1.874   6.430  -0.819  1.00  0.00     0.162 A 
ATOM     15  C   UNL     1      -0.619   6.443  -0.223  1.00  0.00     0.161 A 
BRANCH  14  16
ATOM     16  O   UNL     1      -2.348   7.545  -1.451  1.00  0.00    -0.490 OA
BRANCH  16  17
ATOM     17  C   UNL     1      -1.819   7.625  -2.772  1.00  0.00     0.233 CG0
ATOM     18  G   UNL     1      -0.364   8.094  -2.821  1.00  0.00     0.000 G0
ENDBRANCH  16  17
ENDBRANCH  14  16
BRANCH  15  19
ATOM     19  O   UNL     1       0.290   7.418  -0.542  1.00  0.00    -0.490 OA
BRANCH  19  20
ATOM     20  C   UNL     1       0.593   7.288  -1.946  1.00  0.00     0.233 C 
BRANCH  20  21
ATOM     21  C   UNL     1      -0.364   8.094  -2.821  1.00  0.00     0.083 CG0
ATOM     22  G   UNL     1      -1.819   7.625  -2.772  1.00  0.00     0.000 G0
ENDBRANCH  20  21
ENDBRANCH  19  20
ENDBRANCH  15  19
ENDBRANCH   9  10
ENDBRANCH   7   9
ENDBRANCH   5   7
ENDBRANCH   3   5
ENDBRANCH   2   3
ENDBRANCH   1   2
BRANCH   1  23
ATOM     23  C   UNL     1       2.791  -1.996   0.633  1.00  0.00     0.202 C 
BRANCH  23  24
ATOM     24  O   UNL     1       3.605  -0.834   0.766  1.00  0.00    -0.374 OA
BRANCH  24  25
ATOM     25  C   UNL     1       3.564   0.129  -0.287  1.00  0.00     0.202 C 
BRANCH  25  26
ATOM     26  C   UNL     1       4.304  -0.248  -1.575  1.00  0.00     0.261 C 
BRANCH  26  27
ATOM     27  O   UNL     1       3.644  -1.327  -2.266  1.00  0.00    -0.460 OA
BRANCH  27  28
ATOM     28  C   UNL     1       4.399  -2.441  -2.422  1.00  0.00     0.338 C 
ATOM     29  O   UNL     1       5.582  -2.577  -2.159  1.00  0.00    -0.246 OA
BRANCH  28  30
ATOM     30  C   UNL     1       3.547  -3.585  -2.801  1.00  0.00     0.060 A 
ATOM     31  C   UNL     1       3.640  -4.739  -2.013  1.00  0.00     0.016 A 
ATOM     32  C   UNL     1       2.750  -3.571  -3.948  1.00  0.00     0.016 A 
ATOM     33  C   UNL     1       2.988  -5.906  -2.404  1.00  0.00     0.010 A 
ATOM     34  C   UNL     1       2.102  -4.748  -4.344  1.00  0.00     0.010 A 
ATOM     35  C   UNL     1       2.254  -5.930  -3.597  1.00  0.00    -0.014 A 
BRANCH  35  36
ATOM     36  C   UNL     1       1.802  -7.236  -4.136  1.00  0.00     0.031 A 
ATOM     37  C   UNL     1       2.643  -7.924  -5.178  1.00  0.00     0.074 A 
ATOM     38  C   UNL     1       0.694  -7.835  -3.666  1.00  0.00     0.049 A 
ATOM     39  N   UNL     1       2.452  -9.072  -5.775  1.00  0.00    -0.248 NA
ATOM     40  C   UNL     1       3.867  -7.223  -5.599  1.00  0.00     0.031 C 
ATOM     41  C   UNL     1      -0.183  -7.295  -2.629  1.00  0.00     0.029 A 
ATOM     42  N   UNL     1       0.122  -9.036  -4.002  1.00  0.00    -0.354 N 
ATOM     43  C   UNL     1       3.528  -9.233  -6.638  1.00  0.00     0.074 A 
ATOM     44  C   UNL     1       4.353  -8.051  -6.512  1.00  0.00     0.031 C 
ATOM     45  C   UNL     1      -1.190  -8.161  -2.418  1.00  0.00     0.029 A 
ATOM     46  C   UNL     1      -1.039  -9.302  -3.320  1.00  0.00     0.049 A 
ATOM     47  H   UNL     1       0.507  -9.648  -4.670  1.00  0.00     0.167 HD
ATOM     48  C   UNL     1       3.813 -10.276  -7.453  1.00  0.00     0.037 A 
ATOM     49  C   UNL     1      -1.889 -10.342  -3.422  1.00  0.00     0.037 A 
ATOM     50  C   UNL     1       2.998 -11.454  -7.582  1.00  0.00     0.049 A 
ATOM     51  C   UNL     1      -1.588 -11.457  -4.387  1.00  0.00     0.074 A 
ATOM     52  C   UNL     1       3.211 -12.568  -8.375  1.00  0.00     0.029 A 
ATOM     53  N   UNL     1       1.809 -11.667  -6.903  1.00  0.00    -0.354 N 
ATOM     54  N   UNL     1      -0.557 -11.608  -5.183  1.00  0.00    -0.248 NA
ATOM     55  C   UNL     1      -2.569 -12.550  -4.466  1.00  0.00     0.031 C 
ATOM     56  C   UNL     1       2.129 -13.439  -8.205  1.00  0.00     0.029 A 
ATOM     57  C   UNL     1       1.264 -12.885  -7.275  1.00  0.00     0.049 A 
ATOM     58  H   UNL     1       1.410 -11.045  -6.252  1.00  0.00     0.167 HD
ATOM     59  C   UNL     1      -0.752 -12.818  -5.836  1.00  0.00     0.074 A 
ATOM     60  C   UNL     1      -1.995 -13.368  -5.337  1.00  0.00     0.031 C 
ATOM     61  C   UNL     1       0.029 -13.421  -6.766  1.00  0.00     0.037 A 
BRANCH  48  62
ATOM     62  C   UNL     1       5.056 -10.178  -8.286  1.00  0.00     0.057 A 
ATOM     63  C   UNL     1       6.331 -10.324  -7.727  1.00  0.00     0.134 A 
ATOM     64  C   UNL     1       4.974  -9.961  -9.667  1.00  0.00     0.134 A 
ATOM     65  F   UNL     1       6.477 -10.518  -6.407  1.00  0.00    -0.206 F 
ATOM     66  C   UNL     1       7.484 -10.240  -8.510  1.00  0.00     0.040 A 
ATOM     67  C   UNL     1       6.118  -9.897 -10.464  1.00  0.00     0.040 A 
ATOM     68  F   UNL     1       3.782  -9.815 -10.264  1.00  0.00    -0.206 F 
ATOM     69  C   UNL     1       7.378 -10.032  -9.884  1.00  0.00     0.006 A 
ENDBRANCH  48  62
BRANCH  49  70
ATOM     70  C   UNL     1      -3.121 -10.376  -2.595  1.00  0.00     0.057 A 
ATOM     71  C   UNL     1      -3.271 -11.295  -1.551  1.00  0.00     0.134 A 
ATOM     72  C   UNL     1      -4.186  -9.504  -2.848  1.00  0.00     0.134 A 
ATOM     73  F   UNL     1      -2.294 -12.172  -1.278  1.00  0.00    -0.206 F 
ATOM     74  C   UNL     1      -4.443 -11.355  -0.795  1.00  0.00     0.040 A 
ATOM     75  C   UNL     1      -5.355  -9.538  -2.086  1.00  0.00     0.040 A 
ATOM     76  F   UNL     1      -4.103  -8.601  -3.837  1.00  0.00    -0.206 F 
ATOM     77  C   UNL     1      -5.488 -10.471  -1.060  1.00  0.00     0.006 A 
ENDBRANCH  49  70
BRANCH  61  78
ATOM     78  C   UNL     1      -0.421 -14.755  -7.284  1.00  0.00     0.057 A 
ATOM     79  C   UNL     1      -1.489 -14.876  -8.181  1.00  0.00     0.134 A 
ATOM     80  C   UNL     1       0.250 -15.928  -6.913  1.00  0.00     0.134 A 
ATOM     81  F   UNL     1      -2.180 -13.792  -8.566  1.00  0.00    -0.206 F 
ATOM     82  C   UNL     1      -1.886 -16.119  -8.678  1.00  0.00     0.040 A 
ATOM     83  C   UNL     1      -0.123 -17.173  -7.421  1.00  0.00     0.040 A 
ATOM     84  F   UNL     1       1.287 -15.879  -6.063  1.00  0.00    -0.206 F 
ATOM     85  C   UNL     1      -1.197 -17.271  -8.303  1.00  0.00     0.006 A 
ENDBRANCH  61  78
ENDBRANCH  35  36
ENDBRANCH  28  30
ENDBRANCH  27  28
ENDBRANCH  26  27
ENDBRANCH  25  26
ENDBRANCH  24  25
ENDBRANCH  23  24
ENDBRANCH   1  23
TORSDOF 17
