REMARK SMILES Cc1ccc(-c2cc3cccnc3n2CCC(=O)OCCOCCOC(=O)c2ccc(-c3c4nc(c(-c5c(F)cccc5F)c5ccc([nH]5)c(-c5c(F)cccc5F)c5nc(c(-c6c(F)cccc6F)c6ccc3[nH]6)C=C5)C=C4)cc2)cn1
REMARK SMILES IDX 21 1 20 2 19 3 17 4 18 5 16 6 15 7 14 8 6 9 7 10 8 11 13 12
REMARK SMILES IDX 9 13 12 14 10 15 11 16 5 17 1 18 2 19 3 20 83 21 4 22 82 23
REMARK SMILES IDX 22 24 23 25 24 26 25 27 26 28 27 29 28 30 29 31 81 32 30 33
REMARK SMILES IDX 80 34 31 35 32 36 33 37 74 38 34 39 79 40 73 41 75 42 35 43
REMARK SMILES IDX 78 44 72 45 71 46 36 48 62 49 45 50 61 51 46 52 49 53 60 54
REMARK SMILES IDX 76 55 47 56 48 57 59 59 77 60 50 61 37 62 38 63 43 64 39 65
REMARK SMILES IDX 40 66 42 67 44 68 41 69 63 70 64 71 69 72 65 73 66 74 68 75
REMARK SMILES IDX 70 76 67 77 51 78 52 79 57 80 53 81 54 82 56 83 58 84 55 85
REMARK H PARENT 75 47 49 58
REMARK Flexibility Score: inf
ROOT
ATOM      1  C   UNL     1       0.014  -0.075   0.106  1.00  0.00     0.202 C 
ENDROOT
BRANCH   1   2
ATOM      2  C   UNL     1      -0.765  -1.616  -1.226  1.00  0.00     0.261 C 
BRANCH   2   3
ATOM      3  O   UNL     1      -2.322  -2.335  -1.082  1.00  0.00    -0.463 OA
BRANCH   3   4
ATOM      4  C   UNL     1      -2.628  -3.391  -0.276  1.00  0.00     0.307 C 
ATOM      5  O   UNL     1      -1.986  -4.437  -0.293  1.00  0.00    -0.252 OA
BRANCH   4   6
ATOM      6  C   UNL     1      -3.792  -3.171   0.745  1.00  0.00     0.144 C 
BRANCH   6   7
ATOM      7  C   UNL     1      -4.089  -1.851   1.498  1.00  0.00     0.136 C 
BRANCH   7   8
ATOM      8  N   UNL     1      -4.405  -0.725   0.654  1.00  0.00    -0.325 N 
ATOM      9  C   UNL     1      -3.481  -0.054  -0.104  1.00  0.00     0.052 A 
ATOM     10  C   UNL     1      -4.212   0.737  -0.984  1.00  0.00     0.039 A 
ATOM     11  C   UNL     1      -5.577   0.649  -0.649  1.00  0.00     0.020 A 
ATOM     12  C   UNL     1      -5.662  -0.209   0.440  1.00  0.00     0.140 A 
ATOM     13  C   UNL     1      -6.760   1.191  -1.171  1.00  0.00     0.013 A 
ATOM     14  N   UNL     1      -6.784  -0.529   1.117  1.00  0.00    -0.238 NA
ATOM     15  C   UNL     1      -7.944   0.887  -0.509  1.00  0.00     0.021 A 
ATOM     16  C   UNL     1      -7.893   0.066   0.611  1.00  0.00     0.113 A 
BRANCH   9  17
ATOM     17  C   UNL     1      -2.047  -0.351  -0.161  1.00  0.00     0.017 A 
ATOM     18  C   UNL     1       2.794  -0.995  -1.117  1.00  0.00     0.066 C 
ATOM     19  C   UNL     1       1.304  -1.213  -1.077  1.00  0.00     0.037 A 
ATOM     20  C   UNL     1       0.576  -2.079   0.295  1.00  0.00     0.024 A 
ATOM     21  N   UNL     1       0.408  -0.021  -1.976  1.00  0.00    -0.261 NA
ATOM     22  C   UNL     1      -1.112  -1.620   0.781  1.00  0.00     0.014 A 
ATOM     23  C   UNL     1      -1.209   0.411  -1.525  1.00  0.00     0.121 A 
ENDBRANCH   9  17
ENDBRANCH   7   8
ENDBRANCH   6   7
ENDBRANCH   4   6
ENDBRANCH   3   4
ENDBRANCH   2   3
ENDBRANCH   1   2
BRANCH   1  24
ATOM     24  O   UNL     1       0.773  -0.228   1.539  1.00  0.00    -0.374 OA
BRANCH  24  25
ATOM     25  C   UNL     1       0.045  -0.098   2.781  1.00  0.00     0.202 C 
BRANCH  25  26
ATOM     26  C   UNL     1      -0.133   1.297   3.358  1.00  0.00     0.261 C 
BRANCH  26  27
ATOM     27  O   UNL     1      -0.721   2.132   2.389  1.00  0.00    -0.460 OA
BRANCH  27  28
ATOM     28  C   UNL     1       0.150   2.650   1.491  1.00  0.00     0.338 C 
ATOM     29  O   UNL     1       1.363   2.688   1.565  1.00  0.00    -0.246 OA
BRANCH  28  30
ATOM     30  C   UNL     1      -0.674   3.244   0.416  1.00  0.00     0.060 A 
ATOM     31  C   UNL     1      -0.042   4.272  -0.262  1.00  0.00     0.016 A 
ATOM     32  C   UNL     1      -2.069   3.186   0.578  1.00  0.00     0.016 A 
ATOM     33  C   UNL     1      -0.712   5.463  -0.258  1.00  0.00     0.010 A 
ATOM     34  C   UNL     1      -2.736   4.368   0.594  1.00  0.00     0.010 A 
ATOM     35  C   UNL     1      -1.982   5.497   0.338  1.00  0.00    -0.014 A 
BRANCH  35  36
ATOM     36  C   UNL     1      -2.550   6.773   0.661  1.00  0.00     0.031 A 
ATOM     37  C   UNL     1      -3.124   7.371  -0.546  1.00  0.00     0.074 A 
ATOM     38  C   UNL     1      -2.519   7.284   1.905  1.00  0.00     0.049 A 
ATOM     39  N   UNL     1      -2.516   8.188  -1.335  1.00  0.00    -0.248 NA
ATOM     40  C   UNL     1      -4.335   6.763  -1.116  1.00  0.00     0.031 C 
ATOM     41  C   UNL     1      -2.163   6.649   3.177  1.00  0.00     0.029 A 
ATOM     42  N   UNL     1      -2.856   8.547   2.278  1.00  0.00    -0.354 N 
ATOM     43  C   UNL     1      -3.410   8.416  -2.365  1.00  0.00     0.074 A 
ATOM     44  C   UNL     1      -4.350   7.330  -2.324  1.00  0.00     0.031 C 
ATOM     45  C   UNL     1      -2.520   7.464   4.201  1.00  0.00     0.029 A 
ATOM     46  C   UNL     1      -2.981   8.727   3.655  1.00  0.00     0.049 A 
ATOM     47  H   UNL     1      -2.999   9.274   1.630  1.00  0.00     0.167 HD
ATOM     48  C   UNL     1      -3.491   9.661  -2.901  1.00  0.00     0.037 A 
ATOM     49  C   UNL     1      -3.491   9.845   4.238  1.00  0.00     0.037 A 
ATOM     50  C   UNL     1      -2.301  10.425  -2.582  1.00  0.00     0.049 A 
ATOM     51  C   UNL     1      -3.371  10.945   3.237  1.00  0.00     0.074 A 
ATOM     52  C   UNL     1      -0.950  10.268  -2.834  1.00  0.00     0.029 A 
ATOM     53  N   UNL     1      -2.386  11.303  -1.526  1.00  0.00    -0.354 N 
ATOM     54  N   UNL     1      -2.221  11.430   2.850  1.00  0.00    -0.248 NA
ATOM     55  C   UNL     1      -4.465  11.105   2.287  1.00  0.00     0.031 C 
ATOM     56  C   UNL     1      -0.293  10.695  -1.641  1.00  0.00     0.029 A 
ATOM     57  C   UNL     1      -1.260  11.172  -0.754  1.00  0.00     0.049 A 
ATOM     58  H   UNL     1      -3.131  11.923  -1.353  1.00  0.00     0.167 HD
ATOM     59  C   UNL     1      -2.329  11.545   1.470  1.00  0.00     0.074 A 
ATOM     60  C   UNL     1      -3.755  11.374   1.186  1.00  0.00     0.031 C 
ATOM     61  C   UNL     1      -1.228  11.451   0.664  1.00  0.00     0.037 A 
BRANCH  48  62
ATOM     62  C   UNL     1      -4.806  10.322  -3.245  1.00  0.00     0.057 A 
ATOM     63  C   UNL     1      -6.077   9.902  -2.796  1.00  0.00     0.134 A 
ATOM     64  C   UNL     1      -4.765  11.620  -3.780  1.00  0.00     0.134 A 
ATOM     65  F   UNL     1      -6.309   8.705  -2.249  1.00  0.00    -0.206 F 
ATOM     66  C   UNL     1      -7.194  10.737  -2.795  1.00  0.00     0.040 A 
ATOM     67  C   UNL     1      -5.869  12.477  -3.746  1.00  0.00     0.040 A 
ATOM     68  F   UNL     1      -3.623  12.129  -4.266  1.00  0.00    -0.206 F 
ATOM     69  C   UNL     1      -7.083  12.043  -3.232  1.00  0.00     0.006 A 
ENDBRANCH  48  62
BRANCH  49  70
ATOM     70  C   UNL     1      -4.378   9.947   5.420  1.00  0.00     0.057 A 
ATOM     71  C   UNL     1      -5.248   8.899   5.768  1.00  0.00     0.134 A 
ATOM     72  C   UNL     1      -4.609  11.172   6.064  1.00  0.00     0.134 A 
ATOM     73  F   UNL     1      -5.173   7.708   5.156  1.00  0.00    -0.206 F 
ATOM     74  C   UNL     1      -6.291   9.060   6.687  1.00  0.00     0.040 A 
ATOM     75  C   UNL     1      -5.651  11.348   6.987  1.00  0.00     0.040 A 
ATOM     76  F   UNL     1      -3.868  12.249   5.763  1.00  0.00    -0.206 F 
ATOM     77  C   UNL     1      -6.503  10.291   7.293  1.00  0.00     0.006 A 
ENDBRANCH  49  70
BRANCH  61  78
ATOM     78  C   UNL     1       0.122  11.447   1.332  1.00  0.00     0.057 A 
ATOM     79  C   UNL     1       1.040  12.444   0.987  1.00  0.00     0.134 A 
ATOM     80  C   UNL     1       0.582  10.435   2.191  1.00  0.00     0.134 A 
ATOM     81  F   UNL     1       0.692  13.410   0.123  1.00  0.00    -0.206 F 
ATOM     82  C   UNL     1       2.346  12.449   1.482  1.00  0.00     0.040 A 
ATOM     83  C   UNL     1       1.878  10.445   2.719  1.00  0.00     0.040 A 
ATOM     84  F   UNL     1      -0.191   9.385   2.498  1.00  0.00    -0.206 F 
ATOM     85  C   UNL     1       2.766  11.455   2.362  1.00  0.00     0.006 A 
ENDBRANCH  61  78
ENDBRANCH  35  36
ENDBRANCH  28  30
ENDBRANCH  27  28
ENDBRANCH  26  27
ENDBRANCH  25  26
ENDBRANCH  24  25
ENDBRANCH   1  24
TORSDOF 17
