REMARK SMILES Cc1ccc(NC(=O)c2csc(Br)c2)c(C(=O)OCCOCCOC(=O)c2ccc(-c3c4nc(c(-c5c(F)cccc5F)c5ccc([nH]5)c(-c5c(F)cccc5F)c5nc(c(-c6c(F)cccc6F)c6ccc3[nH]6)C=C5)C=C4)cc2)c1
REMARK SMILES IDX 21 1 20 2 19 3 18 4 16 5 17 6 15 7 1 8 2 9 3 10 81 11 4 12
REMARK SMILES IDX 5 13 6 14 7 15 8 17 9 18 10 19 14 20 11 21 12 22 13 23 22 24
REMARK SMILES IDX 23 25 24 26 25 27 26 28 27 29 28 30 80 31 29 32 79 33 30 34
REMARK SMILES IDX 31 35 32 36 73 37 33 38 78 39 72 40 74 41 34 42 77 43 71 44
REMARK SMILES IDX 70 45 35 47 61 48 44 49 60 50 45 51 48 52 59 53 75 54 46 55
REMARK SMILES IDX 47 56 58 58 76 59 49 60 36 61 37 62 42 63 38 64 39 65 41 66
REMARK SMILES IDX 43 67 40 68 62 69 63 70 68 71 64 72 65 73 67 74 69 75 66 76
REMARK SMILES IDX 50 77 51 78 56 79 52 80 53 81 55 82 57 83 54 84
REMARK H PARENT 6 16 74 46 48 57
REMARK Flexibility Score: inf
ROOT
ATOM      1  O   UNL     1      -2.162   2.970  -1.919  1.00  0.00    -0.374 OA
ENDROOT
BRANCH   1   2
ATOM      2  C   UNL     1      -0.862   3.529  -1.990  1.00  0.00     0.202 C 
BRANCH   2   3
ATOM      3  C   UNL     1      -0.499   3.934  -0.590  1.00  0.00     0.261 C 
BRANCH   3   4
ATOM      4  O   UNL     1      -0.232   2.791   0.241  1.00  0.00    -0.460 OA
BRANCH   4   5
ATOM      5  C   UNL     1      -1.223   1.899   0.542  1.00  0.00     0.340 C 
ATOM      6  O   UNL     1      -2.408   2.095   0.664  1.00  0.00    -0.246 OA
BRANCH   5   7
ATOM      7  C   UNL     1      -0.604   0.559   0.423  1.00  0.00     0.083 A 
ATOM      8  C   UNL     1       2.974  -0.584  -0.060  1.00  0.00     0.044 C 
ATOM      9  C   UNL     1       1.478  -0.606  -0.023  1.00  0.00    -0.050 A 
ATOM     10  C   UNL     1       0.737  -1.657  -0.556  1.00  0.00     0.005 A 
ATOM     11  C   UNL     1       0.797   0.477   0.513  1.00  0.00     0.021 A 
ATOM     12  C   UNL     1      -0.666  -1.618  -0.550  1.00  0.00     0.027 A 
ATOM     13  C   UNL     1      -1.370  -0.534  -0.012  1.00  0.00     0.056 A 
BRANCH  13  14
ATOM     14  N   UNL     1      -2.788  -0.479   0.040  1.00  0.00    -0.321 N 
ATOM     15  C   UNL     1      -3.754  -1.461  -0.049  1.00  0.00     0.256 C 
ATOM     16  H   UNL     1      -3.150   0.429   0.163  1.00  0.00     0.170 HD
ATOM     17  O   UNL     1      -4.925  -1.161  -0.270  1.00  0.00    -0.269 OA
BRANCH  15  18
ATOM     18  C   UNL     1      -3.359  -2.850   0.160  1.00  0.00     0.052 A 
ATOM     19  C   UNL     1      -3.762  -3.879  -0.674  1.00  0.00     0.080 A 
ATOM     20  C   UNL     1      -2.516  -3.348   1.216  1.00  0.00     0.041 A 
ATOM     21  S   UNL     1      -2.956  -5.352  -0.322  1.00  0.00    -0.136 S 
ATOM     22  C   UNL     1      -2.152  -4.650   0.992  1.00  0.00     0.071 A 
ATOM     23  Br  UNL     1      -0.846  -5.536   1.999  1.00  0.00    -0.039 Br
ENDBRANCH  15  18
ENDBRANCH  13  14
ENDBRANCH   5   7
ENDBRANCH   4   5
ENDBRANCH   3   4
ENDBRANCH   2   3
ENDBRANCH   1   2
BRANCH   1  24
ATOM     24  C   UNL     1      -2.683   2.446  -3.125  1.00  0.00     0.202 C 
BRANCH  24  25
ATOM     25  C   UNL     1      -2.786   3.500  -4.236  1.00  0.00     0.261 C 
BRANCH  25  26
ATOM     26  O   UNL     1      -3.715   4.540  -3.852  1.00  0.00    -0.460 OA
BRANCH  26  27
ATOM     27  C   UNL     1      -3.170   5.683  -3.347  1.00  0.00     0.338 C 
ATOM     28  O   UNL     1      -2.286   6.337  -3.875  1.00  0.00    -0.246 OA
BRANCH  27  29
ATOM     29  C   UNL     1      -3.592   5.860  -1.925  1.00  0.00     0.060 A 
ATOM     30  C   UNL     1      -2.952   6.813  -1.106  1.00  0.00     0.016 A 
ATOM     31  C   UNL     1      -4.346   4.847  -1.344  1.00  0.00     0.016 A 
ATOM     32  C   UNL     1      -2.916   6.638   0.288  1.00  0.00     0.010 A 
ATOM     33  C   UNL     1      -4.188   4.607   0.002  1.00  0.00     0.010 A 
ATOM     34  C   UNL     1      -3.448   5.473   0.828  1.00  0.00    -0.014 A 
BRANCH  34  35
ATOM     35  C   UNL     1      -3.305   4.978   2.204  1.00  0.00     0.031 A 
ATOM     36  C   UNL     1      -4.566   4.749   2.951  1.00  0.00     0.074 A 
ATOM     37  C   UNL     1      -2.157   4.386   2.629  1.00  0.00     0.049 A 
ATOM     38  N   UNL     1      -4.620   4.244   4.130  1.00  0.00    -0.248 NA
ATOM     39  C   UNL     1      -5.897   5.091   2.436  1.00  0.00     0.031 C 
ATOM     40  C   UNL     1      -2.015   3.276   3.580  1.00  0.00     0.029 A 
ATOM     41  N   UNL     1      -0.825   4.656   2.288  1.00  0.00    -0.354 N 
ATOM     42  C   UNL     1      -5.915   3.849   4.353  1.00  0.00     0.074 A 
ATOM     43  C   UNL     1      -6.691   4.517   3.345  1.00  0.00     0.031 C 
ATOM     44  C   UNL     1      -0.730   3.155   3.957  1.00  0.00     0.029 A 
ATOM     45  C   UNL     1      -0.019   4.279   3.380  1.00  0.00     0.049 A 
ATOM     46  H   UNL     1      -0.509   5.039   1.439  1.00  0.00     0.167 HD
ATOM     47  C   UNL     1      -6.128   2.890   5.292  1.00  0.00     0.037 A 
ATOM     48  C   UNL     1       0.737   5.202   4.034  1.00  0.00     0.037 A 
ATOM     49  C   UNL     1      -4.911   2.682   6.086  1.00  0.00     0.049 A 
ATOM     50  C   UNL     1       0.231   5.319   5.442  1.00  0.00     0.074 A 
ATOM     51  C   UNL     1      -3.978   1.665   6.168  1.00  0.00     0.029 A 
ATOM     52  N   UNL     1      -4.344   3.787   6.725  1.00  0.00    -0.354 N 
ATOM     53  N   UNL     1      -0.985   4.978   5.776  1.00  0.00    -0.248 NA
ATOM     54  C   UNL     1       1.046   5.692   6.591  1.00  0.00     0.031 C 
ATOM     55  C   UNL     1      -2.797   2.214   6.758  1.00  0.00     0.029 A 
ATOM     56  C   UNL     1      -3.032   3.544   7.081  1.00  0.00     0.049 A 
ATOM     57  H   UNL     1      -4.819   4.631   6.899  1.00  0.00     0.167 HD
ATOM     58  C   UNL     1      -1.105   4.987   7.129  1.00  0.00     0.074 A 
ATOM     59  C   UNL     1       0.178   5.481   7.598  1.00  0.00     0.031 C 
ATOM     60  C   UNL     1      -2.240   4.571   7.760  1.00  0.00     0.037 A 
BRANCH  47  61
ATOM     61  C   UNL     1      -7.372   2.040   5.411  1.00  0.00     0.057 A 
ATOM     62  C   UNL     1      -7.536   1.186   6.519  1.00  0.00     0.134 A 
ATOM     63  C   UNL     1      -8.391   1.929   4.441  1.00  0.00     0.134 A 
ATOM     64  F   UNL     1      -6.634   1.152   7.510  1.00  0.00    -0.206 F 
ATOM     65  C   UNL     1      -8.627   0.313   6.657  1.00  0.00     0.040 A 
ATOM     66  C   UNL     1      -9.511   1.097   4.591  1.00  0.00     0.040 A 
ATOM     67  F   UNL     1      -8.339   2.570   3.268  1.00  0.00    -0.206 F 
ATOM     68  C   UNL     1      -9.629   0.277   5.700  1.00  0.00     0.006 A 
ENDBRANCH  47  61
BRANCH  48  69
ATOM     69  C   UNL     1       1.215   6.260   3.093  1.00  0.00     0.057 A 
ATOM     70  C   UNL     1       2.171   5.858   2.134  1.00  0.00     0.134 A 
ATOM     71  C   UNL     1       0.390   7.337   2.742  1.00  0.00     0.134 A 
ATOM     72  F   UNL     1       2.993   4.828   2.397  1.00  0.00    -0.206 F 
ATOM     73  C   UNL     1       2.184   6.375   0.833  1.00  0.00     0.040 A 
ATOM     74  C   UNL     1       0.397   7.860   1.439  1.00  0.00     0.040 A 
ATOM     75  F   UNL     1      -0.553   7.774   3.587  1.00  0.00    -0.206 F 
ATOM     76  C   UNL     1       1.255   7.343   0.468  1.00  0.00     0.006 A 
ENDBRANCH  48  69
BRANCH  60  77
ATOM     77  C   UNL     1      -2.648   5.064   9.121  1.00  0.00     0.057 A 
ATOM     78  C   UNL     1      -2.166   6.254   9.689  1.00  0.00     0.134 A 
ATOM     79  C   UNL     1      -3.694   4.442   9.835  1.00  0.00     0.134 A 
ATOM     80  F   UNL     1      -1.283   7.038   9.055  1.00  0.00    -0.206 F 
ATOM     81  C   UNL     1      -2.615   6.736  10.921  1.00  0.00     0.040 A 
ATOM     82  C   UNL     1      -4.202   4.955  11.029  1.00  0.00     0.040 A 
ATOM     83  F   UNL     1      -4.298   3.331   9.389  1.00  0.00    -0.206 F 
ATOM     84  C   UNL     1      -3.644   6.091  11.591  1.00  0.00     0.006 A 
ENDBRANCH  60  77
ENDBRANCH  34  35
ENDBRANCH  27  29
ENDBRANCH  26  27
ENDBRANCH  25  26
ENDBRANCH  24  25
ENDBRANCH   1  24
TORSDOF 16
