REMARK SMILES CCN(CC)C(=O)N1CCC[C@H](C(=O)N[C@H](C(=O)OCCOCCOC(=O)c2ccc(-c3c4nc(c(-c5c(F)cccc5F)c5ccc([nH]5)c(-c5c(F)cccc5F)c5nc(c(-c6c(F)cccc6F)c6ccc3[nH]6)C=C5)C=C4)cc2)C(C)(C)C)C1
REMARK SMILES IDX 21 1 20 2 19 3 17 4 18 5 16 6 15 7 13 8 14 9 12 11 8 12 9 13
REMARK SMILES IDX 86 14 10 15 11 16 6 17 3 18 7 19 2 20 1 21 4 22 5 23 82 24
REMARK SMILES IDX 83 25 84 26 85 27 22 28 23 29 24 30 25 31 26 32 27 33 28 34
REMARK SMILES IDX 29 35 81 36 30 37 80 38 31 39 32 40 33 41 74 42 34 43 79 44
REMARK SMILES IDX 73 45 75 46 35 47 78 48 72 49 71 50 36 52 62 53 45 54 61 55
REMARK SMILES IDX 46 56 49 57 60 58 76 59 47 60 48 61 59 63 77 64 50 65 37 66
REMARK SMILES IDX 38 67 43 68 39 69 40 70 42 71 44 72 41 73 63 74 64 75 69 76
REMARK SMILES IDX 65 77 66 78 68 79 70 80 67 81 51 82 52 83 57 84 53 85 54 86
REMARK SMILES IDX 56 87 58 88 55 89
REMARK H PARENT 15 10 75 51 49 62
REMARK Flexibility Score: inf
ROOT
ATOM      1  C   UNL     1       3.801   1.137   6.349  1.00  0.00     0.202 C 
ENDROOT
BRANCH   1   2
ATOM      2  C   UNL     1       3.728   2.616   5.745  1.00  0.00     0.261 C 
BRANCH   2   3
ATOM      3  O   UNL     1       3.639   2.693   4.264  1.00  0.00    -0.462 OA
BRANCH   3   4
ATOM      4  C   UNL     1       4.210   3.757   3.599  1.00  0.00     0.329 C 
ATOM      5  O   UNL     1       4.479   4.805   4.187  1.00  0.00    -0.250 OA
BRANCH   4   6
ATOM      6  C   UNL     1       4.752   3.494   2.046  1.00  0.00     0.197 C 
BRANCH   6   7
ATOM      7  N   UNL     1       6.249   3.417   1.712  1.00  0.00    -0.342 N 
ATOM      8  C   UNL     1       7.296   2.558   1.569  1.00  0.00     0.225 C 
ATOM      9  O   UNL     1       8.191   3.009   0.832  1.00  0.00    -0.275 OA
ATOM     10  H   UNL     1       6.573   4.330   1.535  1.00  0.00     0.164 HD
BRANCH   8  11
ATOM     11  C   UNL     1       7.613   1.209   2.263  1.00  0.00     0.098 C 
ATOM     12  N   UNL     1       5.549  -0.199   2.582  1.00  0.00    -0.324 N 
ATOM     13  C   UNL     1       5.273   0.710   3.643  1.00  0.00     0.121 C 
ATOM     14  C   UNL     1       6.843  -0.084   1.940  1.00  0.00     0.134 C 
ATOM     15  C   UNL     1       6.332   1.653   4.231  1.00  0.00     0.022 C 
ATOM     16  C   UNL     1       7.721   1.403   3.763  1.00  0.00     0.017 C 
BRANCH  12  17
ATOM     17  C   UNL     1       4.421  -0.921   2.156  1.00  0.00     0.320 C 
ATOM     18  N   UNL     1       4.600  -1.799   1.116  1.00  0.00    -0.325 N 
ATOM     19  O   UNL     1       3.310  -0.786   2.673  1.00  0.00    -0.248 OA
BRANCH  18  20
ATOM     20  C   UNL     1       3.864  -1.645  -0.149  1.00  0.00     0.118 C 
ATOM     21  C   UNL     1       2.386  -1.274  -0.064  1.00  0.00     0.027 C 
ENDBRANCH  18  20
BRANCH  18  22
ATOM     22  C   UNL     1       4.942  -3.155   1.506  1.00  0.00     0.118 C 
ATOM     23  C   UNL     1       6.366  -3.474   1.106  1.00  0.00     0.027 C 
ENDBRANCH  18  22
ENDBRANCH  12  17
ENDBRANCH   8  11
ENDBRANCH   6   7
BRANCH   6  24
ATOM     24  C   UNL     1       3.880   2.897   0.860  1.00  0.00    -0.007 C 
ATOM     25  C   UNL     1       2.509   2.414   1.336  1.00  0.00     0.013 C 
ATOM     26  C   UNL     1       3.645   3.967  -0.242  1.00  0.00     0.013 C 
ATOM     27  C   UNL     1       4.592   1.785   0.069  1.00  0.00     0.013 C 
ENDBRANCH   6  24
ENDBRANCH   4   6
ENDBRANCH   3   4
ENDBRANCH   2   3
ENDBRANCH   1   2
BRANCH   1  28
ATOM     28  O   UNL     1       5.002   0.754   7.053  1.00  0.00    -0.374 OA
BRANCH  28  29
ATOM     29  C   UNL     1       6.032  -0.205   6.720  1.00  0.00     0.202 C 
BRANCH  29  30
ATOM     30  C   UNL     1       5.895  -1.504   5.886  1.00  0.00     0.261 C 
BRANCH  30  31
ATOM     31  O   UNL     1       4.562  -1.914   5.713  1.00  0.00    -0.460 OA
BRANCH  31  32
ATOM     32  C   UNL     1       4.056  -2.358   6.878  1.00  0.00     0.338 C 
ATOM     33  O   UNL     1       4.658  -2.696   7.870  1.00  0.00    -0.246 OA
BRANCH  32  34
ATOM     34  C   UNL     1       2.612  -2.152   6.816  1.00  0.00     0.060 A 
ATOM     35  C   UNL     1       2.030  -1.727   8.007  1.00  0.00     0.016 A 
ATOM     36  C   UNL     1       1.861  -2.427   5.666  1.00  0.00     0.016 A 
ATOM     37  C   UNL     1       0.665  -1.783   8.121  1.00  0.00     0.010 A 
ATOM     38  C   UNL     1       0.480  -2.458   5.772  1.00  0.00     0.010 A 
ATOM     39  C   UNL     1      -0.088  -2.253   7.035  1.00  0.00    -0.014 A 
BRANCH  39  40
ATOM     40  C   UNL     1      -1.398  -2.823   7.371  1.00  0.00     0.031 A 
ATOM     41  C   UNL     1      -1.480  -4.309   7.579  1.00  0.00     0.074 A 
ATOM     42  C   UNL     1      -2.385  -1.982   7.701  1.00  0.00     0.049 A 
ATOM     43  N   UNL     1      -2.450  -5.021   8.085  1.00  0.00    -0.248 NA
ATOM     44  C   UNL     1      -0.301  -5.103   7.184  1.00  0.00     0.031 C 
ATOM     45  C   UNL     1      -2.308  -0.524   7.606  1.00  0.00     0.029 A 
ATOM     46  N   UNL     1      -3.608  -2.230   8.248  1.00  0.00    -0.354 N 
ATOM     47  C   UNL     1      -2.000  -6.337   8.063  1.00  0.00     0.074 A 
ATOM     48  C   UNL     1      -0.691  -6.336   7.456  1.00  0.00     0.031 C 
ATOM     49  C   UNL     1      -3.422   0.001   8.135  1.00  0.00     0.029 A 
ATOM     50  C   UNL     1      -4.296  -1.088   8.560  1.00  0.00     0.049 A 
ATOM     51  H   UNL     1      -3.960  -3.136   8.403  1.00  0.00     0.167 HD
ATOM     52  C   UNL     1      -2.625  -7.442   8.527  1.00  0.00     0.037 A 
ATOM     53  C   UNL     1      -5.501  -0.956   9.136  1.00  0.00     0.037 A 
ATOM     54  C   UNL     1      -3.933  -7.399   9.124  1.00  0.00     0.049 A 
ATOM     55  C   UNL     1      -6.214  -2.206   9.561  1.00  0.00     0.074 A 
ATOM     56  C   UNL     1      -4.705  -8.438   9.602  1.00  0.00     0.029 A 
ATOM     57  N   UNL     1      -4.662  -6.230   9.315  1.00  0.00    -0.354 N 
ATOM     58  N   UNL     1      -5.802  -3.452   9.514  1.00  0.00    -0.248 NA
ATOM     59  C   UNL     1      -7.556  -2.032  10.121  1.00  0.00     0.031 C 
ATOM     60  C   UNL     1      -5.926  -7.904  10.030  1.00  0.00     0.029 A 
ATOM     61  C   UNL     1      -5.889  -6.524   9.882  1.00  0.00     0.049 A 
ATOM     62  H   UNL     1      -4.351  -5.326   9.082  1.00  0.00     0.167 HD
ATOM     63  C   UNL     1      -6.822  -4.213  10.065  1.00  0.00     0.074 A 
ATOM     64  C   UNL     1      -7.865  -3.278  10.449  1.00  0.00     0.031 C 
ATOM     65  C   UNL     1      -6.897  -5.556  10.245  1.00  0.00     0.037 A 
BRANCH  52  66
ATOM     66  C   UNL     1      -1.926  -8.761   8.339  1.00  0.00     0.057 A 
ATOM     67  C   UNL     1      -0.741  -9.088   9.015  1.00  0.00     0.134 A 
ATOM     68  C   UNL     1      -2.423  -9.703   7.430  1.00  0.00     0.134 A 
ATOM     69  F   UNL     1      -0.191  -8.225   9.883  1.00  0.00    -0.206 F 
ATOM     70  C   UNL     1      -0.057 -10.281   8.761  1.00  0.00     0.040 A 
ATOM     71  C   UNL     1      -1.766 -10.912   7.192  1.00  0.00     0.040 A 
ATOM     72  F   UNL     1      -3.550  -9.459   6.744  1.00  0.00    -0.206 F 
ATOM     73  C   UNL     1      -0.572 -11.199   7.849  1.00  0.00     0.006 A 
ENDBRANCH  52  66
BRANCH  53  74
ATOM     74  C   UNL     1      -6.064   0.397   9.349  1.00  0.00     0.057 A 
ATOM     75  C   UNL     1      -6.223   0.927  10.633  1.00  0.00     0.134 A 
ATOM     76  C   UNL     1      -6.408   1.216   8.265  1.00  0.00     0.134 A 
ATOM     77  F   UNL     1      -5.913   0.191  11.710  1.00  0.00    -0.206 F 
ATOM     78  C   UNL     1      -6.713   2.218  10.833  1.00  0.00     0.040 A 
ATOM     79  C   UNL     1      -6.873   2.518   8.449  1.00  0.00     0.040 A 
ATOM     80  F   UNL     1      -6.263   0.772   7.007  1.00  0.00    -0.206 F 
ATOM     81  C   UNL     1      -7.032   3.020   9.738  1.00  0.00     0.006 A 
ENDBRANCH  53  74
BRANCH  65  82
ATOM     82  C   UNL     1      -8.130  -6.071  10.924  1.00  0.00     0.057 A 
ATOM     83  C   UNL     1      -9.382  -6.067  10.296  1.00  0.00     0.134 A 
ATOM     84  C   UNL     1      -8.054  -6.594  12.221  1.00  0.00     0.134 A 
ATOM     85  F   UNL     1      -9.521  -5.568   9.058  1.00  0.00    -0.206 F 
ATOM     86  C   UNL     1     -10.523  -6.528  10.951  1.00  0.00     0.040 A 
ATOM     87  C   UNL     1      -9.182  -7.090  12.872  1.00  0.00     0.040 A 
ATOM     88  F   UNL     1      -6.882  -6.639  12.872  1.00  0.00    -0.206 F 
ATOM     89  C   UNL     1     -10.423  -7.047  12.241  1.00  0.00     0.006 A 
ENDBRANCH  65  82
ENDBRANCH  39  40
ENDBRANCH  32  34
ENDBRANCH  31  32
ENDBRANCH  30  31
ENDBRANCH  29  30
ENDBRANCH  28  29
ENDBRANCH   1  28
TORSDOF 20
