REMARK SMILES Cc1cc(C(=O)OCCOCCOC(=O)c2ccc(-c3c4nc(c(-c5c(F)cccc5F)c5ccc([nH]5)c(-c5c(F)cccc5F)c5nc(c(-c6c(F)cccc6F)c6ccc3[nH]6)C=C5)C=C4)cc2)ccc1NS(=O)(=O)c1ccc2c(c1)CCC2
REMARK SMILES IDX 9 1 8 2 7 3 5 4 6 5 4 6 1 7 2 8 3 9 72 10 71 11 70 12 73 13
REMARK SMILES IDX 74 15 75 16 76 17 77 18 78 19 82 20 79 21 81 22 80 23 83 24
REMARK SMILES IDX 85 25 84 26 10 27 11 28 12 29 13 30 14 31 15 32 16 33 17 34
REMARK SMILES IDX 69 35 18 36 68 37 19 38 20 39 21 40 62 41 22 42 67 43 61 44
REMARK SMILES IDX 63 45 23 46 66 47 60 48 59 49 24 51 50 52 33 53 49 54 34 55
REMARK SMILES IDX 37 56 48 57 64 58 35 59 36 60 47 62 65 63 38 64 25 65 26 66
REMARK SMILES IDX 31 67 27 68 28 69 30 70 32 71 29 72 51 73 52 74 57 75 53 76
REMARK SMILES IDX 54 77 56 78 58 79 55 80 39 81 40 82 45 83 41 84 42 85 44 86
REMARK SMILES IDX 46 87 43 88
REMARK H PARENT 73 14 63 50 37 61
REMARK Flexibility Score: inf
ROOT
ATOM      1  C   UNL     1      -2.855  -2.184  -2.460  1.00  0.00     0.202 C 
ENDROOT
BRANCH   1   2
ATOM      2  C   UNL     1      -3.315  -1.994  -1.042  1.00  0.00     0.261 C 
BRANCH   2   3
ATOM      3  O   UNL     1      -2.389  -1.235  -0.233  1.00  0.00    -0.460 OA
BRANCH   3   4
ATOM      4  C   UNL     1      -1.309  -1.855   0.350  1.00  0.00     0.338 C 
ATOM      5  O   UNL     1      -0.999  -3.005   0.337  1.00  0.00    -0.246 OA
BRANCH   4   6
ATOM      6  C   UNL     1      -0.448  -0.754   0.845  1.00  0.00     0.060 A 
ATOM      7  C   UNL     1       2.923   0.453  -0.307  1.00  0.00     0.046 C 
ATOM      8  C   UNL     1       1.530   0.472   0.253  1.00  0.00    -0.026 A 
ATOM      9  C   UNL     1       0.868  -0.751   0.395  1.00  0.00     0.021 A 
ATOM     10  C   UNL     1       0.822   1.654   0.544  1.00  0.00     0.052 A 
ATOM     11  C   UNL     1      -0.313   1.585   1.353  1.00  0.00     0.028 A 
ATOM     12  C   UNL     1      -0.986   0.372   1.464  1.00  0.00     0.018 A 
BRANCH  10  13
ATOM     13  N   UNL     1       1.005   2.746  -0.360  1.00  0.00    -0.279 N 
ATOM     14  H   UNL     1       1.658   2.603  -1.084  1.00  0.00     0.180 HD
BRANCH  13  15
ATOM     15  S   UNL     1       0.247   4.231  -0.339  1.00  0.00     0.261 S 
ATOM     16  O   UNL     1       0.414   4.792   0.985  1.00  0.00    -0.201 OA
ATOM     17  O   UNL     1       0.744   4.922  -1.512  1.00  0.00    -0.201 OA
BRANCH  15  18
ATOM     18  C   UNL     1      -1.514   4.028  -0.595  1.00  0.00     0.088 A 
ATOM     19  C   UNL     1      -2.132   2.778  -0.771  1.00  0.00     0.022 A 
ATOM     20  C   UNL     1      -2.289   5.176  -0.376  1.00  0.00     0.026 A 
ATOM     21  C   UNL     1      -3.499   2.627  -0.492  1.00  0.00     0.005 A 
ATOM     22  C   UNL     1      -3.645   5.020  -0.160  1.00  0.00    -0.043 A 
ATOM     23  C   UNL     1      -4.226   3.749  -0.128  1.00  0.00    -0.045 A 
ATOM     24  C   UNL     1      -4.666   6.073   0.129  1.00  0.00     0.036 C 
ATOM     25  C   UNL     1      -5.637   3.831   0.374  1.00  0.00     0.036 C 
ATOM     26  C   UNL     1      -5.666   5.258   0.955  1.00  0.00     0.010 C 
ENDBRANCH  15  18
ENDBRANCH  13  15
ENDBRANCH  10  13
ENDBRANCH   4   6
ENDBRANCH   3   4
ENDBRANCH   2   3
ENDBRANCH   1   2
BRANCH   1  27
ATOM     27  O   UNL     1      -1.785  -3.113  -2.406  1.00  0.00    -0.374 OA
BRANCH  27  28
ATOM     28  C   UNL     1      -1.155  -3.394  -3.642  1.00  0.00     0.202 C 
BRANCH  28  29
ATOM     29  C   UNL     1      -2.083  -4.070  -4.661  1.00  0.00     0.261 C 
BRANCH  29  30
ATOM     30  O   UNL     1      -2.523  -5.345  -4.150  1.00  0.00    -0.460 OA
BRANCH  30  31
ATOM     31  C   UNL     1      -3.794  -5.382  -3.664  1.00  0.00     0.338 C 
ATOM     32  O   UNL     1      -4.783  -4.942  -4.229  1.00  0.00    -0.246 OA
BRANCH  31  33
ATOM     33  C   UNL     1      -3.766  -5.766  -2.224  1.00  0.00     0.060 A 
ATOM     34  C   UNL     1      -4.922  -5.612  -1.436  1.00  0.00     0.016 A 
ATOM     35  C   UNL     1      -2.530  -5.949  -1.611  1.00  0.00     0.016 A 
ATOM     36  C   UNL     1      -4.811  -5.465  -0.046  1.00  0.00     0.010 A 
ATOM     37  C   UNL     1      -2.418  -5.704  -0.260  1.00  0.00     0.010 A 
ATOM     38  C   UNL     1      -3.544  -5.416   0.528  1.00  0.00    -0.014 A 
BRANCH  38  39
ATOM     39  C   UNL     1      -3.227  -4.978   1.893  1.00  0.00     0.031 A 
ATOM     40  C   UNL     1      -2.484  -5.909   2.776  1.00  0.00     0.074 A 
ATOM     41  C   UNL     1      -3.333  -3.671   2.249  1.00  0.00     0.049 A 
ATOM     42  N   UNL     1      -2.212  -5.652   4.006  1.00  0.00    -0.248 NA
ATOM     43  C   UNL     1      -2.012  -7.236   2.375  1.00  0.00     0.031 C 
ATOM     44  C   UNL     1      -2.601  -2.957   3.301  1.00  0.00     0.029 A 
ATOM     45  N   UNL     1      -4.157  -2.667   1.726  1.00  0.00    -0.354 N 
ATOM     46  C   UNL     1      -1.273  -6.554   4.434  1.00  0.00     0.074 A 
ATOM     47  C   UNL     1      -1.285  -7.594   3.439  1.00  0.00     0.031 C 
ATOM     48  C   UNL     1      -3.200  -1.780   3.551  1.00  0.00     0.029 A 
ATOM     49  C   UNL     1      -4.411  -1.743   2.751  1.00  0.00     0.049 A 
ATOM     50  H   UNL     1      -4.498  -2.618   0.804  1.00  0.00     0.167 HD
ATOM     51  C   UNL     1      -0.527  -6.223   5.524  1.00  0.00     0.037 A 
ATOM     52  C   UNL     1      -5.679  -1.506   3.175  1.00  0.00     0.037 A 
ATOM     53  C   UNL     1      -1.092  -5.034   6.182  1.00  0.00     0.049 A 
ATOM     54  C   UNL     1      -5.772  -1.940   4.605  1.00  0.00     0.074 A 
ATOM     55  C   UNL     1      -0.686  -3.717   6.303  1.00  0.00     0.029 A 
ATOM     56  N   UNL     1      -2.430  -5.066   6.588  1.00  0.00    -0.354 N 
ATOM     57  N   UNL     1      -4.971  -2.841   5.109  1.00  0.00    -0.248 NA
ATOM     58  C   UNL     1      -6.633  -1.324   5.606  1.00  0.00     0.031 C 
ATOM     59  C   UNL     1      -1.828  -2.945   6.676  1.00  0.00     0.029 A 
ATOM     60  C   UNL     1      -2.916  -3.796   6.827  1.00  0.00     0.049 A 
ATOM     61  H   UNL     1      -2.959  -5.891   6.689  1.00  0.00     0.167 HD
ATOM     62  C   UNL     1      -5.104  -2.851   6.460  1.00  0.00     0.074 A 
ATOM     63  C   UNL     1      -6.197  -1.930   6.726  1.00  0.00     0.031 C 
ATOM     64  C   UNL     1      -4.294  -3.588   7.269  1.00  0.00     0.037 A 
BRANCH  51  65
ATOM     65  C   UNL     1       0.784  -6.865   5.933  1.00  0.00     0.057 A 
ATOM     66  C   UNL     1       1.420  -6.476   7.129  1.00  0.00     0.134 A 
ATOM     67  C   UNL     1       1.524  -7.796   5.172  1.00  0.00     0.134 A 
ATOM     68  F   UNL     1       0.866  -5.574   7.952  1.00  0.00    -0.206 F 
ATOM     69  C   UNL     1       2.666  -6.979   7.537  1.00  0.00     0.040 A 
ATOM     70  C   UNL     1       2.747  -8.342   5.592  1.00  0.00     0.040 A 
ATOM     71  F   UNL     1       1.145  -8.192   3.953  1.00  0.00    -0.206 F 
ATOM     72  C   UNL     1       3.329  -7.929   6.777  1.00  0.00     0.006 A 
ENDBRANCH  51  65
BRANCH  52  73
ATOM     73  C   UNL     1      -6.665  -1.616   2.061  1.00  0.00     0.057 A 
ATOM     74  C   UNL     1      -6.638  -0.593   1.089  1.00  0.00     0.134 A 
ATOM     75  C   UNL     1      -7.204  -2.843   1.657  1.00  0.00     0.134 A 
ATOM     76  F   UNL     1      -6.113   0.605   1.392  1.00  0.00    -0.206 F 
ATOM     77  C   UNL     1      -7.000  -0.815  -0.246  1.00  0.00     0.040 A 
ATOM     78  C   UNL     1      -7.567  -3.076   0.319  1.00  0.00     0.040 A 
ATOM     79  F   UNL     1      -7.246  -3.881   2.504  1.00  0.00    -0.206 F 
ATOM     80  C   UNL     1      -7.423  -2.077  -0.644  1.00  0.00     0.006 A 
ENDBRANCH  52  73
BRANCH  64  81
ATOM     81  C   UNL     1      -4.760  -4.124   8.591  1.00  0.00     0.057 A 
ATOM     82  C   UNL     1      -6.116  -4.330   8.896  1.00  0.00     0.134 A 
ATOM     83  C   UNL     1      -3.844  -4.649   9.523  1.00  0.00     0.134 A 
ATOM     84  F   UNL     1      -7.094  -3.996   8.042  1.00  0.00    -0.206 F 
ATOM     85  C   UNL     1      -6.534  -4.949  10.075  1.00  0.00     0.040 A 
ATOM     86  C   UNL     1      -4.250  -5.325  10.673  1.00  0.00     0.040 A 
ATOM     87  F   UNL     1      -2.518  -4.566   9.337  1.00  0.00    -0.206 F 
ATOM     88  C   UNL     1      -5.599  -5.462  10.963  1.00  0.00     0.006 A 
ENDBRANCH  64  81
ENDBRANCH  38  39
ENDBRANCH  31  33
ENDBRANCH  30  31
ENDBRANCH  29  30
ENDBRANCH  28  29
ENDBRANCH  27  28
ENDBRANCH   1  27
TORSDOF 17
