REMARK SMILES COc1cc(OC(F)(F)F)cc2c1O[C@@H](C(F)(F)F)C(C(=O)OCCOCCOC(=O)c1ccc(-c3c4nc(c(-c5c(F)cccc5F)c5ccc([nH]5)c(-c5c(F)cccc5F)c5nc(c(-c6c(F)cccc6F)c6ccc3[nH]6)C=C5)C=C4)cc1)=C2
REMARK SMILES IDX 26 1 25 2 24 3 23 4 21 5 22 6 20 7 3 8 4 9 13 10 5 11 12 12
REMARK SMILES IDX 14 13 11 14 86 15 15 16 2 17 1 18 6 19 7 20 8 21 9 22 10 23
REMARK SMILES IDX 16 24 17 25 18 26 19 27 27 28 28 29 29 30 30 31 31 32 32 33
REMARK SMILES IDX 33 34 85 35 34 36 84 37 35 38 36 39 37 40 78 41 38 42 83 43
REMARK SMILES IDX 77 44 79 45 39 46 82 47 76 48 75 49 40 51 66 52 49 53 65 54
REMARK SMILES IDX 50 55 53 56 64 57 80 58 51 59 52 60 63 62 81 63 54 64 41 65
REMARK SMILES IDX 42 66 47 67 43 68 44 69 46 70 48 71 45 72 67 73 68 74 73 75
REMARK SMILES IDX 69 76 70 77 72 78 74 79 71 80 55 81 56 82 61 83 57 84 58 85
REMARK SMILES IDX 60 86 62 87 59 88
REMARK H PARENT 79 50 53 61
REMARK Flexibility Score: inf
ROOT
ATOM      1  O   UNL     1       8.382   3.511   0.543  1.00  0.00    -0.374 OA
ENDROOT
BRANCH   1   2
ATOM      2  C   UNL     1       8.758   4.358  -0.540  1.00  0.00     0.202 C 
BRANCH   2   3
ATOM      3  C   UNL     1       8.212   3.994  -1.923  1.00  0.00     0.261 C 
BRANCH   3   4
ATOM      4  O   UNL     1       6.776   3.943  -1.929  1.00  0.00    -0.460 OA
BRANCH   4   5
ATOM      5  C   UNL     1       6.255   2.728  -2.218  1.00  0.00     0.338 C 
ATOM      6  O   UNL     1       6.869   1.749  -2.616  1.00  0.00    -0.246 OA
BRANCH   5   7
ATOM      7  C   UNL     1       4.825   2.677  -1.882  1.00  0.00     0.087 C 
ATOM      8  C   UNL     1       0.758   1.775  -1.674  1.00  0.00     0.165 A 
ATOM      9  C   UNL     1      -0.187   2.733  -2.048  1.00  0.00     0.097 A 
ATOM     10  C   UNL     1       2.120   2.081  -1.731  1.00  0.00     0.170 A 
ATOM     11  C   UNL     1       0.218   4.009  -2.444  1.00  0.00     0.134 A 
ATOM     12  C   UNL     1       2.543   3.356  -2.146  1.00  0.00     0.025 A 
ATOM     13  O   UNL     1       3.028   1.082  -1.482  1.00  0.00    -0.471 OA
ATOM     14  C   UNL     1       1.585   4.320  -2.475  1.00  0.00     0.059 A 
ATOM     15  C   UNL     1       3.973   3.596  -2.366  1.00  0.00     0.027 C 
ATOM     16  C   UNL     1       4.314   1.553  -1.013  1.00  0.00     0.316 C 
BRANCH   8  17
ATOM     17  O   UNL     1       0.260   0.535  -1.369  1.00  0.00    -0.493 OA
ATOM     18  C   UNL     1       0.665   0.059  -0.087  1.00  0.00     0.278 C 
ENDBRANCH   8  17
BRANCH  11  19
ATOM     19  O   UNL     1      -0.605   5.027  -2.837  1.00  0.00    -0.406 OA
BRANCH  19  20
ATOM     20  C   UNL     1      -1.962   4.705  -3.106  1.00  0.00     0.573 C 
ATOM     21  F   UNL     1      -2.058   3.716  -4.020  1.00  0.00    -0.132 F 
ATOM     22  F   UNL     1      -2.606   4.343  -1.976  1.00  0.00    -0.132 F 
ATOM     23  F   UNL     1      -2.575   5.800  -3.606  1.00  0.00    -0.132 F 
ENDBRANCH  19  20
ENDBRANCH  11  19
BRANCH  16  24
ATOM     24  C   UNL     1       5.218   0.337  -0.754  1.00  0.00     0.430 C 
ATOM     25  F   UNL     1       6.377   0.708  -0.161  1.00  0.00    -0.167 F 
ATOM     26  F   UNL     1       4.608  -0.508   0.122  1.00  0.00    -0.167 F 
ATOM     27  F   UNL     1       5.496  -0.376  -1.861  1.00  0.00    -0.167 F 
ENDBRANCH  16  24
ENDBRANCH   5   7
ENDBRANCH   4   5
ENDBRANCH   3   4
ENDBRANCH   2   3
ENDBRANCH   1   2
BRANCH   1  28
ATOM     28  C   UNL     1       7.066   3.645   1.077  1.00  0.00     0.202 C 
BRANCH  28  29
ATOM     29  C   UNL     1       6.771   4.892   1.921  1.00  0.00     0.261 C 
BRANCH  29  30
ATOM     30  O   UNL     1       6.782   6.097   1.136  1.00  0.00    -0.460 OA
BRANCH  30  31
ATOM     31  C   UNL     1       7.790   6.954   1.423  1.00  0.00     0.338 C 
ATOM     32  O   UNL     1       8.641   6.838   2.295  1.00  0.00    -0.246 OA
BRANCH  31  33
ATOM     33  C   UNL     1       7.851   8.009   0.398  1.00  0.00     0.060 A 
ATOM     34  C   UNL     1       9.061   8.193  -0.285  1.00  0.00     0.016 A 
ATOM     35  C   UNL     1       6.763   8.851   0.163  1.00  0.00     0.016 A 
ATOM     36  C   UNL     1       9.202   9.251  -1.180  1.00  0.00     0.010 A 
ATOM     37  C   UNL     1       6.910   9.918  -0.725  1.00  0.00     0.010 A 
ATOM     38  C   UNL     1       8.139  10.140  -1.375  1.00  0.00    -0.014 A 
BRANCH  38  39
ATOM     39  C   UNL     1       8.344  11.390  -2.142  1.00  0.00     0.031 A 
ATOM     40  C   UNL     1       8.566  12.671  -1.392  1.00  0.00     0.074 A 
ATOM     41  C   UNL     1       8.310  11.385  -3.485  1.00  0.00     0.049 A 
ATOM     42  N   UNL     1       8.646  13.896  -1.844  1.00  0.00    -0.248 NA
ATOM     43  C   UNL     1       8.706  12.554   0.068  1.00  0.00     0.031 C 
ATOM     44  C   UNL     1       8.139  10.199  -4.321  1.00  0.00     0.029 A 
ATOM     45  N   UNL     1       8.394  12.422  -4.378  1.00  0.00    -0.354 N 
ATOM     46  C   UNL     1       8.833  14.697  -0.725  1.00  0.00     0.074 A 
ATOM     47  C   UNL     1       8.825  13.823   0.429  1.00  0.00     0.031 C 
ATOM     48  C   UNL     1       8.101  10.579  -5.609  1.00  0.00     0.029 A 
ATOM     49  C   UNL     1       8.209  12.035  -5.681  1.00  0.00     0.049 A 
ATOM     50  H   UNL     1       8.569  13.354  -4.110  1.00  0.00     0.167 HD
ATOM     51  C   UNL     1       8.999  16.040  -0.665  1.00  0.00     0.037 A 
ATOM     52  C   UNL     1       8.103  12.777  -6.800  1.00  0.00     0.037 A 
ATOM     53  C   UNL     1       8.998  16.904  -1.817  1.00  0.00     0.049 A 
ATOM     54  C   UNL     1       8.224  14.274  -6.708  1.00  0.00     0.074 A 
ATOM     55  C   UNL     1       9.173  18.275  -1.868  1.00  0.00     0.029 A 
ATOM     56  N   UNL     1       8.801  16.476  -3.122  1.00  0.00    -0.354 N 
ATOM     57  N   UNL     1       8.415  15.025  -5.649  1.00  0.00    -0.248 NA
ATOM     58  C   UNL     1       8.117  15.027  -7.966  1.00  0.00     0.031 C 
ATOM     59  C   UNL     1       9.034  18.683  -3.200  1.00  0.00     0.029 A 
ATOM     60  C   UNL     1       8.826  17.559  -3.984  1.00  0.00     0.049 A 
ATOM     61  H   UNL     1       8.664  15.540  -3.395  1.00  0.00     0.167 HD
ATOM     62  C   UNL     1       8.477  16.333  -6.114  1.00  0.00     0.074 A 
ATOM     63  C   UNL     1       8.311  16.272  -7.552  1.00  0.00     0.031 C 
ATOM     64  C   UNL     1       8.661  17.480  -5.415  1.00  0.00     0.037 A 
BRANCH  51  65
ATOM     65  C   UNL     1       9.158  16.650   0.697  1.00  0.00     0.057 A 
ATOM     66  C   UNL     1      10.313  16.456   1.467  1.00  0.00     0.134 A 
ATOM     67  C   UNL     1       8.141  17.438   1.248  1.00  0.00     0.134 A 
ATOM     68  F   UNL     1      11.319  15.697   1.005  1.00  0.00    -0.206 F 
ATOM     69  C   UNL     1      10.435  16.995   2.749  1.00  0.00     0.040 A 
ATOM     70  C   UNL     1       8.263  18.006   2.517  1.00  0.00     0.040 A 
ATOM     71  F   UNL     1       7.009  17.667   0.564  1.00  0.00    -0.206 F 
ATOM     72  C   UNL     1       9.409  17.777   3.276  1.00  0.00     0.006 A 
ENDBRANCH  51  65
BRANCH  52  73
ATOM     73  C   UNL     1       7.851  12.109  -8.100  1.00  0.00     0.057 A 
ATOM     74  C   UNL     1       8.844  12.035  -9.082  1.00  0.00     0.134 A 
ATOM     75  C   UNL     1       6.615  11.514  -8.384  1.00  0.00     0.134 A 
ATOM     76  F   UNL     1      10.040  12.604  -8.876  1.00  0.00    -0.206 F 
ATOM     77  C   UNL     1       8.617  11.398 -10.303  1.00  0.00     0.040 A 
ATOM     78  C   UNL     1       6.381  10.855  -9.591  1.00  0.00     0.040 A 
ATOM     79  F   UNL     1       5.624  11.548  -7.481  1.00  0.00    -0.206 F 
ATOM     80  C   UNL     1       7.384  10.799 -10.557  1.00  0.00     0.006 A 
ENDBRANCH  52  73
BRANCH  64  81
ATOM     81  C   UNL     1       8.729  18.760  -6.196  1.00  0.00     0.057 A 
ATOM     82  C   UNL     1       7.591  19.339  -6.770  1.00  0.00     0.134 A 
ATOM     83  C   UNL     1       9.943  19.445  -6.334  1.00  0.00     0.134 A 
ATOM     84  F   UNL     1       6.399  18.728  -6.685  1.00  0.00    -0.206 F 
ATOM     85  C   UNL     1       7.662  20.545  -7.471  1.00  0.00     0.040 A 
ATOM     86  C   UNL     1      10.022  20.663  -7.010  1.00  0.00     0.040 A 
ATOM     87  F   UNL     1      11.069  18.948  -5.800  1.00  0.00    -0.206 F 
ATOM     88  C   UNL     1       8.880  21.214  -7.585  1.00  0.00     0.006 A 
ENDBRANCH  64  81
ENDBRANCH  38  39
ENDBRANCH  31  33
ENDBRANCH  30  31
ENDBRANCH  29  30
ENDBRANCH  28  29
ENDBRANCH   1  28
TORSDOF 18
