REMARK SMILES C[C@@H]1CN(C(=O)Nc2ccc(O)c(C(=O)OCCOCCOC(=O)c3ccc(-c4c5nc(c(-c6c(F)cccc6F)c6ccc([nH]6)c(-c6c(F)cccc6F)c6nc(c(-c7c(F)cccc7F)c7ccc4[nH]7)C=C6)C=C5)cc3)c2)C[C@@H]1C
REMARK SMILES IDX 19 1 18 2 17 3 16 4 14 5 15 6 13 7 8 8 9 9 79 10 10 11 11 12
REMARK SMILES IDX 7 13 5 14 6 15 4 17 1 18 2 19 3 20 81 21 80 22 82 23 12 24
REMARK SMILES IDX 20 26 21 27 22 28 23 29 24 30 25 31 26 32 78 33 27 34 77 35
REMARK SMILES IDX 28 36 29 37 30 38 71 39 31 40 76 41 70 42 72 43 32 44 75 45
REMARK SMILES IDX 69 46 68 47 33 49 59 50 42 51 58 52 43 53 46 54 57 55 73 56
REMARK SMILES IDX 44 57 45 58 56 60 74 61 47 62 34 63 35 64 40 65 36 66 37 67
REMARK SMILES IDX 39 68 41 69 38 70 60 71 61 72 66 73 62 74 63 75 65 76 67 77
REMARK SMILES IDX 64 78 48 79 49 80 54 81 50 82 51 83 53 84 55 85 52 86
REMARK H PARENT 7 16 12 25 72 48 46 59
REMARK Flexibility Score: inf
ROOT
ATOM      1  O   UNL     1      -6.703   1.827   4.622  1.00  0.00    -0.374 OA
ENDROOT
BRANCH   1   2
ATOM      2  C   UNL     1      -6.002   3.074   4.605  1.00  0.00     0.202 C 
BRANCH   2   3
ATOM      3  C   UNL     1      -4.477   2.970   4.536  1.00  0.00     0.261 C 
BRANCH   3   4
ATOM      4  O   UNL     1      -4.102   2.519   3.227  1.00  0.00    -0.460 OA
BRANCH   4   5
ATOM      5  C   UNL     1      -3.259   1.465   3.183  1.00  0.00     0.342 C 
ATOM      6  O   UNL     1      -2.627   0.996   4.119  1.00  0.00    -0.246 OA
BRANCH   5   7
ATOM      7  C   UNL     1      -3.382   0.779   1.878  1.00  0.00     0.103 A 
ATOM      8  C   UNL     1      -3.384  -1.342   0.728  1.00  0.00     0.044 A 
ATOM      9  C   UNL     1      -3.583  -0.692  -0.490  1.00  0.00     0.030 A 
ATOM     10  C   UNL     1      -3.364  -0.622   1.917  1.00  0.00     0.045 A 
ATOM     11  C   UNL     1      -3.641   0.703  -0.532  1.00  0.00     0.049 A 
ATOM     12  C   UNL     1      -3.503   1.438   0.647  1.00  0.00     0.130 A 
BRANCH   8  13
ATOM     13  N   UNL     1      -3.139  -2.711   0.780  1.00  0.00    -0.308 N 
ATOM     14  C   UNL     1      -2.076  -3.430   0.319  1.00  0.00     0.321 C 
ATOM     15  O   UNL     1      -2.153  -4.658   0.421  1.00  0.00    -0.248 OA
ATOM     16  H   UNL     1      -3.843  -3.243   1.217  1.00  0.00     0.171 HD
BRANCH  14  17
ATOM     17  N   UNL     1      -0.928  -2.819  -0.113  1.00  0.00    -0.324 N 
ATOM     18  C   UNL     1       1.544  -0.050  -0.212  1.00  0.00     0.010 C 
ATOM     19  C   UNL     1       0.877  -1.349  -0.638  1.00  0.00     0.010 C 
ATOM     20  C   UNL     1      -0.594  -1.404  -0.226  1.00  0.00     0.125 C 
ATOM     21  C   UNL     1       1.438  -2.663  -0.072  1.00  0.00     0.010 C 
ATOM     22  C   UNL     1       0.266  -3.620  -0.337  1.00  0.00     0.125 C 
ATOM     23  C   UNL     1       1.806  -2.614   1.415  1.00  0.00     0.010 C 
ENDBRANCH  14  17
ENDBRANCH   8  13
BRANCH  12  24
ATOM     24  O   UNL     1      -3.447   2.801   0.578  1.00  0.00    -0.507 OA
ATOM     25  H   UNL     1      -3.529   3.231  -0.250  1.00  0.00     0.293 HD
ENDBRANCH  12  24
ENDBRANCH   5   7
ENDBRANCH   4   5
ENDBRANCH   3   4
ENDBRANCH   2   3
ENDBRANCH   1   2
BRANCH   1  26
ATOM     26  C   UNL     1      -6.821   1.125   3.384  1.00  0.00     0.202 C 
BRANCH  26  27
ATOM     27  C   UNL     1      -7.938   1.593   2.444  1.00  0.00     0.261 C 
BRANCH  27  28
ATOM     28  O   UNL     1      -7.719   2.926   1.954  1.00  0.00    -0.460 OA
BRANCH  28  29
ATOM     29  C   UNL     1      -8.523   3.869   2.497  1.00  0.00     0.338 C 
ATOM     30  O   UNL     1      -9.443   3.697   3.286  1.00  0.00    -0.246 OA
BRANCH  29  31
ATOM     31  C   UNL     1      -8.046   5.213   2.129  1.00  0.00     0.060 A 
ATOM     32  C   UNL     1      -7.848   6.137   3.163  1.00  0.00     0.016 A 
ATOM     33  C   UNL     1      -7.872   5.590   0.795  1.00  0.00     0.016 A 
ATOM     34  C   UNL     1      -7.520   7.458   2.865  1.00  0.00     0.010 A 
ATOM     35  C   UNL     1      -7.552   6.918   0.498  1.00  0.00     0.010 A 
ATOM     36  C   UNL     1      -7.408   7.865   1.530  1.00  0.00    -0.014 A 
BRANCH  36  37
ATOM     37  C   UNL     1      -7.288   9.306   1.207  1.00  0.00     0.031 A 
ATOM     38  C   UNL     1      -8.516  10.062   0.782  1.00  0.00     0.074 A 
ATOM     39  C   UNL     1      -6.105   9.937   1.304  1.00  0.00     0.049 A 
ATOM     40  N   UNL     1      -8.632  11.305   0.390  1.00  0.00    -0.248 NA
ATOM     41  C   UNL     1      -9.783   9.314   0.798  1.00  0.00     0.031 C 
ATOM     42  C   UNL     1      -4.854   9.325   1.746  1.00  0.00     0.029 A 
ATOM     43  N   UNL     1      -5.766  11.237   1.024  1.00  0.00    -0.354 N 
ATOM     44  C   UNL     1      -9.979  11.486   0.105  1.00  0.00     0.074 A 
ATOM     45  C   UNL     1     -10.637  10.219   0.343  1.00  0.00     0.031 C 
ATOM     46  C   UNL     1      -3.877  10.247   1.693  1.00  0.00     0.029 A 
ATOM     47  C   UNL     1      -4.428  11.501   1.185  1.00  0.00     0.049 A 
ATOM     48  H   UNL     1      -6.419  11.915   0.737  1.00  0.00     0.167 HD
ATOM     49  C   UNL     1     -10.613  12.608  -0.311  1.00  0.00     0.037 A 
ATOM     50  C   UNL     1      -3.727  12.622   0.925  1.00  0.00     0.037 A 
ATOM     51  C   UNL     1      -9.958  13.868  -0.543  1.00  0.00     0.049 A 
ATOM     52  C   UNL     1      -4.442  13.838   0.398  1.00  0.00     0.074 A 
ATOM     53  C   UNL     1     -10.516  15.068  -0.950  1.00  0.00     0.029 A 
ATOM     54  N   UNL     1      -8.598  14.090  -0.392  1.00  0.00    -0.354 N 
ATOM     55  N   UNL     1      -5.718  14.003   0.145  1.00  0.00    -0.248 NA
ATOM     56  C   UNL     1      -3.618  15.023   0.120  1.00  0.00     0.031 C 
ATOM     57  C   UNL     1      -9.486  16.004  -1.089  1.00  0.00     0.029 A 
ATOM     58  C   UNL     1      -8.294  15.401  -0.720  1.00  0.00     0.049 A 
ATOM     59  H   UNL     1      -7.945  13.415  -0.095  1.00  0.00     0.167 HD
ATOM     60  C   UNL     1      -5.854  15.316  -0.289  1.00  0.00     0.074 A 
ATOM     61  C   UNL     1      -4.532  15.905  -0.259  1.00  0.00     0.031 C 
ATOM     62  C   UNL     1      -6.974  15.976  -0.674  1.00  0.00     0.037 A 
BRANCH  49  63
ATOM     63  C   UNL     1     -12.088  12.514  -0.565  1.00  0.00     0.057 A 
ATOM     64  C   UNL     1     -13.015  12.407   0.480  1.00  0.00     0.134 A 
ATOM     65  C   UNL     1     -12.590  12.562  -1.872  1.00  0.00     0.134 A 
ATOM     66  F   UNL     1     -12.598  12.342   1.753  1.00  0.00    -0.206 F 
ATOM     67  C   UNL     1     -14.387  12.330   0.233  1.00  0.00     0.040 A 
ATOM     68  C   UNL     1     -13.960  12.510  -2.130  1.00  0.00     0.040 A 
ATOM     69  F   UNL     1     -11.756  12.667  -2.918  1.00  0.00    -0.206 F 
ATOM     70  C   UNL     1     -14.863  12.388  -1.076  1.00  0.00     0.006 A 
ENDBRANCH  49  63
BRANCH  50  71
ATOM     71  C   UNL     1      -2.259  12.646   1.146  1.00  0.00     0.057 A 
ATOM     72  C   UNL     1      -1.692  13.413   2.170  1.00  0.00     0.134 A 
ATOM     73  C   UNL     1      -1.388  11.920   0.325  1.00  0.00     0.134 A 
ATOM     74  F   UNL     1      -2.474  14.150   2.973  1.00  0.00    -0.206 F 
ATOM     75  C   UNL     1      -0.311  13.470   2.361  1.00  0.00     0.040 A 
ATOM     76  C   UNL     1      -0.006  11.948   0.519  1.00  0.00     0.040 A 
ATOM     77  F   UNL     1      -1.869  11.166  -0.674  1.00  0.00    -0.206 F 
ATOM     78  C   UNL     1       0.536  12.731   1.536  1.00  0.00     0.006 A 
ENDBRANCH  50  71
BRANCH  62  79
ATOM     79  C   UNL     1      -6.829  17.421  -1.052  1.00  0.00     0.057 A 
ATOM     80  C   UNL     1      -6.235  17.816  -2.257  1.00  0.00     0.134 A 
ATOM     81  C   UNL     1      -7.332  18.427  -0.217  1.00  0.00     0.134 A 
ATOM     82  F   UNL     1      -5.723  16.901  -3.094  1.00  0.00    -0.206 F 
ATOM     83  C   UNL     1      -6.131  19.163  -2.610  1.00  0.00     0.040 A 
ATOM     84  C   UNL     1      -7.256  19.775  -0.571  1.00  0.00     0.040 A 
ATOM     85  F   UNL     1      -7.921  18.116   0.947  1.00  0.00    -0.206 F 
ATOM     86  C   UNL     1      -6.649  20.146  -1.769  1.00  0.00     0.006 A 
ENDBRANCH  62  79
ENDBRANCH  36  37
ENDBRANCH  29  31
ENDBRANCH  28  29
ENDBRANCH  27  28
ENDBRANCH  26  27
ENDBRANCH   1  26
TORSDOF 17
