REMARK SMILES CC[C@H](C(=O)OCCOCCOC(=O)c1ccc(-c2c3nc(c(-c4c(F)cccc4F)c4ccc([nH]4)c(-c4c(F)cccc4F)c4nc(c(-c5c(F)cccc5F)c5ccc2[nH]5)C=C4)C=C3)cc1)N1C(=O)/C(=C\c2cccs2)SC1=S
REMARK SMILES IDX 9 1 8 2 7 3 6 4 4 5 5 6 3 7 2 8 1 9 69 10 70 11 80 12 71 13
REMARK SMILES IDX 72 14 79 15 81 16 73 17 74 18 75 19 78 20 76 21 77 22 10 23
REMARK SMILES IDX 11 24 12 25 13 26 14 27 15 28 16 29 68 30 17 31 67 32 18 33
REMARK SMILES IDX 19 34 20 35 61 36 21 37 66 38 60 39 62 40 22 41 65 42 59 43
REMARK SMILES IDX 58 44 23 46 49 47 32 48 48 49 33 50 36 51 47 52 63 53 34 54
REMARK SMILES IDX 35 55 46 57 64 58 37 59 24 60 25 61 30 62 26 63 27 64 29 65
REMARK SMILES IDX 31 66 28 67 50 68 51 69 56 70 52 71 53 72 55 73 57 74 54 75
REMARK SMILES IDX 38 76 39 77 44 78 40 79 41 80 43 81 45 82 42 83
REMARK H PARENT 62 45 36 56
REMARK Flexibility Score: inf
ROOT
ATOM      1  O   UNL     1       0.959  -1.312   1.677  1.00  0.00    -0.374 OA
ENDROOT
BRANCH   1   2
ATOM      2  C   UNL     1      -0.446  -1.087   1.623  1.00  0.00     0.202 C 
BRANCH   2   3
ATOM      3  C   UNL     1      -0.901   0.371   1.656  1.00  0.00     0.261 C 
BRANCH   3   4
ATOM      4  O   UNL     1      -0.393   1.132   0.549  1.00  0.00    -0.462 OA
BRANCH   4   5
ATOM      5  C   UNL     1       0.517   2.089   0.873  1.00  0.00     0.329 C 
ATOM      6  O   UNL     1       1.018   2.236   1.985  1.00  0.00    -0.250 OA
BRANCH   5   7
ATOM      7  C   UNL     1       0.802   3.063  -0.281  1.00  0.00     0.201 C 
BRANCH   7   8
ATOM      8  C   UNL     1       0.152   2.791  -1.643  1.00  0.00     0.034 C 
ATOM      9  C   UNL     1       0.884   1.701  -2.419  1.00  0.00     0.007 C 
ENDBRANCH   7   8
BRANCH   7  10
ATOM     10  N   UNL     1       0.467   4.398   0.253  1.00  0.00    -0.278 N 
ATOM     11  C   UNL     1      -0.766   4.570   0.858  1.00  0.00     0.267 C 
ATOM     12  C   UNL     1       1.262   5.518   0.176  1.00  0.00     0.149 C 
ATOM     13  O   UNL     1      -1.717   3.810   0.760  1.00  0.00    -0.268 OA
ATOM     14  C   UNL     1      -0.757   5.827   1.644  1.00  0.00     0.081 C 
ATOM     15  S   UNL     1       0.484   6.854   1.032  1.00  0.00    -0.054 SA
ATOM     16  S   UNL     1       2.730   5.687  -0.595  1.00  0.00    -0.052 S 
ATOM     17  C   UNL     1      -1.465   6.082   2.751  1.00  0.00     0.040 C 
BRANCH  17  18
ATOM     18  C   UNL     1      -2.253   5.087   3.394  1.00  0.00     0.028 A 
ATOM     19  C   UNL     1      -1.833   3.920   4.013  1.00  0.00     0.020 A 
ATOM     20  S   UNL     1      -3.955   5.266   3.517  1.00  0.00    -0.144 S 
ATOM     21  C   UNL     1      -2.911   3.163   4.556  1.00  0.00     0.012 A 
ATOM     22  C   UNL     1      -4.123   3.775   4.340  1.00  0.00     0.065 A 
ENDBRANCH  17  18
ENDBRANCH   7  10
ENDBRANCH   5   7
ENDBRANCH   4   5
ENDBRANCH   3   4
ENDBRANCH   2   3
ENDBRANCH   1   2
BRANCH   1  23
ATOM     23  C   UNL     1       1.718  -1.074   0.491  1.00  0.00     0.202 C 
BRANCH  23  24
ATOM     24  C   UNL     1       1.512  -2.063  -0.663  1.00  0.00     0.261 C 
BRANCH  24  25
ATOM     25  O   UNL     1       0.216  -1.915  -1.278  1.00  0.00    -0.460 OA
BRANCH  25  26
ATOM     26  C   UNL     1      -0.554  -3.028  -1.270  1.00  0.00     0.338 C 
ATOM     27  O   UNL     1      -0.242  -4.143  -0.869  1.00  0.00    -0.246 OA
BRANCH  26  28
ATOM     28  C   UNL     1      -1.935  -2.697  -1.659  1.00  0.00     0.060 A 
ATOM     29  C   UNL     1      -2.956  -2.981  -0.743  1.00  0.00     0.016 A 
ATOM     30  C   UNL     1      -2.240  -2.208  -2.931  1.00  0.00     0.016 A 
ATOM     31  C   UNL     1      -4.290  -2.806  -1.107  1.00  0.00     0.010 A 
ATOM     32  C   UNL     1      -3.581  -2.044  -3.298  1.00  0.00     0.010 A 
ATOM     33  C   UNL     1      -4.613  -2.367  -2.398  1.00  0.00    -0.014 A 
BRANCH  33  34
ATOM     34  C   UNL     1      -6.031  -2.341  -2.832  1.00  0.00     0.031 A 
ATOM     35  C   UNL     1      -6.577  -3.475  -3.654  1.00  0.00     0.074 A 
ATOM     36  C   UNL     1      -6.835  -1.325  -2.472  1.00  0.00     0.049 A 
ATOM     37  N   UNL     1      -7.774  -3.630  -4.161  1.00  0.00    -0.248 NA
ATOM     38  C   UNL     1      -5.652  -4.582  -3.941  1.00  0.00     0.031 C 
ATOM     39  C   UNL     1      -6.439  -0.188  -1.643  1.00  0.00     0.029 A 
ATOM     40  N   UNL     1      -8.154  -1.084  -2.767  1.00  0.00    -0.354 N 
ATOM     41  C   UNL     1      -7.748  -4.850  -4.825  1.00  0.00     0.074 A 
ATOM     42  C   UNL     1      -6.409  -5.381  -4.681  1.00  0.00     0.031 C 
ATOM     43  C   UNL     1      -7.490   0.637  -1.504  1.00  0.00     0.029 A 
ATOM     44  C   UNL     1      -8.621   0.104  -2.262  1.00  0.00     0.049 A 
ATOM     45  H   UNL     1      -8.711  -1.704  -3.290  1.00  0.00     0.167 HD
ATOM     46  C   UNL     1      -8.751  -5.474  -5.488  1.00  0.00     0.037 A 
ATOM     47  C   UNL     1      -9.817   0.705  -2.415  1.00  0.00     0.037 A 
ATOM     48  C   UNL     1     -10.083  -4.946  -5.635  1.00  0.00     0.049 A 
ATOM     49  C   UNL     1     -10.886   0.035  -3.235  1.00  0.00     0.074 A 
ATOM     50  C   UNL     1     -11.174  -5.519  -6.266  1.00  0.00     0.029 A 
ATOM     51  N   UNL     1     -10.501  -3.714  -5.157  1.00  0.00    -0.354 N 
ATOM     52  N   UNL     1     -10.860  -1.130  -3.836  1.00  0.00    -0.248 NA
ATOM     53  C   UNL     1     -12.150   0.767  -3.403  1.00  0.00     0.031 C 
ATOM     54  C   UNL     1     -12.237  -4.612  -6.213  1.00  0.00     0.029 A 
ATOM     55  C   UNL     1     -11.823  -3.493  -5.509  1.00  0.00     0.049 A 
ATOM     56  H   UNL     1      -9.941  -3.088  -4.643  1.00  0.00     0.167 HD
ATOM     57  C   UNL     1     -12.104  -1.278  -4.436  1.00  0.00     0.074 A 
ATOM     58  C   UNL     1     -12.868  -0.092  -4.112  1.00  0.00     0.031 C 
ATOM     59  C   UNL     1     -12.571  -2.305  -5.189  1.00  0.00     0.037 A 
BRANCH  46  60
ATOM     60  C   UNL     1      -8.441  -6.794  -6.129  1.00  0.00     0.057 A 
ATOM     61  C   UNL     1      -8.266  -7.960  -5.373  1.00  0.00     0.134 A 
ATOM     62  C   UNL     1      -8.358  -6.908  -7.523  1.00  0.00     0.134 A 
ATOM     63  F   UNL     1      -8.321  -7.917  -4.034  1.00  0.00    -0.206 F 
ATOM     64  C   UNL     1      -8.002  -9.190  -5.980  1.00  0.00     0.040 A 
ATOM     65  C   UNL     1      -8.118  -8.135  -8.142  1.00  0.00     0.040 A 
ATOM     66  F   UNL     1      -8.521  -5.830  -8.305  1.00  0.00    -0.206 F 
ATOM     67  C   UNL     1      -7.934  -9.280  -7.370  1.00  0.00     0.006 A 
ENDBRANCH  46  60
BRANCH  47  68
ATOM     68  C   UNL     1     -10.061   2.034  -1.802  1.00  0.00     0.057 A 
ATOM     69  C   UNL     1     -10.957   2.190  -0.739  1.00  0.00     0.134 A 
ATOM     70  C   UNL     1      -9.418   3.183  -2.279  1.00  0.00     0.134 A 
ATOM     71  F   UNL     1     -11.623   1.130  -0.257  1.00  0.00    -0.206 F 
ATOM     72  C   UNL     1     -11.216   3.442  -0.179  1.00  0.00     0.040 A 
ATOM     73  C   UNL     1      -9.648   4.438  -1.713  1.00  0.00     0.040 A 
ATOM     74  F   UNL     1      -8.552   3.100  -3.299  1.00  0.00    -0.206 F 
ATOM     75  C   UNL     1     -10.555   4.570  -0.663  1.00  0.00     0.006 A 
ENDBRANCH  47  68
BRANCH  59  76
ATOM     76  C   UNL     1     -13.977  -2.196  -5.703  1.00  0.00     0.057 A 
ATOM     77  C   UNL     1     -14.314  -1.321  -6.743  1.00  0.00     0.134 A 
ATOM     78  C   UNL     1     -14.996  -3.001  -5.179  1.00  0.00     0.134 A 
ATOM     79  F   UNL     1     -13.386  -0.513  -7.280  1.00  0.00    -0.206 F 
ATOM     80  C   UNL     1     -15.620  -1.235  -7.230  1.00  0.00     0.040 A 
ATOM     81  C   UNL     1     -16.300  -2.942  -5.674  1.00  0.00     0.040 A 
ATOM     82  F   UNL     1     -14.740  -3.866  -4.187  1.00  0.00    -0.206 F 
ATOM     83  C   UNL     1     -16.616  -2.052  -6.699  1.00  0.00     0.006 A 
ENDBRANCH  59  76
ENDBRANCH  33  34
ENDBRANCH  26  28
ENDBRANCH  25  26
ENDBRANCH  24  25
ENDBRANCH  23  24
ENDBRANCH   1  23
TORSDOF 17
