REMARK SMILES O=C(OCCOCCOC(=O)c1ccc(N2C(=O)/C(=C/C3=c4ccccc4=NC3)SC2=S)cc1O)c1ccc(-c2c3nc(c(-c4c(F)cccc4F)c4ccc([nH]4)c(-c4c(F)cccc4F)c4nc(c(-c5c(F)cccc5F)c5ccc2[nH]5)C=C4)C=C3)cc1
REMARK SMILES IDX 6 1 5 2 4 3 3 4 2 5 1 6 36 7 37 8 89 9 38 10 88 11 39 12
REMARK SMILES IDX 40 13 41 14 82 15 42 16 87 17 81 18 83 19 43 20 86 21 80 22
REMARK SMILES IDX 79 23 44 25 70 26 53 27 69 28 54 29 57 30 68 31 84 32 55 33
REMARK SMILES IDX 56 34 67 36 85 37 58 38 45 39 46 40 51 41 47 42 48 43 50 44
REMARK SMILES IDX 52 45 49 46 71 47 72 48 77 49 73 50 74 51 76 52 78 53 75 54
REMARK SMILES IDX 59 55 60 56 65 57 61 58 62 59 64 60 66 61 63 62 7 63 8 64
REMARK SMILES IDX 9 65 10 66 11 67 12 68 13 69 34 70 14 71 33 72 15 73 35 74
REMARK SMILES IDX 16 76 17 77 31 78 18 79 19 80 30 81 32 82 20 83 21 84 22 85
REMARK SMILES IDX 29 86 23 87 27 88 28 89 24 90 26 91 25 92
REMARK H PARENT 83 24 57 35 35 75
REMARK Flexibility Score: inf
ROOT
ATOM      1  O   UNL     1       4.405   0.837   1.167  1.00  0.00    -0.374 OA
ENDROOT
BRANCH   1   2
ATOM      2  C   UNL     1       4.696   1.201  -0.178  1.00  0.00     0.202 C 
BRANCH   2   3
ATOM      3  C   UNL     1       4.294   0.242  -1.299  1.00  0.00     0.261 C 
BRANCH   3   4
ATOM      4  O   UNL     1       2.939  -0.215  -1.222  1.00  0.00    -0.460 OA
BRANCH   4   5
ATOM      5  C   UNL     1       2.527  -1.391  -0.685  1.00  0.00     0.338 C 
ATOM      6  O   UNL     1       1.478  -1.899  -1.072  1.00  0.00    -0.246 OA
BRANCH   5   7
ATOM      7  C   UNL     1       3.189  -1.952   0.528  1.00  0.00     0.060 A 
ATOM      8  C   UNL     1       2.346  -2.518   1.502  1.00  0.00     0.016 A 
ATOM      9  C   UNL     1       4.564  -1.940   0.766  1.00  0.00     0.016 A 
ATOM     10  C   UNL     1       2.868  -3.001   2.705  1.00  0.00     0.010 A 
ATOM     11  C   UNL     1       5.080  -2.329   1.993  1.00  0.00     0.010 A 
ATOM     12  C   UNL     1       4.239  -2.886   2.955  1.00  0.00    -0.014 A 
BRANCH  12  13
ATOM     13  C   UNL     1       4.888  -3.579   4.076  1.00  0.00     0.031 A 
ATOM     14  C   UNL     1       5.192  -2.893   5.363  1.00  0.00     0.074 A 
ATOM     15  C   UNL     1       5.346  -4.814   3.808  1.00  0.00     0.049 A 
ATOM     16  N   UNL     1       5.684  -3.404   6.460  1.00  0.00    -0.248 NA
ATOM     17  C   UNL     1       4.938  -1.447   5.424  1.00  0.00     0.031 C 
ATOM     18  C   UNL     1       5.200  -5.500   2.518  1.00  0.00     0.029 A 
ATOM     19  N   UNL     1       6.053  -5.691   4.576  1.00  0.00    -0.354 N 
ATOM     20  C   UNL     1       5.763  -2.353   7.363  1.00  0.00     0.074 A 
ATOM     21  C   UNL     1       5.326  -1.162   6.662  1.00  0.00     0.031 C 
ATOM     22  C   UNL     1       5.803  -6.694   2.586  1.00  0.00     0.029 A 
ATOM     23  C   UNL     1       6.347  -6.861   3.925  1.00  0.00     0.049 A 
ATOM     24  H   UNL     1       6.324  -5.503   5.504  1.00  0.00     0.167 HD
ATOM     25  C   UNL     1       6.157  -2.402   8.659  1.00  0.00     0.037 A 
ATOM     26  C   UNL     1       6.957  -7.964   4.382  1.00  0.00     0.037 A 
ATOM     27  C   UNL     1       6.655  -3.602   9.292  1.00  0.00     0.049 A 
ATOM     28  C   UNL     1       7.363  -7.997   5.822  1.00  0.00     0.074 A 
ATOM     29  C   UNL     1       7.000  -3.810  10.616  1.00  0.00     0.029 A 
ATOM     30  N   UNL     1       6.918  -4.793   8.623  1.00  0.00    -0.354 N 
ATOM     31  N   UNL     1       7.258  -7.060   6.734  1.00  0.00    -0.248 NA
ATOM     32  C   UNL     1       7.934  -9.257   6.303  1.00  0.00     0.031 C 
ATOM     33  C   UNL     1       7.532  -5.101  10.733  1.00  0.00     0.029 A 
ATOM     34  C   UNL     1       7.458  -5.725   9.497  1.00  0.00     0.049 A 
ATOM     35  H   UNL     1       6.746  -4.952   7.667  1.00  0.00     0.167 HD
ATOM     36  C   UNL     1       7.721  -7.627   7.911  1.00  0.00     0.074 A 
ATOM     37  C   UNL     1       8.075  -8.998   7.594  1.00  0.00     0.031 C 
ATOM     38  C   UNL     1       7.840  -7.071   9.144  1.00  0.00     0.037 A 
BRANCH  25  39
ATOM     39  C   UNL     1       6.063  -1.138   9.468  1.00  0.00     0.057 A 
ATOM     40  C   UNL     1       7.210  -0.521   9.985  1.00  0.00     0.134 A 
ATOM     41  C   UNL     1       4.827  -0.551   9.779  1.00  0.00     0.134 A 
ATOM     42  F   UNL     1       8.427  -1.028   9.740  1.00  0.00    -0.206 F 
ATOM     43  C   UNL     1       7.131   0.628  10.777  1.00  0.00     0.040 A 
ATOM     44  C   UNL     1       4.737   0.613  10.547  1.00  0.00     0.040 A 
ATOM     45  F   UNL     1       3.685  -1.085   9.320  1.00  0.00    -0.206 F 
ATOM     46  C   UNL     1       5.893   1.203  11.054  1.00  0.00     0.006 A 
ENDBRANCH  25  39
BRANCH  26  47
ATOM     47  C   UNL     1       7.082  -9.149   3.504  1.00  0.00     0.057 A 
ATOM     48  C   UNL     1       7.961  -9.174   2.416  1.00  0.00     0.134 A 
ATOM     49  C   UNL     1       6.283 -10.277   3.719  1.00  0.00     0.134 A 
ATOM     50  F   UNL     1       8.727  -8.109   2.138  1.00  0.00    -0.206 F 
ATOM     51  C   UNL     1       8.048 -10.286   1.578  1.00  0.00     0.040 A 
ATOM     52  C   UNL     1       6.377 -11.405   2.906  1.00  0.00     0.040 A 
ATOM     53  F   UNL     1       5.416 -10.304   4.742  1.00  0.00    -0.206 F 
ATOM     54  C   UNL     1       7.261 -11.409   1.829  1.00  0.00     0.006 A 
ENDBRANCH  26  47
BRANCH  38  55
ATOM     55  C   UNL     1       8.373  -7.976  10.218  1.00  0.00     0.057 A 
ATOM     56  C   UNL     1       7.538  -8.427  11.248  1.00  0.00     0.134 A 
ATOM     57  C   UNL     1       9.691  -8.452  10.199  1.00  0.00     0.134 A 
ATOM     58  F   UNL     1       6.268  -8.004  11.333  1.00  0.00    -0.206 F 
ATOM     59  C   UNL     1       7.988  -9.338  12.204  1.00  0.00     0.040 A 
ATOM     60  C   UNL     1      10.140  -9.394  11.125  1.00  0.00     0.040 A 
ATOM     61  F   UNL     1      10.537  -8.074   9.228  1.00  0.00    -0.206 F 
ATOM     62  C   UNL     1       9.286  -9.839  12.132  1.00  0.00     0.006 A 
ENDBRANCH  38  55
ENDBRANCH  12  13
ENDBRANCH   5   7
ENDBRANCH   4   5
ENDBRANCH   3   4
ENDBRANCH   2   3
ENDBRANCH   1   2
BRANCH   1  63
ATOM     63  C   UNL     1       3.117   1.235   1.648  1.00  0.00     0.202 C 
BRANCH  63  64
ATOM     64  C   UNL     1       3.044   2.670   2.188  1.00  0.00     0.261 C 
BRANCH  64  65
ATOM     65  O   UNL     1       3.360   3.636   1.176  1.00  0.00    -0.460 OA
BRANCH  65  66
ATOM     66  C   UNL     1       4.636   4.106   1.196  1.00  0.00     0.341 C 
ATOM     67  O   UNL     1       5.507   3.852   2.002  1.00  0.00    -0.246 OA
BRANCH  66  68
ATOM     68  C   UNL     1       4.900   4.781  -0.092  1.00  0.00     0.101 A 
ATOM     69  C   UNL     1       5.922   4.261  -0.901  1.00  0.00     0.022 A 
ATOM     70  C   UNL     1       4.169   5.885  -0.518  1.00  0.00     0.132 A 
ATOM     71  C   UNL     1       6.197   4.827  -2.145  1.00  0.00     0.028 A 
ATOM     72  C   UNL     1       4.485   6.495  -1.732  1.00  0.00     0.073 A 
ATOM     73  C   UNL     1       5.519   5.983  -2.537  1.00  0.00     0.054 A 
BRANCH  70  74
ATOM     74  O   UNL     1       3.177   6.397   0.268  1.00  0.00    -0.507 OA
ATOM     75  H   UNL     1       2.966   5.985   1.083  1.00  0.00     0.293 HD
ENDBRANCH  70  74
BRANCH  73  76
ATOM     76  N   UNL     1       5.957   6.698  -3.682  1.00  0.00    -0.261 N 
ATOM     77  C   UNL     1       6.006   6.081  -4.927  1.00  0.00     0.270 C 
ATOM     78  C   UNL     1       6.444   7.997  -3.608  1.00  0.00     0.152 C 
ATOM     79  O   UNL     1       5.683   4.931  -5.200  1.00  0.00    -0.268 OA
ATOM     80  C   UNL     1       6.503   7.048  -5.948  1.00  0.00     0.081 C 
ATOM     81  S   UNL     1       6.876   8.554  -5.213  1.00  0.00    -0.054 SA
ATOM     82  S   UNL     1       6.720   8.956  -2.264  1.00  0.00    -0.051 S 
ATOM     83  C   UNL     1       6.572   6.753  -7.253  1.00  0.00     0.027 C 
BRANCH  83  84
ATOM     84  C   UNL     1       7.026   7.635  -8.303  1.00  0.00    -0.016 C 
ATOM     85  C   UNL     1       6.314   8.047  -9.349  1.00  0.00     0.005 A 
ATOM     86  C   UNL     1       8.418   8.205  -8.359  1.00  0.00     0.179 C 
ATOM     87  C   UNL     1       4.977   7.847  -9.812  1.00  0.00     0.011 A 
ATOM     88  C   UNL     1       7.267   8.902 -10.078  1.00  0.00     0.065 A 
ATOM     89  N   UNL     1       8.464   9.029  -9.593  1.00  0.00    -0.280 NA
ATOM     90  C   UNL     1       4.589   8.463 -10.941  1.00  0.00     0.001 A 
ATOM     91  C   UNL     1       6.764   9.544 -11.311  1.00  0.00     0.028 A 
ATOM     92  C   UNL     1       5.496   9.317 -11.691  1.00  0.00     0.002 A 
ENDBRANCH  83  84
ENDBRANCH  73  76
ENDBRANCH  66  68
ENDBRANCH  65  66
ENDBRANCH  64  65
ENDBRANCH  63  64
ENDBRANCH   1  63
TORSDOF 17
