REMARK SMILES [NH3+][C@]1(C(=O)OCCOCCOC(=O)c2ccc(-c3c4nc(c(-c5c(F)cccc5F)c5ccc([nH]5)c(-c5c(F)cccc5F)c5nc(c(-c6c(F)cccc6F)c6ccc3[nH]6)C=C5)C=C4)cc2)CC[C@@H]([NH+]2CCC(C(F)(F)F)CC2)C1
REMARK SMILES IDX 8 1 7 2 6 3 5 4 3 5 4 6 2 7 68 8 81 9 69 10 70 11 1 12 71 16
REMARK SMILES IDX 72 17 80 18 73 20 79 21 74 22 75 23 76 24 77 25 78 26 9 27
REMARK SMILES IDX 10 28 11 29 12 30 13 31 14 32 15 33 67 34 16 35 66 36 17 37
REMARK SMILES IDX 18 38 19 39 60 40 20 41 65 42 59 43 61 44 21 45 64 46 58 47
REMARK SMILES IDX 57 48 22 50 48 51 31 52 47 53 32 54 35 55 46 56 62 57 33 58
REMARK SMILES IDX 34 59 45 61 63 62 36 63 23 64 24 65 29 66 25 67 26 68 28 69
REMARK SMILES IDX 30 70 27 71 49 72 50 73 55 74 51 75 52 76 54 77 56 78 53 79
REMARK SMILES IDX 37 80 38 81 43 82 39 83 40 84 42 85 44 86 41 87
REMARK H PARENT 1 13 1 14 1 15 71 19 61 49 35 60
REMARK Flexibility Score: inf
ROOT
ATOM      1  O   UNL     1       1.366   2.395   1.554  1.00  0.00    -0.374 OA
ENDROOT
BRANCH   1   2
ATOM      2  C   UNL     1       2.243   1.452   2.161  1.00  0.00     0.202 C 
BRANCH   2   3
ATOM      3  C   UNL     1       1.934  -0.036   1.970  1.00  0.00     0.261 C 
BRANCH   3   4
ATOM      4  O   UNL     1       1.816  -0.415   0.588  1.00  0.00    -0.459 OA
BRANCH   4   5
ATOM      5  C   UNL     1       0.543  -0.732   0.202  1.00  0.00     0.368 C 
ATOM      6  O   UNL     1      -0.405  -0.772   0.976  1.00  0.00    -0.245 OA
BRANCH   5   7
ATOM      7  C   UNL     1       0.432  -1.017  -1.318  1.00  0.00     0.198 C 
ATOM      8  C   UNL     1       0.340  -2.526  -1.569  1.00  0.00     0.087 C 
ATOM      9  C   UNL     1      -0.881  -0.410  -1.873  1.00  0.00     0.145 C 
ATOM     10  C   UNL     1      -0.723  -2.692  -2.648  1.00  0.00     0.072 C 
ATOM     11  C   UNL     1      -1.743  -1.569  -2.415  1.00  0.00     0.191 C 
BRANCH   7  12
ATOM     12  N   UNL     1       1.588  -0.477  -2.082  1.00  0.00    -0.343 N 
ATOM     13  H   UNL     1       1.469  -0.689  -3.073  1.00  0.00     0.345 HD
ATOM     14  H   UNL     1       2.449  -0.905  -1.744  1.00  0.00     0.345 HD
ATOM     15  H   UNL     1       1.637   0.534  -1.954  1.00  0.00     0.345 HD
ENDBRANCH   7  12
BRANCH  11  16
ATOM     16  N   UNL     1      -2.945  -1.967  -1.646  1.00  0.00    -0.332 N 
ATOM     17  C   UNL     1      -2.699  -2.503  -0.307  1.00  0.00     0.263 C 
ATOM     18  C   UNL     1      -3.953  -0.894  -1.618  1.00  0.00     0.263 C 
ATOM     19  H   UNL     1      -3.315  -2.761  -2.168  1.00  0.00     0.348 HD
ATOM     20  C   UNL     1      -3.973  -3.019   0.356  1.00  0.00     0.074 C 
ATOM     21  C   UNL     1      -5.265  -1.360  -0.980  1.00  0.00     0.074 C 
ATOM     22  C   UNL     1      -5.028  -1.916   0.426  1.00  0.00     0.106 C 
BRANCH  22  23
ATOM     23  C   UNL     1      -6.308  -2.434   1.050  1.00  0.00     0.392 C 
ATOM     24  F   UNL     1      -6.083  -2.887   2.304  1.00  0.00    -0.171 F 
ATOM     25  F   UNL     1      -7.234  -1.453   1.137  1.00  0.00    -0.171 F 
ATOM     26  F   UNL     1      -6.845  -3.446   0.338  1.00  0.00    -0.171 F 
ENDBRANCH  22  23
ENDBRANCH  11  16
ENDBRANCH   5   7
ENDBRANCH   4   5
ENDBRANCH   3   4
ENDBRANCH   2   3
ENDBRANCH   1   2
BRANCH   1  27
ATOM     27  C   UNL     1       1.424   2.565   0.139  1.00  0.00     0.202 C 
BRANCH  27  28
ATOM     28  C   UNL     1       2.720   3.126  -0.464  1.00  0.00     0.261 C 
BRANCH  28  29
ATOM     29  O   UNL     1       3.829   2.216  -0.335  1.00  0.00    -0.460 OA
BRANCH  29  30
ATOM     30  C   UNL     1       4.881   2.703   0.370  1.00  0.00     0.338 C 
ATOM     31  O   UNL     1       5.003   3.824   0.843  1.00  0.00    -0.246 OA
BRANCH  30  32
ATOM     32  C   UNL     1       5.833   1.622   0.674  1.00  0.00     0.060 A 
ATOM     33  C   UNL     1       6.102   1.344   2.021  1.00  0.00     0.016 A 
ATOM     34  C   UNL     1       6.533   0.969  -0.341  1.00  0.00     0.016 A 
ATOM     35  C   UNL     1       7.104   0.438   2.362  1.00  0.00     0.010 A 
ATOM     36  C   UNL     1       7.550   0.073   0.002  1.00  0.00     0.010 A 
ATOM     37  C   UNL     1       7.861  -0.171   1.353  1.00  0.00    -0.014 A 
BRANCH  37  38
ATOM     38  C   UNL     1       9.085  -0.929   1.701  1.00  0.00     0.031 A 
ATOM     39  C   UNL     1      10.414  -0.232   1.621  1.00  0.00     0.074 A 
ATOM     40  C   UNL     1       9.016  -2.215   2.087  1.00  0.00     0.049 A 
ATOM     41  N   UNL     1      11.619  -0.721   1.764  1.00  0.00    -0.248 NA
ATOM     42  C   UNL     1      10.378   1.213   1.341  1.00  0.00     0.031 C 
ATOM     43  C   UNL     1       7.784  -2.980   2.267  1.00  0.00     0.029 A 
ATOM     44  N   UNL     1      10.015  -3.108   2.383  1.00  0.00    -0.354 N 
ATOM     45  C   UNL     1      12.483   0.351   1.585  1.00  0.00     0.074 A 
ATOM     46  C   UNL     1      11.668   1.513   1.302  1.00  0.00     0.031 C 
ATOM     47  C   UNL     1       8.102  -4.237   2.622  1.00  0.00     0.029 A 
ATOM     48  C   UNL     1       9.557  -4.373   2.655  1.00  0.00     0.049 A 
ATOM     49  H   UNL     1      10.969  -2.864   2.399  1.00  0.00     0.167 HD
ATOM     50  C   UNL     1      13.835   0.367   1.655  1.00  0.00     0.037 A 
ATOM     51  C   UNL     1      10.238  -5.515   2.869  1.00  0.00     0.037 A 
ATOM     52  C   UNL     1      14.644  -0.791   1.929  1.00  0.00     0.049 A 
ATOM     53  C   UNL     1      11.744  -5.494   2.841  1.00  0.00     0.074 A 
ATOM     54  C   UNL     1      16.022  -0.882   2.009  1.00  0.00     0.029 A 
ATOM     55  N   UNL     1      14.142  -2.061   2.166  1.00  0.00    -0.354 N 
ATOM     56  N   UNL     1      12.554  -4.479   2.663  1.00  0.00    -0.248 NA
ATOM     57  C   UNL     1      12.430  -6.780   3.035  1.00  0.00     0.031 C 
ATOM     58  C   UNL     1      16.357  -2.217   2.258  1.00  0.00     0.029 A 
ATOM     59  C   UNL     1      15.185  -2.947   2.375  1.00  0.00     0.049 A 
ATOM     60  H   UNL     1      13.187  -2.298   2.184  1.00  0.00     0.167 HD
ATOM     61  C   UNL     1      13.841  -4.996   2.758  1.00  0.00     0.074 A 
ATOM     62  C   UNL     1      13.704  -6.415   3.010  1.00  0.00     0.031 C 
ATOM     63  C   UNL     1      15.028  -4.352   2.649  1.00  0.00     0.037 A 
BRANCH  50  64
ATOM     64  C   UNL     1      14.524   1.674   1.404  1.00  0.00     0.057 A 
ATOM     65  C   UNL     1      14.506   2.709   2.347  1.00  0.00     0.134 A 
ATOM     66  C   UNL     1      15.239   1.890   0.220  1.00  0.00     0.134 A 
ATOM     67  F   UNL     1      13.825   2.571   3.495  1.00  0.00    -0.206 F 
ATOM     68  C   UNL     1      15.160   3.920   2.113  1.00  0.00     0.040 A 
ATOM     69  C   UNL     1      15.916   3.087  -0.016  1.00  0.00     0.040 A 
ATOM     70  F   UNL     1      15.298   0.937  -0.723  1.00  0.00    -0.206 F 
ATOM     71  C   UNL     1      15.873   4.109   0.931  1.00  0.00     0.006 A 
ENDBRANCH  50  64
BRANCH  51  72
ATOM     72  C   UNL     1       9.508  -6.787   3.101  1.00  0.00     0.057 A 
ATOM     73  C   UNL     1       9.536  -7.420   4.349  1.00  0.00     0.134 A 
ATOM     74  C   UNL     1       8.793  -7.415   2.074  1.00  0.00     0.134 A 
ATOM     75  F   UNL     1      10.225  -6.880   5.365  1.00  0.00    -0.206 F 
ATOM     76  C   UNL     1       8.892  -8.640   4.563  1.00  0.00     0.040 A 
ATOM     77  C   UNL     1       8.126  -8.623   2.280  1.00  0.00     0.040 A 
ATOM     78  F   UNL     1       8.730  -6.859   0.855  1.00  0.00    -0.206 F 
ATOM     79  C   UNL     1       8.181  -9.243   3.527  1.00  0.00     0.006 A 
ENDBRANCH  51  72
BRANCH  63  80
ATOM     80  C   UNL     1      16.275  -5.160   2.853  1.00  0.00     0.057 A 
ATOM     81  C   UNL     1      16.756  -6.038   1.875  1.00  0.00     0.134 A 
ATOM     82  C   UNL     1      17.036  -5.005   4.019  1.00  0.00     0.134 A 
ATOM     83  F   UNL     1      16.066  -6.238   0.742  1.00  0.00    -0.206 F 
ATOM     84  C   UNL     1      17.948  -6.743   2.054  1.00  0.00     0.040 A 
ATOM     85  C   UNL     1      18.239  -5.688   4.200  1.00  0.00     0.040 A 
ATOM     86  F   UNL     1      16.633  -4.172   4.990  1.00  0.00    -0.206 F 
ATOM     87  C   UNL     1      18.697  -6.561   3.216  1.00  0.00     0.006 A 
ENDBRANCH  63  80
ENDBRANCH  37  38
ENDBRANCH  30  32
ENDBRANCH  29  30
ENDBRANCH  28  29
ENDBRANCH  27  28
ENDBRANCH   1  27
TORSDOF 17
