REMARK SMILES Cc1cscc1C(=O)N[C@H](C(=O)OCCOCCOC(=O)c1ccc(-c2c3nc(c(-c4c(F)cccc4F)c4ccc([nH]4)c(-c4c(F)cccc4F)c4nc(c(-c5c(F)cccc5F)c5ccc2[nH]5)C=C4)C=C3)cc1)c1ccccc1
REMARK SMILES IDX 16 1 15 2 14 3 13 4 11 5 12 6 10 7 9 8 7 9 8 10 6 12 1 13
REMARK SMILES IDX 2 14 3 15 4 16 5 17 76 18 77 19 81 20 78 21 80 22 79 23
REMARK SMILES IDX 17 24 18 25 19 26 20 27 21 28 22 29 23 30 75 31 24 32 74 33
REMARK SMILES IDX 25 34 26 35 27 36 68 37 28 38 73 39 67 40 69 41 29 42 72 43
REMARK SMILES IDX 66 44 65 45 30 47 56 48 39 49 55 50 40 51 43 52 54 53 70 54
REMARK SMILES IDX 41 55 42 56 53 58 71 59 44 60 31 61 32 62 37 63 33 64 34 65
REMARK SMILES IDX 36 66 38 67 35 68 57 69 58 70 63 71 59 72 60 73 62 74 64 75
REMARK SMILES IDX 61 76 45 77 46 78 51 79 47 80 48 81 50 82 52 83 49 84
REMARK H PARENT 9 11 69 46 43 57
REMARK Flexibility Score: inf
ROOT
ATOM      1  O   UNL     1       0.314   3.833   1.819  1.00  0.00    -0.374 OA
ENDROOT
BRANCH   1   2
ATOM      2  C   UNL     1      -0.119   3.331   0.561  1.00  0.00     0.202 C 
BRANCH   2   3
ATOM      3  C   UNL     1       0.923   2.950  -0.494  1.00  0.00     0.261 C 
BRANCH   3   4
ATOM      4  O   UNL     1       1.925   2.011  -0.048  1.00  0.00    -0.461 OA
BRANCH   4   5
ATOM      5  C   UNL     1       2.801   1.704  -1.040  1.00  0.00     0.333 C 
ATOM      6  O   UNL     1       2.571   1.960  -2.224  1.00  0.00    -0.249 OA
BRANCH   5   7
ATOM      7  C   UNL     1       4.098   1.004  -0.616  1.00  0.00     0.223 C 
BRANCH   7   8
ATOM      8  N   UNL     1       5.214   1.493  -1.430  1.00  0.00    -0.335 N 
ATOM      9  C   UNL     1       5.732   2.712  -1.766  1.00  0.00     0.253 C 
ATOM     10  O   UNL     1       6.775   2.647  -2.425  1.00  0.00    -0.269 OA
ATOM     11  H   UNL     1       5.720   0.754  -1.839  1.00  0.00     0.165 HD
BRANCH   9  12
ATOM     12  C   UNL     1       5.108   4.028  -1.523  1.00  0.00     0.053 A 
ATOM     13  C   UNL     1       4.375   4.221   1.028  1.00  0.00     0.046 C 
ATOM     14  C   UNL     1       4.529   4.703  -0.366  1.00  0.00    -0.028 A 
ATOM     15  C   UNL     1       4.154   6.005  -0.664  1.00  0.00     0.069 A 
ATOM     16  S   UNL     1       4.528   6.471  -2.249  1.00  0.00    -0.151 S 
ATOM     17  C   UNL     1       5.182   4.938  -2.576  1.00  0.00     0.079 A 
ENDBRANCH   9  12
ENDBRANCH   7   8
BRANCH   7  18
ATOM     18  C   UNL     1       4.527   0.737   0.830  1.00  0.00    -0.014 A 
ATOM     19  C   UNL     1       3.962  -0.310   1.578  1.00  0.00     0.006 A 
ATOM     20  C   UNL     1       5.620   1.409   1.414  1.00  0.00     0.006 A 
ATOM     21  C   UNL     1       4.445  -0.628   2.859  1.00  0.00     0.000 A 
ATOM     22  C   UNL     1       6.060   1.140   2.712  1.00  0.00     0.000 A 
ATOM     23  C   UNL     1       5.474   0.114   3.435  1.00  0.00     0.000 A 
ENDBRANCH   7  18
ENDBRANCH   5   7
ENDBRANCH   4   5
ENDBRANCH   3   4
ENDBRANCH   2   3
ENDBRANCH   1   2
BRANCH   1  24
ATOM     24  C   UNL     1       1.271   3.078   2.547  1.00  0.00     0.202 C 
BRANCH  24  25
ATOM     25  C   UNL     1       0.881   1.710   3.125  1.00  0.00     0.261 C 
BRANCH  25  26
ATOM     26  O   UNL     1       0.147   0.869   2.228  1.00  0.00    -0.460 OA
BRANCH  26  27
ATOM     27  C   UNL     1      -1.184   0.818   2.489  1.00  0.00     0.338 C 
ATOM     28  O   UNL     1      -1.784   1.349   3.404  1.00  0.00    -0.246 OA
BRANCH  27  29
ATOM     29  C   UNL     1      -1.875   0.150   1.372  1.00  0.00     0.060 A 
ATOM     30  C   UNL     1      -2.870   0.876   0.704  1.00  0.00     0.016 A 
ATOM     31  C   UNL     1      -1.603  -1.176   1.032  1.00  0.00     0.016 A 
ATOM     32  C   UNL     1      -3.623   0.268  -0.292  1.00  0.00     0.010 A 
ATOM     33  C   UNL     1      -2.380  -1.795   0.050  1.00  0.00     0.010 A 
ATOM     34  C   UNL     1      -3.414  -1.084  -0.586  1.00  0.00    -0.014 A 
BRANCH  34  35
ATOM     35  C   UNL     1      -4.420  -1.790  -1.407  1.00  0.00     0.031 A 
ATOM     36  C   UNL     1      -5.515  -2.537  -0.701  1.00  0.00     0.074 A 
ATOM     37  C   UNL     1      -4.393  -1.708  -2.748  1.00  0.00     0.049 A 
ATOM     38  N   UNL     1      -6.499  -3.237  -1.200  1.00  0.00    -0.248 NA
ATOM     39  C   UNL     1      -5.499  -2.482   0.771  1.00  0.00     0.031 C 
ATOM     40  C   UNL     1      -3.411  -0.957  -3.528  1.00  0.00     0.029 A 
ATOM     41  N   UNL     1      -5.219  -2.266  -3.688  1.00  0.00    -0.354 N 
ATOM     42  C   UNL     1      -7.213  -3.711  -0.107  1.00  0.00     0.074 A 
ATOM     43  C   UNL     1      -6.537  -3.243   1.082  1.00  0.00     0.031 C 
ATOM     44  C   UNL     1      -3.686  -1.111  -4.835  1.00  0.00     0.029 A 
ATOM     45  C   UNL     1      -4.838  -1.998  -4.979  1.00  0.00     0.049 A 
ATOM     46  H   UNL     1      -6.009  -2.806  -3.459  1.00  0.00     0.167 HD
ATOM     47  C   UNL     1      -8.338  -4.465  -0.099  1.00  0.00     0.037 A 
ATOM     48  C   UNL     1      -5.353  -2.443  -6.141  1.00  0.00     0.037 A 
ATOM     49  C   UNL     1      -8.998  -4.925  -1.291  1.00  0.00     0.049 A 
ATOM     50  C   UNL     1      -6.556  -3.349  -6.105  1.00  0.00     0.074 A 
ATOM     51  C   UNL     1     -10.147  -5.688  -1.401  1.00  0.00     0.029 A 
ATOM     52  N   UNL     1      -8.558  -4.672  -2.583  1.00  0.00    -0.354 N 
ATOM     53  N   UNL     1      -7.235  -3.783  -5.069  1.00  0.00    -0.248 NA
ATOM     54  C   UNL     1      -7.065  -3.827  -7.397  1.00  0.00     0.031 C 
ATOM     55  C   UNL     1     -10.368  -5.946  -2.758  1.00  0.00     0.029 A 
ATOM     56  C   UNL     1      -9.395  -5.290  -3.496  1.00  0.00     0.049 A 
ATOM     57  H   UNL     1      -7.768  -4.132  -2.815  1.00  0.00     0.167 HD
ATOM     58  C   UNL     1      -8.267  -4.557  -5.585  1.00  0.00     0.074 A 
ATOM     59  C   UNL     1      -8.131  -4.522  -7.027  1.00  0.00     0.031 C 
ATOM     60  C   UNL     1      -9.242  -5.235  -4.928  1.00  0.00     0.037 A 
BRANCH  47  61
ATOM     61  C   UNL     1      -8.893  -4.869   1.235  1.00  0.00     0.057 A 
ATOM     62  C   UNL     1      -9.500  -3.950   2.102  1.00  0.00     0.134 A 
ATOM     63  C   UNL     1      -8.835  -6.206   1.651  1.00  0.00     0.134 A 
ATOM     64  F   UNL     1      -9.572  -2.651   1.774  1.00  0.00    -0.206 F 
ATOM     65  C   UNL     1     -10.008  -4.342   3.342  1.00  0.00     0.040 A 
ATOM     66  C   UNL     1      -9.365  -6.614   2.876  1.00  0.00     0.040 A 
ATOM     67  F   UNL     1      -8.267  -7.138   0.872  1.00  0.00    -0.206 F 
ATOM     68  C   UNL     1      -9.948  -5.680   3.728  1.00  0.00     0.006 A 
ENDBRANCH  47  61
BRANCH  48  69
ATOM     69  C   UNL     1      -4.723  -2.061  -7.431  1.00  0.00     0.057 A 
ATOM     70  C   UNL     1      -5.387  -1.248  -8.357  1.00  0.00     0.134 A 
ATOM     71  C   UNL     1      -3.445  -2.520  -7.778  1.00  0.00     0.134 A 
ATOM     72  F   UNL     1      -6.621  -0.795  -8.095  1.00  0.00    -0.206 F 
ATOM     73  C   UNL     1      -4.813  -0.921  -9.587  1.00  0.00     0.040 A 
ATOM     74  C   UNL     1      -2.848  -2.177  -8.992  1.00  0.00     0.040 A 
ATOM     75  F   UNL     1      -2.754  -3.302  -6.936  1.00  0.00    -0.206 F 
ATOM     76  C   UNL     1      -3.536  -1.381  -9.905  1.00  0.00     0.006 A 
ENDBRANCH  48  69
BRANCH  60  77
ATOM     77  C   UNL     1     -10.258  -5.959  -5.764  1.00  0.00     0.057 A 
ATOM     78  C   UNL     1      -9.941  -7.121  -6.478  1.00  0.00     0.134 A 
ATOM     79  C   UNL     1     -11.584  -5.510  -5.815  1.00  0.00     0.134 A 
ATOM     80  F   UNL     1      -8.687  -7.598  -6.479  1.00  0.00    -0.206 F 
ATOM     81  C   UNL     1     -10.900  -7.796  -7.234  1.00  0.00     0.040 A 
ATOM     82  C   UNL     1     -12.559  -6.193  -6.542  1.00  0.00     0.040 A 
ATOM     83  F   UNL     1     -11.958  -4.410  -5.143  1.00  0.00    -0.206 F 
ATOM     84  C   UNL     1     -12.216  -7.336  -7.261  1.00  0.00     0.006 A 
ENDBRANCH  60  77
ENDBRANCH  34  35
ENDBRANCH  27  29
ENDBRANCH  26  27
ENDBRANCH  25  26
ENDBRANCH  24  25
ENDBRANCH   1  24
TORSDOF 17
