REMARK SMILES CCOc1ccc(NC(=O)CC2(CC(=O)OCCOCCOC(=O)c3ccc(-c4c5nc(c(-c6c(F)cccc6F)c6ccc([nH]6)c(-c6c(F)cccc6F)c6nc(c(-c7c(F)cccc7F)c7ccc4[nH]7)C=C6)C=C5)cc3)CCCCC2)cc1
REMARK SMILES IDX 17 1 16 2 14 3 15 4 13 5 12 6 79 7 83 8 80 9 82 10 81 11
REMARK SMILES IDX 11 12 9 13 8 14 10 16 7 17 4 18 5 19 85 20 6 21 84 22 3 23
REMARK SMILES IDX 2 24 1 25 18 26 19 27 20 28 21 29 22 30 23 31 24 32 25 33
REMARK SMILES IDX 26 34 78 35 27 36 77 37 28 38 29 39 30 40 71 41 31 42 76 43
REMARK SMILES IDX 70 44 72 45 32 46 75 47 69 48 68 49 33 51 59 52 42 53 58 54
REMARK SMILES IDX 43 55 46 56 57 57 73 58 44 59 45 60 56 62 74 63 47 64 34 65
REMARK SMILES IDX 35 66 40 67 36 68 37 69 39 70 41 71 38 72 60 73 61 74 66 75
REMARK SMILES IDX 62 76 63 77 65 78 67 79 64 80 48 81 49 82 54 83 50 84 51 85
REMARK SMILES IDX 53 86 55 87 52 88
REMARK H PARENT 8 15 72 50 46 61
REMARK Flexibility Score: inf
ROOT
ATOM      1  C   UNL     1       7.046   4.780   1.855  1.00  0.00     0.261 C 
ENDROOT
BRANCH   1   2
ATOM      2  O   UNL     1       6.359   4.266   3.021  1.00  0.00    -0.463 OA
BRANCH   2   3
ATOM      3  C   UNL     1       5.269   3.509   2.746  1.00  0.00     0.306 C 
ATOM      4  O   UNL     1       4.968   3.149   1.613  1.00  0.00    -0.252 OA
BRANCH   3   5
ATOM      5  C   UNL     1       4.319   3.336   3.916  1.00  0.00     0.130 C 
BRANCH   5   6
ATOM      6  C   UNL     1       4.733   2.955   5.368  1.00  0.00    -0.011 C 
ATOM      7  C   UNL     1       3.412   2.941   6.229  1.00  0.00     0.008 C 
ATOM      8  C   UNL     1       5.613   4.085   5.993  1.00  0.00     0.008 C 
ATOM      9  C   UNL     1       2.674   4.271   6.323  1.00  0.00     0.001 C 
ATOM     10  C   UNL     1       4.912   5.451   6.069  1.00  0.00     0.001 C 
ATOM     11  C   UNL     1       3.584   5.385   6.820  1.00  0.00     0.000 C 
BRANCH   6  12
ATOM     12  C   UNL     1       5.365   1.529   5.659  1.00  0.00     0.108 C 
BRANCH  12  13
ATOM     13  C   UNL     1       6.051   0.579   4.678  1.00  0.00     0.224 C 
ATOM     14  N   UNL     1       5.523   0.210   3.490  1.00  0.00    -0.326 N 
ATOM     15  H   UNL     1       6.178  -0.103   2.825  1.00  0.00     0.169 HD
ATOM     16  O   UNL     1       7.152   0.094   4.968  1.00  0.00    -0.275 OA
BRANCH  14  17
ATOM     17  C   UNL     1       4.203   0.204   3.057  1.00  0.00     0.041 A 
ATOM     18  C   UNL     1       1.621   0.487   2.108  1.00  0.00     0.119 A 
ATOM     19  C   UNL     1       1.825   0.178   3.449  1.00  0.00     0.048 A 
ATOM     20  C   UNL     1       2.694   0.630   1.234  1.00  0.00     0.048 A 
ATOM     21  C   UNL     1       3.125   0.030   3.925  1.00  0.00     0.030 A 
ATOM     22  C   UNL     1       3.986   0.421   1.696  1.00  0.00     0.030 A 
BRANCH  18  23
ATOM     23  O   UNL     1       0.350   0.707   1.662  1.00  0.00    -0.494 OA
BRANCH  23  24
ATOM     24  C   UNL     1      -0.186  -0.478   1.062  1.00  0.00     0.226 C 
ATOM     25  C   UNL     1       0.114  -0.521  -0.427  1.00  0.00     0.049 C 
ENDBRANCH  23  24
ENDBRANCH  18  23
ENDBRANCH  14  17
ENDBRANCH  12  13
ENDBRANCH   6  12
ENDBRANCH   5   6
ENDBRANCH   3   5
ENDBRANCH   2   3
ENDBRANCH   1   2
BRANCH   1  26
ATOM     26  C   UNL     1       8.556   4.598   1.950  1.00  0.00     0.202 C 
BRANCH  26  27
ATOM     27  O   UNL     1       9.066   3.285   1.739  1.00  0.00    -0.374 OA
BRANCH  27  28
ATOM     28  C   UNL     1       8.556   2.221   2.529  1.00  0.00     0.202 C 
BRANCH  28  29
ATOM     29  C   UNL     1       8.769   2.272   4.046  1.00  0.00     0.261 C 
BRANCH  29  30
ATOM     30  O   UNL     1       9.331   3.459   4.558  1.00  0.00    -0.460 OA
BRANCH  30  31
ATOM     31  C   UNL     1      10.665   3.558   4.446  1.00  0.00     0.338 C 
ATOM     32  O   UNL     1      11.467   2.747   4.026  1.00  0.00    -0.246 OA
BRANCH  31  33
ATOM     33  C   UNL     1      10.931   4.954   4.791  1.00  0.00     0.060 A 
ATOM     34  C   UNL     1      11.587   5.743   3.846  1.00  0.00     0.016 A 
ATOM     35  C   UNL     1      10.438   5.486   5.991  1.00  0.00     0.016 A 
ATOM     36  C   UNL     1      11.819   7.076   4.138  1.00  0.00     0.010 A 
ATOM     37  C   UNL     1      10.662   6.822   6.279  1.00  0.00     0.010 A 
ATOM     38  C   UNL     1      11.403   7.596   5.373  1.00  0.00    -0.014 A 
BRANCH  38  39
ATOM     39  C   UNL     1      11.984   8.868   5.822  1.00  0.00     0.031 A 
ATOM     40  C   UNL     1      13.211   8.794   6.681  1.00  0.00     0.074 A 
ATOM     41  C   UNL     1      11.462  10.033   5.410  1.00  0.00     0.049 A 
ATOM     42  N   UNL     1      13.958   9.758   7.144  1.00  0.00    -0.248 NA
ATOM     43  C   UNL     1      13.657   7.444   7.072  1.00  0.00     0.031 C 
ATOM     44  C   UNL     1      10.283  10.176   4.557  1.00  0.00     0.029 A 
ATOM     45  N   UNL     1      11.873  11.315   5.644  1.00  0.00    -0.354 N 
ATOM     46  C   UNL     1      14.963   9.130   7.869  1.00  0.00     0.074 A 
ATOM     47  C   UNL     1      14.703   7.711   7.835  1.00  0.00     0.031 C 
ATOM     48  C   UNL     1      10.075  11.483   4.323  1.00  0.00     0.029 A 
ATOM     49  C   UNL     1      11.096  12.258   5.023  1.00  0.00     0.049 A 
ATOM     50  H   UNL     1      12.651  11.539   6.205  1.00  0.00     0.167 HD
ATOM     51  C   UNL     1      16.024   9.694   8.489  1.00  0.00     0.037 A 
ATOM     52  C   UNL     1      11.217  13.598   5.025  1.00  0.00     0.037 A 
ATOM     53  C   UNL     1      16.251  11.112   8.517  1.00  0.00     0.049 A 
ATOM     54  C   UNL     1      12.376  14.207   5.767  1.00  0.00     0.074 A 
ATOM     55  C   UNL     1      17.273  11.815   9.123  1.00  0.00     0.029 A 
ATOM     56  N   UNL     1      15.422  12.045   7.907  1.00  0.00    -0.354 N 
ATOM     57  N   UNL     1      13.337  13.610   6.433  1.00  0.00    -0.248 NA
ATOM     58  C   UNL     1      12.475  15.671   5.748  1.00  0.00     0.031 C 
ATOM     59  C   UNL     1      17.042  13.179   8.911  1.00  0.00     0.029 A 
ATOM     60  C   UNL     1      15.902  13.321   8.132  1.00  0.00     0.049 A 
ATOM     61  H   UNL     1      14.612  11.829   7.390  1.00  0.00     0.167 HD
ATOM     62  C   UNL     1      14.172  14.621   6.889  1.00  0.00     0.074 A 
ATOM     63  C   UNL     1      13.606  15.869   6.412  1.00  0.00     0.031 C 
ATOM     64  C   UNL     1      15.305  14.534   7.630  1.00  0.00     0.037 A 
BRANCH  51  65
ATOM     65  C   UNL     1      16.972   8.770   9.193  1.00  0.00     0.057 A 
ATOM     66  C   UNL     1      17.806   7.888   8.489  1.00  0.00     0.134 A 
ATOM     67  C   UNL     1      17.027   8.730  10.591  1.00  0.00     0.134 A 
ATOM     68  F   UNL     1      17.783   7.855   7.148  1.00  0.00    -0.206 F 
ATOM     69  C   UNL     1      18.635   6.980   9.151  1.00  0.00     0.040 A 
ATOM     70  C   UNL     1      17.872   7.845  11.264  1.00  0.00     0.040 A 
ATOM     71  F   UNL     1      16.252   9.540  11.326  1.00  0.00    -0.206 F 
ATOM     72  C   UNL     1      18.672   6.960  10.544  1.00  0.00     0.006 A 
ENDBRANCH  51  65
BRANCH  52  73
ATOM     73  C   UNL     1      10.244  14.432   4.279  1.00  0.00     0.057 A 
ATOM     74  C   UNL     1      10.617  15.120   3.119  1.00  0.00     0.134 A 
ATOM     75  C   UNL     1       8.911  14.546   4.695  1.00  0.00     0.134 A 
ATOM     76  F   UNL     1      11.881  15.061   2.676  1.00  0.00    -0.206 F 
ATOM     77  C   UNL     1       9.705  15.903   2.407  1.00  0.00     0.040 A 
ATOM     78  C   UNL     1       7.984  15.306   3.981  1.00  0.00     0.040 A 
ATOM     79  F   UNL     1       8.487  13.904   5.793  1.00  0.00    -0.206 F 
ATOM     80  C   UNL     1       8.382  15.992   2.835  1.00  0.00     0.006 A 
ENDBRANCH  52  73
BRANCH  64  81
ATOM     81  C   UNL     1      16.015  15.819   7.932  1.00  0.00     0.057 A 
ATOM     82  C   UNL     1      15.518  16.735   8.866  1.00  0.00     0.134 A 
ATOM     83  C   UNL     1      17.236  16.116   7.313  1.00  0.00     0.134 A 
ATOM     84  F   UNL     1      14.349  16.511   9.484  1.00  0.00    -0.206 F 
ATOM     85  C   UNL     1      16.200  17.918   9.156  1.00  0.00     0.040 A 
ATOM     86  C   UNL     1      17.939  17.281   7.614  1.00  0.00     0.040 A 
ATOM     87  F   UNL     1      17.769  15.270   6.418  1.00  0.00    -0.206 F 
ATOM     88  C   UNL     1      17.417  18.189   8.534  1.00  0.00     0.006 A 
ENDBRANCH  64  81
ENDBRANCH  38  39
ENDBRANCH  31  33
ENDBRANCH  30  31
ENDBRANCH  29  30
ENDBRANCH  28  29
ENDBRANCH  27  28
ENDBRANCH  26  27
ENDBRANCH   1  26
TORSDOF 20
