REMARK SMILES O=C(NC[C@@H]1CC[C@H](C(=O)OCCOCCOC(=O)c2ccc(-c3c4nc(c(-c5c(F)cccc5F)c5ccc([nH]5)c(-c5c(F)cccc5F)c5nc(c(-c6c(F)cccc6F)c6ccc3[nH]6)C=C5)C=C4)cc2)O1)c1ccc(CO)cc1
REMARK SMILES IDX 12 1 11 2 9 3 10 4 8 5 5 6 6 7 74 8 7 9 4 10 3 11 1 12 2 13
REMARK SMILES IDX 75 15 76 16 82 17 77 18 81 19 78 20 79 21 80 22 13 24 14 25
REMARK SMILES IDX 15 26 16 27 17 28 18 29 19 30 20 31 21 32 73 33 22 34 72 35
REMARK SMILES IDX 23 36 24 37 25 38 66 39 26 40 71 41 65 42 67 43 27 44 70 45
REMARK SMILES IDX 64 46 63 47 28 49 54 50 37 51 53 52 38 53 41 54 52 55 68 56
REMARK SMILES IDX 39 57 40 58 51 60 69 61 42 62 29 63 30 64 35 65 31 66 32 67
REMARK SMILES IDX 34 68 36 69 33 70 55 71 56 72 61 73 57 74 58 75 60 76 62 77
REMARK SMILES IDX 59 78 43 79 44 80 49 81 45 82 46 83 48 84 50 85 47 86
REMARK H PARENT 3 14 80 23 67 48 41 59
REMARK Flexibility Score: inf
ROOT
ATOM      1  C   UNL     1       1.159  -2.137  -2.724  1.00  0.00     0.261 C 
ENDROOT
BRANCH   1   2
ATOM      2  O   UNL     1       2.283  -1.289  -3.020  1.00  0.00    -0.461 OA
BRANCH   2   3
ATOM      3  C   UNL     1       3.500  -1.900  -3.000  1.00  0.00     0.335 C 
ATOM      4  O   UNL     1       3.685  -3.081  -2.721  1.00  0.00    -0.249 OA
BRANCH   3   5
ATOM      5  C   UNL     1       4.650  -0.944  -3.328  1.00  0.00     0.228 C 
ATOM      6  C   UNL     1       5.054   0.989  -2.080  1.00  0.00     0.138 C 
ATOM      7  C   UNL     1       4.130   1.376  -3.223  1.00  0.00     0.037 C 
ATOM      8  O   UNL     1       5.196  -0.438  -2.104  1.00  0.00    -0.361 OA
ATOM      9  C   UNL     1       4.344   0.257  -4.210  1.00  0.00     0.047 C 
BRANCH   6  10
ATOM     10  C   UNL     1       4.613   1.458  -0.686  1.00  0.00     0.148 C 
BRANCH  10  11
ATOM     11  N   UNL     1       3.213   1.177  -0.375  1.00  0.00    -0.349 N 
ATOM     12  O   UNL     1       1.388   0.002   0.183  1.00  0.00    -0.269 OA
ATOM     13  C   UNL     1       2.613   0.104   0.231  1.00  0.00     0.251 C 
ATOM     14  H   UNL     1       2.588   1.887  -0.650  1.00  0.00     0.163 HD
BRANCH  13  15
ATOM     15  C   UNL     1       3.397  -0.937   0.929  1.00  0.00     0.039 A 
ATOM     16  C   UNL     1       4.403  -0.616   1.842  1.00  0.00     0.014 A 
ATOM     17  C   UNL     1       3.047  -2.277   0.730  1.00  0.00     0.014 A 
ATOM     18  C   UNL     1       5.119  -1.633   2.478  1.00  0.00     0.007 A 
ATOM     19  C   UNL     1       3.753  -3.294   1.375  1.00  0.00     0.007 A 
ATOM     20  C   UNL     1       4.805  -2.980   2.244  1.00  0.00    -0.023 A 
BRANCH  20  21
ATOM     21  C   UNL     1       5.627  -4.068   2.878  1.00  0.00     0.191 C 
BRANCH  21  22
ATOM     22  O   UNL     1       6.852  -4.224   2.173  1.00  0.00    -0.392 OA
ATOM     23  H   UNL     1       6.667  -4.463   1.252  1.00  0.00     0.211 HD
ENDBRANCH  21  22
ENDBRANCH  20  21
ENDBRANCH  13  15
ENDBRANCH  10  11
ENDBRANCH   6  10
ENDBRANCH   3   5
ENDBRANCH   2   3
ENDBRANCH   1   2
BRANCH   1  24
ATOM     24  C   UNL     1       0.116  -2.130  -3.843  1.00  0.00     0.202 C 
BRANCH  24  25
ATOM     25  O   UNL     1       0.535  -2.634  -5.110  1.00  0.00    -0.374 OA
BRANCH  25  26
ATOM     26  C   UNL     1       1.423  -1.827  -5.880  1.00  0.00     0.202 C 
BRANCH  26  27
ATOM     27  C   UNL     1       0.824  -0.569  -6.524  1.00  0.00     0.261 C 
BRANCH  27  28
ATOM     28  O   UNL     1       0.324   0.374  -5.556  1.00  0.00    -0.460 OA
BRANCH  28  29
ATOM     29  C   UNL     1      -0.993   0.665  -5.689  1.00  0.00     0.338 C 
ATOM     30  O   UNL     1      -1.743   0.307  -6.587  1.00  0.00    -0.246 OA
BRANCH  29  31
ATOM     31  C   UNL     1      -1.502   1.378  -4.503  1.00  0.00     0.060 A 
ATOM     32  C   UNL     1      -2.544   0.773  -3.789  1.00  0.00     0.016 A 
ATOM     33  C   UNL     1      -1.076   2.667  -4.178  1.00  0.00     0.016 A 
ATOM     34  C   UNL     1      -3.199   1.477  -2.781  1.00  0.00     0.010 A 
ATOM     35  C   UNL     1      -1.742   3.376  -3.167  1.00  0.00     0.010 A 
ATOM     36  C   UNL     1      -2.832   2.798  -2.490  1.00  0.00    -0.014 A 
BRANCH  36  37
ATOM     37  C   UNL     1      -3.688   3.594  -1.574  1.00  0.00     0.031 A 
ATOM     38  C   UNL     1      -4.722   4.528  -2.147  1.00  0.00     0.074 A 
ATOM     39  C   UNL     1      -3.605   3.427  -0.241  1.00  0.00     0.049 A 
ATOM     40  N   UNL     1      -5.614   5.261  -1.529  1.00  0.00    -0.248 NA
ATOM     41  C   UNL     1      -4.760   4.646  -3.614  1.00  0.00     0.031 C 
ATOM     42  C   UNL     1      -2.674   2.532   0.443  1.00  0.00     0.029 A 
ATOM     43  N   UNL     1      -4.332   3.998   0.774  1.00  0.00    -0.354 N 
ATOM     44  C   UNL     1      -6.326   5.915  -2.527  1.00  0.00     0.074 A 
ATOM     45  C   UNL     1      -5.738   5.524  -3.790  1.00  0.00     0.031 C 
ATOM     46  C   UNL     1      -2.890   2.608   1.768  1.00  0.00     0.029 A 
ATOM     47  C   UNL     1      -3.962   3.568   2.025  1.00  0.00     0.049 A 
ATOM     48  H   UNL     1      -5.051   4.653   0.620  1.00  0.00     0.167 HD
ATOM     49  C   UNL     1      -7.385   6.751  -2.405  1.00  0.00     0.037 A 
ATOM     50  C   UNL     1      -4.433   3.913   3.239  1.00  0.00     0.037 A 
ATOM     51  C   UNL     1      -7.977   7.146  -1.154  1.00  0.00     0.049 A 
ATOM     52  C   UNL     1      -5.570   4.894   3.347  1.00  0.00     0.074 A 
ATOM     53  C   UNL     1      -9.052   7.991  -0.936  1.00  0.00     0.029 A 
ATOM     54  N   UNL     1      -7.543   6.723   0.092  1.00  0.00    -0.354 N 
ATOM     55  N   UNL     1      -6.246   5.489   2.394  1.00  0.00    -0.248 NA
ATOM     56  C   UNL     1      -6.013   5.247   4.705  1.00  0.00     0.031 C 
ATOM     57  C   UNL     1      -9.248   8.106   0.444  1.00  0.00     0.029 A 
ATOM     58  C   UNL     1      -8.318   7.303   1.083  1.00  0.00     0.049 A 
ATOM     59  H   UNL     1      -6.796   6.102   0.250  1.00  0.00     0.167 HD
ATOM     60  C   UNL     1      -7.207   6.262   3.035  1.00  0.00     0.074 A 
ATOM     61  C   UNL     1      -7.037   6.050   4.457  1.00  0.00     0.031 C 
ATOM     62  C   UNL     1      -8.144   7.079   2.494  1.00  0.00     0.037 A 
BRANCH  49  63
ATOM     63  C   UNL     1      -7.978   7.303  -3.667  1.00  0.00     0.057 A 
ATOM     64  C   UNL     1      -8.777   6.517  -4.506  1.00  0.00     0.134 A 
ATOM     65  C   UNL     1      -7.795   8.647  -4.017  1.00  0.00     0.134 A 
ATOM     66  F   UNL     1      -8.981   5.220  -4.232  1.00  0.00    -0.206 F 
ATOM     67  C   UNL     1      -9.365   7.046  -5.657  1.00  0.00     0.040 A 
ATOM     68  C   UNL     1      -8.394   9.191  -5.154  1.00  0.00     0.040 A 
ATOM     69  F   UNL     1      -7.044   9.454  -3.252  1.00  0.00    -0.206 F 
ATOM     70  C   UNL     1      -9.180   8.389  -5.979  1.00  0.00     0.006 A 
ENDBRANCH  49  63
BRANCH  50  71
ATOM     71  C   UNL     1      -3.832   3.332   4.465  1.00  0.00     0.057 A 
ATOM     72  C   UNL     1      -4.545   2.437   5.270  1.00  0.00     0.134 A 
ATOM     73  C   UNL     1      -2.549   3.699   4.886  1.00  0.00     0.134 A 
ATOM     74  F   UNL     1      -5.791   2.071   4.934  1.00  0.00    -0.206 F 
ATOM     75  C   UNL     1      -4.013   1.944   6.463  1.00  0.00     0.040 A 
ATOM     76  C   UNL     1      -1.994   3.195   6.063  1.00  0.00     0.040 A 
ATOM     77  F   UNL     1      -1.818   4.559   4.161  1.00  0.00    -0.206 F 
ATOM     78  C   UNL     1      -2.731   2.321   6.860  1.00  0.00     0.006 A 
ENDBRANCH  50  71
BRANCH  62  79
ATOM     79  C   UNL     1      -9.073   7.777   3.443  1.00  0.00     0.057 A 
ATOM     80  C   UNL     1      -8.646   8.848   4.238  1.00  0.00     0.134 A 
ATOM     81  C   UNL     1     -10.414   7.388   3.547  1.00  0.00     0.134 A 
ATOM     82  F   UNL     1      -7.370   9.261   4.194  1.00  0.00    -0.206 F 
ATOM     83  C   UNL     1      -9.513   9.489   5.125  1.00  0.00     0.040 A 
ATOM     84  C   UNL     1     -11.297   8.036   4.412  1.00  0.00     0.040 A 
ATOM     85  F   UNL     1     -10.890   6.376   2.806  1.00  0.00    -0.206 F 
ATOM     86  C   UNL     1     -10.845   9.085   5.210  1.00  0.00     0.006 A 
ENDBRANCH  62  79
ENDBRANCH  36  37
ENDBRANCH  29  31
ENDBRANCH  28  29
ENDBRANCH  27  28
ENDBRANCH  26  27
ENDBRANCH  25  26
ENDBRANCH  24  25
ENDBRANCH   1  24
TORSDOF 19
