REMARK SMILES CC[C@]1(C(=O)OCCOCCOC(=O)c2ccc(-c3c4nc(c(-c5c(F)cccc5F)c5ccc([nH]5)c(-c5c(F)cccc5F)c5nc(c(-c6c(F)cccc6F)c6ccc3[nH]6)C=C5)C=C4)cc2)CCN(C(=O)[C@]2(C)CCCO2)C1
REMARK SMILES IDX 9 1 8 2 7 3 6 4 4 5 5 6 3 7 69 8 80 9 70 10 71 11 2 12 1 13
REMARK SMILES IDX 72 14 73 15 74 16 76 17 79 18 75 19 77 20 78 21 10 22 11 23
REMARK SMILES IDX 12 24 13 25 14 26 15 27 16 28 68 29 17 30 67 31 18 32 19 33
REMARK SMILES IDX 20 34 61 35 21 36 66 37 60 38 62 39 22 40 65 41 59 42 58 43
REMARK SMILES IDX 23 45 49 46 32 47 48 48 33 49 36 50 47 51 63 52 34 53 35 54
REMARK SMILES IDX 46 56 64 57 37 58 24 59 25 60 30 61 26 62 27 63 29 64 31 65
REMARK SMILES IDX 28 66 50 67 51 68 56 69 52 70 53 71 55 72 57 73 54 74 38 75
REMARK SMILES IDX 39 76 44 77 40 78 41 79 43 80 45 81 42 82
REMARK H PARENT 62 44 36 55
REMARK Flexibility Score: inf
ROOT
ATOM      1  O   UNL     1       8.678 -11.596  -5.642  1.00  0.00    -0.374 OA
ENDROOT
BRANCH   1   2
ATOM      2  C   UNL     1       7.268 -11.568  -5.878  1.00  0.00     0.202 C 
BRANCH   2   3
ATOM      3  C   UNL     1       6.375 -11.881  -4.675  1.00  0.00     0.261 C 
BRANCH   3   4
ATOM      4  O   UNL     1       6.442 -10.812  -3.715  1.00  0.00    -0.463 OA
BRANCH   4   5
ATOM      5  C   UNL     1       6.786 -11.158  -2.447  1.00  0.00     0.314 C 
ATOM      6  O   UNL     1       6.882 -12.313  -2.051  1.00  0.00    -0.252 OA
BRANCH   5   7
ATOM      7  C   UNL     1       7.010  -9.939  -1.555  1.00  0.00     0.087 C 
ATOM      8  C   UNL     1       7.296  -8.610  -2.288  1.00  0.00     0.042 C 
ATOM      9  C   UNL     1       5.644  -9.638  -0.898  1.00  0.00     0.138 C 
ATOM     10  C   UNL     1       6.774  -7.578  -1.310  1.00  0.00     0.121 C 
ATOM     11  N   UNL     1       5.537  -8.181  -0.871  1.00  0.00    -0.339 N 
BRANCH   7  12
ATOM     12  C   UNL     1       8.097 -10.255  -0.483  1.00  0.00     0.017 C 
ATOM     13  C   UNL     1       9.539 -10.010  -0.925  1.00  0.00     0.005 C 
ENDBRANCH   7  12
BRANCH  11  14
ATOM     14  C   UNL     1       4.345  -7.558  -0.561  1.00  0.00     0.254 C 
ATOM     15  O   UNL     1       3.337  -8.239  -0.340  1.00  0.00    -0.272 OA
BRANCH  14  16
ATOM     16  C   UNL     1       4.277  -5.997  -0.552  1.00  0.00     0.144 C 
ATOM     17  C   UNL     1       4.283  -5.394  -1.964  1.00  0.00     0.048 C 
ATOM     18  O   UNL     1       5.395  -5.425   0.147  1.00  0.00    -0.365 OA
ATOM     19  C   UNL     1       2.998  -5.565   0.184  1.00  0.00     0.053 C 
ATOM     20  C   UNL     1       5.387  -4.356  -1.960  1.00  0.00     0.032 C 
ATOM     21  C   UNL     1       5.781  -4.217  -0.509  1.00  0.00     0.162 C 
ENDBRANCH  14  16
ENDBRANCH  11  14
ENDBRANCH   5   7
ENDBRANCH   4   5
ENDBRANCH   3   4
ENDBRANCH   2   3
ENDBRANCH   1   2
BRANCH   1  22
ATOM     22  C   UNL     1       9.238 -10.527  -4.884  1.00  0.00     0.202 C 
BRANCH  22  23
ATOM     23  C   UNL     1       9.517  -9.218  -5.634  1.00  0.00     0.261 C 
BRANCH  23  24
ATOM     24  O   UNL     1       8.367  -8.728  -6.339  1.00  0.00    -0.460 OA
BRANCH  24  25
ATOM     25  C   UNL     1       8.439  -8.890  -7.680  1.00  0.00     0.338 C 
ATOM     26  O   UNL     1       9.408  -9.269  -8.330  1.00  0.00    -0.246 OA
BRANCH  25  27
ATOM     27  C   UNL     1       7.118  -8.704  -8.300  1.00  0.00     0.060 A 
ATOM     28  C   UNL     1       6.669  -9.726  -9.145  1.00  0.00     0.016 A 
ATOM     29  C   UNL     1       6.374  -7.531  -8.144  1.00  0.00     0.016 A 
ATOM     30  C   UNL     1       5.513  -9.550  -9.894  1.00  0.00     0.010 A 
ATOM     31  C   UNL     1       5.210  -7.354  -8.902  1.00  0.00     0.010 A 
ATOM     32  C   UNL     1       4.803  -8.344  -9.815  1.00  0.00    -0.014 A 
BRANCH  32  33
ATOM     33  C   UNL     1       3.740  -8.092 -10.817  1.00  0.00     0.031 A 
ATOM     34  C   UNL     1       4.066  -7.284 -12.044  1.00  0.00     0.074 A 
ATOM     35  C   UNL     1       2.530  -8.663 -10.686  1.00  0.00     0.049 A 
ATOM     36  N   UNL     1       3.334  -7.053 -13.104  1.00  0.00    -0.248 NA
ATOM     37  C   UNL     1       5.396  -6.656 -12.082  1.00  0.00     0.031 C 
ATOM     38  C   UNL     1       2.101  -9.480  -9.553  1.00  0.00     0.029 A 
ATOM     39  N   UNL     1       1.447  -8.655 -11.528  1.00  0.00    -0.354 N 
ATOM     40  C   UNL     1       4.116  -6.261 -13.937  1.00  0.00     0.074 A 
ATOM     41  C   UNL     1       5.362  -6.018 -13.243  1.00  0.00     0.031 C 
ATOM     42  C   UNL     1       0.845  -9.905  -9.774  1.00  0.00     0.029 A 
ATOM     43  C   UNL     1       0.382  -9.381 -11.058  1.00  0.00     0.049 A 
ATOM     44  H   UNL     1       1.434  -8.173 -12.386  1.00  0.00     0.167 HD
ATOM     45  C   UNL     1       3.828  -5.793 -15.175  1.00  0.00     0.037 A 
ATOM     46  C   UNL     1      -0.828  -9.604 -11.606  1.00  0.00     0.037 A 
ATOM     47  C   UNL     1       2.590  -6.037 -15.866  1.00  0.00     0.049 A 
ATOM     48  C   UNL     1      -1.134  -9.052 -12.972  1.00  0.00     0.074 A 
ATOM     49  C   UNL     1       2.212  -5.625 -17.132  1.00  0.00     0.029 A 
ATOM     50  N   UNL     1       1.524  -6.754 -15.345  1.00  0.00    -0.354 N 
ATOM     51  N   UNL     1      -0.369  -8.345 -13.770  1.00  0.00    -0.248 NA
ATOM     52  C   UNL     1      -2.466  -9.343 -13.520  1.00  0.00     0.031 C 
ATOM     53  C   UNL     1       0.900  -6.056 -17.360  1.00  0.00     0.029 A 
ATOM     54  C   UNL     1       0.479  -6.778 -16.254  1.00  0.00     0.049 A 
ATOM     55  H   UNL     1       1.512  -7.183 -14.459  1.00  0.00     0.167 HD
ATOM     56  C   UNL     1      -1.117  -8.129 -14.921  1.00  0.00     0.074 A 
ATOM     57  C   UNL     1      -2.388  -8.794 -14.724  1.00  0.00     0.031 C 
ATOM     58  C   UNL     1      -0.781  -7.443 -16.041  1.00  0.00     0.037 A 
BRANCH  45  59
ATOM     59  C   UNL     1       4.870  -4.951 -15.851  1.00  0.00     0.057 A 
ATOM     60  C   UNL     1       6.053  -5.504 -16.358  1.00  0.00     0.134 A 
ATOM     61  C   UNL     1       4.677  -3.574 -16.016  1.00  0.00     0.134 A 
ATOM     62  F   UNL     1       6.306  -6.814 -16.219  1.00  0.00    -0.206 F 
ATOM     63  C   UNL     1       7.018  -4.713 -16.986  1.00  0.00     0.040 A 
ATOM     64  C   UNL     1       5.623  -2.777 -16.663  1.00  0.00     0.040 A 
ATOM     65  F   UNL     1       3.565  -2.982 -15.555  1.00  0.00    -0.206 F 
ATOM     66  C   UNL     1       6.800  -3.345 -17.145  1.00  0.00     0.006 A 
ENDBRANCH  45  59
BRANCH  46  67
ATOM     67  C   UNL     1      -1.837 -10.403 -10.868  1.00  0.00     0.057 A 
ATOM     68  C   UNL     1      -2.208 -11.684 -11.291  1.00  0.00     0.134 A 
ATOM     69  C   UNL     1      -2.463  -9.895  -9.723  1.00  0.00     0.134 A 
ATOM     70  F   UNL     1      -1.659 -12.215 -12.394  1.00  0.00    -0.206 F 
ATOM     71  C   UNL     1      -3.175 -12.426 -10.612  1.00  0.00     0.040 A 
ATOM     72  C   UNL     1      -3.414 -10.636  -9.020  1.00  0.00     0.040 A 
ATOM     73  F   UNL     1      -2.149  -8.674  -9.265  1.00  0.00    -0.206 F 
ATOM     74  C   UNL     1      -3.777 -11.904  -9.469  1.00  0.00     0.006 A 
ENDBRANCH  46  67
BRANCH  58  75
ATOM     75  C   UNL     1      -1.795  -7.402 -17.147  1.00  0.00     0.057 A 
ATOM     76  C   UNL     1      -2.967  -6.641 -17.047  1.00  0.00     0.134 A 
ATOM     77  C   UNL     1      -1.587  -8.118 -18.333  1.00  0.00     0.134 A 
ATOM     78  F   UNL     1      -3.231  -5.942 -15.933  1.00  0.00    -0.206 F 
ATOM     79  C   UNL     1      -3.912  -6.619 -18.075  1.00  0.00     0.040 A 
ATOM     80  C   UNL     1      -2.512  -8.082 -19.378  1.00  0.00     0.040 A 
ATOM     81  F   UNL     1      -0.480  -8.857 -18.498  1.00  0.00    -0.206 F 
ATOM     82  C   UNL     1      -3.682  -7.338 -19.247  1.00  0.00     0.006 A 
ENDBRANCH  58  75
ENDBRANCH  32  33
ENDBRANCH  25  27
ENDBRANCH  24  25
ENDBRANCH  23  24
ENDBRANCH  22  23
ENDBRANCH   1  22
TORSDOF 17
