REMARK SMILES CC1(C)CSC[C@H](Nc2cc(C(=O)OCCOCCOC(=O)c3ccc(-c4c5nc(c(-c6c(F)cccc6F)c6ccc([nH]6)c(-c6c(F)cccc6F)c6nc(c(-c7c(F)cccc7F)c7ccc4[nH]7)C=C6)C=C5)cc3)ccc2F)C1
REMARK SMILES IDX 17 1 16 2 15 3 14 4 12 5 13 6 11 7 9 8 10 9 79 10 78 11
REMARK SMILES IDX 80 12 77 13 8 14 7 16 1 17 2 18 3 19 4 20 81 21 5 22 6 23
REMARK SMILES IDX 18 24 19 25 20 26 21 27 22 28 23 29 24 30 76 31 25 32 75 33
REMARK SMILES IDX 26 34 27 35 28 36 69 37 29 38 74 39 68 40 70 41 30 42 73 43
REMARK SMILES IDX 67 44 66 45 31 47 57 48 40 49 56 50 41 51 44 52 55 53 71 54
REMARK SMILES IDX 42 55 43 56 54 58 72 59 45 60 32 61 33 62 38 63 34 64 35 65
REMARK SMILES IDX 37 66 39 67 36 68 58 69 59 70 64 71 60 72 61 73 63 74 65 75
REMARK SMILES IDX 62 76 46 77 47 78 52 79 48 80 49 81 51 82 53 83 50 84
REMARK H PARENT 8 15 70 46 44 57
REMARK Flexibility Score: inf
ROOT
ATOM      1  O   UNL     1      -3.018  -6.047   8.120  1.00  0.00    -0.374 OA
ENDROOT
BRANCH   1   2
ATOM      2  C   UNL     1      -2.143  -7.080   8.577  1.00  0.00     0.202 C 
BRANCH   2   3
ATOM      3  C   UNL     1      -1.131  -7.609   7.559  1.00  0.00     0.261 C 
BRANCH   3   4
ATOM      4  O   UNL     1      -0.184  -6.585   7.213  1.00  0.00    -0.460 OA
BRANCH   4   5
ATOM      5  C   UNL     1      -0.249  -6.181   5.926  1.00  0.00     0.338 C 
ATOM      6  O   UNL     1      -0.866  -6.713   5.014  1.00  0.00    -0.246 OA
BRANCH   5   7
ATOM      7  C   UNL     1       0.385  -4.856   5.779  1.00  0.00     0.062 A 
ATOM      8  C   UNL     1       0.348  -2.758   4.553  1.00  0.00     0.071 A 
ATOM      9  C   UNL     1      -0.249  -3.970   4.900  1.00  0.00     0.044 A 
ATOM     10  C   UNL     1       1.564  -2.423   5.171  1.00  0.00     0.146 A 
ATOM     11  C   UNL     1       2.162  -3.266   6.111  1.00  0.00     0.042 A 
ATOM     12  F   UNL     1       2.203  -1.293   4.830  1.00  0.00    -0.205 F 
ATOM     13  C   UNL     1       1.578  -4.499   6.411  1.00  0.00     0.019 A 
BRANCH   8  14
ATOM     14  N   UNL     1      -0.150  -2.098   3.420  1.00  0.00    -0.379 N 
ATOM     15  H   UNL     1      -0.999  -1.599   3.431  1.00  0.00     0.160 HD
BRANCH  14  16
ATOM     16  C   UNL     1       0.690  -2.204   2.209  1.00  0.00     0.089 C 
ATOM     17  C   UNL     1       1.939  -0.542  -0.192  1.00  0.00     0.012 C 
ATOM     18  C   UNL     1       0.730  -1.501  -0.302  1.00  0.00    -0.024 C 
ATOM     19  C   UNL     1      -0.209  -0.969  -1.405  1.00  0.00     0.012 C 
ATOM     20  C   UNL     1       1.173  -2.915  -0.745  1.00  0.00     0.076 C 
ATOM     21  C   UNL     1      -0.057  -1.532   1.037  1.00  0.00     0.033 C 
ATOM     22  S   UNL     1       2.160  -3.812   0.476  1.00  0.00    -0.159 SA
ATOM     23  C   UNL     1       1.008  -3.677   1.866  1.00  0.00     0.094 C 
ENDBRANCH  14  16
ENDBRANCH   8  14
ENDBRANCH   5   7
ENDBRANCH   4   5
ENDBRANCH   3   4
ENDBRANCH   2   3
ENDBRANCH   1   2
BRANCH   1  24
ATOM     24  C   UNL     1      -2.501  -4.716   8.081  1.00  0.00     0.202 C 
BRANCH  24  25
ATOM     25  C   UNL     1      -2.448  -3.956   9.410  1.00  0.00     0.261 C 
BRANCH  25  26
ATOM     26  O   UNL     1      -1.539  -4.564  10.344  1.00  0.00    -0.460 OA
BRANCH  26  27
ATOM     27  C   UNL     1      -2.139  -5.200  11.377  1.00  0.00     0.338 C 
ATOM     28  O   UNL     1      -3.334  -5.228  11.636  1.00  0.00    -0.246 OA
BRANCH  27  29
ATOM     29  C   UNL     1      -1.162  -6.037  12.096  1.00  0.00     0.060 A 
ATOM     30  C   UNL     1      -1.519  -7.369  12.342  1.00  0.00     0.016 A 
ATOM     31  C   UNL     1       0.039  -5.521  12.588  1.00  0.00     0.016 A 
ATOM     32  C   UNL     1      -0.708  -8.172  13.137  1.00  0.00     0.010 A 
ATOM     33  C   UNL     1       0.851  -6.329  13.392  1.00  0.00     0.010 A 
ATOM     34  C   UNL     1       0.459  -7.643  13.704  1.00  0.00    -0.014 A 
BRANCH  34  35
ATOM     35  C   UNL     1       1.174  -8.423  14.743  1.00  0.00     0.031 A 
ATOM     36  C   UNL     1       0.933  -8.100  16.192  1.00  0.00     0.074 A 
ATOM     37  C   UNL     1       1.979  -9.444  14.403  1.00  0.00     0.049 A 
ATOM     38  N   UNL     1       1.441  -8.658  17.261  1.00  0.00    -0.248 NA
ATOM     39  C   UNL     1      -0.009  -7.005  16.475  1.00  0.00     0.031 C 
ATOM     40  C   UNL     1       2.255  -9.882  13.037  1.00  0.00     0.029 A 
ATOM     41  N   UNL     1       2.707 -10.303  15.188  1.00  0.00    -0.354 N 
ATOM     42  C   UNL     1       0.882  -7.985  18.340  1.00  0.00     0.074 A 
ATOM     43  C   UNL     1       0.022  -6.955  17.799  1.00  0.00     0.031 C 
ATOM     44  C   UNL     1       3.092 -10.933  13.078  1.00  0.00     0.029 A 
ATOM     45  C   UNL     1       3.430 -11.223  14.470  1.00  0.00     0.049 A 
ATOM     46  H   UNL     1       2.710 -10.263  16.171  1.00  0.00     0.167 HD
ATOM     47  C   UNL     1       1.058  -8.215  19.662  1.00  0.00     0.037 A 
ATOM     48  C   UNL     1       4.277 -12.184  14.890  1.00  0.00     0.037 A 
ATOM     49  C   UNL     1       1.908  -9.244  20.200  1.00  0.00     0.049 A 
ATOM     50  C   UNL     1       4.507 -12.377  16.364  1.00  0.00     0.074 A 
ATOM     51  C   UNL     1       2.146  -9.556  21.527  1.00  0.00     0.029 A 
ATOM     52  N   UNL     1       2.659 -10.126  19.439  1.00  0.00    -0.354 N 
ATOM     53  N   UNL     1       3.970 -11.738  17.375  1.00  0.00    -0.248 NA
ATOM     54  C   UNL     1       5.459 -13.427  16.757  1.00  0.00     0.031 C 
ATOM     55  C   UNL     1       3.076 -10.599  21.570  1.00  0.00     0.029 A 
ATOM     56  C   UNL     1       3.377 -10.970  20.270  1.00  0.00     0.049 A 
ATOM     57  H   UNL     1       2.680 -10.148  18.456  1.00  0.00     0.167 HD
ATOM     58  C   UNL     1       4.495 -12.324  18.520  1.00  0.00     0.074 A 
ATOM     59  C   UNL     1       5.388 -13.376  18.080  1.00  0.00     0.031 C 
ATOM     60  C   UNL     1       4.257 -12.018  19.819  1.00  0.00     0.037 A 
BRANCH  47  61
ATOM     61  C   UNL     1       0.324  -7.331  20.626  1.00  0.00     0.057 A 
ATOM     62  C   UNL     1       1.015  -6.393  21.403  1.00  0.00     0.134 A 
ATOM     63  C   UNL     1      -1.056  -7.450  20.831  1.00  0.00     0.134 A 
ATOM     64  F   UNL     1       2.339  -6.232  21.258  1.00  0.00    -0.206 F 
ATOM     65  C   UNL     1       0.362  -5.614  22.359  1.00  0.00     0.040 A 
ATOM     66  C   UNL     1      -1.725  -6.660  21.767  1.00  0.00     0.040 A 
ATOM     67  F   UNL     1      -1.779  -8.320  20.108  1.00  0.00    -0.206 F 
ATOM     68  C   UNL     1      -1.013  -5.745  22.542  1.00  0.00     0.006 A 
ENDBRANCH  47  61
BRANCH  48  69
ATOM     69  C   UNL     1       4.963 -13.044  13.894  1.00  0.00     0.057 A 
ATOM     70  C   UNL     1       5.962 -12.534  13.056  1.00  0.00     0.134 A 
ATOM     71  C   UNL     1       4.627 -14.395  13.750  1.00  0.00     0.134 A 
ATOM     72  F   UNL     1       6.327 -11.246  13.144  1.00  0.00    -0.206 F 
ATOM     73  C   UNL     1       6.590 -13.331  12.098  1.00  0.00     0.040 A 
ATOM     74  C   UNL     1       5.263 -15.210  12.812  1.00  0.00     0.040 A 
ATOM     75  F   UNL     1       3.693 -14.946  14.540  1.00  0.00    -0.206 F 
ATOM     76  C   UNL     1       6.243 -14.675  11.977  1.00  0.00     0.006 A 
ENDBRANCH  48  69
BRANCH  60  77
ATOM     77  C   UNL     1       4.945 -12.844  20.867  1.00  0.00     0.057 A 
ATOM     78  C   UNL     1       4.213 -13.732  21.667  1.00  0.00     0.134 A 
ATOM     79  C   UNL     1       6.312 -12.708  21.135  1.00  0.00     0.134 A 
ATOM     80  F   UNL     1       2.897 -13.900  21.470  1.00  0.00    -0.206 F 
ATOM     81  C   UNL     1       4.816 -14.448  22.703  1.00  0.00     0.040 A 
ATOM     82  C   UNL     1       6.931 -13.437  22.152  1.00  0.00     0.040 A 
ATOM     83  F   UNL     1       7.070 -11.880  20.401  1.00  0.00    -0.206 F 
ATOM     84  C   UNL     1       6.180 -14.303  22.945  1.00  0.00     0.006 A 
ENDBRANCH  60  77
ENDBRANCH  34  35
ENDBRANCH  27  29
ENDBRANCH  26  27
ENDBRANCH  25  26
ENDBRANCH  24  25
ENDBRANCH   1  24
TORSDOF 16
