REMARK SMILES CN(C(=O)N(CC(=O)OCCOCCOC(=O)c1ccc(-c2c3nc(c(-c4c(F)cccc4F)c4ccc([nH]4)c(-c4c(F)cccc4F)c4nc(c(-c5c(F)cccc5F)c5ccc2[nH]5)C=C4)C=C3)cc1)C(C)(C)C)C1CCCCCC1
REMARK SMILES IDX 9 1 7 2 8 3 6 4 5 5 3 6 4 7 2 8 1 9 76 10 77 11 78 12 82 14
REMARK SMILES IDX 81 15 80 16 79 17 72 19 73 20 74 21 75 22 10 23 11 24 12 25
REMARK SMILES IDX 13 26 14 27 15 28 16 29 17 30 18 31 19 32 71 33 20 34 70 35
REMARK SMILES IDX 21 36 22 37 23 38 64 39 24 40 69 41 63 42 65 43 25 44 68 45
REMARK SMILES IDX 62 46 61 47 26 49 52 50 35 51 51 52 36 53 39 54 50 55 66 56
REMARK SMILES IDX 37 57 38 58 49 60 67 61 40 62 27 63 28 64 33 65 29 66 30 67
REMARK SMILES IDX 32 68 34 69 31 70 53 71 54 72 59 73 55 74 56 75 58 76 60 77
REMARK SMILES IDX 57 78 41 79 42 80 47 81 43 82 44 83 46 84 48 85 45 86
REMARK H PARENT 65 48 39 59
REMARK Flexibility Score: 80.00
ROOT
ATOM      1  O   UNL     1      -1.660  -2.242   0.297  1.00  0.00    -0.462 OA
ENDROOT
BRANCH   1   2
ATOM      2  C   UNL     1      -0.403  -2.770   0.221  1.00  0.00     0.325 C 
ATOM      3  O   UNL     1       0.083  -3.509   1.073  1.00  0.00    -0.250 OA
BRANCH   2   4
ATOM      4  C   UNL     1       0.427  -2.306  -0.993  1.00  0.00     0.244 C 
BRANCH   4   5
ATOM      5  N   UNL     1      -0.124  -1.431  -2.044  1.00  0.00    -0.309 N 
BRANCH   5   6
ATOM      6  C   UNL     1       0.164  -0.069  -2.152  1.00  0.00     0.320 C 
ATOM      7  O   UNL     1       0.084   0.475  -3.259  1.00  0.00    -0.248 OA
BRANCH   6   8
ATOM      8  N   UNL     1       0.550   0.717  -1.066  1.00  0.00    -0.325 N 
ATOM      9  C   UNL     1       0.499   0.361   0.341  1.00  0.00     0.149 C 
BRANCH   8  10
ATOM     10  C   UNL     1       1.020   2.110  -1.399  1.00  0.00     0.086 C 
BRANCH  10  11
ATOM     11  C   UNL     1      -0.111   2.983  -2.009  1.00  0.00     0.025 C 
BRANCH  11  12
ATOM     12  C   UNL     1      -0.767   4.026  -1.113  1.00  0.00     0.002 CG0
ATOM     13  G   UNL     1       0.010   5.337  -1.056  1.00  0.00     0.000 G0
ENDBRANCH  11  12
ENDBRANCH  10  11
BRANCH  10  14
ATOM     14  C   UNL     1       1.826   2.808  -0.278  1.00  0.00     0.025 C 
BRANCH  14  15
ATOM     15  C   UNL     1       2.286   4.230  -0.601  1.00  0.00     0.002 C 
BRANCH  15  16
ATOM     16  C   UNL     1       1.263   5.290  -0.192  1.00  0.00     0.000 C 
BRANCH  16  17
ATOM     17  C   UNL     1       0.010   5.337  -1.056  1.00  0.00     0.000 CG0
ATOM     18  G   UNL     1      -0.767   4.026  -1.113  1.00  0.00     0.000 G0
ENDBRANCH  16  17
ENDBRANCH  15  16
ENDBRANCH  14  15
ENDBRANCH  10  14
ENDBRANCH   8  10
ENDBRANCH   6   8
ENDBRANCH   5   6
BRANCH   5  19
ATOM     19  C   UNL     1      -0.831  -2.089  -3.228  1.00  0.00     0.037 C 
ATOM     20  C   UNL     1      -2.246  -1.485  -3.368  1.00  0.00     0.034 C 
ATOM     21  C   UNL     1      -0.054  -1.919  -4.562  1.00  0.00     0.034 C 
ATOM     22  C   UNL     1      -1.002  -3.623  -3.100  1.00  0.00     0.034 C 
ENDBRANCH   5  19
ENDBRANCH   4   5
ENDBRANCH   2   4
ENDBRANCH   1   2
BRANCH   1  23
ATOM     23  C   UNL     1      -2.347  -2.443   1.557  1.00  0.00     0.261 C 
BRANCH  23  24
ATOM     24  C   UNL     1      -3.776  -2.983   1.411  1.00  0.00     0.202 C 
BRANCH  24  25
ATOM     25  O   UNL     1      -3.911  -4.333   0.966  1.00  0.00    -0.374 OA
BRANCH  25  26
ATOM     26  C   UNL     1      -3.502  -4.601  -0.371  1.00  0.00     0.202 C 
BRANCH  26  27
ATOM     27  C   UNL     1      -4.485  -4.191  -1.474  1.00  0.00     0.261 C 
BRANCH  27  28
ATOM     28  O   UNL     1      -4.899  -2.819  -1.358  1.00  0.00    -0.460 OA
BRANCH  28  29
ATOM     29  C   UNL     1      -6.233  -2.649  -1.216  1.00  0.00     0.338 C 
ATOM     30  O   UNL     1      -7.108  -3.495  -1.360  1.00  0.00    -0.246 OA
BRANCH  29  31
ATOM     31  C   UNL     1      -6.533  -1.312  -0.678  1.00  0.00     0.060 A 
ATOM     32  C   UNL     1      -7.238  -1.261   0.530  1.00  0.00     0.016 A 
ATOM     33  C   UNL     1      -6.234  -0.140  -1.378  1.00  0.00     0.016 A 
ATOM     34  C   UNL     1      -7.707  -0.042   1.010  1.00  0.00     0.010 A 
ATOM     35  C   UNL     1      -6.711   1.086  -0.895  1.00  0.00     0.010 A 
ATOM     36  C   UNL     1      -7.486   1.134   0.278  1.00  0.00    -0.014 A 
BRANCH  36  37
ATOM     37  C   UNL     1      -8.200   2.367   0.693  1.00  0.00     0.031 A 
ATOM     38  C   UNL     1      -9.497   2.728   0.022  1.00  0.00     0.074 A 
ATOM     39  C   UNL     1      -7.745   3.105   1.722  1.00  0.00     0.049 A 
ATOM     40  N   UNL     1     -10.338   3.691   0.304  1.00  0.00    -0.248 NA
ATOM     41  C   UNL     1      -9.905   1.888  -1.116  1.00  0.00     0.031 C 
ATOM     42  C   UNL     1      -6.516   2.845   2.467  1.00  0.00     0.029 A 
ATOM     43  N   UNL     1      -8.278   4.216   2.325  1.00  0.00    -0.354 N 
ATOM     44  C   UNL     1     -11.377   3.565  -0.609  1.00  0.00     0.074 A 
ATOM     45  C   UNL     1     -11.044   2.458  -1.480  1.00  0.00     0.031 C 
ATOM     46  C   UNL     1      -6.391   3.767   3.437  1.00  0.00     0.029 A 
ATOM     47  C   UNL     1      -7.524   4.689   3.371  1.00  0.00     0.049 A 
ATOM     48  H   UNL     1      -9.121   4.635   2.037  1.00  0.00     0.167 HD
ATOM     49  C   UNL     1     -12.514   4.296  -0.705  1.00  0.00     0.037 A 
ATOM     50  C   UNL     1      -7.726   5.744   4.183  1.00  0.00     0.037 A 
ATOM     51  C   UNL     1     -12.845   5.400   0.157  1.00  0.00     0.049 A 
ATOM     52  C   UNL     1      -8.972   6.573   4.022  1.00  0.00     0.074 A 
ATOM     53  C   UNL     1     -13.983   6.189   0.152  1.00  0.00     0.029 A 
ATOM     54  N   UNL     1     -12.032   5.877   1.173  1.00  0.00    -0.354 N 
ATOM     55  N   UNL     1      -9.969   6.415   3.185  1.00  0.00    -0.248 NA
ATOM     56  C   UNL     1      -9.125   7.723   4.925  1.00  0.00     0.031 C 
ATOM     57  C   UNL     1     -13.838   7.171   1.138  1.00  0.00     0.029 A 
ATOM     58  C   UNL     1     -12.629   6.967   1.784  1.00  0.00     0.049 A 
ATOM     59  H   UNL     1     -11.159   5.498   1.423  1.00  0.00     0.167 HD
ATOM     60  C   UNL     1     -10.873   7.430   3.471  1.00  0.00     0.074 A 
ATOM     61  C   UNL     1     -10.315   8.187   4.573  1.00  0.00     0.031 C 
ATOM     62  C   UNL     1     -12.058   7.712   2.876  1.00  0.00     0.037 A 
BRANCH  49  63
ATOM     63  C   UNL     1     -13.479   3.930  -1.793  1.00  0.00     0.057 A 
ATOM     64  C   UNL     1     -14.274   2.778  -1.718  1.00  0.00     0.134 A 
ATOM     65  C   UNL     1     -13.641   4.754  -2.913  1.00  0.00     0.134 A 
ATOM     66  F   UNL     1     -14.159   1.940  -0.676  1.00  0.00    -0.206 F 
ATOM     67  C   UNL     1     -15.181   2.450  -2.727  1.00  0.00     0.040 A 
ATOM     68  C   UNL     1     -14.559   4.448  -3.919  1.00  0.00     0.040 A 
ATOM     69  F   UNL     1     -12.914   5.874  -3.045  1.00  0.00    -0.206 F 
ATOM     70  C   UNL     1     -15.329   3.290  -3.829  1.00  0.00     0.006 A 
ENDBRANCH  49  63
BRANCH  50  71
ATOM     71  C   UNL     1      -6.726   6.079   5.227  1.00  0.00     0.057 A 
ATOM     72  C   UNL     1      -7.008   5.909   6.587  1.00  0.00     0.134 A 
ATOM     73  C   UNL     1      -5.470   6.595   4.887  1.00  0.00     0.134 A 
ATOM     74  F   UNL     1      -8.203   5.441   6.976  1.00  0.00    -0.206 F 
ATOM     75  C   UNL     1      -6.082   6.253   7.573  1.00  0.00     0.040 A 
ATOM     76  C   UNL     1      -4.526   6.922   5.862  1.00  0.00     0.040 A 
ATOM     77  F   UNL     1      -5.139   6.781   3.601  1.00  0.00    -0.206 F 
ATOM     78  C   UNL     1      -4.834   6.757   7.210  1.00  0.00     0.006 A 
ENDBRANCH  50  71
BRANCH  62  79
ATOM     79  C   UNL     1     -12.832   8.879   3.413  1.00  0.00     0.057 A 
ATOM     80  C   UNL     1     -12.434  10.200   3.172  1.00  0.00     0.134 A 
ATOM     81  C   UNL     1     -14.004   8.681   4.154  1.00  0.00     0.134 A 
ATOM     82  F   UNL     1     -11.313  10.456   2.479  1.00  0.00    -0.206 F 
ATOM     83  C   UNL     1     -13.161  11.283   3.668  1.00  0.00     0.040 A 
ATOM     84  C   UNL     1     -14.752   9.756   4.636  1.00  0.00     0.040 A 
ATOM     85  F   UNL     1     -14.445   7.441   4.413  1.00  0.00    -0.206 F 
ATOM     86  C   UNL     1     -14.327  11.062   4.398  1.00  0.00     0.006 A 
ENDBRANCH  62  79
ENDBRANCH  36  37
ENDBRANCH  29  31
ENDBRANCH  28  29
ENDBRANCH  27  28
ENDBRANCH  26  27
ENDBRANCH  25  26
ENDBRANCH  24  25
ENDBRANCH  23  24
ENDBRANCH   1  23
TORSDOF 19
