REMARK SMILES O=C(OCCOCCOC(=O)c1cc(Br)ccc1N1CC2(CCCCC2)C1)c1ccc(-c2c3nc(c(-c4c(F)cccc4F)c4ccc([nH]4)c(-c4c(F)cccc4F)c4nc(c(-c5c(F)cccc5F)c5ccc2[nH]5)C=C4)C=C3)cc1
REMARK SMILES IDX 5 1 4 2 3 3 2 4 1 5 28 6 29 7 81 8 30 9 80 10 31 11 32 12
REMARK SMILES IDX 33 13 74 14 34 15 79 16 73 17 75 18 35 19 78 20 72 21 71 22
REMARK SMILES IDX 36 24 62 25 45 26 61 27 46 28 49 29 60 30 76 31 47 32 48 33
REMARK SMILES IDX 59 35 77 36 50 37 37 38 38 39 43 40 39 41 40 42 42 43 44 44
REMARK SMILES IDX 41 45 63 46 64 47 69 48 65 49 66 50 68 51 70 52 67 53 51 54
REMARK SMILES IDX 52 55 57 56 53 57 54 58 56 59 58 60 55 61 6 62 7 63 8 64
REMARK SMILES IDX 9 65 10 66 11 67 12 68 13 69 18 70 14 71 17 72 15 73 16 74
REMARK SMILES IDX 19 75 20 76 27 77 21 78 22 79 26 80 23 81 25 82 24 83
REMARK H PARENT 75 23 49 34
REMARK Flexibility Score: inf
ROOT
ATOM      1  C   UNL     1       2.934   0.459  -1.576  1.00  0.00     0.202 C 
ENDROOT
BRANCH   1   2
ATOM      2  C   UNL     1       2.978  -0.913  -0.902  1.00  0.00     0.261 C 
BRANCH   2   3
ATOM      3  O   UNL     1       1.668  -1.202  -0.363  1.00  0.00    -0.460 OA
BRANCH   3   4
ATOM      4  C   UNL     1       1.225  -0.916   0.883  1.00  0.00     0.338 C 
ATOM      5  O   UNL     1       0.022  -0.839   1.116  1.00  0.00    -0.246 OA
BRANCH   4   6
ATOM      6  C   UNL     1       2.164  -0.863   2.026  1.00  0.00     0.060 A 
ATOM      7  C   UNL     1       3.149   0.108   2.135  1.00  0.00     0.016 A 
ATOM      8  C   UNL     1       1.949  -1.724   3.110  1.00  0.00     0.016 A 
ATOM      9  C   UNL     1       3.967   0.170   3.252  1.00  0.00     0.010 A 
ATOM     10  C   UNL     1       2.732  -1.617   4.270  1.00  0.00     0.010 A 
ATOM     11  C   UNL     1       3.764  -0.669   4.344  1.00  0.00    -0.014 A 
BRANCH  11  12
ATOM     12  C   UNL     1       4.688  -0.553   5.501  1.00  0.00     0.031 A 
ATOM     13  C   UNL     1       5.546  -1.724   5.878  1.00  0.00     0.074 A 
ATOM     14  C   UNL     1       4.863   0.634   6.120  1.00  0.00     0.049 A 
ATOM     15  N   UNL     1       6.314  -1.885   6.923  1.00  0.00    -0.248 NA
ATOM     16  C   UNL     1       5.543  -2.868   4.952  1.00  0.00     0.031 C 
ATOM     17  C   UNL     1       4.191   1.886   5.758  1.00  0.00     0.029 A 
ATOM     18  N   UNL     1       5.696   1.000   7.147  1.00  0.00    -0.354 N 
ATOM     19  C   UNL     1       6.827  -3.171   6.817  1.00  0.00     0.074 A 
ATOM     20  C   UNL     1       6.304  -3.740   5.595  1.00  0.00     0.031 C 
ATOM     21  C   UNL     1       4.700   2.890   6.486  1.00  0.00     0.029 A 
ATOM     22  C   UNL     1       5.628   2.337   7.463  1.00  0.00     0.049 A 
ATOM     23  H   UNL     1       6.287   0.365   7.613  1.00  0.00     0.167 HD
ATOM     24  C   UNL     1       7.643  -3.818   7.681  1.00  0.00     0.037 A 
ATOM     25  C   UNL     1       6.202   3.030   8.466  1.00  0.00     0.037 A 
ATOM     26  C   UNL     1       8.185  -3.213   8.870  1.00  0.00     0.049 A 
ATOM     27  C   UNL     1       7.042   2.273   9.456  1.00  0.00     0.074 A 
ATOM     28  C   UNL     1       8.964  -3.788   9.858  1.00  0.00     0.029 A 
ATOM     29  N   UNL     1       8.015  -1.880   9.217  1.00  0.00    -0.354 N 
ATOM     30  N   UNL     1       7.406   1.012   9.437  1.00  0.00    -0.248 NA
ATOM     31  C   UNL     1       7.513   3.018  10.630  1.00  0.00     0.031 C 
ATOM     32  C   UNL     1       9.230  -2.811  10.824  1.00  0.00     0.029 A 
ATOM     33  C   UNL     1       8.662  -1.615  10.411  1.00  0.00     0.049 A 
ATOM     34  H   UNL     1       7.508  -1.220   8.691  1.00  0.00     0.167 HD
ATOM     35  C   UNL     1       8.145   0.811  10.594  1.00  0.00     0.074 A 
ATOM     36  C   UNL     1       8.206   2.090  11.275  1.00  0.00     0.031 C 
ATOM     37  C   UNL     1       8.709  -0.329  11.061  1.00  0.00     0.037 A 
BRANCH  24  38
ATOM     38  C   UNL     1       7.911  -5.270   7.413  1.00  0.00     0.057 A 
ATOM     39  C   UNL     1       8.732  -5.709   6.369  1.00  0.00     0.134 A 
ATOM     40  C   UNL     1       7.305  -6.250   8.213  1.00  0.00     0.134 A 
ATOM     41  F   UNL     1       9.320  -4.825   5.548  1.00  0.00    -0.206 F 
ATOM     42  C   UNL     1       8.920  -7.070   6.111  1.00  0.00     0.040 A 
ATOM     43  C   UNL     1       7.506  -7.611   7.982  1.00  0.00     0.040 A 
ATOM     44  F   UNL     1       6.502  -5.899   9.229  1.00  0.00    -0.206 F 
ATOM     45  C   UNL     1       8.308  -8.025   6.921  1.00  0.00     0.006 A 
ENDBRANCH  24  38
BRANCH  25  46
ATOM     46  C   UNL     1       5.926   4.483   8.640  1.00  0.00     0.057 A 
ATOM     47  C   UNL     1       6.947   5.437   8.560  1.00  0.00     0.134 A 
ATOM     48  C   UNL     1       4.633   4.955   8.909  1.00  0.00     0.134 A 
ATOM     49  F   UNL     1       8.214   5.055   8.337  1.00  0.00    -0.206 F 
ATOM     50  C   UNL     1       6.695   6.799   8.746  1.00  0.00     0.040 A 
ATOM     51  C   UNL     1       4.361   6.315   9.060  1.00  0.00     0.040 A 
ATOM     52  F   UNL     1       3.606   4.098   9.011  1.00  0.00    -0.206 F 
ATOM     53  C   UNL     1       5.396   7.242   8.986  1.00  0.00     0.006 A 
ENDBRANCH  25  46
BRANCH  37  54
ATOM     54  C   UNL     1       9.460  -0.232  12.354  1.00  0.00     0.057 A 
ATOM     55  C   UNL     1       8.802  -0.090  13.582  1.00  0.00     0.134 A 
ATOM     56  C   UNL     1      10.858  -0.318  12.371  1.00  0.00     0.134 A 
ATOM     57  F   UNL     1       7.465   0.014  13.629  1.00  0.00    -0.206 F 
ATOM     58  C   UNL     1       9.510  -0.017  14.781  1.00  0.00     0.040 A 
ATOM     59  C   UNL     1      11.575  -0.274  13.566  1.00  0.00     0.040 A 
ATOM     60  F   UNL     1      11.546  -0.462  11.228  1.00  0.00    -0.206 F 
ATOM     61  C   UNL     1      10.901  -0.117  14.775  1.00  0.00     0.006 A 
ENDBRANCH  37  54
ENDBRANCH  11  12
ENDBRANCH   4   6
ENDBRANCH   3   4
ENDBRANCH   2   3
ENDBRANCH   1   2
BRANCH   1  62
ATOM     62  O   UNL     1       3.008   1.458  -0.567  1.00  0.00    -0.374 OA
BRANCH  62  63
ATOM     63  C   UNL     1       1.998   2.462  -0.587  1.00  0.00     0.202 C 
BRANCH  63  64
ATOM     64  C   UNL     1       2.658   3.819  -0.814  1.00  0.00     0.261 C 
BRANCH  64  65
ATOM     65  O   UNL     1       3.436   3.742  -2.018  1.00  0.00    -0.460 OA
BRANCH  65  66
ATOM     66  C   UNL     1       4.771   3.470  -1.854  1.00  0.00     0.340 C 
ATOM     67  O   UNL     1       5.384   3.541  -0.818  1.00  0.00    -0.246 OA
BRANCH  66  68
ATOM     68  C   UNL     1       5.294   3.009  -3.178  1.00  0.00     0.084 A 
ATOM     69  C   UNL     1       4.726   3.585  -4.328  1.00  0.00     0.033 A 
ATOM     70  C   UNL     1       6.308   2.028  -3.298  1.00  0.00     0.051 A 
ATOM     71  C   UNL     1       5.121   3.167  -5.591  1.00  0.00     0.018 A 
ATOM     72  C   UNL     1       6.687   1.625  -4.590  1.00  0.00     0.028 A 
ATOM     73  Br  UNL     1       4.327   3.938  -7.120  1.00  0.00    -0.051 Br
ATOM     74  C   UNL     1       6.091   2.180  -5.728  1.00  0.00     0.018 A 
BRANCH  70  75
ATOM     75  N   UNL     1       6.947   1.455  -2.185  1.00  0.00    -0.370 N 
ATOM     76  C   UNL     1       6.595   0.265  -1.471  1.00  0.00     0.125 C 
ATOM     77  C   UNL     1       8.348   1.257  -1.917  1.00  0.00     0.125 C 
ATOM     78  C   UNL     1       7.889   0.493  -0.641  1.00  0.00     0.005 C 
ATOM     79  C   UNL     1       8.625  -0.777  -0.209  1.00  0.00     0.011 C 
ATOM     80  C   UNL     1       7.753   1.452   0.556  1.00  0.00     0.011 C 
ATOM     81  C   UNL     1       7.869  -1.458   0.942  1.00  0.00     0.001 C 
ATOM     82  C   UNL     1       6.951   0.782   1.656  1.00  0.00     0.001 C 
ATOM     83  C   UNL     1       7.615  -0.510   2.115  1.00  0.00     0.000 C 
ENDBRANCH  70  75
ENDBRANCH  66  68
ENDBRANCH  65  66
ENDBRANCH  64  65
ENDBRANCH  63  64
ENDBRANCH  62  63
ENDBRANCH   1  62
TORSDOF 15
