REMARK SMILES Cc1ccccc1NC(=O)CSc1nc(C(=O)OCCOCCOC(=O)c2ccc(-c3c4nc(c(-c5c(F)cccc5F)c5ccc([nH]5)c(-c5c(F)cccc5F)c5nc(c(-c6c(F)cccc6F)c6ccc3[nH]6)C=C5)C=C4)cc2)c2ccccc2n1
REMARK SMILES IDX 20 1 19 2 18 3 16 4 17 5 15 6 13 7 14 8 87 9 86 10 81 11
REMARK SMILES IDX 85 12 82 13 84 14 83 15 12 16 11 17 9 18 8 19 10 21 7 22
REMARK SMILES IDX 1 23 2 24 3 25 4 26 6 27 5 28 21 29 22 30 23 31 24 32 25 33
REMARK SMILES IDX 26 34 27 35 28 36 80 37 29 38 79 39 30 40 31 41 32 42 73 43
REMARK SMILES IDX 33 44 78 45 72 46 74 47 34 48 77 49 71 50 70 51 35 53 61 54
REMARK SMILES IDX 44 55 60 56 45 57 48 58 59 59 75 60 46 61 47 62 58 64 76 65
REMARK SMILES IDX 49 66 36 67 37 68 42 69 38 70 39 71 41 72 43 73 40 74 62 75
REMARK SMILES IDX 63 76 68 77 64 78 65 79 67 80 69 81 66 82 50 83 51 84 56 85
REMARK SMILES IDX 52 86 53 87 55 88 57 89 54 90
REMARK H PARENT 8 20 74 52 48 63
REMARK Flexibility Score: inf
ROOT
ATOM      1  C   UNL     1      -3.128   7.247  -6.285  1.00  0.00     0.202 C 
ENDROOT
BRANCH   1   2
ATOM      2  C   UNL     1      -1.730   7.779  -6.364  1.00  0.00     0.261 C 
BRANCH   2   3
ATOM      3  O   UNL     1      -0.809   6.925  -5.669  1.00  0.00    -0.458 OA
BRANCH   3   4
ATOM      4  C   UNL     1      -0.948   6.579  -4.367  1.00  0.00     0.357 C 
ATOM      5  O   UNL     1      -1.352   7.264  -3.457  1.00  0.00    -0.244 OA
BRANCH   4   6
ATOM      6  C   UNL     1      -0.657   5.119  -4.262  1.00  0.00     0.160 A 
ATOM      7  C   UNL     1      -1.148   3.325  -2.972  1.00  0.00     0.189 A 
ATOM      8  N   UNL     1      -1.103   4.637  -3.087  1.00  0.00    -0.215 NA
ATOM      9  N   UNL     1      -0.747   2.461  -3.912  1.00  0.00    -0.222 NA
ATOM     10  C   UNL     1      -0.273   2.957  -5.064  1.00  0.00     0.076 A 
ATOM     11  C   UNL     1      -0.199   4.322  -5.335  1.00  0.00     0.034 A 
ATOM     12  C   UNL     1       0.114   2.063  -6.059  1.00  0.00     0.029 A 
ATOM     13  C   UNL     1       0.270   4.731  -6.630  1.00  0.00     0.013 A 
ATOM     14  C   UNL     1       0.525   2.477  -7.332  1.00  0.00     0.002 A 
ATOM     15  C   UNL     1       0.589   3.823  -7.626  1.00  0.00     0.001 A 
BRANCH   7  16
ATOM     16  S   UNL     1      -2.087   2.717  -1.614  1.00  0.00    -0.076 SA
BRANCH  16  17
ATOM     17  C   UNL     1      -1.371   3.723  -0.271  1.00  0.00     0.178 C 
BRANCH  17  18
ATOM     18  C   UNL     1       0.114   3.495  -0.062  1.00  0.00     0.234 C 
ATOM     19  N   UNL     1       0.680   2.281   0.204  1.00  0.00    -0.325 N 
ATOM     20  H   UNL     1       1.655   2.331   0.339  1.00  0.00     0.169 HD
ATOM     21  O   UNL     1       0.894   4.456  -0.117  1.00  0.00    -0.274 OA
BRANCH  19  22
ATOM     22  C   UNL     1       0.171   0.973   0.328  1.00  0.00     0.044 A 
ATOM     23  C   UNL     1       2.517  -0.040  -0.081  1.00  0.00     0.046 C 
ATOM     24  C   UNL     1       1.022  -0.126   0.088  1.00  0.00    -0.027 A 
ATOM     25  C   UNL     1       0.462  -1.416  -0.008  1.00  0.00     0.005 A 
ATOM     26  C   UNL     1      -0.903  -1.628   0.163  1.00  0.00     0.000 A 
ATOM     27  C   UNL     1      -1.167   0.714   0.642  1.00  0.00     0.026 A 
ATOM     28  C   UNL     1      -1.714  -0.564   0.519  1.00  0.00     0.002 A 
ENDBRANCH  19  22
ENDBRANCH  17  18
ENDBRANCH  16  17
ENDBRANCH   7  16
ENDBRANCH   4   6
ENDBRANCH   3   4
ENDBRANCH   2   3
ENDBRANCH   1   2
BRANCH   1  29
ATOM     29  O   UNL     1      -3.527   7.416  -4.942  1.00  0.00    -0.374 OA
BRANCH  29  30
ATOM     30  C   UNL     1      -4.786   6.889  -4.588  1.00  0.00     0.202 C 
BRANCH  30  31
ATOM     31  C   UNL     1      -5.911   7.582  -5.362  1.00  0.00     0.261 C 
BRANCH  31  32
ATOM     32  O   UNL     1      -5.939   8.995  -5.040  1.00  0.00    -0.460 OA
BRANCH  32  33
ATOM     33  C   UNL     1      -5.256   9.831  -5.878  1.00  0.00     0.338 C 
ATOM     34  O   UNL     1      -5.390   9.873  -7.091  1.00  0.00    -0.246 OA
BRANCH  33  35
ATOM     35  C   UNL     1      -4.122  10.483  -5.151  1.00  0.00     0.060 A 
ATOM     36  C   UNL     1      -3.112  11.167  -5.862  1.00  0.00     0.016 A 
ATOM     37  C   UNL     1      -3.886  10.078  -3.845  1.00  0.00     0.016 A 
ATOM     38  C   UNL     1      -1.811  11.268  -5.333  1.00  0.00     0.010 A 
ATOM     39  C   UNL     1      -2.583  10.043  -3.405  1.00  0.00     0.010 A 
ATOM     40  C   UNL     1      -1.524  10.604  -4.146  1.00  0.00    -0.014 A 
BRANCH  40  41
ATOM     41  C   UNL     1      -0.204  10.351  -3.550  1.00  0.00     0.031 A 
ATOM     42  C   UNL     1      -0.019  10.803  -2.151  1.00  0.00     0.074 A 
ATOM     43  C   UNL     1       0.645   9.420  -4.059  1.00  0.00     0.049 A 
ATOM     44  N   UNL     1       1.032  10.577  -1.453  1.00  0.00    -0.248 NA
ATOM     45  C   UNL     1      -1.008  11.593  -1.416  1.00  0.00     0.031 C 
ATOM     46  C   UNL     1       1.535   8.514  -3.317  1.00  0.00     0.029 A 
ATOM     47  N   UNL     1       0.867   9.039  -5.383  1.00  0.00    -0.354 N 
ATOM     48  C   UNL     1       0.729  10.827  -0.138  1.00  0.00     0.074 A 
ATOM     49  C   UNL     1      -0.490  11.588  -0.185  1.00  0.00     0.031 C 
ATOM     50  C   UNL     1       2.366   7.884  -4.165  1.00  0.00     0.029 A 
ATOM     51  C   UNL     1       2.146   8.460  -5.474  1.00  0.00     0.049 A 
ATOM     52  H   UNL     1       0.235   9.155  -6.128  1.00  0.00     0.167 HD
ATOM     53  C   UNL     1       1.512  10.239   0.808  1.00  0.00     0.037 A 
ATOM     54  C   UNL     1       3.080   8.998  -6.303  1.00  0.00     0.037 A 
ATOM     55  C   UNL     1       2.686   9.617   0.167  1.00  0.00     0.049 A 
ATOM     56  C   UNL     1       4.189   9.558  -5.458  1.00  0.00     0.074 A 
ATOM     57  C   UNL     1       3.080   8.312  -0.077  1.00  0.00     0.029 A 
ATOM     58  N   UNL     1       3.499  10.419  -0.637  1.00  0.00    -0.354 N 
ATOM     59  N   UNL     1       4.015   9.892  -4.205  1.00  0.00    -0.248 NA
ATOM     60  C   UNL     1       5.584   9.640  -5.869  1.00  0.00     0.031 C 
ATOM     61  C   UNL     1       4.109   8.346  -1.071  1.00  0.00     0.029 A 
ATOM     62  C   UNL     1       4.360   9.669  -1.411  1.00  0.00     0.049 A 
ATOM     63  H   UNL     1       3.463  11.403  -0.648  1.00  0.00     0.167 HD
ATOM     64  C   UNL     1       5.223  10.105  -3.615  1.00  0.00     0.074 A 
ATOM     65  C   UNL     1       6.173   9.980  -4.708  1.00  0.00     0.031 C 
ATOM     66  C   UNL     1       5.350  10.323  -2.272  1.00  0.00     0.037 A 
BRANCH  53  67
ATOM     67  C   UNL     1       1.184  10.093   2.284  1.00  0.00     0.057 A 
ATOM     68  C   UNL     1       2.083   9.429   3.145  1.00  0.00     0.134 A 
ATOM     69  C   UNL     1      -0.002  10.512   2.924  1.00  0.00     0.134 A 
ATOM     70  F   UNL     1       3.255   8.953   2.703  1.00  0.00    -0.206 F 
ATOM     71  C   UNL     1       1.825   9.209   4.508  1.00  0.00     0.040 A 
ATOM     72  C   UNL     1      -0.256  10.330   4.293  1.00  0.00     0.040 A 
ATOM     73  F   UNL     1      -1.012  11.090   2.273  1.00  0.00    -0.206 F 
ATOM     74  C   UNL     1       0.657   9.669   5.092  1.00  0.00     0.006 A 
ENDBRANCH  53  67
BRANCH  54  75
ATOM     75  C   UNL     1       2.441   9.504  -7.558  1.00  0.00     0.057 A 
ATOM     76  C   UNL     1       1.992   8.515  -8.462  1.00  0.00     0.134 A 
ATOM     77  C   UNL     1       1.739  10.718  -7.565  1.00  0.00     0.134 A 
ATOM     78  F   UNL     1       2.603   7.320  -8.510  1.00  0.00    -0.206 F 
ATOM     79  C   UNL     1       0.806   8.656  -9.196  1.00  0.00     0.040 A 
ATOM     80  C   UNL     1       0.540  10.860  -8.286  1.00  0.00     0.040 A 
ATOM     81  F   UNL     1       2.081  11.705  -6.725  1.00  0.00    -0.206 F 
ATOM     82  C   UNL     1       0.047   9.813  -9.064  1.00  0.00     0.006 A 
ENDBRANCH  54  75
BRANCH  66  83
ATOM     83  C   UNL     1       6.455  11.143  -1.642  1.00  0.00     0.057 A 
ATOM     84  C   UNL     1       7.359  11.940  -2.362  1.00  0.00     0.134 A 
ATOM     85  C   UNL     1       6.524  11.307  -0.237  1.00  0.00     0.134 A 
ATOM     86  F   UNL     1       7.347  12.009  -3.699  1.00  0.00    -0.206 F 
ATOM     87  C   UNL     1       8.295  12.773  -1.741  1.00  0.00     0.040 A 
ATOM     88  C   UNL     1       7.400  12.196   0.388  1.00  0.00     0.040 A 
ATOM     89  F   UNL     1       5.719  10.648   0.606  1.00  0.00    -0.206 F 
ATOM     90  C   UNL     1       8.308  12.918  -0.363  1.00  0.00     0.006 A 
ENDBRANCH  66  83
ENDBRANCH  40  41
ENDBRANCH  33  35
ENDBRANCH  32  33
ENDBRANCH  31  32
ENDBRANCH  30  31
ENDBRANCH  29  30
ENDBRANCH   1  29
TORSDOF 18
