REMARK SMILES COc1ccc2c(c1)c(CC(=O)OCCOCCOC(=O)c1ccc(-c3c4nc(c(-c5c(F)cccc5F)c5ccc([nH]5)c(-c5c(F)cccc5F)c5nc(c(-c6c(F)cccc6F)c6ccc3[nH]6)C=C5)C=C4)cc1)c(C)n2Cc1ccn(C(F)F)c(=O)c1
REMARK SMILES IDX 15 1 14 2 13 3 11 4 12 5 10 6 9 7 3 8 4 9 8 10 5 11 7 12
REMARK SMILES IDX 6 13 78 14 76 15 77 16 2 17 1 18 79 19 80 20 81 21 89 22
REMARK SMILES IDX 82 23 87 24 83 25 88 26 84 27 85 28 86 29 16 30 17 31 18 32
REMARK SMILES IDX 19 33 20 34 21 35 22 36 23 37 75 38 24 39 74 40 25 41 26 42
REMARK SMILES IDX 27 43 68 44 28 45 73 46 67 47 69 48 29 49 72 50 66 51 65 52
REMARK SMILES IDX 30 54 56 55 39 56 55 57 40 58 43 59 54 60 70 61 41 62 42 63
REMARK SMILES IDX 53 65 71 66 44 67 31 68 32 69 37 70 33 71 34 72 36 73 38 74
REMARK SMILES IDX 35 75 57 76 58 77 63 78 59 79 60 80 62 81 64 82 61 83 45 84
REMARK SMILES IDX 46 85 51 86 47 87 48 88 50 89 52 90 49 91
REMARK H PARENT 69 53 43 64
REMARK Flexibility Score: inf
ROOT
ATOM      1  C   UNL     1      -2.582   2.088  -6.107  1.00  0.00     0.202 C 
ENDROOT
BRANCH   1   2
ATOM      2  C   UNL     1      -2.604   3.627  -6.097  1.00  0.00     0.261 C 
BRANCH   2   3
ATOM      3  O   UNL     1      -1.885   4.248  -5.017  1.00  0.00    -0.463 OA
BRANCH   3   4
ATOM      4  C   UNL     1      -2.674   4.802  -4.059  1.00  0.00     0.310 C 
ATOM      5  O   UNL     1      -3.901   4.867  -4.140  1.00  0.00    -0.252 OA
BRANCH   4   6
ATOM      6  C   UNL     1      -1.968   5.331  -2.829  1.00  0.00     0.160 C 
BRANCH   6   7
ATOM      7  C   UNL     1      -0.467   5.256  -2.729  1.00  0.00    -0.008 A 
ATOM      8  C   UNL     1       0.908   2.059  -1.132  1.00  0.00     0.119 A 
ATOM      9  C   UNL     1       2.251   2.351  -1.335  1.00  0.00     0.048 A 
ATOM     10  C   UNL     1      -0.064   2.993  -1.499  1.00  0.00     0.057 A 
ATOM     11  C   UNL     1       2.643   3.583  -1.890  1.00  0.00     0.031 A 
ATOM     12  C   UNL     1       0.294   4.199  -2.140  1.00  0.00     0.007 A 
ATOM     13  C   UNL     1       1.649   4.502  -2.286  1.00  0.00     0.049 A 
ATOM     14  N   UNL     1       1.723   5.782  -2.825  1.00  0.00    -0.340 N 
ATOM     15  C   UNL     1       0.436   6.279  -2.997  1.00  0.00     0.020 A 
ATOM     16  C   UNL     1       0.112   7.685  -3.361  1.00  0.00     0.065 C 
BRANCH   8  17
ATOM     17  O   UNL     1       0.402   0.848  -0.748  1.00  0.00    -0.497 OA
ATOM     18  C   UNL     1       1.156   0.103   0.196  1.00  0.00     0.278 C 
ENDBRANCH   8  17
BRANCH  14  19
ATOM     19  C   UNL     1       2.978   6.537  -2.996  1.00  0.00     0.158 C 
BRANCH  19  20
ATOM     20  C   UNL     1       3.389   6.747  -4.437  1.00  0.00    -0.021 A 
ATOM     21  C   UNL     1       2.782   7.829  -5.186  1.00  0.00     0.024 A 
ATOM     22  C   UNL     1       4.336   6.010  -5.046  1.00  0.00     0.077 A 
ATOM     23  C   UNL     1       2.958   7.935  -6.506  1.00  0.00     0.095 A 
ATOM     24  C   UNL     1       4.634   6.191  -6.501  1.00  0.00     0.255 A 
ATOM     25  N   UNL     1       3.822   7.092  -7.172  1.00  0.00    -0.258 N 
ATOM     26  O   UNL     1       5.536   5.529  -7.002  1.00  0.00    -0.269 OA
BRANCH  25  27
ATOM     27  C   UNL     1       3.966   7.186  -8.602  1.00  0.00     0.451 C 
ATOM     28  F   UNL     1       5.175   7.694  -8.938  1.00  0.00    -0.185 F 
ATOM     29  F   UNL     1       3.841   5.968  -9.185  1.00  0.00    -0.185 F 
ENDBRANCH  25  27
ENDBRANCH  19  20
ENDBRANCH  14  19
ENDBRANCH   6   7
ENDBRANCH   4   6
ENDBRANCH   3   4
ENDBRANCH   2   3
ENDBRANCH   1   2
BRANCH   1  30
ATOM     30  O   UNL     1      -2.598   1.353  -4.892  1.00  0.00    -0.374 OA
BRANCH  30  31
ATOM     31  C   UNL     1      -1.497   1.527  -4.002  1.00  0.00     0.202 C 
BRANCH  31  32
ATOM     32  C   UNL     1      -0.065   1.193  -4.464  1.00  0.00     0.261 C 
BRANCH  32  33
ATOM     33  O   UNL     1       0.310   1.873  -5.660  1.00  0.00    -0.460 OA
BRANCH  33  34
ATOM     34  C   UNL     1       1.007   1.116  -6.545  1.00  0.00     0.338 C 
ATOM     35  O   UNL     1       1.655   0.103  -6.330  1.00  0.00    -0.246 OA
BRANCH  34  36
ATOM     36  C   UNL     1       0.449   1.500  -7.847  1.00  0.00     0.060 A 
ATOM     37  C   UNL     1       0.389   2.849  -8.207  1.00  0.00     0.016 A 
ATOM     38  C   UNL     1      -0.348   0.530  -8.477  1.00  0.00     0.016 A 
ATOM     39  C   UNL     1      -0.557   3.237  -9.143  1.00  0.00     0.010 A 
ATOM     40  C   UNL     1      -1.313   0.929  -9.390  1.00  0.00     0.010 A 
ATOM     41  C   UNL     1      -1.440   2.286  -9.693  1.00  0.00    -0.014 A 
BRANCH  41  42
ATOM     42  C   UNL     1      -2.261   2.710 -10.826  1.00  0.00     0.031 A 
ATOM     43  C   UNL     1      -1.393   3.081 -11.975  1.00  0.00     0.074 A 
ATOM     44  C   UNL     1      -3.604   2.659 -10.934  1.00  0.00     0.049 A 
ATOM     45  N   UNL     1      -1.241   4.254 -12.493  1.00  0.00    -0.248 NA
ATOM     46  C   UNL     1      -0.424   2.078 -12.456  1.00  0.00     0.031 C 
ATOM     47  C   UNL     1      -4.578   2.100  -9.998  1.00  0.00     0.029 A 
ATOM     48  N   UNL     1      -4.390   3.039 -11.988  1.00  0.00    -0.354 N 
ATOM     49  C   UNL     1      -0.302   4.091 -13.505  1.00  0.00     0.074 A 
ATOM     50  C   UNL     1       0.303   2.802 -13.305  1.00  0.00     0.031 C 
ATOM     51  C   UNL     1      -5.777   1.975 -10.617  1.00  0.00     0.029 A 
ATOM     52  C   UNL     1      -5.690   2.542 -11.954  1.00  0.00     0.049 A 
ATOM     53  H   UNL     1      -4.061   3.619 -12.713  1.00  0.00     0.167 HD
ATOM     54  C   UNL     1      -0.298   4.912 -14.587  1.00  0.00     0.037 A 
ATOM     55  C   UNL     1      -6.600   2.553 -12.966  1.00  0.00     0.037 A 
ATOM     56  C   UNL     1      -1.000   6.141 -14.313  1.00  0.00     0.049 A 
ATOM     57  C   UNL     1      -6.174   3.581 -13.945  1.00  0.00     0.074 A 
ATOM     58  C   UNL     1      -0.856   7.163 -13.394  1.00  0.00     0.029 A 
ATOM     59  N   UNL     1      -2.268   6.273 -14.821  1.00  0.00    -0.354 N 
ATOM     60  N   UNL     1      -6.234   4.861 -13.718  1.00  0.00    -0.248 NA
ATOM     61  C   UNL     1      -5.260   3.177 -15.002  1.00  0.00     0.031 C 
ATOM     62  C   UNL     1      -2.188   7.547 -13.054  1.00  0.00     0.029 A 
ATOM     63  C   UNL     1      -3.061   6.785 -13.828  1.00  0.00     0.049 A 
ATOM     64  H   UNL     1      -2.555   6.042 -15.733  1.00  0.00     0.167 HD
ATOM     65  C   UNL     1      -5.050   5.358 -14.237  1.00  0.00     0.074 A 
ATOM     66  C   UNL     1      -4.536   4.296 -15.100  1.00  0.00     0.031 C 
ATOM     67  C   UNL     1      -4.458   6.459 -13.687  1.00  0.00     0.037 A 
BRANCH  54  68
ATOM     68  C   UNL     1      -0.064   4.409 -15.991  1.00  0.00     0.057 A 
ATOM     69  C   UNL     1      -0.234   3.067 -16.396  1.00  0.00     0.134 A 
ATOM     70  C   UNL     1       0.009   5.344 -17.038  1.00  0.00     0.134 A 
ATOM     71  F   UNL     1      -0.388   2.061 -15.529  1.00  0.00    -0.206 F 
ATOM     72  C   UNL     1      -0.368   2.690 -17.733  1.00  0.00     0.040 A 
ATOM     73  C   UNL     1      -0.178   4.982 -18.377  1.00  0.00     0.040 A 
ATOM     74  F   UNL     1       0.163   6.652 -16.782  1.00  0.00    -0.206 F 
ATOM     75  C   UNL     1      -0.381   3.652 -18.726  1.00  0.00     0.006 A 
ENDBRANCH  54  68
BRANCH  55  76
ATOM     76  C   UNL     1      -7.673   1.581 -13.300  1.00  0.00     0.057 A 
ATOM     77  C   UNL     1      -7.574   0.229 -12.934  1.00  0.00     0.134 A 
ATOM     78  C   UNL     1      -8.676   1.885 -14.238  1.00  0.00     0.134 A 
ATOM     79  F   UNL     1      -6.609  -0.193 -12.105  1.00  0.00    -0.206 F 
ATOM     80  C   UNL     1      -8.399  -0.762 -13.479  1.00  0.00     0.040 A 
ATOM     81  C   UNL     1      -9.506   0.901 -14.797  1.00  0.00     0.040 A 
ATOM     82  F   UNL     1      -8.831   3.138 -14.691  1.00  0.00    -0.206 F 
ATOM     83  C   UNL     1      -9.360  -0.431 -14.426  1.00  0.00     0.006 A 
ENDBRANCH  55  76
BRANCH  67  84
ATOM     84  C   UNL     1      -5.267   7.252 -12.699  1.00  0.00     0.057 A 
ATOM     85  C   UNL     1      -5.489   8.610 -12.949  1.00  0.00     0.134 A 
ATOM     86  C   UNL     1      -5.761   6.743 -11.487  1.00  0.00     0.134 A 
ATOM     87  F   UNL     1      -4.992   9.184 -14.056  1.00  0.00    -0.206 F 
ATOM     88  C   UNL     1      -6.201   9.416 -12.059  1.00  0.00     0.040 A 
ATOM     89  C   UNL     1      -6.508   7.529 -10.606  1.00  0.00     0.040 A 
ATOM     90  F   UNL     1      -5.503   5.486 -11.104  1.00  0.00    -0.206 F 
ATOM     91  C   UNL     1      -6.731   8.872 -10.892  1.00  0.00     0.006 A 
ENDBRANCH  67  84
ENDBRANCH  41  42
ENDBRANCH  34  36
ENDBRANCH  33  34
ENDBRANCH  32  33
ENDBRANCH  31  32
ENDBRANCH  30  31
ENDBRANCH   1  30
TORSDOF 19
