REMARK SMILES Cc1c(Cl)cccc1NC(=O)C[C@](C)(C(=O)OCCOCCOC(=O)c1ccc(-c2c3nc(c(-c4c(F)cccc4F)c4ccc([nH]4)c(-c4c(F)cccc4F)c4nc(c(-c5c(F)cccc5F)c5ccc2[nH]5)C=C4)C=C3)cc1)c1ccccc1
REMARK SMILES IDX 19 1 18 2 17 3 15 4 16 5 13 6 14 7 12 8 10 9 9 10 11 12 8 13
REMARK SMILES IDX 1 14 2 15 3 16 4 17 5 18 7 19 6 20 80 21 81 22 85 23 82 24
REMARK SMILES IDX 84 25 83 26 20 27 21 28 22 29 23 30 24 31 25 32 26 33 27 34
REMARK SMILES IDX 79 35 28 36 78 37 29 38 30 39 31 40 72 41 32 42 77 43 71 44
REMARK SMILES IDX 73 45 33 46 76 47 70 48 69 49 34 51 60 52 43 53 59 54 44 55
REMARK SMILES IDX 47 56 58 57 74 58 45 59 46 60 57 62 75 63 48 64 35 65 36 66
REMARK SMILES IDX 41 67 37 68 38 69 40 70 42 71 39 72 61 73 62 74 67 75 63 76
REMARK SMILES IDX 64 77 66 78 68 79 65 80 49 81 50 82 55 83 51 84 52 85 54 86
REMARK SMILES IDX 56 87 53 88
REMARK H PARENT 9 11 73 50 47 61
REMARK Flexibility Score: inf
ROOT
ATOM      1  C   UNL     1      -7.612  -2.746  -0.961  1.00  0.00     0.202 C 
ENDROOT
BRANCH   1   2
ATOM      2  C   UNL     1      -6.201  -2.823  -1.546  1.00  0.00     0.261 C 
BRANCH   2   3
ATOM      3  O   UNL     1      -5.444  -1.657  -1.176  1.00  0.00    -0.463 OA
BRANCH   3   4
ATOM      4  C   UNL     1      -4.520  -1.241  -2.083  1.00  0.00     0.316 C 
ATOM      5  O   UNL     1      -4.180  -1.914  -3.050  1.00  0.00    -0.251 OA
BRANCH   4   6
ATOM      6  C   UNL     1      -3.982   0.184  -1.785  1.00  0.00     0.099 C 
ATOM      7  C   UNL     1      -4.619   0.814  -0.510  1.00  0.00     0.029 C 
BRANCH   6   8
ATOM      8  C   UNL     1      -2.430   0.125  -1.593  1.00  0.00     0.123 C 
BRANCH   8   9
ATOM      9  C   UNL     1      -1.709  -1.208  -1.715  1.00  0.00     0.225 C 
ATOM     10  N   UNL     1      -1.904  -2.261  -0.877  1.00  0.00    -0.326 N 
ATOM     11  H   UNL     1      -1.432  -3.076  -1.162  1.00  0.00     0.169 HD
ATOM     12  O   UNL     1      -0.901  -1.378  -2.636  1.00  0.00    -0.275 OA
BRANCH  10  13
ATOM     13  C   UNL     1      -2.635  -2.432   0.308  1.00  0.00     0.045 A 
ATOM     14  C   UNL     1      -2.997  -4.917  -0.269  1.00  0.00     0.048 C 
ATOM     15  C   UNL     1      -3.220  -3.688   0.578  1.00  0.00    -0.009 A 
ATOM     16  C   UNL     1      -4.103  -3.787   1.669  1.00  0.00     0.046 A 
ATOM     17  Cl  UNL     1      -5.073  -5.204   1.886  1.00  0.00    -0.084 Cl
ATOM     18  C   UNL     1      -4.279  -2.726   2.556  1.00  0.00     0.021 A 
ATOM     19  C   UNL     1      -2.792  -1.386   1.224  1.00  0.00     0.026 A 
ATOM     20  C   UNL     1      -3.602  -1.532   2.350  1.00  0.00     0.004 A 
ENDBRANCH  10  13
ENDBRANCH   8   9
ENDBRANCH   6   8
BRANCH   6  21
ATOM     21  C   UNL     1      -4.355   1.179  -2.929  1.00  0.00    -0.030 A 
ATOM     22  C   UNL     1      -3.877   2.507  -2.899  1.00  0.00     0.005 A 
ATOM     23  C   UNL     1      -5.227   0.835  -3.979  1.00  0.00     0.005 A 
ATOM     24  C   UNL     1      -4.235   3.434  -3.881  1.00  0.00     0.000 A 
ATOM     25  C   UNL     1      -5.580   1.762  -4.964  1.00  0.00     0.000 A 
ATOM     26  C   UNL     1      -5.084   3.060  -4.917  1.00  0.00     0.000 A 
ENDBRANCH   6  21
ENDBRANCH   4   6
ENDBRANCH   3   4
ENDBRANCH   2   3
ENDBRANCH   1   2
BRANCH   1  27
ATOM     27  O   UNL     1      -8.445  -1.713  -1.492  1.00  0.00    -0.374 OA
BRANCH  27  28
ATOM     28  C   UNL     1      -8.122  -0.370  -1.142  1.00  0.00     0.202 C 
BRANCH  28  29
ATOM     29  C   UNL     1      -8.540   0.103   0.257  1.00  0.00     0.261 C 
BRANCH  29  30
ATOM     30  O   UNL     1      -7.996  -0.676   1.340  1.00  0.00    -0.460 OA
BRANCH  30  31
ATOM     31  C   UNL     1      -8.883  -1.521   1.922  1.00  0.00     0.338 C 
ATOM     32  O   UNL     1     -10.056  -1.686   1.612  1.00  0.00    -0.246 OA
BRANCH  31  33
ATOM     33  C   UNL     1      -8.233  -2.343   2.960  1.00  0.00     0.060 A 
ATOM     34  C   UNL     1      -8.416  -3.730   2.904  1.00  0.00     0.016 A 
ATOM     35  C   UNL     1      -7.565  -1.766   4.044  1.00  0.00     0.016 A 
ATOM     36  C   UNL     1      -7.966  -4.540   3.949  1.00  0.00     0.010 A 
ATOM     37  C   UNL     1      -7.117  -2.582   5.096  1.00  0.00     0.010 A 
ATOM     38  C   UNL     1      -7.343  -3.970   5.069  1.00  0.00    -0.014 A 
BRANCH  38  39
ATOM     39  C   UNL     1      -7.114  -4.816   6.272  1.00  0.00     0.031 A 
ATOM     40  C   UNL     1      -8.121  -4.770   7.385  1.00  0.00     0.074 A 
ATOM     41  C   UNL     1      -6.073  -5.665   6.357  1.00  0.00     0.049 A 
ATOM     42  N   UNL     1      -8.165  -5.464   8.492  1.00  0.00    -0.248 NA
ATOM     43  C   UNL     1      -9.209  -3.791   7.240  1.00  0.00     0.031 C 
ATOM     44  C   UNL     1      -5.010  -5.778   5.371  1.00  0.00     0.029 A 
ATOM     45  N   UNL     1      -5.746  -6.607   7.303  1.00  0.00    -0.354 N 
ATOM     46  C   UNL     1      -9.274  -4.997   9.182  1.00  0.00     0.074 A 
ATOM     47  C   UNL     1      -9.854  -3.937   8.387  1.00  0.00     0.031 C 
ATOM     48  C   UNL     1      -4.186  -6.782   5.712  1.00  0.00     0.029 A 
ATOM     49  C   UNL     1      -4.631  -7.348   6.981  1.00  0.00     0.049 A 
ATOM     50  H   UNL     1      -6.260  -6.739   8.132  1.00  0.00     0.167 HD
ATOM     51  C   UNL     1      -9.771  -5.418  10.369  1.00  0.00     0.037 A 
ATOM     52  C   UNL     1      -4.034  -8.361   7.639  1.00  0.00     0.037 A 
ATOM     53  C   UNL     1      -9.193  -6.471  11.161  1.00  0.00     0.049 A 
ATOM     54  C   UNL     1      -4.603  -8.808   8.959  1.00  0.00     0.074 A 
ATOM     55  C   UNL     1      -9.623  -6.969  12.378  1.00  0.00     0.029 A 
ATOM     56  N   UNL     1      -8.057  -7.186  10.814  1.00  0.00    -0.354 N 
ATOM     57  N   UNL     1      -5.667  -8.373   9.590  1.00  0.00    -0.248 NA
ATOM     58  C   UNL     1      -3.879  -9.875   9.667  1.00  0.00     0.031 C 
ATOM     59  C   UNL     1      -8.724  -7.961  12.786  1.00  0.00     0.029 A 
ATOM     60  C   UNL     1      -7.763  -8.114  11.799  1.00  0.00     0.049 A 
ATOM     61  H   UNL     1      -7.536  -7.054   9.989  1.00  0.00     0.167 HD
ATOM     62  C   UNL     1      -5.751  -9.123  10.757  1.00  0.00     0.074 A 
ATOM     63  C   UNL     1      -4.642 -10.054  10.736  1.00  0.00     0.031 C 
ATOM     64  C   UNL     1      -6.661  -9.042  11.758  1.00  0.00     0.037 A 
BRANCH  51  65
ATOM     65  C   UNL     1     -10.985  -4.705  10.883  1.00  0.00     0.057 A 
ATOM     66  C   UNL     1     -12.242  -4.857  10.281  1.00  0.00     0.134 A 
ATOM     67  C   UNL     1     -10.893  -3.841  11.980  1.00  0.00     0.134 A 
ATOM     68  F   UNL     1     -12.392  -5.653   9.212  1.00  0.00    -0.206 F 
ATOM     69  C   UNL     1     -13.356  -4.146  10.730  1.00  0.00     0.040 A 
ATOM     70  C   UNL     1     -12.006  -3.146  12.456  1.00  0.00     0.040 A 
ATOM     71  F   UNL     1      -9.720  -3.650  12.601  1.00  0.00    -0.206 F 
ATOM     72  C   UNL     1     -13.240  -3.291  11.824  1.00  0.00     0.006 A 
ENDBRANCH  51  65
BRANCH  52  73
ATOM     73  C   UNL     1      -2.833  -9.030   7.071  1.00  0.00     0.057 A 
ATOM     74  C   UNL     1      -2.877 -10.364   6.647  1.00  0.00     0.134 A 
ATOM     75  C   UNL     1      -1.604  -8.366   6.965  1.00  0.00     0.134 A 
ATOM     76  F   UNL     1      -4.016 -11.066   6.746  1.00  0.00    -0.206 F 
ATOM     77  C   UNL     1      -1.744 -11.018   6.158  1.00  0.00     0.040 A 
ATOM     78  C   UNL     1      -0.470  -8.998   6.452  1.00  0.00     0.040 A 
ATOM     79  F   UNL     1      -1.490  -7.087   7.354  1.00  0.00    -0.206 F 
ATOM     80  C   UNL     1      -0.536 -10.332   6.054  1.00  0.00     0.006 A 
ENDBRANCH  52  73
BRANCH  64  81
ATOM     81  C   UNL     1      -6.521 -10.012  12.893  1.00  0.00     0.057 A 
ATOM     82  C   UNL     1      -5.505  -9.894  13.850  1.00  0.00     0.134 A 
ATOM     83  C   UNL     1      -7.441 -11.056  13.052  1.00  0.00     0.134 A 
ATOM     84  F   UNL     1      -4.584  -8.923  13.748  1.00  0.00    -0.206 F 
ATOM     85  C   UNL     1      -5.397 -10.793  14.913  1.00  0.00     0.040 A 
ATOM     86  C   UNL     1      -7.359 -11.945  14.124  1.00  0.00     0.040 A 
ATOM     87  F   UNL     1      -8.443 -11.221  12.174  1.00  0.00    -0.206 F 
ATOM     88  C   UNL     1      -6.330 -11.818  15.055  1.00  0.00     0.006 A 
ENDBRANCH  64  81
ENDBRANCH  38  39
ENDBRANCH  31  33
ENDBRANCH  30  31
ENDBRANCH  29  30
ENDBRANCH  28  29
ENDBRANCH  27  28
ENDBRANCH   1  27
TORSDOF 18
