REMARK SMILES CSc1nc(N)cc(Nc2cccc(C(=O)OCCOCCOC(=O)c3ccc(-c4c5nc(c(-c6c(F)cccc6F)c6ccc([nH]6)c(-c6c(F)cccc6F)c6nc(c(-c7c(F)cccc7F)c7ccc4[nH]7)C=C6)C=C5)cc3)c2)n1
REMARK SMILES IDX 19 1 18 2 17 3 15 4 16 5 14 6 10 7 11 8 80 9 12 10 13 11
REMARK SMILES IDX 9 12 8 14 3 15 4 16 81 17 5 18 7 19 2 20 1 21 6 22 20 25
REMARK SMILES IDX 21 26 22 27 23 28 24 29 25 30 26 31 27 32 79 33 28 34 78 35
REMARK SMILES IDX 29 36 30 37 31 38 72 39 32 40 77 41 71 42 73 43 33 44 76 45
REMARK SMILES IDX 70 46 69 47 34 49 60 50 43 51 59 52 44 53 47 54 58 55 74 56
REMARK SMILES IDX 45 57 46 58 57 60 75 61 48 62 35 63 36 64 41 65 37 66 38 67
REMARK SMILES IDX 40 68 42 69 39 70 61 71 62 72 67 73 63 74 64 75 66 76 68 77
REMARK SMILES IDX 65 78 49 79 50 80 55 81 51 82 52 83 54 84 56 85 53 86
REMARK H PARENT 9 13 6 23 6 24 73 48 47 59
REMARK Flexibility Score: inf
ROOT
ATOM      1  C   UNL     1       3.076   5.459   1.019  1.00  0.00     0.202 C 
ENDROOT
BRANCH   1   2
ATOM      2  C   UNL     1       1.947   4.431   1.156  1.00  0.00     0.261 C 
BRANCH   2   3
ATOM      3  O   UNL     1       1.538   3.947  -0.134  1.00  0.00    -0.460 OA
BRANCH   3   4
ATOM      4  C   UNL     1       0.281   4.288  -0.512  1.00  0.00     0.338 C 
ATOM      5  O   UNL     1      -0.580   4.797   0.190  1.00  0.00    -0.246 OA
BRANCH   4   6
ATOM      6  C   UNL     1       0.140   4.134  -1.979  1.00  0.00     0.062 A 
ATOM      7  C   UNL     1       0.624   2.998  -4.075  1.00  0.00     0.040 A 
ATOM      8  C   UNL     1      -0.148   3.962  -4.742  1.00  0.00     0.026 A 
ATOM      9  C   UNL     1       0.788   3.118  -2.689  1.00  0.00     0.041 A 
ATOM     10  C   UNL     1      -0.779   4.992  -4.041  1.00  0.00     0.003 A 
ATOM     11  C   UNL     1      -0.649   5.069  -2.658  1.00  0.00     0.016 A 
BRANCH   7  12
ATOM     12  N   UNL     1       1.130   1.902  -4.803  1.00  0.00    -0.340 N 
ATOM     13  H   UNL     1       1.431   2.096  -5.720  1.00  0.00     0.168 HD
BRANCH  12  14
ATOM     14  C   UNL     1       1.258   0.562  -4.380  1.00  0.00     0.137 A 
ATOM     15  C   UNL     1       0.964  -1.088  -2.814  1.00  0.00     0.191 A 
ATOM     16  N   UNL     1       1.495  -2.040  -3.589  1.00  0.00    -0.206 NA
ATOM     17  N   UNL     1       0.822   0.195  -3.166  1.00  0.00    -0.205 NA
ATOM     18  C   UNL     1       1.919  -1.658  -4.794  1.00  0.00     0.130 A 
ATOM     19  C   UNL     1       1.848  -0.353  -5.228  1.00  0.00     0.093 A 
BRANCH  15  20
ATOM     20  S   UNL     1       0.389  -1.583  -1.209  1.00  0.00    -0.090 SA
ATOM     21  C   UNL     1       0.892  -0.128  -0.260  1.00  0.00     0.094 C 
ENDBRANCH  15  20
BRANCH  18  22
ATOM     22  N   UNL     1       2.497  -2.637  -5.580  1.00  0.00    -0.383 N 
ATOM     23  H   UNL     1       2.541  -3.566  -5.257  1.00  0.00     0.158 HD
ATOM     24  H   UNL     1       2.865  -2.406  -6.464  1.00  0.00     0.158 HD
ENDBRANCH  18  22
ENDBRANCH  12  14
ENDBRANCH   7  12
ENDBRANCH   4   6
ENDBRANCH   3   4
ENDBRANCH   2   3
ENDBRANCH   1   2
BRANCH   1  25
ATOM     25  O   UNL     1       2.730   6.692   0.386  1.00  0.00    -0.374 OA
BRANCH  25  26
ATOM     26  C   UNL     1       2.679   6.695  -1.042  1.00  0.00     0.202 C 
BRANCH  26  27
ATOM     27  C   UNL     1       4.020   6.830  -1.772  1.00  0.00     0.261 C 
BRANCH  27  28
ATOM     28  O   UNL     1       4.879   5.701  -1.540  1.00  0.00    -0.460 OA
BRANCH  28  29
ATOM     29  C   UNL     1       5.941   5.953  -0.740  1.00  0.00     0.338 C 
ATOM     30  O   UNL     1       6.286   7.032  -0.281  1.00  0.00    -0.246 OA
BRANCH  29  31
ATOM     31  C   UNL     1       6.577   4.687  -0.333  1.00  0.00     0.060 A 
ATOM     32  C   UNL     1       6.769   4.474   1.038  1.00  0.00     0.016 A 
ATOM     33  C   UNL     1       7.038   3.757  -1.268  1.00  0.00     0.016 A 
ATOM     34  C   UNL     1       7.466   3.351   1.478  1.00  0.00     0.010 A 
ATOM     35  C   UNL     1       7.744   2.634  -0.824  1.00  0.00     0.010 A 
ATOM     36  C   UNL     1       7.989   2.442   0.548  1.00  0.00    -0.014 A 
BRANCH  36  37
ATOM     37  C   UNL     1       8.889   1.359   1.014  1.00  0.00     0.031 A 
ATOM     38  C   UNL     1      10.376   1.517   0.855  1.00  0.00     0.074 A 
ATOM     39  C   UNL     1       8.386   0.259   1.600  1.00  0.00     0.049 A 
ATOM     40  N   UNL     1      11.337   0.690   1.178  1.00  0.00    -0.248 NA
ATOM     41  C   UNL     1      10.842   2.775   0.249  1.00  0.00     0.031 C 
ATOM     42  C   UNL     1       6.966   0.001   1.834  1.00  0.00     0.029 A 
ATOM     43  N   UNL     1       9.018  -0.852   2.100  1.00  0.00    -0.354 N 
ATOM     44  C   UNL     1      12.519   1.321   0.811  1.00  0.00     0.074 A 
ATOM     45  C   UNL     1      12.153   2.588   0.213  1.00  0.00     0.031 C 
ATOM     46  C   UNL     1       6.833  -1.199   2.425  1.00  0.00     0.029 A 
ATOM     47  C   UNL     1       8.155  -1.804   2.583  1.00  0.00     0.049 A 
ATOM     48  H   UNL     1       9.997  -0.956   2.111  1.00  0.00     0.167 HD
ATOM     49  C   UNL     1      13.793   0.889   0.967  1.00  0.00     0.037 A 
ATOM     50  C   UNL     1       8.402  -3.033   3.076  1.00  0.00     0.037 A 
ATOM     51  C   UNL     1      14.155  -0.369   1.566  1.00  0.00     0.049 A 
ATOM     52  C   UNL     1       9.824  -3.514   3.185  1.00  0.00     0.074 A 
ATOM     53  C   UNL     1      15.421  -0.880   1.799  1.00  0.00     0.029 A 
ATOM     54  N   UNL     1      13.252  -1.318   2.019  1.00  0.00    -0.354 N 
ATOM     55  N   UNL     1      10.935  -2.893   2.871  1.00  0.00    -0.248 NA
ATOM     56  C   UNL     1      10.026  -4.868   3.723  1.00  0.00     0.031 C 
ATOM     57  C   UNL     1      15.282  -2.161   2.345  1.00  0.00     0.029 A 
ATOM     58  C   UNL     1      13.931  -2.425   2.502  1.00  0.00     0.049 A 
ATOM     59  H   UNL     1      12.272  -1.220   2.001  1.00  0.00     0.167 HD
ATOM     60  C   UNL     1      11.966  -3.767   3.195  1.00  0.00     0.074 A 
ATOM     61  C   UNL     1      11.348  -4.955   3.746  1.00  0.00     0.031 C 
ATOM     62  C   UNL     1      13.303  -3.602   3.048  1.00  0.00     0.037 A 
BRANCH  49  63
ATOM     63  C   UNL     1      14.893   1.775   0.459  1.00  0.00     0.057 A 
ATOM     64  C   UNL     1      15.240   2.970   1.103  1.00  0.00     0.134 A 
ATOM     65  C   UNL     1      15.642   1.405  -0.665  1.00  0.00     0.134 A 
ATOM     66  F   UNL     1      14.554   3.388   2.177  1.00  0.00    -0.206 F 
ATOM     67  C   UNL     1      16.279   3.776   0.634  1.00  0.00     0.040 A 
ATOM     68  C   UNL     1      16.700   2.190  -1.128  1.00  0.00     0.040 A 
ATOM     69  F   UNL     1      15.366   0.271  -1.326  1.00  0.00    -0.206 F 
ATOM     70  C   UNL     1      17.018   3.382  -0.481  1.00  0.00     0.006 A 
ENDBRANCH  49  63
BRANCH  50  71
ATOM     71  C   UNL     1       7.275  -3.906   3.491  1.00  0.00     0.057 A 
ATOM     72  C   UNL     1       7.063  -4.232   4.835  1.00  0.00     0.134 A 
ATOM     73  C   UNL     1       6.397  -4.455   2.548  1.00  0.00     0.134 A 
ATOM     74  F   UNL     1       7.886  -3.757   5.782  1.00  0.00    -0.206 F 
ATOM     75  C   UNL     1       6.030  -5.086   5.226  1.00  0.00     0.040 A 
ATOM     76  C   UNL     1       5.343  -5.287   2.927  1.00  0.00     0.040 A 
ATOM     77  F   UNL     1       6.547  -4.181   1.244  1.00  0.00    -0.206 F 
ATOM     78  C   UNL     1       5.163  -5.612   4.270  1.00  0.00     0.006 A 
ENDBRANCH  50  71
BRANCH  62  79
ATOM     79  C   UNL     1      14.190  -4.720   3.516  1.00  0.00     0.057 A 
ATOM     80  C   UNL     1      14.275  -5.936   2.826  1.00  0.00     0.134 A 
ATOM     81  C   UNL     1      14.991  -4.567   4.655  1.00  0.00     0.134 A 
ATOM     82  F   UNL     1      13.525  -6.152   1.735  1.00  0.00    -0.206 F 
ATOM     83  C   UNL     1      15.104  -6.969   3.267  1.00  0.00     0.040 A 
ATOM     84  C   UNL     1      15.845  -5.581   5.090  1.00  0.00     0.040 A 
ATOM     85  F   UNL     1      14.967  -3.424   5.357  1.00  0.00    -0.206 F 
ATOM     86  C   UNL     1      15.898  -6.790   4.399  1.00  0.00     0.006 A 
ENDBRANCH  62  79
ENDBRANCH  36  37
ENDBRANCH  29  31
ENDBRANCH  28  29
ENDBRANCH  27  28
ENDBRANCH  26  27
ENDBRANCH  25  26
ENDBRANCH   1  25
TORSDOF 18
