REMARK SMILES O=C(OCCOCCOC(=O)[C@H]1C[NH2+]C[C@H]1c1ccc(C2CC2)cc1)c1ccc(-c2c3nc(c(-c4c(F)cccc4F)c4ccc([nH]4)c(-c4c(F)cccc4F)c4nc(c(-c5c(F)cccc5F)c5ccc2[nH]5)C=C4)C=C3)cc1
REMARK SMILES IDX 6 1 5 2 4 3 3 4 2 5 1 6 26 7 27 8 79 9 28 10 78 11 29 12
REMARK SMILES IDX 30 13 31 14 72 15 32 16 77 17 71 18 73 19 33 20 76 21 70 22
REMARK SMILES IDX 69 23 34 25 60 26 43 27 59 28 44 29 47 30 58 31 74 32 45 33
REMARK SMILES IDX 46 34 57 36 75 37 48 38 35 39 36 40 41 41 37 42 38 43 40 44
REMARK SMILES IDX 42 45 39 46 61 47 62 48 67 49 63 50 64 51 66 52 68 53 65 54
REMARK SMILES IDX 49 55 50 56 55 57 51 58 52 59 54 60 56 61 53 62 7 63 8 64
REMARK SMILES IDX 9 65 10 66 11 67 12 68 13 69 16 70 14 71 15 72 17 75 18 76
REMARK SMILES IDX 25 77 19 78 24 79 20 80 21 81 22 82 23 83
REMARK H PARENT 73 24 47 35 14 73 14 74
REMARK Flexibility Score: inf
ROOT
ATOM      1  O   UNL     1       7.951   3.448  -0.002  1.00  0.00    -0.374 OA
ENDROOT
BRANCH   1   2
ATOM      2  C   UNL     1       7.074   3.996  -0.985  1.00  0.00     0.202 C 
BRANCH   2   3
ATOM      3  C   UNL     1       7.400   3.749  -2.468  1.00  0.00     0.261 C 
BRANCH   3   4
ATOM      4  O   UNL     1       7.621   2.342  -2.769  1.00  0.00    -0.460 OA
BRANCH   4   5
ATOM      5  C   UNL     1       8.786   1.732  -3.140  1.00  0.00     0.338 C 
ATOM      6  O   UNL     1       8.853   0.574  -3.478  1.00  0.00    -0.246 OA
BRANCH   5   7
ATOM      7  C   UNL     1       9.984   2.586  -3.131  1.00  0.00     0.060 A 
ATOM      8  C   UNL     1      10.188   3.368  -2.018  1.00  0.00     0.016 A 
ATOM      9  C   UNL     1      10.810   2.722  -4.241  1.00  0.00     0.016 A 
ATOM     10  C   UNL     1      10.857   4.547  -2.157  1.00  0.00     0.010 A 
ATOM     11  C   UNL     1      11.763   3.746  -4.240  1.00  0.00     0.010 A 
ATOM     12  C   UNL     1      11.745   4.706  -3.215  1.00  0.00    -0.014 A 
BRANCH  12  13
ATOM     13  C   UNL     1      12.608   5.903  -3.155  1.00  0.00     0.031 A 
ATOM     14  C   UNL     1      12.606   6.880  -4.287  1.00  0.00     0.074 A 
ATOM     15  C   UNL     1      13.246   6.167  -1.992  1.00  0.00     0.049 A 
ATOM     16  N   UNL     1      13.367   7.926  -4.458  1.00  0.00    -0.248 NA
ATOM     17  C   UNL     1      11.639   6.655  -5.376  1.00  0.00     0.031 C 
ATOM     18  C   UNL     1      13.219   5.308  -0.794  1.00  0.00     0.029 A 
ATOM     19  N   UNL     1      13.956   7.257  -1.576  1.00  0.00    -0.354 N 
ATOM     20  C   UNL     1      13.028   8.436  -5.702  1.00  0.00     0.074 A 
ATOM     21  C   UNL     1      11.978   7.602  -6.240  1.00  0.00     0.031 C 
ATOM     22  C   UNL     1      13.734   5.970   0.245  1.00  0.00     0.029 A 
ATOM     23  C   UNL     1      14.325   7.197  -0.252  1.00  0.00     0.049 A 
ATOM     24  H   UNL     1      14.182   8.012  -2.166  1.00  0.00     0.167 HD
ATOM     25  C   UNL     1      13.577   9.500  -6.331  1.00  0.00     0.037 A 
ATOM     26  C   UNL     1      15.127   8.001   0.465  1.00  0.00     0.037 A 
ATOM     27  C   UNL     1      14.598  10.317  -5.729  1.00  0.00     0.049 A 
ATOM     28  C   UNL     1      15.758   9.139  -0.275  1.00  0.00     0.074 A 
ATOM     29  C   UNL     1      15.315  11.362  -6.277  1.00  0.00     0.029 A 
ATOM     30  N   UNL     1      15.026  10.181  -4.412  1.00  0.00    -0.354 N 
ATOM     31  N   UNL     1      15.555   9.527  -1.512  1.00  0.00    -0.248 NA
ATOM     32  C   UNL     1      16.765   9.915   0.451  1.00  0.00     0.031 C 
ATOM     33  C   UNL     1      16.196  11.841  -5.299  1.00  0.00     0.029 A 
ATOM     34  C   UNL     1      15.997  11.123  -4.128  1.00  0.00     0.049 A 
ATOM     35  H   UNL     1      14.686   9.511  -3.775  1.00  0.00     0.167 HD
ATOM     36  C   UNL     1      16.421  10.585  -1.723  1.00  0.00     0.074 A 
ATOM     37  C   UNL     1      17.113  10.806  -0.465  1.00  0.00     0.031 C 
ATOM     38  C   UNL     1      16.649  11.296  -2.854  1.00  0.00     0.037 A 
BRANCH  25  39
ATOM     39  C   UNL     1      13.141   9.767  -7.740  1.00  0.00     0.057 A 
ATOM     40  C   UNL     1      11.882  10.294  -8.051  1.00  0.00     0.134 A 
ATOM     41  C   UNL     1      13.992   9.461  -8.811  1.00  0.00     0.134 A 
ATOM     42  F   UNL     1      11.004  10.577  -7.077  1.00  0.00    -0.206 F 
ATOM     43  C   UNL     1      11.477  10.488  -9.375  1.00  0.00     0.040 A 
ATOM     44  C   UNL     1      13.608   9.671 -10.137  1.00  0.00     0.040 A 
ATOM     45  F   UNL     1      15.209   8.942  -8.586  1.00  0.00    -0.206 F 
ATOM     46  C   UNL     1      12.344  10.180 -10.422  1.00  0.00     0.006 A 
ENDBRANCH  25  39
BRANCH  26  47
ATOM     47  C   UNL     1      15.468   7.679   1.877  1.00  0.00     0.057 A 
ATOM     48  C   UNL     1      15.158   8.553   2.924  1.00  0.00     0.134 A 
ATOM     49  C   UNL     1      16.119   6.483   2.218  1.00  0.00     0.134 A 
ATOM     50  F   UNL     1      14.553   9.722   2.670  1.00  0.00    -0.206 F 
ATOM     51  C   UNL     1      15.493   8.258   4.248  1.00  0.00     0.040 A 
ATOM     52  C   UNL     1      16.422   6.156   3.540  1.00  0.00     0.040 A 
ATOM     53  F   UNL     1      16.450   5.593   1.269  1.00  0.00    -0.206 F 
ATOM     54  C   UNL     1      16.119   7.053   4.560  1.00  0.00     0.006 A 
ENDBRANCH  26  47
BRANCH  38  55
ATOM     55  C   UNL     1      17.669  12.382  -2.741  1.00  0.00     0.057 A 
ATOM     56  C   UNL     1      19.038  12.097  -2.665  1.00  0.00     0.134 A 
ATOM     57  C   UNL     1      17.272  13.723  -2.706  1.00  0.00     0.134 A 
ATOM     58  F   UNL     1      19.471  10.827  -2.671  1.00  0.00    -0.206 F 
ATOM     59  C   UNL     1      19.980  13.115  -2.527  1.00  0.00     0.040 A 
ATOM     60  C   UNL     1      18.207  14.749  -2.597  1.00  0.00     0.040 A 
ATOM     61  F   UNL     1      15.974  14.052  -2.778  1.00  0.00    -0.206 F 
ATOM     62  C   UNL     1      19.564  14.445  -2.499  1.00  0.00     0.006 A 
ENDBRANCH  38  55
ENDBRANCH  12  13
ENDBRANCH   5   7
ENDBRANCH   4   5
ENDBRANCH   3   4
ENDBRANCH   2   3
ENDBRANCH   1   2
BRANCH   1  63
ATOM     63  C   UNL     1       7.813   2.043   0.246  1.00  0.00     0.202 C 
BRANCH  63  64
ATOM     64  C   UNL     1       6.981   1.727   1.485  1.00  0.00     0.261 C 
BRANCH  64  65
ATOM     65  O   UNL     1       5.590   2.000   1.246  1.00  0.00    -0.463 OA
BRANCH  65  66
ATOM     66  C   UNL     1       5.200   3.276   1.500  1.00  0.00     0.315 C 
ATOM     67  O   UNL     1       5.924   4.128   2.000  1.00  0.00    -0.252 OA
BRANCH  66  68
ATOM     68  C   UNL     1       3.741   3.493   1.122  1.00  0.00     0.167 C 
ATOM     69  C   UNL     1       3.311   4.801   1.798  1.00  0.00     0.276 C 
ATOM     70  C   UNL     1       3.355   3.795  -0.346  1.00  0.00     0.094 C 
ATOM     71  N   UNL     1       3.751   5.871   0.886  1.00  0.00    -0.345 N 
ATOM     72  C   UNL     1       3.663   5.308  -0.469  1.00  0.00     0.269 C 
ATOM     73  H   UNL     1       4.711   6.143   1.096  1.00  0.00     0.346 HD
ATOM     74  H   UNL     1       3.172   6.705   0.982  1.00  0.00     0.346 HD
BRANCH  70  75
ATOM     75  C   UNL     1       3.789   2.967  -1.550  1.00  0.00    -0.038 A 
ATOM     76  C   UNL     1       3.747   3.528  -2.839  1.00  0.00     0.004 A 
ATOM     77  C   UNL     1       4.222   1.642  -1.464  1.00  0.00     0.004 A 
ATOM     78  C   UNL     1       4.269   2.855  -3.955  1.00  0.00     0.004 A 
ATOM     79  C   UNL     1       4.771   0.980  -2.583  1.00  0.00     0.004 A 
ATOM     80  C   UNL     1       4.862   1.591  -3.844  1.00  0.00    -0.045 A 
BRANCH  80  81
ATOM     81  C   UNL     1       5.681   1.050  -5.003  1.00  0.00     0.019 C 
ATOM     82  C   UNL     1       6.213  -0.361  -5.056  1.00  0.00     0.009 C 
ATOM     83  C   UNL     1       5.106   0.055  -5.977  1.00  0.00     0.009 C 
ENDBRANCH  80  81
ENDBRANCH  70  75
ENDBRANCH  66  68
ENDBRANCH  65  66
ENDBRANCH  64  65
ENDBRANCH  63  64
ENDBRANCH   1  63
TORSDOF 16
