REMARK SMILES CC(C)CSc1cc2c(cc1Cl)C=C(C(=O)OCCOCCOC(=O)c1ccc(-c3c4nc(c(-c5c(F)cccc5F)c5ccc([nH]5)c(-c5c(F)cccc5F)c5nc(c(-c6c(F)cccc6F)c6ccc3[nH]6)C=C5)C=C4)cc1)[C@@H](C(F)(F)F)O2
REMARK SMILES IDX 19 1 18 2 17 3 15 4 16 5 14 6 6 7 7 8 11 9 8 10 10 11 12 12
REMARK SMILES IDX 9 13 85 14 13 15 80 16 5 17 4 18 2 19 1 20 3 21 81 22 82 23
REMARK SMILES IDX 83 24 84 25 20 26 21 27 22 28 23 29 24 30 25 31 26 32 27 33
REMARK SMILES IDX 79 34 28 35 78 36 29 37 30 38 31 39 72 40 32 41 77 42 71 43
REMARK SMILES IDX 73 44 33 45 76 46 70 47 69 48 34 50 60 51 43 52 59 53 44 54
REMARK SMILES IDX 47 55 58 56 74 57 45 58 46 59 57 61 75 62 48 63 35 64 36 65
REMARK SMILES IDX 41 66 37 67 38 68 40 69 42 70 39 71 61 72 62 73 67 74 63 75
REMARK SMILES IDX 64 76 66 77 68 78 65 79 49 80 50 81 55 82 51 83 52 84 54 85
REMARK SMILES IDX 56 86 53 87
REMARK H PARENT 73 49 47 60
REMARK Flexibility Score: inf
ROOT
ATOM      1  C   UNL     1       1.062  -0.874  10.384  1.00  0.00     0.202 C 
ENDROOT
BRANCH   1   2
ATOM      2  C   UNL     1       2.205  -0.455   9.454  1.00  0.00     0.261 C 
BRANCH   2   3
ATOM      3  O   UNL     1       1.724   0.211   8.277  1.00  0.00    -0.460 OA
BRANCH   3   4
ATOM      4  C   UNL     1       1.922  -0.473   7.125  1.00  0.00     0.338 C 
ATOM      5  O   UNL     1       2.544  -1.513   6.987  1.00  0.00    -0.246 OA
BRANCH   4   6
ATOM      6  C   UNL     1       1.145   0.151   6.037  1.00  0.00     0.087 C 
ATOM      7  C   UNL     1      -1.256   0.841   1.687  1.00  0.00     0.030 A 
ATOM      8  C   UNL     1      -0.649   1.696   2.625  1.00  0.00     0.063 A 
ATOM      9  C   UNL     1      -1.459  -0.501   2.046  1.00  0.00     0.055 A 
ATOM     10  C   UNL     1      -0.136   1.202   3.826  1.00  0.00     0.129 A 
ATOM     11  C   UNL     1      -0.921  -0.999   3.238  1.00  0.00     0.033 A 
ATOM     12  Cl  UNL     1      -2.383  -1.613   1.100  1.00  0.00    -0.083 Cl
ATOM     13  C   UNL     1      -0.224  -0.157   4.106  1.00  0.00     0.019 A 
ATOM     14  O   UNL     1       0.458   2.111   4.654  1.00  0.00    -0.475 OA
ATOM     15  C   UNL     1       0.465  -0.700   5.260  1.00  0.00     0.027 C 
ATOM     16  C   UNL     1       1.164   1.641   5.839  1.00  0.00     0.316 C 
BRANCH   7  17
ATOM     17  S   UNL     1      -1.682   1.597   0.121  1.00  0.00    -0.124 SA
BRANCH  17  18
ATOM     18  C   UNL     1      -0.900   0.499  -1.131  1.00  0.00     0.078 C 
BRANCH  18  19
ATOM     19  C   UNL     1       0.637   0.503  -1.253  1.00  0.00    -0.007 C 
ATOM     20  C   UNL     1       1.374  -0.049  -0.033  1.00  0.00     0.008 C 
ATOM     21  C   UNL     1       1.030  -0.339  -2.476  1.00  0.00     0.008 C 
ENDBRANCH  18  19
ENDBRANCH  17  18
ENDBRANCH   7  17
BRANCH  16  22
ATOM     22  C   UNL     1       2.587   2.219   5.797  1.00  0.00     0.430 C 
ATOM     23  F   UNL     1       2.566   3.556   5.575  1.00  0.00    -0.167 F 
ATOM     24  F   UNL     1       3.244   2.033   6.965  1.00  0.00    -0.167 F 
ATOM     25  F   UNL     1       3.331   1.656   4.819  1.00  0.00    -0.167 F 
ENDBRANCH  16  22
ENDBRANCH   4   6
ENDBRANCH   3   4
ENDBRANCH   2   3
ENDBRANCH   1   2
BRANCH   1  26
ATOM     26  O   UNL     1       0.063  -1.740   9.853  1.00  0.00    -0.374 OA
BRANCH  26  27
ATOM     27  C   UNL     1      -0.895  -1.202   8.945  1.00  0.00     0.202 C 
BRANCH  27  28
ATOM     28  C   UNL     1      -1.988  -0.279   9.500  1.00  0.00     0.261 C 
BRANCH  28  29
ATOM     29  O   UNL     1      -1.469   0.921  10.093  1.00  0.00    -0.460 OA
BRANCH  29  30
ATOM     30  C   UNL     1      -1.521   0.952  11.448  1.00  0.00     0.338 C 
ATOM     31  O   UNL     1      -1.963   0.089  12.191  1.00  0.00    -0.246 OA
BRANCH  30  32
ATOM     32  C   UNL     1      -0.787   2.132  11.941  1.00  0.00     0.060 A 
ATOM     33  C   UNL     1      -1.046   3.407  11.437  1.00  0.00     0.016 A 
ATOM     34  C   UNL     1       0.153   1.949  12.964  1.00  0.00     0.016 A 
ATOM     35  C   UNL     1      -0.376   4.504  11.979  1.00  0.00     0.010 A 
ATOM     36  C   UNL     1       0.814   3.049  13.512  1.00  0.00     0.010 A 
ATOM     37  C   UNL     1       0.542   4.338  13.034  1.00  0.00    -0.014 A 
BRANCH  37  38
ATOM     38  C   UNL     1       1.129   5.534  13.688  1.00  0.00     0.031 A 
ATOM     39  C   UNL     1       2.568   5.907  13.492  1.00  0.00     0.074 A 
ATOM     40  C   UNL     1       0.333   6.303  14.455  1.00  0.00     0.049 A 
ATOM     41  N   UNL     1       3.197   6.990  13.875  1.00  0.00    -0.248 NA
ATOM     42  C   UNL     1       3.413   4.937  12.781  1.00  0.00     0.031 C 
ATOM     43  C   UNL     1      -1.070   6.018  14.762  1.00  0.00     0.029 A 
ATOM     44  N   UNL     1       0.581   7.489  15.098  1.00  0.00    -0.354 N 
ATOM     45  C   UNL     1       4.504   6.848  13.429  1.00  0.00     0.074 A 
ATOM     46  C   UNL     1       4.593   5.543  12.804  1.00  0.00     0.031 C 
ATOM     47  C   UNL     1      -1.572   7.025  15.493  1.00  0.00     0.029 A 
ATOM     48  C   UNL     1      -0.522   8.011  15.728  1.00  0.00     0.049 A 
ATOM     49  H   UNL     1       1.464   7.924  15.106  1.00  0.00     0.167 HD
ATOM     50  C   UNL     1       5.528   7.733  13.511  1.00  0.00     0.037 A 
ATOM     51  C   UNL     1      -0.672   9.162  16.409  1.00  0.00     0.037 A 
ATOM     52  C   UNL     1       5.445   9.015  14.166  1.00  0.00     0.049 A 
ATOM     53  C   UNL     1       0.497  10.100  16.531  1.00  0.00     0.074 A 
ATOM     54  C   UNL     1       6.420   9.991  14.285  1.00  0.00     0.029 A 
ATOM     55  N   UNL     1       4.325   9.492  14.832  1.00  0.00    -0.354 N 
ATOM     56  N   UNL     1       1.702   9.996  16.025  1.00  0.00    -0.248 NA
ATOM     57  C   UNL     1       0.277  11.325  17.312  1.00  0.00     0.031 C 
ATOM     58  C   UNL     1       5.909  11.031  15.069  1.00  0.00     0.029 A 
ATOM     59  C   UNL     1       4.594  10.735  15.386  1.00  0.00     0.049 A 
ATOM     60  H   UNL     1       3.465   9.018  14.901  1.00  0.00     0.167 HD
ATOM     61  C   UNL     1       2.371  11.156  16.396  1.00  0.00     0.074 A 
ATOM     62  C   UNL     1       1.429  11.957  17.151  1.00  0.00     0.031 C 
ATOM     63  C   UNL     1       3.650  11.525  16.136  1.00  0.00     0.037 A 
BRANCH  50  64
ATOM     64  C   UNL     1       6.831   7.335  12.877  1.00  0.00     0.057 A 
ATOM     65  C   UNL     1       7.965   7.078  13.657  1.00  0.00     0.134 A 
ATOM     66  C   UNL     1       6.968   7.226  11.485  1.00  0.00     0.134 A 
ATOM     67  F   UNL     1       7.909   7.173  14.993  1.00  0.00    -0.206 F 
ATOM     68  C   UNL     1       9.185   6.721  13.078  1.00  0.00     0.040 A 
ATOM     69  C   UNL     1       8.175   6.841  10.897  1.00  0.00     0.040 A 
ATOM     70  F   UNL     1       5.920   7.452  10.678  1.00  0.00    -0.206 F 
ATOM     71  C   UNL     1       9.289   6.592  11.694  1.00  0.00     0.006 A 
ENDBRANCH  50  64
BRANCH  51  72
ATOM     72  C   UNL     1      -1.984   9.514  17.011  1.00  0.00     0.057 A 
ATOM     73  C   UNL     1      -2.502   8.801  18.098  1.00  0.00     0.134 A 
ATOM     74  C   UNL     1      -2.726  10.605  16.543  1.00  0.00     0.134 A 
ATOM     75  F   UNL     1      -1.844   7.740  18.588  1.00  0.00    -0.206 F 
ATOM     76  C   UNL     1      -3.706   9.163  18.703  1.00  0.00     0.040 A 
ATOM     77  C   UNL     1      -3.916  10.998  17.158  1.00  0.00     0.040 A 
ATOM     78  F   UNL     1      -2.275  11.338  15.515  1.00  0.00    -0.206 F 
ATOM     79  C   UNL     1      -4.410  10.274  18.241  1.00  0.00     0.006 A 
ENDBRANCH  51  72
BRANCH  63  80
ATOM     80  C   UNL     1       4.084  12.875  16.636  1.00  0.00     0.057 A 
ATOM     81  C   UNL     1       4.348  13.916  15.736  1.00  0.00     0.134 A 
ATOM     82  C   UNL     1       4.237  13.152  18.002  1.00  0.00     0.134 A 
ATOM     83  F   UNL     1       4.231  13.720  14.414  1.00  0.00    -0.206 F 
ATOM     84  C   UNL     1       4.739  15.182  16.174  1.00  0.00     0.040 A 
ATOM     85  C   UNL     1       4.593  14.425  18.454  1.00  0.00     0.040 A 
ATOM     86  F   UNL     1       3.986  12.207  18.920  1.00  0.00    -0.206 F 
ATOM     87  C   UNL     1       4.850  15.443  17.538  1.00  0.00     0.006 A 
ENDBRANCH  63  80
ENDBRANCH  37  38
ENDBRANCH  30  32
ENDBRANCH  29  30
ENDBRANCH  28  29
ENDBRANCH  27  28
ENDBRANCH  26  27
ENDBRANCH   1  26
TORSDOF 18
