REMARK SMILES COc1ccc([C@H]2CC(c3ccc(S(C)(=O)=O)cc3)=NN2c2ccc(C(=O)OCCOCCOC(=O)c3ccc(-c4c5nc(c(-c6c(F)cccc6F)c6ccc([nH]6)c(-c6c(F)cccc6F)c6nc(c(-c7c(F)cccc7F)c7ccc4[nH]7)C=C6)C=C5)cc3)cc2)cc1
REMARK SMILES IDX 30 1 29 2 28 3 26 4 27 5 25 6 22 7 23 8 92 9 24 10 91 11
REMARK SMILES IDX 21 12 7 13 8 14 9 15 20 16 6 17 3 18 4 19 94 20 5 21 93 22
REMARK SMILES IDX 2 23 1 24 10 25 11 26 19 27 12 28 18 29 13 30 14 31 15 32
REMARK SMILES IDX 16 33 17 34 31 35 32 36 33 37 34 38 35 39 36 40 37 41 38 42
REMARK SMILES IDX 90 43 39 44 89 45 40 46 41 47 42 48 83 49 43 50 88 51 82 52
REMARK SMILES IDX 84 53 44 54 87 55 81 56 80 57 45 59 71 60 54 61 70 62 55 63
REMARK SMILES IDX 58 64 69 65 85 66 56 67 57 68 68 70 86 71 59 72 46 73 47 74
REMARK SMILES IDX 52 75 48 76 49 77 51 78 53 79 50 80 72 81 73 82 78 83 74 84
REMARK SMILES IDX 75 85 77 86 79 87 76 88 60 89 61 90 66 91 62 92 63 93 65 94
REMARK SMILES IDX 67 95 64 96
REMARK H PARENT 84 58 58 69
REMARK Flexibility Score: inf
ROOT
ATOM      1  C   UNL     1       3.183   6.005   9.857  1.00  0.00     0.202 C 
ENDROOT
BRANCH   1   2
ATOM      2  C   UNL     1       2.211   5.698   8.714  1.00  0.00     0.261 C 
BRANCH   2   3
ATOM      3  O   UNL     1       2.120   4.283   8.477  1.00  0.00    -0.460 OA
BRANCH   3   4
ATOM      4  C   UNL     1       2.695   3.860   7.325  1.00  0.00     0.338 C 
ATOM      5  O   UNL     1       3.152   4.563   6.435  1.00  0.00    -0.246 OA
BRANCH   4   6
ATOM      6  C   UNL     1       2.839   2.388   7.332  1.00  0.00     0.060 A 
ATOM      7  C   UNL     1       3.149  -0.401   7.119  1.00  0.00     0.060 A 
ATOM      8  C   UNL     1       4.144   0.466   6.652  1.00  0.00     0.029 A 
ATOM      9  C   UNL     1       2.034   0.154   7.768  1.00  0.00     0.029 A 
ATOM     10  C   UNL     1       3.980   1.849   6.729  1.00  0.00     0.018 A 
ATOM     11  C   UNL     1       1.881   1.541   7.893  1.00  0.00     0.018 A 
BRANCH   7  12
ATOM     12  N   UNL     1       3.231  -1.768   6.871  1.00  0.00    -0.257 N 
ATOM     13  C   UNL     1       2.176  -2.498   6.159  1.00  0.00     0.144 C 
ATOM     14  C   UNL     1       2.816  -3.869   5.916  1.00  0.00     0.091 C 
ATOM     15  C   UNL     1       4.193  -3.620   6.465  1.00  0.00     0.071 C 
ATOM     16  N   UNL     1       4.409  -2.444   6.966  1.00  0.00    -0.176 NA
BRANCH  13  17
ATOM     17  C   UNL     1       1.750  -1.811   4.867  1.00  0.00    -0.023 A 
ATOM     18  C   UNL     1       0.910  -0.520   2.499  1.00  0.00     0.118 A 
ATOM     19  C   UNL     1       0.025  -0.698   3.562  1.00  0.00     0.047 A 
ATOM     20  C   UNL     1       2.228  -0.954   2.630  1.00  0.00     0.047 A 
ATOM     21  C   UNL     1       0.434  -1.343   4.731  1.00  0.00     0.010 A 
ATOM     22  C   UNL     1       2.645  -1.589   3.807  1.00  0.00     0.010 A 
BRANCH  18  23
ATOM     23  O   UNL     1       0.385   0.119   1.410  1.00  0.00    -0.497 OA
ATOM     24  C   UNL     1       1.052  -0.102   0.173  1.00  0.00     0.278 C 
ENDBRANCH  18  23
ENDBRANCH  13  17
BRANCH  15  25
ATOM     25  C   UNL     1       5.184  -4.701   6.482  1.00  0.00    -0.002 A 
ATOM     26  C   UNL     1       5.686  -5.124   7.718  1.00  0.00     0.011 A 
ATOM     27  C   UNL     1       5.574  -5.329   5.297  1.00  0.00     0.011 A 
ATOM     28  C   UNL     1       6.568  -6.203   7.773  1.00  0.00     0.021 A 
ATOM     29  C   UNL     1       6.477  -6.393   5.347  1.00  0.00     0.021 A 
ATOM     30  C   UNL     1       6.966  -6.826   6.585  1.00  0.00     0.067 A 
BRANCH  30  31
ATOM     31  S   UNL     1       8.073  -8.217   6.665  1.00  0.00     0.175 S 
ATOM     32  C   UNL     1       9.553  -7.558   7.386  1.00  0.00     0.163 C 
ATOM     33  O   UNL     1       7.487  -9.160   7.600  1.00  0.00    -0.224 OA
ATOM     34  O   UNL     1       8.384  -8.608   5.305  1.00  0.00    -0.224 OA
ENDBRANCH  30  31
ENDBRANCH  15  25
ENDBRANCH   7  12
ENDBRANCH   4   6
ENDBRANCH   3   4
ENDBRANCH   2   3
ENDBRANCH   1   2
BRANCH   1  35
ATOM     35  O   UNL     1       4.549   5.674   9.605  1.00  0.00    -0.374 OA
BRANCH  35  36
ATOM     36  C   UNL     1       4.933   4.319   9.855  1.00  0.00     0.202 C 
BRANCH  36  37
ATOM     37  C   UNL     1       5.261   3.993  11.317  1.00  0.00     0.261 C 
BRANCH  37  38
ATOM     38  O   UNL     1       4.077   4.021  12.136  1.00  0.00    -0.460 OA
BRANCH  38  39
ATOM     39  C   UNL     1       4.012   5.044  13.017  1.00  0.00     0.338 C 
ATOM     40  O   UNL     1       4.884   5.867  13.267  1.00  0.00    -0.246 OA
BRANCH  39  41
ATOM     41  C   UNL     1       2.643   5.161  13.552  1.00  0.00     0.060 A 
ATOM     42  C   UNL     1       2.051   6.430  13.538  1.00  0.00     0.016 A 
ATOM     43  C   UNL     1       1.969   4.072  14.111  1.00  0.00     0.016 A 
ATOM     44  C   UNL     1       0.806   6.628  14.131  1.00  0.00     0.010 A 
ATOM     45  C   UNL     1       0.722   4.273  14.714  1.00  0.00     0.010 A 
ATOM     46  C   UNL     1       0.152   5.558  14.757  1.00  0.00    -0.014 A 
BRANCH  46  47
ATOM     47  C   UNL     1      -1.054   5.821  15.579  1.00  0.00     0.031 A 
ATOM     48  C   UNL     1      -0.907   5.954  17.070  1.00  0.00     0.074 A 
ATOM     49  C   UNL     1      -2.260   5.972  15.004  1.00  0.00     0.049 A 
ATOM     50  N   UNL     1      -1.823   6.167  17.979  1.00  0.00    -0.248 NA
ATOM     51  C   UNL     1       0.458   5.830  17.607  1.00  0.00     0.031 C 
ATOM     52  C   UNL     1      -2.527   5.901  13.569  1.00  0.00     0.029 A 
ATOM     53  N   UNL     1      -3.488   6.214  15.566  1.00  0.00    -0.354 N 
ATOM     54  C   UNL     1      -1.149   6.200  19.193  1.00  0.00     0.074 A 
ATOM     55  C   UNL     1       0.249   5.955  18.909  1.00  0.00     0.031 C 
ATOM     56  C   UNL     1      -3.843   6.087  13.363  1.00  0.00     0.029 A 
ATOM     57  C   UNL     1      -4.510   6.264  14.651  1.00  0.00     0.049 A 
ATOM     58  H   UNL     1      -3.623   6.340  16.533  1.00  0.00     0.167 HD
ATOM     59  C   UNL     1      -1.647   6.425  20.432  1.00  0.00     0.037 A 
ATOM     60  C   UNL     1      -5.835   6.418  14.836  1.00  0.00     0.037 A 
ATOM     61  C   UNL     1      -3.036   6.670  20.717  1.00  0.00     0.049 A 
ATOM     62  C   UNL     1      -6.374   6.602  16.230  1.00  0.00     0.074 A 
ATOM     63  C   UNL     1      -3.635   6.927  21.938  1.00  0.00     0.029 A 
ATOM     64  N   UNL     1      -4.045   6.682  19.766  1.00  0.00    -0.354 N 
ATOM     65  N   UNL     1      -5.725   6.657  17.367  1.00  0.00    -0.248 NA
ATOM     66  C   UNL     1      -7.831   6.746  16.364  1.00  0.00     0.031 C 
ATOM     67  C   UNL     1      -5.013   7.053  21.732  1.00  0.00     0.029 A 
ATOM     68  C   UNL     1      -5.266   6.918  20.376  1.00  0.00     0.049 A 
ATOM     69  H   UNL     1      -3.914   6.543  18.800  1.00  0.00     0.167 HD
ATOM     70  C   UNL     1      -6.688   6.869  18.346  1.00  0.00     0.074 A 
ATOM     71  C   UNL     1      -7.965   6.942  17.668  1.00  0.00     0.031 C 
ATOM     72  C   UNL     1      -6.528   6.994  19.687  1.00  0.00     0.037 A 
BRANCH  59  73
ATOM     73  C   UNL     1      -0.681   6.394  21.578  1.00  0.00     0.057 A 
ATOM     74  C   UNL     1       0.237   7.429  21.798  1.00  0.00     0.134 A 
ATOM     75  C   UNL     1      -0.689   5.331  22.490  1.00  0.00     0.134 A 
ATOM     76  F   UNL     1       0.304   8.469  20.953  1.00  0.00    -0.206 F 
ATOM     77  C   UNL     1       1.128   7.397  22.872  1.00  0.00     0.040 A 
ATOM     78  C   UNL     1       0.181   5.299  23.581  1.00  0.00     0.040 A 
ATOM     79  F   UNL     1      -1.546   4.310  22.338  1.00  0.00    -0.206 F 
ATOM     80  C   UNL     1       1.097   6.332  23.771  1.00  0.00     0.006 A 
ENDBRANCH  59  73
BRANCH  60  81
ATOM     81  C   UNL     1      -6.754   6.398  13.671  1.00  0.00     0.057 A 
ATOM     82  C   UNL     1      -7.415   7.556  13.247  1.00  0.00     0.134 A 
ATOM     83  C   UNL     1      -7.010   5.214  12.968  1.00  0.00     0.134 A 
ATOM     84  F   UNL     1      -7.229   8.714  13.897  1.00  0.00    -0.206 F 
ATOM     85  C   UNL     1      -8.308   7.536  12.175  1.00  0.00     0.040 A 
ATOM     86  C   UNL     1      -7.883   5.184  11.880  1.00  0.00     0.040 A 
ATOM     87  F   UNL     1      -6.408   4.070  13.326  1.00  0.00    -0.206 F 
ATOM     88  C   UNL     1      -8.540   6.348  11.485  1.00  0.00     0.006 A 
ENDBRANCH  60  81
BRANCH  72  89
ATOM     89  C   UNL     1      -7.759   7.255  20.505  1.00  0.00     0.057 A 
ATOM     90  C   UNL     1      -8.704   6.253  20.757  1.00  0.00     0.134 A 
ATOM     91  C   UNL     1      -7.979   8.513  21.080  1.00  0.00     0.134 A 
ATOM     92  F   UNL     1      -8.557   5.030  20.225  1.00  0.00    -0.206 F 
ATOM     93  C   UNL     1      -9.836   6.499  21.536  1.00  0.00     0.040 A 
ATOM     94  C   UNL     1      -9.095   8.764  21.880  1.00  0.00     0.040 A 
ATOM     95  F   UNL     1      -7.107   9.514  20.884  1.00  0.00    -0.206 F 
ATOM     96  C   UNL     1     -10.030   7.756  22.105  1.00  0.00     0.006 A 
ENDBRANCH  72  89
ENDBRANCH  46  47
ENDBRANCH  39  41
ENDBRANCH  38  39
ENDBRANCH  37  38
ENDBRANCH  36  37
ENDBRANCH  35  36
ENDBRANCH   1  35
TORSDOF 19
