REMARK SMILES Cc1ccc(C(=O)[C@@H](C)[C@H](C)C(=O)OCCOCCOC(=O)c2ccc(-c3c4nc(c(-c5c(F)cccc5F)c5ccc([nH]5)c(-c5c(F)cccc5F)c5nc(c(-c6c(F)cccc6F)c6ccc3[nH]6)C=C5)C=C4)cc2)cc1
REMARK SMILES IDX 16 1 15 2 14 3 12 4 13 5 10 6 11 7 8 8 9 9 6 10 7 11 5 12
REMARK SMILES IDX 1 13 2 14 3 15 78 16 4 17 77 18 17 19 18 20 19 21 20 22
REMARK SMILES IDX 21 23 22 24 23 25 24 26 76 27 25 28 75 29 26 30 27 31 28 32
REMARK SMILES IDX 69 33 29 34 74 35 68 36 70 37 30 38 73 39 67 40 66 41 31 43
REMARK SMILES IDX 57 44 40 45 56 46 41 47 44 48 55 49 71 50 42 51 43 52 54 54
REMARK SMILES IDX 72 55 45 56 32 57 33 58 38 59 34 60 35 61 37 62 39 63 36 64
REMARK SMILES IDX 58 65 59 66 64 67 60 68 61 69 63 70 65 71 62 72 46 73 47 74
REMARK SMILES IDX 52 75 48 76 49 77 51 78 53 79 50 80
REMARK H PARENT 70 42 44 53
REMARK Flexibility Score: inf
ROOT
ATOM      1  C   UNL     1      -5.318   3.598   0.942  1.00  0.00     0.202 C 
ENDROOT
BRANCH   1   2
ATOM      2  C   UNL     1      -5.496   3.422  -0.548  1.00  0.00     0.261 C 
BRANCH   2   3
ATOM      3  O   UNL     1      -4.779   2.300  -1.063  1.00  0.00    -0.463 OA
BRANCH   3   4
ATOM      4  C   UNL     1      -3.430   2.440  -1.161  1.00  0.00     0.309 C 
ATOM      5  O   UNL     1      -2.825   3.481  -1.243  1.00  0.00    -0.252 OA
BRANCH   4   6
ATOM      6  C   UNL     1      -2.780   1.075  -0.991  1.00  0.00     0.106 C 
ATOM      7  C   UNL     1      -2.678   0.690   0.483  1.00  0.00     0.021 C 
BRANCH   6   8
ATOM      8  C   UNL     1      -3.282  -0.019  -1.953  1.00  0.00     0.072 C 
ATOM      9  C   UNL     1      -3.414   0.518  -3.385  1.00  0.00     0.017 C 
BRANCH   8  10
ATOM     10  C   UNL     1      -4.399  -1.070  -1.706  1.00  0.00     0.166 C 
ATOM     11  O   UNL     1      -4.261  -2.163  -2.278  1.00  0.00    -0.294 OA
BRANCH  10  12
ATOM     12  C   UNL     1      -5.699  -0.902  -0.959  1.00  0.00     0.018 A 
ATOM     13  C   UNL     1      -9.574  -0.618   1.013  1.00  0.00     0.044 C 
ATOM     14  C   UNL     1      -8.244  -0.725   0.327  1.00  0.00    -0.051 A 
ATOM     15  C   UNL     1      -7.971  -1.756  -0.571  1.00  0.00     0.004 A 
ATOM     16  C   UNL     1      -7.222   0.169   0.629  1.00  0.00     0.004 A 
ATOM     17  C   UNL     1      -6.725  -1.829  -1.216  1.00  0.00     0.012 A 
ATOM     18  C   UNL     1      -5.963   0.044   0.021  1.00  0.00     0.012 A 
ENDBRANCH  10  12
ENDBRANCH   8  10
ENDBRANCH   6   8
ENDBRANCH   4   6
ENDBRANCH   3   4
ENDBRANCH   2   3
ENDBRANCH   1   2
BRANCH   1  19
ATOM     19  O   UNL     1      -4.194   4.436   1.155  1.00  0.00    -0.374 OA
BRANCH  19  20
ATOM     20  C   UNL     1      -3.865   4.669   2.518  1.00  0.00     0.202 C 
BRANCH  20  21
ATOM     21  C   UNL     1      -5.011   5.270   3.348  1.00  0.00     0.261 C 
BRANCH  21  22
ATOM     22  O   UNL     1      -5.435   6.512   2.751  1.00  0.00    -0.460 OA
BRANCH  22  23
ATOM     23  C   UNL     1      -6.672   6.511   2.181  1.00  0.00     0.338 C 
ATOM     24  O   UNL     1      -7.679   6.031   2.676  1.00  0.00    -0.246 OA
BRANCH  23  25
ATOM     25  C   UNL     1      -6.556   6.869   0.734  1.00  0.00     0.060 A 
ATOM     26  C   UNL     1      -7.644   6.648  -0.131  1.00  0.00     0.016 A 
ATOM     27  C   UNL     1      -5.288   7.080   0.200  1.00  0.00     0.016 A 
ATOM     28  C   UNL     1      -7.434   6.486  -1.513  1.00  0.00     0.010 A 
ATOM     29  C   UNL     1      -5.078   6.825  -1.142  1.00  0.00     0.010 A 
ATOM     30  C   UNL     1      -6.134   6.498  -2.014  1.00  0.00    -0.014 A 
BRANCH  30  31
ATOM     31  C   UNL     1      -5.708   6.047  -3.352  1.00  0.00     0.031 A 
ATOM     32  C   UNL     1      -4.879   6.942  -4.206  1.00  0.00     0.074 A 
ATOM     33  C   UNL     1      -5.761   4.739  -3.714  1.00  0.00     0.049 A 
ATOM     34  N   UNL     1      -4.599   6.700  -5.444  1.00  0.00    -0.248 NA
ATOM     35  C   UNL     1      -4.279   8.184  -3.726  1.00  0.00     0.031 C 
ATOM     36  C   UNL     1      -4.872   4.058  -4.659  1.00  0.00     0.029 A 
ATOM     37  N   UNL     1      -6.675   3.735  -3.363  1.00  0.00    -0.354 N 
ATOM     38  C   UNL     1      -3.544   7.506  -5.793  1.00  0.00     0.074 A 
ATOM     39  C   UNL     1      -3.417   8.452  -4.708  1.00  0.00     0.031 C 
ATOM     40  C   UNL     1      -5.431   2.903  -5.041  1.00  0.00     0.029 A 
ATOM     41  C   UNL     1      -6.759   2.860  -4.469  1.00  0.00     0.049 A 
ATOM     42  H   UNL     1      -7.164   3.656  -2.512  1.00  0.00     0.167 HD
ATOM     43  C   UNL     1      -2.793   7.212  -6.892  1.00  0.00     0.037 A 
ATOM     44  C   UNL     1      -7.929   2.583  -5.105  1.00  0.00     0.037 A 
ATOM     45  C   UNL     1      -3.227   5.978  -7.554  1.00  0.00     0.049 A 
ATOM     46  C   UNL     1      -7.849   2.886  -6.574  1.00  0.00     0.074 A 
ATOM     47  C   UNL     1      -2.724   4.688  -7.626  1.00  0.00     0.029 A 
ATOM     48  N   UNL     1      -4.515   5.897  -8.061  1.00  0.00    -0.354 N 
ATOM     49  N   UNL     1      -6.787   3.404  -7.120  1.00  0.00    -0.248 NA
ATOM     50  C   UNL     1      -8.939   2.730  -7.530  1.00  0.00     0.031 C 
ATOM     51  C   UNL     1      -3.703   3.855  -8.241  1.00  0.00     0.029 A 
ATOM     52  C   UNL     1      -4.804   4.635  -8.543  1.00  0.00     0.049 A 
ATOM     53  H   UNL     1      -5.148   6.651  -8.077  1.00  0.00     0.167 HD
ATOM     54  C   UNL     1      -7.035   3.730  -8.413  1.00  0.00     0.074 A 
ATOM     55  C   UNL     1      -8.402   3.288  -8.632  1.00  0.00     0.031 C 
ATOM     56  C   UNL     1      -6.100   4.380  -9.161  1.00  0.00     0.037 A 
BRANCH  43  57
ATOM     57  C   UNL     1      -1.512   7.945  -7.218  1.00  0.00     0.057 A 
ATOM     58  C   UNL     1      -0.444   7.313  -7.879  1.00  0.00     0.134 A 
ATOM     59  C   UNL     1      -1.274   9.296  -6.899  1.00  0.00     0.134 A 
ATOM     60  F   UNL     1      -0.546   6.066  -8.356  1.00  0.00    -0.206 F 
ATOM     61  C   UNL     1       0.795   7.933  -8.093  1.00  0.00     0.040 A 
ATOM     62  C   UNL     1      -0.022   9.909  -7.046  1.00  0.00     0.040 A 
ATOM     63  F   UNL     1      -2.262  10.098  -6.475  1.00  0.00    -0.206 F 
ATOM     64  C   UNL     1       1.025   9.222  -7.638  1.00  0.00     0.006 A 
ENDBRANCH  43  57
BRANCH  44  65
ATOM     65  C   UNL     1      -9.096   2.761  -4.201  1.00  0.00     0.057 A 
ATOM     66  C   UNL     1      -9.183   1.905  -3.084  1.00  0.00     0.134 A 
ATOM     67  C   UNL     1      -9.739   3.999  -4.110  1.00  0.00     0.134 A 
ATOM     68  F   UNL     1      -8.585   0.704  -3.108  1.00  0.00    -0.206 F 
ATOM     69  C   UNL     1      -9.724   2.338  -1.872  1.00  0.00     0.040 A 
ATOM     70  C   UNL     1     -10.301   4.432  -2.903  1.00  0.00     0.040 A 
ATOM     71  F   UNL     1      -9.699   4.863  -5.134  1.00  0.00    -0.206 F 
ATOM     72  C   UNL     1     -10.244   3.624  -1.767  1.00  0.00     0.006 A 
ENDBRANCH  44  65
BRANCH  56  73
ATOM     73  C   UNL     1      -6.386   4.870 -10.541  1.00  0.00     0.057 A 
ATOM     74  C   UNL     1      -7.053   4.096 -11.495  1.00  0.00     0.134 A 
ATOM     75  C   UNL     1      -5.963   6.144 -10.965  1.00  0.00     0.134 A 
ATOM     76  F   UNL     1      -7.396   2.824 -11.236  1.00  0.00    -0.206 F 
ATOM     77  C   UNL     1      -7.389   4.602 -12.753  1.00  0.00     0.040 A 
ATOM     78  C   UNL     1      -6.243   6.640 -12.236  1.00  0.00     0.040 A 
ATOM     79  F   UNL     1      -5.293   6.976 -10.155  1.00  0.00    -0.206 F 
ATOM     80  C   UNL     1      -6.989   5.881 -13.124  1.00  0.00     0.006 A 
ENDBRANCH  56  73
ENDBRANCH  30  31
ENDBRANCH  23  25
ENDBRANCH  22  23
ENDBRANCH  21  22
ENDBRANCH  20  21
ENDBRANCH  19  20
ENDBRANCH   1  19
TORSDOF 17
