REMARK SMILES C[C@@H](c1cccc(O)c1)[N@H+]1[C@@H]2CC[C@H]1C[C@H](CC(=O)OCCOCCOC(=O)c1ccc(-c3c4nc(c(-c5c(F)cccc5F)c5ccc([nH]5)c(-c5c(F)cccc5F)c5nc(c(-c6c(F)cccc6F)c6ccc3[nH]6)C=C5)C=C4)cc1)C2
REMARK SMILES IDX 22 1 21 2 20 3 18 4 19 5 17 6 16 7 10 8 11 9 14 10 12 12
REMARK SMILES IDX 83 13 13 14 15 15 2 16 1 17 3 18 4 19 9 20 5 21 7 22 6 23
REMARK SMILES IDX 8 24 23 26 24 27 25 28 26 29 27 30 28 31 29 32 30 33 82 34
REMARK SMILES IDX 31 35 81 36 32 37 33 38 34 39 75 40 35 41 80 42 74 43 76 44
REMARK SMILES IDX 36 45 79 46 73 47 72 48 37 50 63 51 46 52 62 53 47 54 50 55
REMARK SMILES IDX 61 56 77 57 48 58 49 59 60 61 78 62 51 63 38 64 39 65 44 66
REMARK SMILES IDX 40 67 41 68 43 69 45 70 42 71 64 72 65 73 70 74 66 75 67 76
REMARK SMILES IDX 69 77 71 78 68 79 52 80 53 81 58 82 54 83 55 84 57 85 59 86
REMARK SMILES IDX 56 87
REMARK H PARENT 10 11 8 25 76 49 50 60
REMARK Flexibility Score: inf
ROOT
ATOM      1  C   UNL     1      -0.836  -3.996  -7.043  1.00  0.00     0.202 C 
ENDROOT
BRANCH   1   2
ATOM      2  C   UNL     1       0.566  -3.514  -6.665  1.00  0.00     0.261 C 
BRANCH   2   3
ATOM      3  O   UNL     1       0.518  -2.718  -5.465  1.00  0.00    -0.463 OA
BRANCH   3   4
ATOM      4  C   UNL     1       0.876  -1.416  -5.590  1.00  0.00     0.306 C 
ATOM      5  O   UNL     1       1.325  -0.904  -6.608  1.00  0.00    -0.252 OA
BRANCH   4   6
ATOM      6  C   UNL     1       0.722  -0.651  -4.295  1.00  0.00     0.126 C 
BRANCH   6   7
ATOM      7  C   UNL     1      -0.589  -0.822  -3.490  1.00  0.00     0.012 C 
ATOM      8  N   UNL     1      -0.906  -1.275  -0.555  1.00  0.00    -0.324 N 
ATOM      9  C   UNL     1      -1.388  -0.011  -1.144  1.00  0.00     0.185 C 
ATOM     10  C   UNL     1      -1.448  -2.264  -1.504  1.00  0.00     0.185 C 
ATOM     11  H   UNL     1      -1.229  -1.424   0.401  1.00  0.00     0.349 HD
ATOM     12  C   UNL     1      -2.868  -0.315  -1.394  1.00  0.00     0.071 C 
ATOM     13  C   UNL     1      -0.665   0.330  -2.458  1.00  0.00     0.069 C 
ATOM     14  C   UNL     1      -2.906  -1.812  -1.654  1.00  0.00     0.071 C 
ATOM     15  C   UNL     1      -0.713  -2.227  -2.858  1.00  0.00     0.069 C 
BRANCH   8  16
ATOM     16  C   UNL     1       0.551  -1.357  -0.252  1.00  0.00     0.212 C 
ATOM     17  C   UNL     1       1.050  -0.061   0.436  1.00  0.00     0.081 C 
BRANCH  16  18
ATOM     18  C   UNL     1       0.949  -2.607   0.565  1.00  0.00     0.013 A 
ATOM     19  C   UNL     1       0.892  -3.894  -0.005  1.00  0.00     0.010 A 
ATOM     20  C   UNL     1       1.468  -2.524   1.871  1.00  0.00     0.056 A 
ATOM     21  C   UNL     1       1.275  -5.039   0.704  1.00  0.00     0.004 A 
ATOM     22  C   UNL     1       1.902  -3.661   2.554  1.00  0.00     0.116 A 
ATOM     23  C   UNL     1       1.790  -4.923   1.989  1.00  0.00     0.046 A 
BRANCH  22  24
ATOM     24  O   UNL     1       2.457  -3.484   3.787  1.00  0.00    -0.508 OA
ATOM     25  H   UNL     1       2.760  -4.224   4.276  1.00  0.00     0.293 HD
ENDBRANCH  22  24
ENDBRANCH  16  18
ENDBRANCH   8  16
ENDBRANCH   6   7
ENDBRANCH   4   6
ENDBRANCH   3   4
ENDBRANCH   2   3
ENDBRANCH   1   2
BRANCH   1  26
ATOM     26  O   UNL     1      -1.687  -3.010  -7.631  1.00  0.00    -0.374 OA
BRANCH  26  27
ATOM     27  C   UNL     1      -2.287  -2.068  -6.745  1.00  0.00     0.202 C 
BRANCH  27  28
ATOM     28  C   UNL     1      -3.580  -2.530  -6.064  1.00  0.00     0.261 C 
BRANCH  28  29
ATOM     29  O   UNL     1      -3.355  -3.655  -5.194  1.00  0.00    -0.460 OA
BRANCH  29  30
ATOM     30  C   UNL     1      -3.817  -4.832  -5.672  1.00  0.00     0.338 C 
ATOM     31  O   UNL     1      -4.485  -5.008  -6.684  1.00  0.00    -0.246 OA
BRANCH  30  32
ATOM     32  C   UNL     1      -3.274  -5.960  -4.891  1.00  0.00     0.060 A 
ATOM     33  C   UNL     1      -2.763  -7.044  -5.615  1.00  0.00     0.016 A 
ATOM     34  C   UNL     1      -3.333  -6.006  -3.495  1.00  0.00     0.016 A 
ATOM     35  C   UNL     1      -2.379  -8.208  -4.955  1.00  0.00     0.010 A 
ATOM     36  C   UNL     1      -2.950  -7.180  -2.832  1.00  0.00     0.010 A 
ATOM     37  C   UNL     1      -2.517  -8.301  -3.564  1.00  0.00    -0.014 A 
BRANCH  37  38
ATOM     38  C   UNL     1      -2.374  -9.631  -2.920  1.00  0.00     0.031 A 
ATOM     39  C   UNL     1      -3.615 -10.424  -2.602  1.00  0.00     0.074 A 
ATOM     40  C   UNL     1      -1.161 -10.164  -2.691  1.00  0.00     0.049 A 
ATOM     41  N   UNL     1      -3.726 -11.618  -2.079  1.00  0.00    -0.248 NA
ATOM     42  C   UNL     1      -4.902  -9.784  -2.921  1.00  0.00     0.031 C 
ATOM     43  C   UNL     1       0.116  -9.520  -2.994  1.00  0.00     0.029 A 
ATOM     44  N   UNL     1      -0.809 -11.378  -2.157  1.00  0.00    -0.354 N 
ATOM     45  C   UNL     1      -5.090 -11.872  -2.005  1.00  0.00     0.074 A 
ATOM     46  C   UNL     1      -5.768 -10.696  -2.504  1.00  0.00     0.031 C 
ATOM     47  C   UNL     1       1.114 -10.347  -2.639  1.00  0.00     0.029 A 
ATOM     48  C   UNL     1       0.548 -11.566  -2.065  1.00  0.00     0.049 A 
ATOM     49  H   UNL     1      -1.467 -12.050  -1.866  1.00  0.00     0.167 HD
ATOM     50  C   UNL     1      -5.723 -12.989  -1.574  1.00  0.00     0.037 A 
ATOM     51  C   UNL     1       1.251 -12.602  -1.567  1.00  0.00     0.037 A 
ATOM     52  C   UNL     1      -5.054 -14.165  -1.083  1.00  0.00     0.049 A 
ATOM     53  C   UNL     1       0.523 -13.808  -1.035  1.00  0.00     0.074 A 
ATOM     54  C   UNL     1      -5.610 -15.351  -0.638  1.00  0.00     0.029 A 
ATOM     55  N   UNL     1      -3.679 -14.300  -0.969  1.00  0.00    -0.354 N 
ATOM     56  N   UNL     1      -0.765 -14.046  -0.993  1.00  0.00    -0.248 NA
ATOM     57  C   UNL     1       1.350 -14.894  -0.486  1.00  0.00     0.031 C 
ATOM     58  C   UNL     1      -4.573 -16.188  -0.213  1.00  0.00     0.029 A 
ATOM     59  C   UNL     1      -3.369 -15.541  -0.439  1.00  0.00     0.049 A 
ATOM     60  H   UNL     1      -3.021 -13.615  -1.227  1.00  0.00     0.167 HD
ATOM     61  C   UNL     1      -0.902 -15.315  -0.444  1.00  0.00     0.074 A 
ATOM     62  C   UNL     1       0.435 -15.802  -0.176  1.00  0.00     0.031 C 
ATOM     63  C   UNL     1      -2.033 -16.017  -0.187  1.00  0.00     0.037 A 
BRANCH  50  64
ATOM     64  C   UNL     1      -7.223 -12.983  -1.595  1.00  0.00     0.057 A 
ATOM     65  C   UNL     1      -7.946 -13.073  -2.791  1.00  0.00     0.134 A 
ATOM     66  C   UNL     1      -7.952 -12.919  -0.401  1.00  0.00     0.134 A 
ATOM     67  F   UNL     1      -7.307 -13.122  -3.970  1.00  0.00    -0.206 F 
ATOM     68  C   UNL     1      -9.342 -13.077  -2.801  1.00  0.00     0.040 A 
ATOM     69  C   UNL     1      -9.348 -12.947  -0.396  1.00  0.00     0.040 A 
ATOM     70  F   UNL     1      -7.321 -12.836   0.779  1.00  0.00    -0.206 F 
ATOM     71  C   UNL     1     -10.046 -13.021  -1.600  1.00  0.00     0.006 A 
ENDBRANCH  50  64
BRANCH  51  72
ATOM     72  C   UNL     1       2.734 -12.547  -1.542  1.00  0.00     0.057 A 
ATOM     73  C   UNL     1       3.507 -13.376  -2.363  1.00  0.00     0.134 A 
ATOM     74  C   UNL     1       3.413 -11.680  -0.677  1.00  0.00     0.134 A 
ATOM     75  F   UNL     1       2.913 -14.245  -3.195  1.00  0.00    -0.206 F 
ATOM     76  C   UNL     1       4.902 -13.357  -2.315  1.00  0.00     0.040 A 
ATOM     77  C   UNL     1       4.807 -11.634  -0.635  1.00  0.00     0.040 A 
ATOM     78  F   UNL     1       2.730 -10.861   0.135  1.00  0.00    -0.206 F 
ATOM     79  C   UNL     1       5.556 -12.480  -1.451  1.00  0.00     0.006 A 
ENDBRANCH  51  72
BRANCH  63  80
ATOM     80  C   UNL     1      -1.877 -17.399   0.377  1.00  0.00     0.057 A 
ATOM     81  C   UNL     1      -1.491 -17.618   1.704  1.00  0.00     0.134 A 
ATOM     82  C   UNL     1      -2.162 -18.524  -0.408  1.00  0.00     0.134 A 
ATOM     83  F   UNL     1      -1.193 -16.583   2.505  1.00  0.00    -0.206 F 
ATOM     84  C   UNL     1      -1.373 -18.907   2.226  1.00  0.00     0.040 A 
ATOM     85  C   UNL     1      -2.072 -19.817   0.108  1.00  0.00     0.040 A 
ATOM     86  F   UNL     1      -2.547 -18.384  -1.686  1.00  0.00    -0.206 F 
ATOM     87  C   UNL     1      -1.671 -20.011   1.428  1.00  0.00     0.006 A 
ENDBRANCH  63  80
ENDBRANCH  37  38
ENDBRANCH  30  32
ENDBRANCH  29  30
ENDBRANCH  28  29
ENDBRANCH  27  28
ENDBRANCH  26  27
ENDBRANCH   1  26
TORSDOF 18
