REMARK SMILES CC(C)(C)c1ccc(NS(=O)(=O)c2cccc(C(=O)OCCOCCOC(=O)c3ccc(-c4c5nc(c(-c6c(F)cccc6F)c6ccc([nH]6)c(-c6c(F)cccc6F)c6nc(c(-c7c(F)cccc7F)c7ccc4[nH]7)C=C6)C=C5)cc3)c2)cc1
REMARK SMILES IDX 22 1 21 2 20 3 18 4 19 5 17 6 13 7 14 8 83 9 15 10 16 11
REMARK SMILES IDX 10 12 11 13 12 14 9 15 8 17 5 18 6 19 85 20 7 21 84 22 2 23
REMARK SMILES IDX 1 24 3 25 4 26 23 27 24 28 25 29 26 30 27 31 28 32 29 33
REMARK SMILES IDX 30 34 82 35 31 36 81 37 32 38 33 39 34 40 75 41 35 42 80 43
REMARK SMILES IDX 74 44 76 45 36 46 79 47 73 48 72 49 37 51 63 52 46 53 62 54
REMARK SMILES IDX 47 55 50 56 61 57 77 58 48 59 49 60 60 62 78 63 51 64 38 65
REMARK SMILES IDX 39 66 44 67 40 68 41 69 43 70 45 71 42 72 64 73 65 74 70 75
REMARK SMILES IDX 66 76 67 77 69 78 71 79 68 80 52 81 53 82 58 83 54 84 55 85
REMARK SMILES IDX 57 86 59 87 56 88
REMARK H PARENT 9 16 76 50 50 61
REMARK Flexibility Score: inf
ROOT
ATOM      1  C   UNL     1       2.319  -9.928  -7.509  1.00  0.00     0.202 C 
ENDROOT
BRANCH   1   2
ATOM      2  C   UNL     1       1.065  -9.084  -7.248  1.00  0.00     0.261 C 
BRANCH   2   3
ATOM      3  O   UNL     1       1.415  -7.723  -6.951  1.00  0.00    -0.460 OA
BRANCH   3   4
ATOM      4  C   UNL     1       1.107  -7.301  -5.701  1.00  0.00     0.338 C 
ATOM      5  O   UNL     1       0.409  -7.867  -4.876  1.00  0.00    -0.246 OA
BRANCH   4   6
ATOM      6  C   UNL     1       1.949  -6.127  -5.384  1.00  0.00     0.061 A 
ATOM      7  C   UNL     1       2.943  -4.005  -5.942  1.00  0.00     0.088 A 
ATOM      8  C   UNL     1       3.632  -3.989  -4.723  1.00  0.00     0.022 A 
ATOM      9  C   UNL     1       2.142  -5.097  -6.303  1.00  0.00     0.038 A 
ATOM     10  C   UNL     1       3.440  -5.032  -3.815  1.00  0.00     0.002 A 
ATOM     11  C   UNL     1       2.580  -6.084  -4.133  1.00  0.00     0.016 A 
BRANCH   7  12
ATOM     12  S   UNL     1       2.812  -2.532  -6.935  1.00  0.00     0.261 S 
ATOM     13  O   UNL     1       1.573  -2.619  -7.678  1.00  0.00    -0.201 OA
ATOM     14  O   UNL     1       4.084  -2.371  -7.607  1.00  0.00    -0.201 OA
BRANCH  12  15
ATOM     15  N   UNL     1       2.675  -1.252  -5.872  1.00  0.00    -0.280 N 
ATOM     16  H   UNL     1       3.244  -0.469  -6.054  1.00  0.00     0.180 HD
BRANCH  15  17
ATOM     17  C   UNL     1       1.828  -1.167  -4.729  1.00  0.00     0.049 A 
ATOM     18  C   UNL     1       0.741  -1.081  -2.110  1.00  0.00    -0.042 A 
ATOM     19  C   UNL     1       0.489  -2.159  -2.974  1.00  0.00     0.006 A 
ATOM     20  C   UNL     1       1.412   0.023  -2.653  1.00  0.00     0.006 A 
ATOM     21  C   UNL     1       0.990  -2.182  -4.282  1.00  0.00     0.027 A 
ATOM     22  C   UNL     1       1.959  -0.025  -3.941  1.00  0.00     0.027 A 
BRANCH  18  23
ATOM     23  C   UNL     1       0.311  -1.150  -0.635  1.00  0.00    -0.013 C 
ATOM     24  C   UNL     1       0.815   0.043   0.208  1.00  0.00     0.016 C 
ATOM     25  C   UNL     1       0.886  -2.428   0.024  1.00  0.00     0.016 C 
ATOM     26  C   UNL     1      -1.225  -1.182  -0.546  1.00  0.00     0.016 C 
ENDBRANCH  18  23
ENDBRANCH  15  17
ENDBRANCH  12  15
ENDBRANCH   7  12
ENDBRANCH   4   6
ENDBRANCH   3   4
ENDBRANCH   2   3
ENDBRANCH   1   2
BRANCH   1  27
ATOM     27  O   UNL     1       3.207 -10.133  -6.409  1.00  0.00    -0.374 OA
BRANCH  27  28
ATOM     28  C   UNL     1       4.053  -9.051  -6.026  1.00  0.00     0.202 C 
BRANCH  28  29
ATOM     29  C   UNL     1       5.292  -8.771  -6.885  1.00  0.00     0.261 C 
BRANCH  29  30
ATOM     30  O   UNL     1       4.964  -8.424  -8.240  1.00  0.00    -0.460 OA
BRANCH  30  31
ATOM     31  C   UNL     1       5.232  -9.393  -9.148  1.00  0.00     0.338 C 
ATOM     32  O   UNL     1       5.758 -10.474  -8.946  1.00  0.00    -0.246 OA
BRANCH  31  33
ATOM     33  C   UNL     1       4.632  -9.038 -10.446  1.00  0.00     0.060 A 
ATOM     34  C   UNL     1       3.749  -9.957 -11.025  1.00  0.00     0.016 A 
ATOM     35  C   UNL     1       4.982  -7.865 -11.117  1.00  0.00     0.016 A 
ATOM     36  C   UNL     1       3.241  -9.727 -12.301  1.00  0.00     0.010 A 
ATOM     37  C   UNL     1       4.478  -7.640 -12.402  1.00  0.00     0.010 A 
ATOM     38  C   UNL     1       3.631  -8.584 -13.011  1.00  0.00    -0.014 A 
BRANCH  38  39
ATOM     39  C   UNL     1       3.252  -8.435 -14.437  1.00  0.00     0.031 A 
ATOM     40  C   UNL     1       4.271  -8.736 -15.500  1.00  0.00     0.074 A 
ATOM     41  C   UNL     1       2.011  -8.049 -14.779  1.00  0.00     0.049 A 
ATOM     42  N   UNL     1       4.178  -8.608 -16.799  1.00  0.00    -0.248 NA
ATOM     43  C   UNL     1       5.571  -9.246 -15.035  1.00  0.00     0.031 C 
ATOM     44  C   UNL     1       0.925  -7.769 -13.842  1.00  0.00     0.029 A 
ATOM     45  N   UNL     1       1.461  -7.813 -16.014  1.00  0.00    -0.354 N 
ATOM     46  C   UNL     1       5.407  -9.011 -17.306  1.00  0.00     0.074 A 
ATOM     47  C   UNL     1       6.239  -9.360 -16.174  1.00  0.00     0.031 C 
ATOM     48  C   UNL     1      -0.160  -7.384 -14.536  1.00  0.00     0.029 A 
ATOM     49  C   UNL     1       0.168  -7.355 -15.960  1.00  0.00     0.049 A 
ATOM     50  H   UNL     1       1.947  -7.959 -16.858  1.00  0.00     0.167 HD
ATOM     51  C   UNL     1       5.803  -9.090 -18.599  1.00  0.00     0.037 A 
ATOM     52  C   UNL     1      -0.647  -6.931 -16.945  1.00  0.00     0.037 A 
ATOM     53  C   UNL     1       4.972  -8.741 -19.721  1.00  0.00     0.049 A 
ATOM     54  C   UNL     1      -0.155  -6.949 -18.369  1.00  0.00     0.074 A 
ATOM     55  C   UNL     1       5.273  -8.808 -21.070  1.00  0.00     0.029 A 
ATOM     56  N   UNL     1       3.678  -8.251 -19.624  1.00  0.00    -0.354 N 
ATOM     57  N   UNL     1       0.998  -7.357 -18.842  1.00  0.00    -0.248 NA
ATOM     58  C   UNL     1      -1.079  -6.447 -19.396  1.00  0.00     0.031 C 
ATOM     59  C   UNL     1       4.183  -8.305 -21.787  1.00  0.00     0.029 A 
ATOM     60  C   UNL     1       3.179  -7.981 -20.888  1.00  0.00     0.049 A 
ATOM     61  H   UNL     1       3.187  -8.114 -18.782  1.00  0.00     0.167 HD
ATOM     62  C   UNL     1       0.927  -7.189 -20.220  1.00  0.00     0.074 A 
ATOM     63  C   UNL     1      -0.387  -6.654 -20.508  1.00  0.00     0.031 C 
ATOM     64  C   UNL     1       1.865  -7.456 -21.161  1.00  0.00     0.037 A 
BRANCH  51  65
ATOM     65  C   UNL     1       7.207  -9.546 -18.868  1.00  0.00     0.057 A 
ATOM     66  C   UNL     1       7.608 -10.873 -18.667  1.00  0.00     0.134 A 
ATOM     67  C   UNL     1       8.162  -8.653 -19.371  1.00  0.00     0.134 A 
ATOM     68  F   UNL     1       6.747 -11.777 -18.176  1.00  0.00    -0.206 F 
ATOM     69  C   UNL     1       8.914 -11.290 -18.934  1.00  0.00     0.040 A 
ATOM     70  C   UNL     1       9.463  -9.064 -19.668  1.00  0.00     0.040 A 
ATOM     71  F   UNL     1       7.844  -7.368 -19.593  1.00  0.00    -0.206 F 
ATOM     72  C   UNL     1       9.843 -10.385 -19.444  1.00  0.00     0.006 A 
ENDBRANCH  51  65
BRANCH  52  73
ATOM     73  C   UNL     1      -2.008  -6.432 -16.623  1.00  0.00     0.057 A 
ATOM     74  C   UNL     1      -3.151  -7.134 -17.022  1.00  0.00     0.134 A 
ATOM     75  C   UNL     1      -2.199  -5.231 -15.929  1.00  0.00     0.134 A 
ATOM     76  F   UNL     1      -3.034  -8.278 -17.711  1.00  0.00    -0.206 F 
ATOM     77  C   UNL     1      -4.434  -6.651 -16.759  1.00  0.00     0.040 A 
ATOM     78  C   UNL     1      -3.475  -4.750 -15.635  1.00  0.00     0.040 A 
ATOM     79  F   UNL     1      -1.145  -4.510 -15.519  1.00  0.00    -0.206 F 
ATOM     80  C   UNL     1      -4.599  -5.458 -16.058  1.00  0.00     0.006 A 
ENDBRANCH  52  73
BRANCH  64  81
ATOM     81  C   UNL     1       1.494  -7.214 -22.596  1.00  0.00     0.057 A 
ATOM     82  C   UNL     1       1.367  -5.922 -23.122  1.00  0.00     0.134 A 
ATOM     83  C   UNL     1       1.313  -8.289 -23.476  1.00  0.00     0.134 A 
ATOM     84  F   UNL     1       1.515  -4.848 -22.331  1.00  0.00    -0.206 F 
ATOM     85  C   UNL     1       1.052  -5.709 -24.465  1.00  0.00     0.040 A 
ATOM     86  C   UNL     1       1.027  -8.089 -24.827  1.00  0.00     0.040 A 
ATOM     87  F   UNL     1       1.431  -9.553 -23.041  1.00  0.00    -0.206 F 
ATOM     88  C   UNL     1       0.890  -6.795 -25.324  1.00  0.00     0.006 A 
ENDBRANCH  64  81
ENDBRANCH  38  39
ENDBRANCH  31  33
ENDBRANCH  30  31
ENDBRANCH  29  30
ENDBRANCH  28  29
ENDBRANCH  27  28
ENDBRANCH   1  27
TORSDOF 18
