REMARK SMILES O=C(Cn1cc(C(=O)C(F)(F)F)c2ccccc21)OCCOCCOC(=O)c1ccc(-c2c3nc(c(-c4c(F)cccc4F)c4ccc([nH]4)c(-c4c(F)cccc4F)c4nc(c(-c5c(F)cccc5F)c5ccc2[nH]5)C=C4)C=C3)cc1
REMARK SMILES IDX 21 1 20 2 19 3 2 4 1 5 3 6 4 7 5 8 18 9 6 10 13 11 17 12
REMARK SMILES IDX 14 13 16 14 15 15 7 16 8 17 9 18 10 19 11 20 12 21 22 22
REMARK SMILES IDX 23 23 24 24 25 25 26 26 27 27 28 28 29 29 81 30 30 31 80 32
REMARK SMILES IDX 31 33 32 34 33 35 74 36 34 37 79 38 73 39 75 40 35 41 78 42
REMARK SMILES IDX 72 43 71 44 36 46 62 47 45 48 61 49 46 50 49 51 60 52 76 53
REMARK SMILES IDX 47 54 48 55 59 57 77 58 50 59 37 60 38 61 43 62 39 63 40 64
REMARK SMILES IDX 42 65 44 66 41 67 63 68 64 69 69 70 65 71 66 72 68 73 70 74
REMARK SMILES IDX 67 75 51 76 52 77 57 78 53 79 54 80 56 81 58 82 55 83
REMARK H PARENT 75 45 49 56
REMARK Flexibility Score: inf
ROOT
ATOM      1  C   UNL     1       4.608  -0.715   0.724  1.00  0.00     0.202 C 
ENDROOT
BRANCH   1   2
ATOM      2  C   UNL     1       3.963   0.511   0.069  1.00  0.00     0.261 C 
BRANCH   2   3
ATOM      3  O   UNL     1       2.530   0.563   0.007  1.00  0.00    -0.462 OA
BRANCH   3   4
ATOM      4  C   UNL     1       1.722  -0.216  -0.745  1.00  0.00     0.326 C 
ATOM      5  O   UNL     1       0.503  -0.058  -0.675  1.00  0.00    -0.250 OA
BRANCH   4   6
ATOM      6  C   UNL     1       2.305  -1.299  -1.612  1.00  0.00     0.244 C 
BRANCH   6   7
ATOM      7  N   UNL     1       3.258  -0.836  -2.603  1.00  0.00    -0.335 N 
ATOM      8  C   UNL     1       3.259   0.420  -3.139  1.00  0.00     0.099 A 
ATOM      9  C   UNL     1       4.288  -1.575  -3.137  1.00  0.00     0.049 A 
ATOM     10  C   UNL     1       4.412   0.585  -3.878  1.00  0.00     0.053 A 
ATOM     11  C   UNL     1       5.008  -0.716  -3.980  1.00  0.00     0.011 A 
ATOM     12  C   UNL     1       4.648  -2.918  -2.946  1.00  0.00     0.027 A 
ATOM     13  C   UNL     1       6.109  -1.246  -4.686  1.00  0.00     0.011 A 
ATOM     14  C   UNL     1       5.727  -3.418  -3.676  1.00  0.00     0.002 A 
ATOM     15  C   UNL     1       6.441  -2.599  -4.544  1.00  0.00     0.001 A 
BRANCH  10  16
ATOM     16  C   UNL     1       4.872   1.870  -4.418  1.00  0.00     0.268 C 
ATOM     17  O   UNL     1       5.766   1.912  -5.266  1.00  0.00    -0.284 OA
BRANCH  16  18
ATOM     18  C   UNL     1       4.249   3.131  -3.799  1.00  0.00     0.454 C 
ATOM     19  F   UNL     1       2.885   3.088  -3.733  1.00  0.00    -0.163 F 
ATOM     20  F   UNL     1       4.676   3.339  -2.520  1.00  0.00    -0.163 F 
ATOM     21  F   UNL     1       4.519   4.262  -4.492  1.00  0.00    -0.163 F 
ENDBRANCH  16  18
ENDBRANCH  10  16
ENDBRANCH   6   7
ENDBRANCH   4   6
ENDBRANCH   3   4
ENDBRANCH   2   3
ENDBRANCH   1   2
BRANCH   1  22
ATOM     22  O   UNL     1       3.791  -1.808   1.109  1.00  0.00    -0.374 OA
BRANCH  22  23
ATOM     23  C   UNL     1       2.743  -1.603   2.058  1.00  0.00     0.202 C 
BRANCH  23  24
ATOM     24  C   UNL     1       3.089  -1.026   3.434  1.00  0.00     0.261 C 
BRANCH  24  25
ATOM     25  O   UNL     1       3.654   0.285   3.312  1.00  0.00    -0.460 OA
BRANCH  25  26
ATOM     26  C   UNL     1       4.755   0.512   4.074  1.00  0.00     0.338 C 
ATOM     27  O   UNL     1       5.154  -0.144   5.021  1.00  0.00    -0.246 OA
BRANCH  26  28
ATOM     28  C   UNL     1       5.585   1.463   3.312  1.00  0.00     0.060 A 
ATOM     29  C   UNL     1       5.039   2.631   2.778  1.00  0.00     0.016 A 
ATOM     30  C   UNL     1       6.861   1.019   2.929  1.00  0.00     0.016 A 
ATOM     31  C   UNL     1       5.755   3.315   1.801  1.00  0.00     0.010 A 
ATOM     32  C   UNL     1       7.559   1.688   1.930  1.00  0.00     0.010 A 
ATOM     33  C   UNL     1       7.000   2.828   1.351  1.00  0.00    -0.014 A 
BRANCH  33  34
ATOM     34  C   UNL     1       7.812   3.723   0.520  1.00  0.00     0.031 A 
ATOM     35  C   UNL     1       8.175   4.966   1.262  1.00  0.00     0.074 A 
ATOM     36  C   UNL     1       8.353   3.474  -0.693  1.00  0.00     0.049 A 
ATOM     37  N   UNL     1       7.840   6.182   0.984  1.00  0.00    -0.248 NA
ATOM     38  C   UNL     1       8.857   4.813   2.560  1.00  0.00     0.031 C 
ATOM     39  C   UNL     1       8.380   2.220  -1.444  1.00  0.00     0.029 A 
ATOM     40  N   UNL     1       9.095   4.313  -1.482  1.00  0.00    -0.354 N 
ATOM     41  C   UNL     1       8.411   6.971   1.979  1.00  0.00     0.074 A 
ATOM     42  C   UNL     1       8.884   6.071   2.996  1.00  0.00     0.031 C 
ATOM     43  C   UNL     1       9.282   2.322  -2.452  1.00  0.00     0.029 A 
ATOM     44  C   UNL     1       9.809   3.679  -2.494  1.00  0.00     0.049 A 
ATOM     45  H   UNL     1       9.122   5.287  -1.343  1.00  0.00     0.167 HD
ATOM     46  C   UNL     1       8.644   8.297   1.785  1.00  0.00     0.037 A 
ATOM     47  C   UNL     1      10.795   4.215  -3.266  1.00  0.00     0.037 A 
ATOM     48  C   UNL     1       7.864   8.810   0.690  1.00  0.00     0.049 A 
ATOM     49  C   UNL     1      10.722   5.693  -3.168  1.00  0.00     0.074 A 
ATOM     50  C   UNL     1       6.514   8.901   0.412  1.00  0.00     0.029 A 
ATOM     51  N   UNL     1       8.501   9.030  -0.505  1.00  0.00    -0.354 N 
ATOM     52  N   UNL     1       9.802   6.421  -3.728  1.00  0.00    -0.248 NA
ATOM     53  C   UNL     1      11.442   6.333  -2.079  1.00  0.00     0.031 C 
ATOM     54  C   UNL     1       6.412   8.660  -0.990  1.00  0.00     0.029 A 
ATOM     55  C   UNL     1       7.705   8.506  -1.488  1.00  0.00     0.049 A 
ATOM     56  H   UNL     1       9.368   9.480  -0.631  1.00  0.00     0.167 HD
ATOM     57  C   UNL     1       9.488   7.375  -2.775  1.00  0.00     0.074 A 
ATOM     58  C   UNL     1      10.600   7.337  -1.825  1.00  0.00     0.031 C 
ATOM     59  C   UNL     1       8.229   7.900  -2.688  1.00  0.00     0.037 A 
BRANCH  46  60
ATOM     60  C   UNL     1       9.861   9.021   2.309  1.00  0.00     0.057 A 
ATOM     61  C   UNL     1      11.059   8.384   2.693  1.00  0.00     0.134 A 
ATOM     62  C   UNL     1       9.962  10.409   2.103  1.00  0.00     0.134 A 
ATOM     63  F   UNL     1      11.147   7.063   2.884  1.00  0.00    -0.206 F 
ATOM     64  C   UNL     1      12.275   9.063   2.799  1.00  0.00     0.040 A 
ATOM     65  C   UNL     1      11.185  11.088   2.156  1.00  0.00     0.040 A 
ATOM     66  F   UNL     1       8.890  11.132   1.744  1.00  0.00    -0.206 F 
ATOM     67  C   UNL     1      12.350  10.410   2.489  1.00  0.00     0.006 A 
ENDBRANCH  46  60
BRANCH  47  68
ATOM     68  C   UNL     1      11.978   3.569  -3.887  1.00  0.00     0.057 A 
ATOM     69  C   UNL     1      12.622   2.490  -3.262  1.00  0.00     0.134 A 
ATOM     70  C   UNL     1      12.684   4.178  -4.939  1.00  0.00     0.134 A 
ATOM     71  F   UNL     1      12.076   1.887  -2.196  1.00  0.00    -0.206 F 
ATOM     72  C   UNL     1      13.896   2.052  -3.643  1.00  0.00     0.040 A 
ATOM     73  C   UNL     1      13.963   3.753  -5.329  1.00  0.00     0.040 A 
ATOM     74  F   UNL     1      12.179   5.248  -5.571  1.00  0.00    -0.206 F 
ATOM     75  C   UNL     1      14.578   2.693  -4.671  1.00  0.00     0.006 A 
ENDBRANCH  47  68
BRANCH  59  76
ATOM     76  C   UNL     1       7.268   7.641  -3.820  1.00  0.00     0.057 A 
ATOM     77  C   UNL     1       6.534   8.716  -4.343  1.00  0.00     0.134 A 
ATOM     78  C   UNL     1       6.980   6.376  -4.353  1.00  0.00     0.134 A 
ATOM     79  F   UNL     1       6.715   9.958  -3.865  1.00  0.00    -0.206 F 
ATOM     80  C   UNL     1       5.574   8.547  -5.343  1.00  0.00     0.040 A 
ATOM     81  C   UNL     1       6.101   6.215  -5.426  1.00  0.00     0.040 A 
ATOM     82  F   UNL     1       7.485   5.254  -3.820  1.00  0.00    -0.206 F 
ATOM     83  C   UNL     1       5.368   7.294  -5.904  1.00  0.00     0.006 A 
ENDBRANCH  59  76
ENDBRANCH  33  34
ENDBRANCH  26  28
ENDBRANCH  25  26
ENDBRANCH  24  25
ENDBRANCH  23  24
ENDBRANCH  22  23
ENDBRANCH   1  22
TORSDOF 17
