REMARK SMILES C[C@@H](NC(=O)c1cc(C(=O)OCCOCCOC(=O)c2ccc(-c3c4nc(c(-c5c(F)cccc5F)c5ccc([nH]5)c(-c5c(F)cccc5F)c5nc(c(-c6c(F)cccc6F)c6ccc3[nH]6)C=C5)C=C4)cc2)n(C)n1)c1ccccc1
REMARK SMILES IDX 13 1 12 2 11 3 9 4 10 5 8 6 6 7 7 8 76 9 74 10 75 11 4 12
REMARK SMILES IDX 3 13 5 15 2 16 1 17 77 18 78 19 82 20 79 21 81 22 80 23
REMARK SMILES IDX 14 24 15 25 16 26 17 27 18 28 19 29 20 30 21 31 73 32 22 33
REMARK SMILES IDX 72 34 23 35 24 36 25 37 66 38 26 39 71 40 65 41 67 42 27 43
REMARK SMILES IDX 70 44 64 45 63 46 28 48 54 49 37 50 53 51 38 52 41 53 52 54
REMARK SMILES IDX 68 55 39 56 40 57 51 59 69 60 42 61 29 62 30 63 35 64 31 65
REMARK SMILES IDX 32 66 34 67 36 68 33 69 55 70 56 71 61 72 57 73 58 74 60 75
REMARK SMILES IDX 62 76 59 77 43 78 44 79 49 80 45 81 46 82 48 83 50 84 47 85
REMARK H PARENT 3 14 67 47 41 58
REMARK Flexibility Score: inf
ROOT
ATOM      1  C   UNL     1      -7.241  -2.639  -1.030  1.00  0.00     0.202 C 
ENDROOT
BRANCH   1   2
ATOM      2  C   UNL     1      -6.503  -3.701  -0.191  1.00  0.00     0.261 C 
BRANCH   2   3
ATOM      3  O   UNL     1      -5.460  -3.102   0.624  1.00  0.00    -0.459 OA
BRANCH   3   4
ATOM      4  C   UNL     1      -4.635  -4.007   1.247  1.00  0.00     0.356 C 
ATOM      5  O   UNL     1      -4.761  -5.215   1.153  1.00  0.00    -0.244 OA
BRANCH   4   6
ATOM      6  C   UNL     1      -3.538  -3.342   1.920  1.00  0.00     0.146 A 
ATOM      7  C   UNL     1      -1.485  -2.693   2.602  1.00  0.00     0.151 A 
ATOM      8  C   UNL     1      -2.207  -3.741   1.965  1.00  0.00     0.071 A 
ATOM      9  N   UNL     1      -2.349  -1.785   3.094  1.00  0.00    -0.167 NA
ATOM     10  N   UNL     1      -3.568  -2.202   2.683  1.00  0.00    -0.260 N 
ATOM     11  C   UNL     1      -4.721  -1.493   3.190  1.00  0.00     0.174 C 
BRANCH   7  12
ATOM     12  C   UNL     1      -0.038  -2.625   2.885  1.00  0.00     0.272 C 
ATOM     13  N   UNL     1       0.826  -1.796   2.188  1.00  0.00    -0.344 N 
ATOM     14  H   UNL     1       1.576  -1.458   2.729  1.00  0.00     0.164 HD
ATOM     15  O   UNL     1       0.456  -3.293   3.796  1.00  0.00    -0.267 OA
BRANCH  13  16
ATOM     16  C   UNL     1       0.839  -1.325   0.799  1.00  0.00     0.109 C 
ATOM     17  C   UNL     1       1.864  -0.203   0.599  1.00  0.00     0.036 C 
BRANCH  16  18
ATOM     18  C   UNL     1      -0.510  -0.916   0.287  1.00  0.00    -0.026 A 
ATOM     19  C   UNL     1      -1.150   0.254   0.726  1.00  0.00     0.006 A 
ATOM     20  C   UNL     1      -1.194  -1.819  -0.529  1.00  0.00     0.006 A 
ATOM     21  C   UNL     1      -2.499   0.450   0.465  1.00  0.00     0.000 A 
ATOM     22  C   UNL     1      -2.542  -1.636  -0.760  1.00  0.00     0.000 A 
ATOM     23  C   UNL     1      -3.202  -0.526  -0.226  1.00  0.00     0.000 A 
ENDBRANCH  16  18
ENDBRANCH  13  16
ENDBRANCH   7  12
ENDBRANCH   4   6
ENDBRANCH   3   4
ENDBRANCH   2   3
ENDBRANCH   1   2
BRANCH   1  24
ATOM     24  O   UNL     1      -6.764  -2.493  -2.381  1.00  0.00    -0.374 OA
BRANCH  24  25
ATOM     25  C   UNL     1      -5.475  -1.894  -2.485  1.00  0.00     0.202 C 
BRANCH  25  26
ATOM     26  C   UNL     1      -5.490  -0.386  -2.755  1.00  0.00     0.261 C 
BRANCH  26  27
ATOM     27  O   UNL     1      -6.316   0.267  -1.779  1.00  0.00    -0.460 OA
BRANCH  27  28
ATOM     28  C   UNL     1      -7.432   0.815  -2.305  1.00  0.00     0.338 C 
ATOM     29  O   UNL     1      -7.660   1.068  -3.476  1.00  0.00    -0.246 OA
BRANCH  28  30
ATOM     30  C   UNL     1      -8.475   0.874  -1.274  1.00  0.00     0.060 A 
ATOM     31  C   UNL     1      -9.641   0.148  -1.535  1.00  0.00     0.016 A 
ATOM     32  C   UNL     1      -8.365   1.683  -0.141  1.00  0.00     0.016 A 
ATOM     33  C   UNL     1     -10.745   0.301  -0.708  1.00  0.00     0.010 A 
ATOM     34  C   UNL     1      -9.478   1.833   0.693  1.00  0.00     0.010 A 
ATOM     35  C   UNL     1     -10.687   1.185   0.377  1.00  0.00    -0.014 A 
BRANCH  35  36
ATOM     36  C   UNL     1     -11.957   1.553   1.045  1.00  0.00     0.031 A 
ATOM     37  C   UNL     1     -12.640   2.834   0.651  1.00  0.00     0.074 A 
ATOM     38  C   UNL     1     -12.545   0.706   1.908  1.00  0.00     0.049 A 
ATOM     39  N   UNL     1     -13.790   3.317   1.045  1.00  0.00    -0.248 NA
ATOM     40  C   UNL     1     -11.935   3.683  -0.324  1.00  0.00     0.031 C 
ATOM     41  C   UNL     1     -12.002  -0.585   2.326  1.00  0.00     0.029 A 
ATOM     42  N   UNL     1     -13.740   0.803   2.572  1.00  0.00    -0.354 N 
ATOM     43  C   UNL     1     -13.948   4.519   0.366  1.00  0.00     0.074 A 
ATOM     44  C   UNL     1     -12.760   4.712  -0.436  1.00  0.00     0.031 C 
ATOM     45  C   UNL     1     -12.867  -1.165   3.175  1.00  0.00     0.029 A 
ATOM     46  C   UNL     1     -14.010  -0.277   3.376  1.00  0.00     0.049 A 
ATOM     47  H   UNL     1     -14.347   1.573   2.482  1.00  0.00     0.167 HD
ATOM     48  C   UNL     1     -14.995   5.376   0.396  1.00  0.00     0.037 A 
ATOM     49  C   UNL     1     -15.058  -0.514   4.187  1.00  0.00     0.037 A 
ATOM     50  C   UNL     1     -16.178   5.179   1.191  1.00  0.00     0.049 A 
ATOM     51  C   UNL     1     -16.178   0.489   4.256  1.00  0.00     0.074 A 
ATOM     52  C   UNL     1     -17.300   5.984   1.282  1.00  0.00     0.029 A 
ATOM     53  N   UNL     1     -16.388   4.100   2.036  1.00  0.00    -0.354 N 
ATOM     54  N   UNL     1     -16.326   1.611   3.594  1.00  0.00    -0.248 NA
ATOM     55  C   UNL     1     -17.279   0.190   5.183  1.00  0.00     0.031 C 
ATOM     56  C   UNL     1     -18.169   5.415   2.219  1.00  0.00     0.029 A 
ATOM     57  C   UNL     1     -17.610   4.231   2.674  1.00  0.00     0.049 A 
ATOM     58  H   UNL     1     -15.761   3.352   2.163  1.00  0.00     0.167 HD
ATOM     59  C   UNL     1     -17.544   2.139   4.004  1.00  0.00     0.074 A 
ATOM     60  C   UNL     1     -18.101   1.206   4.962  1.00  0.00     0.031 C 
ATOM     61  C   UNL     1     -18.148   3.291   3.623  1.00  0.00     0.037 A 
BRANCH  48  62
ATOM     62  C   UNL     1     -14.894   6.619  -0.438  1.00  0.00     0.057 A 
ATOM     63  C   UNL     1     -14.997   6.584  -1.835  1.00  0.00     0.134 A 
ATOM     64  C   UNL     1     -14.717   7.870   0.166  1.00  0.00     0.134 A 
ATOM     65  F   UNL     1     -15.150   5.415  -2.477  1.00  0.00    -0.206 F 
ATOM     66  C   UNL     1     -14.908   7.747  -2.603  1.00  0.00     0.040 A 
ATOM     67  C   UNL     1     -14.651   9.042  -0.589  1.00  0.00     0.040 A 
ATOM     68  F   UNL     1     -14.613   7.973   1.499  1.00  0.00    -0.206 F 
ATOM     69  C   UNL     1     -14.741   8.982  -1.978  1.00  0.00     0.006 A 
ENDBRANCH  48  62
BRANCH  49  70
ATOM     70  C   UNL     1     -15.095  -1.751   5.007  1.00  0.00     0.057 A 
ATOM     71  C   UNL     1     -16.023  -2.767   4.752  1.00  0.00     0.134 A 
ATOM     72  C   UNL     1     -14.212  -1.936   6.077  1.00  0.00     0.134 A 
ATOM     73  F   UNL     1     -16.909  -2.638   3.755  1.00  0.00    -0.206 F 
ATOM     74  C   UNL     1     -16.081  -3.917   5.542  1.00  0.00     0.040 A 
ATOM     75  C   UNL     1     -14.242  -3.091   6.860  1.00  0.00     0.040 A 
ATOM     76  F   UNL     1     -13.298  -0.999   6.371  1.00  0.00    -0.206 F 
ATOM     77  C   UNL     1     -15.184  -4.083   6.597  1.00  0.00     0.006 A 
ENDBRANCH  49  70
BRANCH  61  78
ATOM     78  C   UNL     1     -19.491   3.592   4.222  1.00  0.00     0.057 A 
ATOM     79  C   UNL     1     -19.631   3.994   5.556  1.00  0.00     0.134 A 
ATOM     80  C   UNL     1     -20.653   3.516   3.443  1.00  0.00     0.134 A 
ATOM     81  F   UNL     1     -18.558   4.075   6.358  1.00  0.00    -0.206 F 
ATOM     82  C   UNL     1     -20.882   4.287   6.101  1.00  0.00     0.040 A 
ATOM     83  C   UNL     1     -21.906   3.832   3.970  1.00  0.00     0.040 A 
ATOM     84  F   UNL     1     -20.587   3.148   2.155  1.00  0.00    -0.206 F 
ATOM     85  C   UNL     1     -22.023   4.213   5.305  1.00  0.00     0.006 A 
ENDBRANCH  61  78
ENDBRANCH  35  36
ENDBRANCH  28  30
ENDBRANCH  27  28
ENDBRANCH  26  27
ENDBRANCH  25  26
ENDBRANCH  24  25
ENDBRANCH   1  24
TORSDOF 17
