REMARK SMILES NS(=O)(=O)c1ccc(-n2nc(C(=O)OCCOCCOC(=O)c3ccc(-c4c5nc(c(-c6c(F)cccc6F)c6ccc([nH]6)c(-c6c(F)cccc6F)c6nc(c(-c7c(F)cccc7F)c7ccc4[nH]7)C=C6)C=C5)cc3)cc2-c2cc3ccccc3s2)cc1
REMARK SMILES IDX 16 1 15 2 14 3 12 4 13 5 11 6 9 7 10 8 78 9 77 10 8 11 5 12
REMARK SMILES IDX 6 13 89 14 7 15 88 16 2 17 3 18 4 19 1 20 79 23 80 24 87 25
REMARK SMILES IDX 81 26 86 27 82 28 85 29 83 30 84 31 17 32 18 33 19 34 20 35
REMARK SMILES IDX 21 36 22 37 23 38 24 39 76 40 25 41 75 42 26 43 27 44 28 45
REMARK SMILES IDX 69 46 29 47 74 48 68 49 70 50 30 51 73 52 67 53 66 54 31 56
REMARK SMILES IDX 57 57 40 58 56 59 41 60 44 61 55 62 71 63 42 64 43 65 54 67
REMARK SMILES IDX 72 68 45 69 32 70 33 71 38 72 34 73 35 74 37 75 39 76 36 77
REMARK SMILES IDX 58 78 59 79 64 80 60 81 61 82 63 83 65 84 62 85 46 86 47 87
REMARK SMILES IDX 52 88 48 89 49 90 51 91 53 92 50 93
REMARK H PARENT 1 21 1 22 70 55 44 66
REMARK Flexibility Score: inf
ROOT
ATOM      1  C   UNL     1       6.490 -10.610  -3.998  1.00  0.00     0.202 C 
ENDROOT
BRANCH   1   2
ATOM      2  C   UNL     1       5.249 -11.069  -3.233  1.00  0.00     0.261 C 
BRANCH   2   3
ATOM      3  O   UNL     1       4.239 -10.054  -3.227  1.00  0.00    -0.458 OA
BRANCH   3   4
ATOM      4  C   UNL     1       4.095  -9.370  -2.049  1.00  0.00     0.358 C 
ATOM      5  O   UNL     1       4.637  -9.678  -0.996  1.00  0.00    -0.244 OA
BRANCH   4   6
ATOM      6  C   UNL     1       3.246  -8.187  -2.229  1.00  0.00     0.171 A 
ATOM      7  N   UNL     1       2.028  -6.529  -1.687  1.00  0.00    -0.231 N 
ATOM      8  N   UNL     1       3.198  -7.144  -1.379  1.00  0.00    -0.160 NA
ATOM      9  C   UNL     1       1.375  -7.177  -2.707  1.00  0.00     0.085 A 
ATOM     10  C   UNL     1       2.342  -7.979  -3.289  1.00  0.00     0.068 A 
BRANCH   7  11
ATOM     11  C   UNL     1       1.665  -5.335  -1.048  1.00  0.00     0.065 A 
ATOM     12  C   UNL     1       1.003  -2.963   0.210  1.00  0.00     0.082 A 
ATOM     13  C   UNL     1       0.209  -4.102   0.408  1.00  0.00     0.024 A 
ATOM     14  C   UNL     1       2.124  -3.002  -0.624  1.00  0.00     0.024 A 
ATOM     15  C   UNL     1       0.532  -5.295  -0.236  1.00  0.00     0.030 A 
ATOM     16  C   UNL     1       2.473  -4.204  -1.238  1.00  0.00     0.030 A 
BRANCH  12  17
ATOM     17  S   UNL     1       0.550  -1.474   1.047  1.00  0.00     0.238 S 
ATOM     18  O   UNL     1       1.234  -1.434   2.312  1.00  0.00    -0.207 OA
ATOM     19  O   UNL     1      -0.883  -1.298   0.920  1.00  0.00    -0.207 OA
BRANCH  17  20
ATOM     20  N   UNL     1       1.220  -0.243   0.116  1.00  0.00    -0.225 NA
ATOM     21  H   UNL     1       1.001   0.659   0.537  1.00  0.00     0.137 HD
ATOM     22  H   UNL     1       0.833  -0.282  -0.827  1.00  0.00     0.137 HD
ENDBRANCH  17  20
ENDBRANCH  12  17
ENDBRANCH   7  11
BRANCH   9  23
ATOM     23  C   UNL     1      -0.035  -7.282  -2.977  1.00  0.00     0.054 A 
ATOM     24  C   UNL     1      -0.681  -6.984  -4.172  1.00  0.00     0.031 A 
ATOM     25  S   UNL     1      -0.758  -8.805  -2.482  1.00  0.00    -0.134 S 
ATOM     26  C   UNL     1      -0.665  -8.213  -4.956  1.00  0.00    -0.007 A 
ATOM     27  C   UNL     1      -0.495  -9.329  -4.122  1.00  0.00     0.035 A 
ATOM     28  C   UNL     1      -0.623  -8.416  -6.352  1.00  0.00     0.009 A 
ATOM     29  C   UNL     1      -0.123 -10.589  -4.610  1.00  0.00     0.019 A 
ATOM     30  C   UNL     1      -0.222  -9.662  -6.849  1.00  0.00     0.001 A 
ATOM     31  C   UNL     1       0.068 -10.717  -5.987  1.00  0.00     0.001 A 
ENDBRANCH   9  23
ENDBRANCH   4   6
ENDBRANCH   3   4
ENDBRANCH   2   3
ENDBRANCH   1   2
BRANCH   1  32
ATOM     32  O   UNL     1       7.248  -9.523  -3.471  1.00  0.00    -0.374 OA
BRANCH  32  33
ATOM     33  C   UNL     1       6.723  -8.200  -3.454  1.00  0.00     0.202 C 
BRANCH  33  34
ATOM     34  C   UNL     1       6.524  -7.465  -4.769  1.00  0.00     0.261 C 
BRANCH  34  35
ATOM     35  O   UNL     1       5.733  -8.197  -5.690  1.00  0.00    -0.460 OA
BRANCH  35  36
ATOM     36  C   UNL     1       6.465  -8.838  -6.631  1.00  0.00     0.338 C 
ATOM     37  O   UNL     1       7.655  -9.097  -6.594  1.00  0.00    -0.246 OA
BRANCH  36  38
ATOM     38  C   UNL     1       5.636  -9.000  -7.828  1.00  0.00     0.060 A 
ATOM     39  C   UNL     1       6.296  -9.488  -8.957  1.00  0.00     0.016 A 
ATOM     40  C   UNL     1       4.413  -8.318  -7.908  1.00  0.00     0.016 A 
ATOM     41  C   UNL     1       5.876  -9.042 -10.187  1.00  0.00     0.010 A 
ATOM     42  C   UNL     1       4.010  -7.856  -9.133  1.00  0.00     0.010 A 
ATOM     43  C   UNL     1       4.809  -8.139 -10.236  1.00  0.00    -0.014 A 
BRANCH  43  44
ATOM     44  C   UNL     1       4.455  -7.573 -11.513  1.00  0.00     0.031 A 
ATOM     45  C   UNL     1       3.696  -8.536 -12.332  1.00  0.00     0.074 A 
ATOM     46  C   UNL     1       4.702  -6.294 -11.845  1.00  0.00     0.049 A 
ATOM     47  N   UNL     1       4.141  -9.240 -13.316  1.00  0.00    -0.248 NA
ATOM     48  C   UNL     1       2.372  -8.950 -11.840  1.00  0.00     0.031 C 
ATOM     49  C   UNL     1       5.194  -5.201 -11.005  1.00  0.00     0.029 A 
ATOM     50  N   UNL     1       4.476  -5.684 -13.038  1.00  0.00    -0.354 N 
ATOM     51  C   UNL     1       3.059 -10.009 -13.721  1.00  0.00     0.074 A 
ATOM     52  C   UNL     1       2.120  -9.990 -12.634  1.00  0.00     0.031 C 
ATOM     53  C   UNL     1       5.016  -4.024 -11.653  1.00  0.00     0.029 A 
ATOM     54  C   UNL     1       4.532  -4.295 -12.996  1.00  0.00     0.049 A 
ATOM     55  H   UNL     1       4.288  -6.185 -13.865  1.00  0.00     0.167 HD
ATOM     56  C   UNL     1       2.884 -10.313 -15.035  1.00  0.00     0.037 A 
ATOM     57  C   UNL     1       4.127  -3.469 -13.995  1.00  0.00     0.037 A 
ATOM     58  C   UNL     1       4.109 -10.118 -15.775  1.00  0.00     0.049 A 
ATOM     59  C   UNL     1       4.090  -4.277 -15.245  1.00  0.00     0.074 A 
ATOM     60  C   UNL     1       5.386 -10.639 -15.695  1.00  0.00     0.029 A 
ATOM     61  N   UNL     1       4.221  -8.967 -16.518  1.00  0.00    -0.354 N 
ATOM     62  N   UNL     1       5.157  -4.749 -15.828  1.00  0.00    -0.248 NA
ATOM     63  C   UNL     1       2.849  -4.972 -15.559  1.00  0.00     0.031 C 
ATOM     64  C   UNL     1       6.254  -9.543 -15.979  1.00  0.00     0.029 A 
ATOM     65  C   UNL     1       5.464  -8.436 -16.290  1.00  0.00     0.049 A 
ATOM     66  H   UNL     1       3.530  -8.590 -17.110  1.00  0.00     0.167 HD
ATOM     67  C   UNL     1       4.808  -6.035 -16.219  1.00  0.00     0.074 A 
ATOM     68  C   UNL     1       3.353  -6.092 -16.085  1.00  0.00     0.031 C 
ATOM     69  C   UNL     1       5.749  -7.019 -16.323  1.00  0.00     0.037 A 
BRANCH  56  70
ATOM     70  C   UNL     1       1.531 -10.352 -15.704  1.00  0.00     0.057 A 
ATOM     71  C   UNL     1       1.459 -10.768 -17.044  1.00  0.00     0.134 A 
ATOM     72  C   UNL     1       0.359  -9.739 -15.208  1.00  0.00     0.134 A 
ATOM     73  F   UNL     1       2.506 -11.359 -17.638  1.00  0.00    -0.206 F 
ATOM     74  C   UNL     1       0.344 -10.512 -17.849  1.00  0.00     0.040 A 
ATOM     75  C   UNL     1      -0.778  -9.527 -15.988  1.00  0.00     0.040 A 
ATOM     76  F   UNL     1       0.270  -9.216 -13.980  1.00  0.00    -0.206 F 
ATOM     77  C   UNL     1      -0.777  -9.881 -17.325  1.00  0.00     0.006 A 
ENDBRANCH  56  70
BRANCH  57  78
ATOM     78  C   UNL     1       3.433  -2.163 -13.891  1.00  0.00     0.057 A 
ATOM     79  C   UNL     1       3.317  -1.312 -15.001  1.00  0.00     0.134 A 
ATOM     80  C   UNL     1       2.615  -1.853 -12.791  1.00  0.00     0.134 A 
ATOM     81  F   UNL     1       4.021  -1.550 -16.117  1.00  0.00    -0.206 F 
ATOM     82  C   UNL     1       2.422  -0.232 -15.024  1.00  0.00     0.040 A 
ATOM     83  C   UNL     1       1.721  -0.776 -12.800  1.00  0.00     0.040 A 
ATOM     84  F   UNL     1       2.587  -2.640 -11.706  1.00  0.00    -0.206 F 
ATOM     85  C   UNL     1       1.611   0.031 -13.925  1.00  0.00     0.006 A 
ENDBRANCH  57  78
BRANCH  69  86
ATOM     86  C   UNL     1       7.197  -6.617 -16.242  1.00  0.00     0.057 A 
ATOM     87  C   UNL     1       7.801  -6.055 -15.105  1.00  0.00     0.134 A 
ATOM     88  C   UNL     1       8.043  -6.954 -17.303  1.00  0.00     0.134 A 
ATOM     89  F   UNL     1       7.089  -5.788 -14.003  1.00  0.00    -0.206 F 
ATOM     90  C   UNL     1       9.176  -5.804 -15.048  1.00  0.00     0.040 A 
ATOM     91  C   UNL     1       9.422  -6.740 -17.246  1.00  0.00     0.040 A 
ATOM     92  F   UNL     1       7.546  -7.545 -18.401  1.00  0.00    -0.206 F 
ATOM     93  C   UNL     1       9.992  -6.154 -16.119  1.00  0.00     0.006 A 
ENDBRANCH  69  86
ENDBRANCH  43  44
ENDBRANCH  36  38
ENDBRANCH  35  36
ENDBRANCH  34  35
ENDBRANCH  33  34
ENDBRANCH  32  33
ENDBRANCH   1  32
TORSDOF 18
