REMARK SMILES O=C(CN1C(=O)c2ccccc2[C@@H]1O)OCCOCCOC(=O)c1ccc(-c2c3nc(c(-c4c(F)cccc4F)c4ccc([nH]4)c(-c4c(F)cccc4F)c4nc(c(-c5c(F)cccc5F)c5ccc2[nH]5)C=C4)C=C3)cc1
REMARK SMILES IDX 18 1 17 2 16 3 15 4 2 5 1 6 3 7 4 8 5 9 13 10 6 11 7 12
REMARK SMILES IDX 12 13 8 14 11 15 9 16 10 17 14 18 19 20 20 21 21 22 22 23
REMARK SMILES IDX 23 24 24 25 25 26 77 27 26 28 76 29 27 30 28 31 29 32 70 33
REMARK SMILES IDX 30 34 75 35 69 36 71 37 31 38 74 39 68 40 67 41 32 43 58 44
REMARK SMILES IDX 41 45 57 46 42 47 45 48 56 49 72 50 43 51 44 52 55 54 73 55
REMARK SMILES IDX 46 56 33 57 34 58 39 59 35 60 36 61 38 62 40 63 37 64 59 65
REMARK SMILES IDX 60 66 65 67 61 68 62 69 64 70 66 71 63 72 47 73 48 74 53 75
REMARK SMILES IDX 49 76 50 77 52 78 54 79 51 80
REMARK H PARENT 14 19 71 42 45 53
REMARK Flexibility Score: inf
ROOT
ATOM      1  O   UNL     1       3.889   0.479  -1.804  1.00  0.00    -0.374 OA
ENDROOT
BRANCH   1   2
ATOM      2  C   UNL     1       4.631  -0.370  -0.948  1.00  0.00     0.202 C 
BRANCH   2   3
ATOM      3  C   UNL     1       3.911  -1.181   0.133  1.00  0.00     0.261 C 
BRANCH   3   4
ATOM      4  O   UNL     1       2.706  -0.712   0.774  1.00  0.00    -0.462 OA
BRANCH   4   5
ATOM      5  C   UNL     1       2.102   0.480   0.802  1.00  0.00     0.325 C 
ATOM      6  O   UNL     1       0.869   0.508   0.842  1.00  0.00    -0.250 OA
BRANCH   5   7
ATOM      7  C   UNL     1       2.878   1.781   0.753  1.00  0.00     0.245 C 
BRANCH   7   8
ATOM      8  N   UNL     1       4.057   2.072   1.551  1.00  0.00    -0.298 N 
ATOM      9  C   UNL     1       4.413   3.396   1.769  1.00  0.00     0.257 C 
ATOM     10  C   UNL     1       4.677   1.182   2.496  1.00  0.00     0.247 C 
ATOM     11  O   UNL     1       4.037   4.384   1.164  1.00  0.00    -0.269 OA
ATOM     12  C   UNL     1       5.282   3.417   2.945  1.00  0.00     0.047 A 
ATOM     13  C   UNL     1       5.405   2.110   3.407  1.00  0.00     0.014 A 
ATOM     14  C   UNL     1       5.893   4.489   3.560  1.00  0.00     0.014 A 
ATOM     15  C   UNL     1       6.188   1.827   4.511  1.00  0.00     0.009 A 
ATOM     16  C   UNL     1       6.677   4.214   4.681  1.00  0.00     0.001 A 
ATOM     17  C   UNL     1       6.825   2.894   5.150  1.00  0.00     0.001 A 
BRANCH  10  18
ATOM     18  O   UNL     1       5.663   0.449   1.811  1.00  0.00    -0.369 OA
ATOM     19  H   UNL     1       6.279   1.061   1.378  1.00  0.00     0.213 HD
ENDBRANCH  10  18
ENDBRANCH   7   8
ENDBRANCH   5   7
ENDBRANCH   4   5
ENDBRANCH   3   4
ENDBRANCH   2   3
ENDBRANCH   1   2
BRANCH   1  20
ATOM     20  C   UNL     1       2.711  -0.002  -2.432  1.00  0.00     0.202 C 
BRANCH  20  21
ATOM     21  C   UNL     1       2.911  -1.007  -3.560  1.00  0.00     0.261 C 
BRANCH  21  22
ATOM     22  O   UNL     1       3.370  -2.266  -3.047  1.00  0.00    -0.460 OA
BRANCH  22  23
ATOM     23  C   UNL     1       4.626  -2.613  -3.413  1.00  0.00     0.338 C 
ATOM     24  O   UNL     1       5.387  -2.002  -4.141  1.00  0.00    -0.246 OA
BRANCH  23  25
ATOM     25  C   UNL     1       5.035  -3.792  -2.634  1.00  0.00     0.060 A 
ATOM     26  C   UNL     1       6.271  -3.746  -1.976  1.00  0.00     0.016 A 
ATOM     27  C   UNL     1       4.242  -4.941  -2.591  1.00  0.00     0.016 A 
ATOM     28  C   UNL     1       6.742  -4.873  -1.311  1.00  0.00     0.010 A 
ATOM     29  C   UNL     1       4.720  -6.073  -1.932  1.00  0.00     0.010 A 
ATOM     30  C   UNL     1       5.987  -6.053  -1.323  1.00  0.00    -0.014 A 
BRANCH  30  31
ATOM     31  C   UNL     1       6.598  -7.311  -0.841  1.00  0.00     0.031 A 
ATOM     32  C   UNL     1       7.153  -8.274  -1.852  1.00  0.00     0.074 A 
ATOM     33  C   UNL     1       6.676  -7.571   0.475  1.00  0.00     0.049 A 
ATOM     34  N   UNL     1       7.693  -9.451  -1.667  1.00  0.00    -0.248 NA
ATOM     35  C   UNL     1       7.090  -7.855  -3.262  1.00  0.00     0.031 C 
ATOM     36  C   UNL     1       6.202  -6.690   1.541  1.00  0.00     0.029 A 
ATOM     37  N   UNL     1       7.180  -8.662   1.136  1.00  0.00    -0.354 N 
ATOM     38  C   UNL     1       8.029  -9.912  -2.934  1.00  0.00     0.074 A 
ATOM     39  C   UNL     1       7.602  -8.907  -3.882  1.00  0.00     0.031 C 
ATOM     40  C   UNL     1       6.426  -7.283   2.726  1.00  0.00     0.029 A 
ATOM     41  C   UNL     1       7.028  -8.594   2.498  1.00  0.00     0.049 A 
ATOM     42  H   UNL     1       7.609  -9.420   0.677  1.00  0.00     0.167 HD
ATOM     43  C   UNL     1       8.651 -11.066  -3.272  1.00  0.00     0.037 A 
ATOM     44  C   UNL     1       7.322  -9.504   3.447  1.00  0.00     0.037 A 
ATOM     45  C   UNL     1       9.069 -12.062  -2.321  1.00  0.00     0.049 A 
ATOM     46  C   UNL     1       7.946 -10.812   3.035  1.00  0.00     0.074 A 
ATOM     47  C   UNL     1       9.714 -13.263  -2.556  1.00  0.00     0.029 A 
ATOM     48  N   UNL     1       8.876 -11.971  -0.950  1.00  0.00    -0.354 N 
ATOM     49  N   UNL     1       8.284 -11.229   1.838  1.00  0.00    -0.248 NA
ATOM     50  C   UNL     1       8.234 -11.773   4.108  1.00  0.00     0.031 C 
ATOM     51  C   UNL     1       9.865 -13.923  -1.332  1.00  0.00     0.029 A 
ATOM     52  C   UNL     1       9.368 -13.107  -0.328  1.00  0.00     0.049 A 
ATOM     53  H   UNL     1       8.452 -11.213  -0.488  1.00  0.00     0.167 HD
ATOM     54  C   UNL     1       8.850 -12.486   2.018  1.00  0.00     0.074 A 
ATOM     55  C   UNL     1       8.829 -12.751   3.442  1.00  0.00     0.031 C 
ATOM     56  C   UNL     1       9.342 -13.346   1.092  1.00  0.00     0.037 A 
BRANCH  43  57
ATOM     57  C   UNL     1       8.898 -11.322  -4.730  1.00  0.00     0.057 A 
ATOM     58  C   UNL     1       9.855 -10.602  -5.457  1.00  0.00     0.134 A 
ATOM     59  C   UNL     1       8.201 -12.333  -5.405  1.00  0.00     0.134 A 
ATOM     60  F   UNL     1      10.545  -9.609  -4.875  1.00  0.00    -0.206 F 
ATOM     61  C   UNL     1      10.100 -10.867  -6.806  1.00  0.00     0.040 A 
ATOM     62  C   UNL     1       8.456 -12.625  -6.746  1.00  0.00     0.040 A 
ATOM     63  F   UNL     1       7.272 -13.061  -4.769  1.00  0.00    -0.206 F 
ATOM     64  C   UNL     1       9.405 -11.888  -7.451  1.00  0.00     0.006 A 
ENDBRANCH  43  57
BRANCH  44  65
ATOM     65  C   UNL     1       7.016  -9.227   4.874  1.00  0.00     0.057 A 
ATOM     66  C   UNL     1       8.035  -9.084   5.823  1.00  0.00     0.134 A 
ATOM     67  C   UNL     1       5.695  -9.143   5.332  1.00  0.00     0.134 A 
ATOM     68  F   UNL     1       9.320  -9.175   5.452  1.00  0.00    -0.206 F 
ATOM     69  C   UNL     1       7.753  -8.896   7.177  1.00  0.00     0.040 A 
ATOM     70  C   UNL     1       5.398  -8.926   6.678  1.00  0.00     0.040 A 
ATOM     71  F   UNL     1       4.671  -9.268   4.474  1.00  0.00    -0.206 F 
ATOM     72  C   UNL     1       6.430  -8.813   7.607  1.00  0.00     0.006 A 
ENDBRANCH  44  65
BRANCH  56  73
ATOM     73  C   UNL     1       9.930 -14.632   1.598  1.00  0.00     0.057 A 
ATOM     74  C   UNL     1       9.135 -15.650   2.140  1.00  0.00     0.134 A 
ATOM     75  C   UNL     1      11.310 -14.863   1.520  1.00  0.00     0.134 A 
ATOM     76  F   UNL     1       7.808 -15.488   2.255  1.00  0.00    -0.206 F 
ATOM     77  C   UNL     1       9.694 -16.835   2.619  1.00  0.00     0.040 A 
ATOM     78  C   UNL     1      11.877 -16.058   1.965  1.00  0.00     0.040 A 
ATOM     79  F   UNL     1      12.128 -13.936   0.999  1.00  0.00    -0.206 F 
ATOM     80  C   UNL     1      11.069 -17.044   2.527  1.00  0.00     0.006 A 
ENDBRANCH  56  73
ENDBRANCH  30  31
ENDBRANCH  23  25
ENDBRANCH  22  23
ENDBRANCH  21  22
ENDBRANCH  20  21
ENDBRANCH   1  20
TORSDOF 16
