REMARK SMILES COc1cccc(-c2c(C(=O)OCCOCCOC(=O)c3ccc(-c4c5nc(c(-c6c(F)cccc6F)c6ccc([nH]6)c(-c6c(F)cccc6F)c6nc(c(-c7c(F)cccc7F)c7ccc4[nH]7)C=C6)C=C5)cc3)nnn2-c2ccc(OC(F)(F)F)cc2)c1
REMARK SMILES IDX 14 1 13 2 12 3 10 4 11 5 9 6 8 7 77 8 75 9 76 10 7 11 3 12
REMARK SMILES IDX 4 13 89 14 5 15 6 16 2 17 1 18 78 19 79 20 88 21 80 22 87 23
REMARK SMILES IDX 81 24 82 25 83 26 84 27 85 28 86 29 15 30 16 31 17 32 18 33
REMARK SMILES IDX 19 34 20 35 21 36 22 37 74 38 23 39 73 40 24 41 25 42 26 43
REMARK SMILES IDX 67 44 27 45 72 46 66 47 68 48 28 49 71 50 65 51 64 52 29 54
REMARK SMILES IDX 55 55 38 56 54 57 39 58 42 59 53 60 69 61 40 62 41 63 52 65
REMARK SMILES IDX 70 66 43 67 30 68 31 69 36 70 32 71 33 72 35 73 37 74 34 75
REMARK SMILES IDX 56 76 57 77 62 78 58 79 59 80 61 81 63 82 60 83 44 84 45 85
REMARK SMILES IDX 50 86 46 87 47 88 49 89 51 90 48 91
REMARK H PARENT 68 53 42 64
REMARK Flexibility Score: inf
ROOT
ATOM      1  C   UNL     1       2.754   6.591   4.708  1.00  0.00     0.202 C 
ENDROOT
BRANCH   1   2
ATOM      2  C   UNL     1       2.495   7.097   3.287  1.00  0.00     0.261 C 
BRANCH   2   3
ATOM      3  O   UNL     1       2.899   6.150   2.284  1.00  0.00    -0.458 OA
BRANCH   3   4
ATOM      4  C   UNL     1       3.989   6.525   1.542  1.00  0.00     0.361 C 
ATOM      5  O   UNL     1       4.537   7.606   1.620  1.00  0.00    -0.244 OA
BRANCH   4   6
ATOM      6  C   UNL     1       4.500   5.443   0.714  1.00  0.00     0.198 A 
ATOM      7  C   UNL     1       3.831   4.504  -0.056  1.00  0.00     0.109 A 
ATOM      8  N   UNL     1       4.876   3.901  -0.754  1.00  0.00    -0.212 N 
ATOM      9  N   UNL     1       5.855   5.188   0.657  1.00  0.00    -0.122 NA
ATOM     10  N   UNL     1       6.050   4.148  -0.139  1.00  0.00    -0.061 NA
BRANCH   7  11
ATOM     11  C   UNL     1       2.420   4.160  -0.250  1.00  0.00     0.007 A 
ATOM     12  C   UNL     1       0.722   2.443  -0.611  1.00  0.00     0.119 A 
ATOM     13  C   UNL     1      -0.213   3.445  -0.868  1.00  0.00     0.046 A 
ATOM     14  C   UNL     1       2.031   2.803  -0.289  1.00  0.00     0.056 A 
ATOM     15  C   UNL     1       0.146   4.790  -0.783  1.00  0.00     0.005 A 
ATOM     16  C   UNL     1       1.460   5.149  -0.476  1.00  0.00     0.011 A 
BRANCH  12  17
ATOM     17  O   UNL     1       0.262   1.167  -0.778  1.00  0.00    -0.497 OA
ATOM     18  C   UNL     1       0.943   0.142  -0.067  1.00  0.00     0.278 C 
ENDBRANCH  12  17
ENDBRANCH   7  11
BRANCH   8  19
ATOM     19  C   UNL     1       4.829   3.232  -1.996  1.00  0.00     0.067 A 
ATOM     20  C   UNL     1       5.625   2.111  -2.228  1.00  0.00     0.032 A 
ATOM     21  C   UNL     1       3.982   3.719  -3.000  1.00  0.00     0.032 A 
ATOM     22  C   UNL     1       5.498   1.432  -3.444  1.00  0.00     0.049 A 
ATOM     23  C   UNL     1       3.900   3.062  -4.226  1.00  0.00     0.049 A 
ATOM     24  C   UNL     1       4.633   1.896  -4.445  1.00  0.00     0.129 A 
BRANCH  24  25
ATOM     25  O   UNL     1       4.595   1.129  -5.575  1.00  0.00    -0.406 OA
BRANCH  25  26
ATOM     26  C   UNL     1       3.707   1.530  -6.607  1.00  0.00     0.573 C 
ATOM     27  F   UNL     1       2.433   1.602  -6.161  1.00  0.00    -0.132 F 
ATOM     28  F   UNL     1       4.071   2.724  -7.121  1.00  0.00    -0.132 F 
ATOM     29  F   UNL     1       3.749   0.613  -7.598  1.00  0.00    -0.132 F 
ENDBRANCH  25  26
ENDBRANCH  24  25
ENDBRANCH   8  19
ENDBRANCH   4   6
ENDBRANCH   3   4
ENDBRANCH   2   3
ENDBRANCH   1   2
BRANCH   1  30
ATOM     30  O   UNL     1       4.107   6.401   5.115  1.00  0.00    -0.374 OA
BRANCH  30  31
ATOM     31  C   UNL     1       4.895   5.377   4.521  1.00  0.00     0.202 C 
BRANCH  31  32
ATOM     32  C   UNL     1       4.537   3.928   4.810  1.00  0.00     0.261 C 
BRANCH  32  33
ATOM     33  O   UNL     1       3.204   3.597   4.446  1.00  0.00    -0.460 OA
BRANCH  33  34
ATOM     34  C   UNL     1       2.372   3.478   5.507  1.00  0.00     0.338 C 
ATOM     35  O   UNL     1       2.508   3.974   6.613  1.00  0.00    -0.246 OA
BRANCH  34  36
ATOM     36  C   UNL     1       1.353   2.473   5.194  1.00  0.00     0.060 A 
ATOM     37  C   UNL     1       0.442   2.172   6.209  1.00  0.00     0.016 A 
ATOM     38  C   UNL     1       1.501   1.661   4.061  1.00  0.00     0.016 A 
ATOM     39  C   UNL     1      -0.185   0.948   6.181  1.00  0.00     0.010 A 
ATOM     40  C   UNL     1       0.892   0.430   4.047  1.00  0.00     0.010 A 
ATOM     41  C   UNL     1       0.116   0.061   5.141  1.00  0.00    -0.014 A 
BRANCH  41  42
ATOM     42  C   UNL     1      -0.547  -1.222   5.128  1.00  0.00     0.031 A 
ATOM     43  C   UNL     1      -1.996  -1.089   4.862  1.00  0.00     0.074 A 
ATOM     44  C   UNL     1       0.111  -2.392   5.228  1.00  0.00     0.049 A 
ATOM     45  N   UNL     1      -2.958  -1.341   5.683  1.00  0.00    -0.248 NA
ATOM     46  C   UNL     1      -2.420  -0.409   3.625  1.00  0.00     0.031 C 
ATOM     47  C   UNL     1       1.556  -2.623   5.243  1.00  0.00     0.029 A 
ATOM     48  N   UNL     1      -0.398  -3.653   5.235  1.00  0.00    -0.354 N 
ATOM     49  C   UNL     1      -4.122  -1.080   4.973  1.00  0.00     0.074 A 
ATOM     50  C   UNL     1      -3.737  -0.322   3.813  1.00  0.00     0.031 C 
ATOM     51  C   UNL     1       1.799  -3.935   5.018  1.00  0.00     0.029 A 
ATOM     52  C   UNL     1       0.535  -4.649   4.961  1.00  0.00     0.049 A 
ATOM     53  H   UNL     1      -1.346  -3.846   5.418  1.00  0.00     0.167 HD
ATOM     54  C   UNL     1      -5.255  -1.780   5.242  1.00  0.00     0.037 A 
ATOM     55  C   UNL     1       0.246  -5.933   4.622  1.00  0.00     0.037 A 
ATOM     56  C   UNL     1      -5.212  -2.354   6.565  1.00  0.00     0.049 A 
ATOM     57  C   UNL     1      -1.144  -6.207   5.085  1.00  0.00     0.074 A 
ATOM     58  C   UNL     1      -4.997  -1.835   7.830  1.00  0.00     0.029 A 
ATOM     59  N   UNL     1      -4.989  -3.705   6.679  1.00  0.00    -0.354 N 
ATOM     60  N   UNL     1      -1.479  -6.290   6.343  1.00  0.00    -0.248 NA
ATOM     61  C   UNL     1      -2.230  -5.881   4.169  1.00  0.00     0.031 C 
ATOM     62  C   UNL     1      -4.166  -2.791   8.483  1.00  0.00     0.029 A 
ATOM     63  C   UNL     1      -4.005  -3.874   7.620  1.00  0.00     0.049 A 
ATOM     64  H   UNL     1      -5.448  -4.418   6.179  1.00  0.00     0.167 HD
ATOM     65  C   UNL     1      -2.675  -5.593   6.433  1.00  0.00     0.074 A 
ATOM     66  C   UNL     1      -3.121  -5.416   5.051  1.00  0.00     0.031 C 
ATOM     67  C   UNL     1      -3.043  -4.951   7.580  1.00  0.00     0.037 A 
BRANCH  54  68
ATOM     68  C   UNL     1      -6.166  -2.289   4.156  1.00  0.00     0.057 A 
ATOM     69  C   UNL     1      -7.386  -2.881   4.514  1.00  0.00     0.134 A 
ATOM     70  C   UNL     1      -5.767  -2.493   2.816  1.00  0.00     0.134 A 
ATOM     71  F   UNL     1      -7.856  -2.783   5.766  1.00  0.00    -0.206 F 
ATOM     72  C   UNL     1      -8.120  -3.675   3.624  1.00  0.00     0.040 A 
ATOM     73  C   UNL     1      -6.519  -3.236   1.906  1.00  0.00     0.040 A 
ATOM     74  F   UNL     1      -4.585  -2.084   2.341  1.00  0.00    -0.206 F 
ATOM     75  C   UNL     1      -7.684  -3.858   2.318  1.00  0.00     0.006 A 
ENDBRANCH  54  68
BRANCH  55  76
ATOM     76  C   UNL     1       0.938  -6.805   3.638  1.00  0.00     0.057 A 
ATOM     77  C   UNL     1       0.609  -8.165   3.515  1.00  0.00     0.134 A 
ATOM     78  C   UNL     1       1.741  -6.280   2.609  1.00  0.00     0.134 A 
ATOM     79  F   UNL     1      -0.187  -8.758   4.417  1.00  0.00    -0.206 F 
ATOM     80  C   UNL     1       1.026  -8.943   2.425  1.00  0.00     0.040 A 
ATOM     81  C   UNL     1       2.173  -7.047   1.521  1.00  0.00     0.040 A 
ATOM     82  F   UNL     1       2.064  -4.980   2.569  1.00  0.00    -0.206 F 
ATOM     83  C   UNL     1       1.802  -8.381   1.417  1.00  0.00     0.006 A 
ENDBRANCH  55  76
BRANCH  67  84
ATOM     84  C   UNL     1      -2.252  -5.200   8.836  1.00  0.00     0.057 A 
ATOM     85  C   UNL     1      -0.881  -4.931   8.980  1.00  0.00     0.134 A 
ATOM     86  C   UNL     1      -2.945  -5.570   9.995  1.00  0.00     0.134 A 
ATOM     87  F   UNL     1      -0.152  -4.466   7.957  1.00  0.00    -0.206 F 
ATOM     88  C   UNL     1      -0.227  -5.070  10.209  1.00  0.00     0.040 A 
ATOM     89  C   UNL     1      -2.311  -5.676  11.235  1.00  0.00     0.040 A 
ATOM     90  F   UNL     1      -4.269  -5.788   9.950  1.00  0.00    -0.206 F 
ATOM     91  C   UNL     1      -0.945  -5.436  11.343  1.00  0.00     0.006 A 
ENDBRANCH  67  84
ENDBRANCH  41  42
ENDBRANCH  34  36
ENDBRANCH  33  34
ENDBRANCH  32  33
ENDBRANCH  31  32
ENDBRANCH  30  31
ENDBRANCH   1  30
TORSDOF 19
