REMARK SMILES O=C(OCCOCCOC(=O)[C@@H](Cc1ccc(O)cc1)Nc1c2ccccc2nc2ccccc12)c1ccc(-c2c3nc(c(-c4c(F)cccc4F)c4ccc([nH]4)c(-c4c(F)cccc4F)c4nc(c(-c5c(F)cccc5F)c5ccc2[nH]5)C=C4)C=C3)cc1
REMARK SMILES IDX 7 1 6 2 5 3 4 4 3 5 2 6 1 7 36 8 37 9 89 10 38 11 88 12
REMARK SMILES IDX 39 13 40 14 41 15 82 16 42 17 87 18 81 19 83 20 43 21 86 22
REMARK SMILES IDX 80 23 79 24 44 26 70 27 53 28 69 29 54 30 57 31 68 32 84 33
REMARK SMILES IDX 55 34 56 35 67 37 85 38 58 39 45 40 46 41 51 42 47 43 48 44
REMARK SMILES IDX 50 45 52 46 49 47 71 48 72 49 77 50 73 51 74 52 76 53 78 54
REMARK SMILES IDX 75 55 59 56 60 57 65 58 61 59 62 60 64 61 66 62 63 63 8 64
REMARK SMILES IDX 9 65 10 66 11 67 12 68 13 69 14 70 15 71 20 72 16 73 19 74
REMARK SMILES IDX 17 75 18 76 21 78 22 80 23 81 35 82 24 83 28 84 30 85 34 86
REMARK SMILES IDX 25 87 27 88 29 89 31 90 33 91 26 92 32 93
REMARK H PARENT 83 25 57 36 18 77 21 79
REMARK Flexibility Score: inf
ROOT
ATOM      1  C   UNL     1       2.789   1.725  -1.230  1.00  0.00     0.202 C 
ENDROOT
BRANCH   1   2
ATOM      2  O   UNL     1       4.124   1.360  -0.866  1.00  0.00    -0.374 OA
BRANCH   2   3
ATOM      3  C   UNL     1       4.553   0.049  -1.236  1.00  0.00     0.202 C 
BRANCH   3   4
ATOM      4  C   UNL     1       4.079  -1.120  -0.358  1.00  0.00     0.261 C 
BRANCH   4   5
ATOM      5  O   UNL     1       2.671  -1.051  -0.085  1.00  0.00    -0.460 OA
BRANCH   5   6
ATOM      6  C   UNL     1       2.067  -0.552   1.022  1.00  0.00     0.338 C 
ATOM      7  O   UNL     1       0.850  -0.676   1.141  1.00  0.00    -0.246 OA
BRANCH   6   8
ATOM      8  C   UNL     1       2.808   0.156   2.110  1.00  0.00     0.060 A 
ATOM      9  C   UNL     1       4.063   0.737   1.955  1.00  0.00     0.016 A 
ATOM     10  C   UNL     1       2.175   0.302   3.356  1.00  0.00     0.016 A 
ATOM     11  C   UNL     1       4.704   1.395   2.976  1.00  0.00     0.010 A 
ATOM     12  C   UNL     1       2.805   0.985   4.404  1.00  0.00     0.010 A 
ATOM     13  C   UNL     1       4.081   1.518   4.207  1.00  0.00    -0.014 A 
BRANCH  13  14
ATOM     14  C   UNL     1       4.934   2.067   5.265  1.00  0.00     0.031 A 
ATOM     15  C   UNL     1       5.650   1.093   6.144  1.00  0.00     0.074 A 
ATOM     16  C   UNL     1       5.275   3.366   5.202  1.00  0.00     0.049 A 
ATOM     17  N   UNL     1       6.532   1.317   7.077  1.00  0.00    -0.248 NA
ATOM     18  C   UNL     1       5.362  -0.335   5.912  1.00  0.00     0.031 C 
ATOM     19  C   UNL     1       4.770   4.320   4.207  1.00  0.00     0.029 A 
ATOM     20  N   UNL     1       6.185   4.086   5.922  1.00  0.00    -0.354 N 
ATOM     21  C   UNL     1       6.871   0.066   7.572  1.00  0.00     0.074 A 
ATOM     22  C   UNL     1       6.125  -0.917   6.823  1.00  0.00     0.031 C 
ATOM     23  C   UNL     1       5.416   5.487   4.353  1.00  0.00     0.029 A 
ATOM     24  C   UNL     1       6.315   5.385   5.495  1.00  0.00     0.049 A 
ATOM     25  H   UNL     1       6.698   3.710   6.673  1.00  0.00     0.167 HD
ATOM     26  C   UNL     1       7.719  -0.220   8.584  1.00  0.00     0.037 A 
ATOM     27  C   UNL     1       7.064   6.379   6.004  1.00  0.00     0.037 A 
ATOM     28  C   UNL     1       8.446   0.793   9.297  1.00  0.00     0.049 A 
ATOM     29  C   UNL     1       7.906   6.058   7.207  1.00  0.00     0.074 A 
ATOM     30  C   UNL     1       9.250   0.666  10.412  1.00  0.00     0.029 A 
ATOM     31  N   UNL     1       8.449   2.138   8.944  1.00  0.00    -0.354 N 
ATOM     32  N   UNL     1       8.126   4.892   7.772  1.00  0.00    -0.248 NA
ATOM     33  C   UNL     1       8.577   7.184   7.863  1.00  0.00     0.031 C 
ATOM     34  C   UNL     1       9.708   1.944  10.758  1.00  0.00     0.029 A 
ATOM     35  C   UNL     1       9.226   2.858   9.831  1.00  0.00     0.049 A 
ATOM     36  H   UNL     1       7.968   2.521   8.175  1.00  0.00     0.167 HD
ATOM     37  C   UNL     1       8.966   5.141   8.846  1.00  0.00     0.074 A 
ATOM     38  C   UNL     1       9.234   6.568   8.835  1.00  0.00     0.031 C 
ATOM     39  C   UNL     1       9.465   4.279   9.767  1.00  0.00     0.037 A 
BRANCH  26  40
ATOM     40  C   UNL     1       7.783  -1.650   9.024  1.00  0.00     0.057 A 
ATOM     41  C   UNL     1       8.428  -2.643   8.275  1.00  0.00     0.134 A 
ATOM     42  C   UNL     1       7.108  -2.052  10.184  1.00  0.00     0.134 A 
ATOM     43  F   UNL     1       9.056  -2.332   7.131  1.00  0.00    -0.206 F 
ATOM     44  C   UNL     1       8.376  -3.988   8.650  1.00  0.00     0.040 A 
ATOM     45  C   UNL     1       7.066  -3.389  10.580  1.00  0.00     0.040 A 
ATOM     46  F   UNL     1       6.455  -1.154  10.936  1.00  0.00    -0.206 F 
ATOM     47  C   UNL     1       7.694  -4.363   9.807  1.00  0.00     0.006 A 
ENDBRANCH  26  40
BRANCH  27  48
ATOM     48  C   UNL     1       6.992   7.750   5.437  1.00  0.00     0.057 A 
ATOM     49  C   UNL     1       8.109   8.367   4.862  1.00  0.00     0.134 A 
ATOM     50  C   UNL     1       5.801   8.489   5.471  1.00  0.00     0.134 A 
ATOM     51  F   UNL     1       9.286   7.726   4.816  1.00  0.00    -0.206 F 
ATOM     52  C   UNL     1       8.046   9.667   4.352  1.00  0.00     0.040 A 
ATOM     53  C   UNL     1       5.716   9.777   4.939  1.00  0.00     0.040 A 
ATOM     54  F   UNL     1       4.692   7.963   6.011  1.00  0.00    -0.206 F 
ATOM     55  C   UNL     1       6.845  10.373   4.385  1.00  0.00     0.006 A 
ENDBRANCH  27  48
BRANCH  39  56
ATOM     56  C   UNL     1      10.368   4.866  10.805  1.00  0.00     0.057 A 
ATOM     57  C   UNL     1       9.869   5.633  11.864  1.00  0.00     0.134 A 
ATOM     58  C   UNL     1      11.746   4.625  10.762  1.00  0.00     0.134 A 
ATOM     59  F   UNL     1       8.558   5.907  11.947  1.00  0.00    -0.206 F 
ATOM     60  C   UNL     1      10.716   6.160  12.837  1.00  0.00     0.040 A 
ATOM     61  C   UNL     1      12.600   5.125  11.743  1.00  0.00     0.040 A 
ATOM     62  F   UNL     1      12.278   3.889   9.774  1.00  0.00    -0.206 F 
ATOM     63  C   UNL     1      12.085   5.900  12.781  1.00  0.00     0.006 A 
ENDBRANCH  39  56
ENDBRANCH  13  14
ENDBRANCH   6   8
ENDBRANCH   5   6
ENDBRANCH   4   5
ENDBRANCH   3   4
ENDBRANCH   2   3
ENDBRANCH   1   2
BRANCH   1  64
ATOM     64  C   UNL     1       2.810   2.872  -2.241  1.00  0.00     0.261 C 
BRANCH  64  65
ATOM     65  O   UNL     1       3.084   2.330  -3.544  1.00  0.00    -0.462 OA
BRANCH  65  66
ATOM     66  C   UNL     1       4.379   2.009  -3.779  1.00  0.00     0.328 C 
ATOM     67  O   UNL     1       5.334   2.524  -3.202  1.00  0.00    -0.250 OA
BRANCH  66  68
ATOM     68  C   UNL     1       4.532   0.921  -4.850  1.00  0.00     0.194 C 
BRANCH  68  69
ATOM     69  C   UNL     1       3.767  -0.422  -4.718  1.00  0.00     0.072 C 
BRANCH  69  70
ATOM     70  C   UNL     1       2.289  -0.543  -4.408  1.00  0.00    -0.045 A 
ATOM     71  C   UNL     1       1.329   0.427  -4.715  1.00  0.00     0.007 A 
ATOM     72  C   UNL     1       1.839  -1.759  -3.857  1.00  0.00     0.007 A 
ATOM     73  C   UNL     1      -0.025   0.225  -4.418  1.00  0.00     0.046 A 
ATOM     74  C   UNL     1       0.486  -1.979  -3.592  1.00  0.00     0.046 A 
ATOM     75  C   UNL     1      -0.436  -0.981  -3.865  1.00  0.00     0.115 A 
BRANCH  75  76
ATOM     76  O   UNL     1      -1.746  -1.231  -3.590  1.00  0.00    -0.508 OA
ATOM     77  H   UNL     1      -2.395  -0.577  -3.764  1.00  0.00     0.293 HD
ENDBRANCH  75  76
ENDBRANCH  69  70
ENDBRANCH  68  69
BRANCH  68  78
ATOM     78  N   UNL     1       4.327   1.442  -6.201  1.00  0.00    -0.371 N 
ATOM     79  H   UNL     1       3.457   1.329  -6.648  1.00  0.00     0.161 HD
BRANCH  78  80
ATOM     80  C   UNL     1       5.376   2.104  -6.857  1.00  0.00     0.054 A 
ATOM     81  C   UNL     1       6.599   1.441  -7.177  1.00  0.00     0.024 A 
ATOM     82  C   UNL     1       5.222   3.482  -7.164  1.00  0.00     0.024 A 
ATOM     83  C   UNL     1       6.905   0.085  -6.868  1.00  0.00     0.012 A 
ATOM     84  C   UNL     1       7.565   2.187  -7.874  1.00  0.00     0.073 A 
ATOM     85  C   UNL     1       6.245   4.092  -7.908  1.00  0.00     0.073 A 
ATOM     86  C   UNL     1       4.116   4.270  -6.750  1.00  0.00     0.012 A 
ATOM     87  C   UNL     1       8.147  -0.479  -7.154  1.00  0.00     0.001 A 
ATOM     88  C   UNL     1       8.781   1.591  -8.190  1.00  0.00     0.029 A 
ATOM     89  N   UNL     1       7.372   3.457  -8.259  1.00  0.00    -0.248 NA
ATOM     90  C   UNL     1       6.090   5.419  -8.288  1.00  0.00     0.029 A 
ATOM     91  C   UNL     1       4.001   5.609  -7.111  1.00  0.00     0.001 A 
ATOM     92  C   UNL     1       9.091   0.280  -7.822  1.00  0.00     0.002 A 
ATOM     93  C   UNL     1       4.983   6.180  -7.904  1.00  0.00     0.002 A 
ENDBRANCH  78  80
ENDBRANCH  68  78
ENDBRANCH  66  68
ENDBRANCH  65  66
ENDBRANCH  64  65
ENDBRANCH   1  64
TORSDOF 19
