REMARK SMILES O=C(C[N@@H+](Cc1nc(-c2ccco2)no1)CC(F)(F)F)OCCOCCOC(=O)c1ccc(-c2c3nc(c(-c4c(F)cccc4F)c4ccc([nH]4)c(-c4c(F)cccc4F)c4nc(c(-c5c(F)cccc5F)c5ccc2[nH]5)C=C4)C=C3)cc1
REMARK SMILES IDX 23 1 22 2 21 3 2 4 1 5 3 6 4 7 5 9 6 10 7 11 15 12 8 13
REMARK SMILES IDX 14 14 9 15 10 16 13 17 11 18 12 19 16 20 17 21 18 22 19 23
REMARK SMILES IDX 20 24 24 25 25 26 26 27 27 28 28 29 29 30 30 31 31 32 83 33
REMARK SMILES IDX 32 34 82 35 33 36 34 37 35 38 76 39 36 40 81 41 75 42 77 43
REMARK SMILES IDX 37 44 80 45 74 46 73 47 38 49 64 50 47 51 63 52 48 53 51 54
REMARK SMILES IDX 62 55 78 56 49 57 50 58 61 60 79 61 52 62 39 63 40 64 45 65
REMARK SMILES IDX 41 66 42 67 44 68 46 69 43 70 65 71 66 72 71 73 67 74 68 75
REMARK SMILES IDX 70 76 72 77 69 78 53 79 54 80 59 81 55 82 56 83 58 84 60 85
REMARK SMILES IDX 57 86
REMARK H PARENT 4 8 77 48 51 59
REMARK Flexibility Score: inf
ROOT
ATOM      1  C   UNL     1       4.919   0.952   0.831  1.00  0.00     0.202 C 
ENDROOT
BRANCH   1   2
ATOM      2  C   UNL     1       4.645   0.568  -0.618  1.00  0.00     0.261 C 
BRANCH   2   3
ATOM      3  O   UNL     1       3.259   0.755  -0.957  1.00  0.00    -0.459 OA
BRANCH   3   4
ATOM      4  C   UNL     1       2.327  -0.219  -0.878  1.00  0.00     0.361 C 
ATOM      5  O   UNL     1       1.160   0.020  -1.188  1.00  0.00    -0.245 OA
BRANCH   4   6
ATOM      6  C   UNL     1       2.739  -1.593  -0.377  1.00  0.00     0.387 C 
BRANCH   6   7
ATOM      7  N   UNL     1       3.634  -2.312  -1.308  1.00  0.00    -0.310 N 
ATOM      8  H   UNL     1       4.355  -1.657  -1.611  1.00  0.00     0.349 HD
BRANCH   7   9
ATOM      9  C   UNL     1       4.382  -3.408  -0.631  1.00  0.00     0.364 C 
BRANCH   9  10
ATOM     10  C   UNL     1       3.560  -4.379   0.144  1.00  0.00     0.282 A 
ATOM     11  N   UNL     1       2.278  -4.319   0.391  1.00  0.00    -0.183 NA
ATOM     12  O   UNL     1       4.169  -5.451   0.727  1.00  0.00    -0.333 OA
ATOM     13  C   UNL     1       2.062  -5.412   1.178  1.00  0.00     0.238 A 
ATOM     14  N   UNL     1       3.161  -6.136   1.434  1.00  0.00    -0.053 NA
BRANCH  13  15
ATOM     15  C   UNL     1       0.690  -5.664   1.690  1.00  0.00     0.174 A 
ATOM     16  C   UNL     1      -0.420  -4.944   1.276  1.00  0.00     0.054 A 
ATOM     17  O   UNL     1       0.313  -6.581   2.627  1.00  0.00    -0.461 OA
ATOM     18  C   UNL     1      -1.523  -5.436   2.005  1.00  0.00     0.043 A 
ATOM     19  C   UNL     1      -1.023  -6.420   2.824  1.00  0.00     0.196 A 
ENDBRANCH  13  15
ENDBRANCH   9  10
ENDBRANCH   7   9
BRANCH   7  20
ATOM     20  C   UNL     1       2.946  -2.707  -2.562  1.00  0.00     0.380 C 
BRANCH  20  21
ATOM     21  C   UNL     1       1.734  -3.666  -2.598  1.00  0.00     0.438 C 
ATOM     22  F   UNL     1       0.738  -3.281  -1.776  1.00  0.00    -0.165 F 
ATOM     23  F   UNL     1       1.223  -3.707  -3.852  1.00  0.00    -0.165 F 
ATOM     24  F   UNL     1       2.098  -4.927  -2.280  1.00  0.00    -0.165 F 
ENDBRANCH  20  21
ENDBRANCH   7  20
ENDBRANCH   6   7
ENDBRANCH   4   6
ENDBRANCH   3   4
ENDBRANCH   2   3
ENDBRANCH   1   2
BRANCH   1  25
ATOM     25  O   UNL     1       4.423   0.048   1.817  1.00  0.00    -0.374 OA
BRANCH  25  26
ATOM     26  C   UNL     1       3.138   0.361   2.372  1.00  0.00     0.202 C 
BRANCH  26  27
ATOM     27  C   UNL     1       3.137   1.362   3.530  1.00  0.00     0.261 C 
BRANCH  27  28
ATOM     28  O   UNL     1       3.458   2.680   3.068  1.00  0.00    -0.460 OA
BRANCH  28  29
ATOM     29  C   UNL     1       4.760   3.025   3.184  1.00  0.00     0.338 C 
ATOM     30  O   UNL     1       5.648   2.406   3.748  1.00  0.00    -0.246 OA
BRANCH  29  31
ATOM     31  C   UNL     1       5.012   4.179   2.301  1.00  0.00     0.060 A 
ATOM     32  C   UNL     1       6.171   4.160   1.510  1.00  0.00     0.016 A 
ATOM     33  C   UNL     1       4.122   5.252   2.243  1.00  0.00     0.016 A 
ATOM     34  C   UNL     1       6.484   5.253   0.710  1.00  0.00     0.010 A 
ATOM     35  C   UNL     1       4.440   6.351   1.453  1.00  0.00     0.010 A 
ATOM     36  C   UNL     1       5.647   6.372   0.731  1.00  0.00    -0.014 A 
BRANCH  36  37
ATOM     37  C   UNL     1       6.137   7.668   0.221  1.00  0.00     0.031 A 
ATOM     38  C   UNL     1       6.662   8.652   1.227  1.00  0.00     0.074 A 
ATOM     39  C   UNL     1       6.080   7.967  -1.084  1.00  0.00     0.049 A 
ATOM     40  N   UNL     1       6.989   9.906   1.072  1.00  0.00    -0.248 NA
ATOM     41  C   UNL     1       6.814   8.152   2.605  1.00  0.00     0.031 C 
ATOM     42  C   UNL     1       5.631   7.065  -2.142  1.00  0.00     0.029 A 
ATOM     43  N   UNL     1       6.377   9.136  -1.734  1.00  0.00    -0.354 N 
ATOM     44  C   UNL     1       7.358  10.352   2.334  1.00  0.00     0.074 A 
ATOM     45  C   UNL     1       7.187   9.246   3.249  1.00  0.00     0.031 C 
ATOM     46  C   UNL     1       5.654   7.726  -3.312  1.00  0.00     0.029 A 
ATOM     47  C   UNL     1       6.076   9.105  -3.071  1.00  0.00     0.049 A 
ATOM     48  H   UNL     1       6.768   9.920  -1.285  1.00  0.00     0.167 HD
ATOM     49  C   UNL     1       7.803  11.578   2.694  1.00  0.00     0.037 A 
ATOM     50  C   UNL     1       6.103  10.095  -3.982  1.00  0.00     0.037 A 
ATOM     51  C   UNL     1       7.962  12.665   1.767  1.00  0.00     0.049 A 
ATOM     52  C   UNL     1       6.539  11.471  -3.551  1.00  0.00     0.074 A 
ATOM     53  C   UNL     1       8.423  13.946   2.009  1.00  0.00     0.029 A 
ATOM     54  N   UNL     1       7.651  12.597   0.416  1.00  0.00    -0.354 N 
ATOM     55  N   UNL     1       6.903  11.889  -2.361  1.00  0.00    -0.248 NA
ATOM     56  C   UNL     1       6.569  12.511  -4.587  1.00  0.00     0.031 C 
ATOM     57  C   UNL     1       8.335  14.669   0.816  1.00  0.00     0.029 A 
ATOM     58  C   UNL     1       7.886  13.820  -0.185  1.00  0.00     0.049 A 
ATOM     59  H   UNL     1       7.312  11.796  -0.046  1.00  0.00     0.167 HD
ATOM     60  C   UNL     1       7.244  13.228  -2.513  1.00  0.00     0.074 A 
ATOM     61  C   UNL     1       7.041  13.550  -3.912  1.00  0.00     0.031 C 
ATOM     62  C   UNL     1       7.691  14.109  -1.584  1.00  0.00     0.037 A 
BRANCH  49  63
ATOM     63  C   UNL     1       8.100  11.806   4.148  1.00  0.00     0.057 A 
ATOM     64  C   UNL     1       9.168  11.175   4.801  1.00  0.00     0.134 A 
ATOM     65  C   UNL     1       7.300  12.668   4.910  1.00  0.00     0.134 A 
ATOM     66  F   UNL     1       9.962  10.321   4.137  1.00  0.00    -0.206 F 
ATOM     67  C   UNL     1       9.408  11.365   6.163  1.00  0.00     0.040 A 
ATOM     68  C   UNL     1       7.551  12.892   6.264  1.00  0.00     0.040 A 
ATOM     69  F   UNL     1       6.261  13.305   4.351  1.00  0.00    -0.206 F 
ATOM     70  C   UNL     1       8.601  12.232   6.897  1.00  0.00     0.006 A 
ENDBRANCH  49  63
BRANCH  50  71
ATOM     71  C   UNL     1       5.699   9.819  -5.383  1.00  0.00     0.057 A 
ATOM     72  C   UNL     1       6.639   9.823  -6.420  1.00  0.00     0.134 A 
ATOM     73  C   UNL     1       4.370   9.530  -5.718  1.00  0.00     0.134 A 
ATOM     74  F   UNL     1       7.924  10.110  -6.164  1.00  0.00    -0.206 F 
ATOM     75  C   UNL     1       6.272   9.562  -7.741  1.00  0.00     0.040 A 
ATOM     76  C   UNL     1       3.994   9.241  -7.031  1.00  0.00     0.040 A 
ATOM     77  F   UNL     1       3.422   9.504  -4.770  1.00  0.00    -0.206 F 
ATOM     78  C   UNL     1       4.946   9.262  -8.048  1.00  0.00     0.006 A 
ENDBRANCH  50  71
BRANCH  62  79
ATOM     79  C   UNL     1       8.053  15.488  -2.057  1.00  0.00     0.057 A 
ATOM     80  C   UNL     1       7.086  16.425  -2.439  1.00  0.00     0.134 A 
ATOM     81  C   UNL     1       9.393  15.899  -2.065  1.00  0.00     0.134 A 
ATOM     82  F   UNL     1       5.787  16.091  -2.463  1.00  0.00    -0.206 F 
ATOM     83  C   UNL     1       7.441  17.717  -2.832  1.00  0.00     0.040 A 
ATOM     84  C   UNL     1       9.757  17.197  -2.425  1.00  0.00     0.040 A 
ATOM     85  F   UNL     1      10.368  15.053  -1.698  1.00  0.00    -0.206 F 
ATOM     86  C   UNL     1       8.779  18.108  -2.816  1.00  0.00     0.006 A 
ENDBRANCH  62  79
ENDBRANCH  36  37
ENDBRANCH  29  31
ENDBRANCH  28  29
ENDBRANCH  27  28
ENDBRANCH  26  27
ENDBRANCH  25  26
ENDBRANCH   1  25
TORSDOF 20
