REMARK SMILES Cc1ccc(-c2nn(-c3ccccc3)cc2[C@@H]2[NH2+][C@H](C(=O)OCCOCCOC(=O)c3ccc(-c4c5nc(c(-c6c(F)cccc6F)c6ccc([nH]6)c(-c6c(F)cccc6F)c6nc(c(-c7c(F)cccc7F)c7ccc4[nH]7)C=C6)C=C5)cc3)CS2)cc1
REMARK SMILES IDX 25 1 24 2 23 3 22 4 20 5 21 6 19 7 17 8 18 9 86 10 85 13
REMARK SMILES IDX 16 14 6 15 7 16 8 17 15 18 5 19 1 20 2 21 3 22 88 23 4 24
REMARK SMILES IDX 87 25 9 26 10 27 14 28 11 29 13 30 12 31 26 32 27 33 28 34
REMARK SMILES IDX 29 35 30 36 31 37 32 38 84 39 33 40 83 41 34 42 35 43 36 44
REMARK SMILES IDX 77 45 37 46 82 47 76 48 78 49 38 50 81 51 75 52 74 53 39 55
REMARK SMILES IDX 65 56 48 57 64 58 49 59 52 60 63 61 79 62 50 63 51 64 62 66
REMARK SMILES IDX 80 67 53 68 40 69 41 70 46 71 42 72 43 73 45 74 47 75 44 76
REMARK SMILES IDX 66 77 67 78 72 79 68 80 69 81 71 82 73 83 70 84 54 85 55 86
REMARK SMILES IDX 60 87 56 88 57 89 59 90 61 91 58 92
REMARK H PARENT 18 11 18 12 78 54 52 65
REMARK Flexibility Score: inf
ROOT
ATOM      1  O   UNL     1      -5.662  -5.123   0.185  1.00  0.00    -0.374 OA
ENDROOT
BRANCH   1   2
ATOM      2  C   UNL     1      -5.460  -3.752  -0.046  1.00  0.00     0.202 C 
BRANCH   2   3
ATOM      3  C   UNL     1      -6.609  -3.189   0.673  1.00  0.00     0.261 C 
BRANCH   3   4
ATOM      4  O   UNL     1      -6.193  -2.434   1.766  1.00  0.00    -0.459 OA
BRANCH   4   5
ATOM      5  C   UNL     1      -6.007  -3.193   2.866  1.00  0.00     0.365 C 
ATOM      6  O   UNL     1      -6.708  -4.111   3.254  1.00  0.00    -0.245 OA
BRANCH   5   7
ATOM      7  C   UNL     1      -4.749  -2.663   3.489  1.00  0.00     0.304 C 
ATOM      8  C   UNL     1      -3.586  -0.969   2.158  1.00  0.00     0.278 C 
ATOM      9  N   UNL     1      -3.748  -2.408   2.385  1.00  0.00    -0.319 N 
ATOM     10  S   UNL     1      -4.196  -0.066   3.594  1.00  0.00    -0.087 SA
ATOM     11  H   UNL     1      -2.848  -2.808   2.650  1.00  0.00     0.348 HD
ATOM     12  H   UNL     1      -4.088  -2.840   1.526  1.00  0.00     0.348 HD
ATOM     13  C   UNL     1      -5.171  -1.421   4.254  1.00  0.00     0.153 C 
BRANCH   8  14
ATOM     14  C   UNL     1      -3.975  -0.324   0.793  1.00  0.00     0.067 A 
ATOM     15  C   UNL     1      -2.770   1.010   0.109  1.00  0.00     0.103 A 
ATOM     16  N   UNL     1      -3.453   1.980  -1.116  1.00  0.00    -0.167 NA
ATOM     17  N   UNL     1      -5.181   1.358  -1.523  1.00  0.00    -0.240 N 
ATOM     18  C   UNL     1      -5.454  -0.198  -0.234  1.00  0.00     0.126 A 
BRANCH  15  19
ATOM     19  C   UNL     1      -1.304   0.761   0.180  1.00  0.00     0.003 A 
ATOM     20  C   UNL     1       2.938  -0.078  -0.009  1.00  0.00     0.044 C 
ATOM     21  C   UNL     1       1.467   0.210   0.067  1.00  0.00    -0.051 A 
ATOM     22  C   UNL     1       0.555  -0.843   0.108  1.00  0.00     0.004 A 
ATOM     23  C   UNL     1       0.982   1.528   0.067  1.00  0.00     0.004 A 
ATOM     24  C   UNL     1      -0.815  -0.569   0.160  1.00  0.00     0.011 A 
ATOM     25  C   UNL     1      -0.393   1.802   0.113  1.00  0.00     0.011 A 
ENDBRANCH  15  19
BRANCH  17  26
ATOM     26  C   UNL     1      -5.857   2.188  -2.646  1.00  0.00     0.065 A 
ATOM     27  C   UNL     1      -6.016   1.634  -3.935  1.00  0.00     0.028 A 
ATOM     28  C   UNL     1      -6.747   3.203  -2.256  1.00  0.00     0.028 A 
ATOM     29  C   UNL     1      -7.253   1.754  -4.590  1.00  0.00     0.002 A 
ATOM     30  C   UNL     1      -7.978   3.325  -2.919  1.00  0.00     0.002 A 
ATOM     31  C   UNL     1      -8.262   2.534  -4.032  1.00  0.00     0.000 A 
ENDBRANCH  17  26
ENDBRANCH   8  14
ENDBRANCH   5   7
ENDBRANCH   4   5
ENDBRANCH   3   4
ENDBRANCH   2   3
ENDBRANCH   1   2
BRANCH   1  32
ATOM     32  C   UNL     1      -4.534  -5.880  -0.147  1.00  0.00     0.202 C 
BRANCH  32  33
ATOM     33  C   UNL     1      -4.164  -5.662  -1.623  1.00  0.00     0.261 C 
BRANCH  33  34
ATOM     34  O   UNL     1      -5.369  -5.817  -2.442  1.00  0.00    -0.460 OA
BRANCH  34  35
ATOM     35  C   UNL     1      -5.816  -4.763  -3.201  1.00  0.00     0.338 C 
ATOM     36  O   UNL     1      -5.100  -4.034  -3.869  1.00  0.00    -0.246 OA
BRANCH  35  37
ATOM     37  C   UNL     1      -7.255  -4.415  -2.843  1.00  0.00     0.060 A 
ATOM     38  C   UNL     1      -7.835  -3.175  -3.178  1.00  0.00     0.016 A 
ATOM     39  C   UNL     1      -7.851  -5.125  -1.822  1.00  0.00     0.016 A 
ATOM     40  C   UNL     1      -8.765  -2.527  -2.302  1.00  0.00     0.010 A 
ATOM     41  C   UNL     1      -8.645  -4.429  -0.913  1.00  0.00     0.010 A 
ATOM     42  C   UNL     1      -9.003  -3.065  -1.050  1.00  0.00    -0.014 A 
BRANCH  42  43
ATOM     43  C   UNL     1      -9.588  -2.393   0.188  1.00  0.00     0.031 A 
ATOM     44  C   UNL     1     -10.936  -2.917   0.462  1.00  0.00     0.074 A 
ATOM     45  C   UNL     1      -9.014  -1.523   1.111  1.00  0.00     0.049 A 
ATOM     46  N   UNL     1     -11.913  -2.194   0.887  1.00  0.00    -0.248 NA
ATOM     47  C   UNL     1     -11.381  -4.276   0.092  1.00  0.00     0.031 C 
ATOM     48  C   UNL     1      -9.297  -1.252   2.536  1.00  0.00     0.029 A 
ATOM     49  N   UNL     1      -7.877  -0.723   1.001  1.00  0.00    -0.354 N 
ATOM     50  C   UNL     1     -12.800  -3.127   1.364  1.00  0.00     0.074 A 
ATOM     51  C   UNL     1     -12.646  -4.253   0.504  1.00  0.00     0.031 C 
ATOM     52  C   UNL     1      -8.580  -0.188   2.998  1.00  0.00     0.029 A 
ATOM     53  C   UNL     1      -7.793   0.345   1.899  1.00  0.00     0.049 A 
ATOM     54  H   UNL     1      -7.176  -0.900   0.332  1.00  0.00     0.167 HD
ATOM     55  C   UNL     1     -13.197  -3.034   2.663  1.00  0.00     0.037 A 
ATOM     56  C   UNL     1      -7.529   1.615   1.462  1.00  0.00     0.037 A 
ATOM     57  C   UNL     1     -12.740  -1.759   3.266  1.00  0.00     0.049 A 
ATOM     58  C   UNL     1      -8.910   2.275   1.575  1.00  0.00     0.074 A 
ATOM     59  C   UNL     1     -12.012  -1.419   4.393  1.00  0.00     0.029 A 
ATOM     60  N   UNL     1     -12.797  -0.582   2.507  1.00  0.00    -0.354 N 
ATOM     61  N   UNL     1      -9.980   1.592   1.892  1.00  0.00    -0.248 NA
ATOM     62  C   UNL     1      -9.220   3.687   1.418  1.00  0.00     0.031 C 
ATOM     63  C   UNL     1     -11.657  -0.030   4.296  1.00  0.00     0.029 A 
ATOM     64  C   UNL     1     -12.166   0.485   3.113  1.00  0.00     0.049 A 
ATOM     65  H   UNL     1     -13.242  -0.523   1.631  1.00  0.00     0.167 HD
ATOM     66  C   UNL     1     -11.062   2.385   2.079  1.00  0.00     0.074 A 
ATOM     67  C   UNL     1     -10.533   3.701   1.737  1.00  0.00     0.031 C 
ATOM     68  C   UNL     1     -12.248   1.833   2.503  1.00  0.00     0.037 A 
BRANCH  55  69
ATOM     69  C   UNL     1     -13.812  -4.191   3.444  1.00  0.00     0.057 A 
ATOM     70  C   UNL     1     -14.400  -3.924   4.691  1.00  0.00     0.134 A 
ATOM     71  C   UNL     1     -13.866  -5.561   3.079  1.00  0.00     0.134 A 
ATOM     72  F   UNL     1     -14.420  -2.684   5.197  1.00  0.00    -0.206 F 
ATOM     73  C   UNL     1     -15.008  -4.910   5.484  1.00  0.00     0.040 A 
ATOM     74  C   UNL     1     -14.518  -6.546   3.837  1.00  0.00     0.040 A 
ATOM     75  F   UNL     1     -13.255  -6.064   2.001  1.00  0.00    -0.206 F 
ATOM     76  C   UNL     1     -15.093  -6.223   5.049  1.00  0.00     0.006 A 
ENDBRANCH  55  69
BRANCH  56  77
ATOM     77  C   UNL     1      -6.619   1.600   0.199  1.00  0.00     0.057 A 
ATOM     78  C   UNL     1      -4.827   1.418   0.206  1.00  0.00     0.134 A 
ATOM     79  C   UNL     1      -7.434   0.777  -1.063  1.00  0.00     0.134 A 
ATOM     80  F   UNL     1      -4.241   2.077   1.254  1.00  0.00    -0.206 F 
ATOM     81  C   UNL     1      -3.994   0.103  -1.210  1.00  0.00     0.040 A 
ATOM     82  C   UNL     1      -6.719  -0.277  -2.223  1.00  0.00     0.040 A 
ATOM     83  F   UNL     1      -8.770   0.923  -1.143  1.00  0.00    -0.206 F 
ATOM     84  C   UNL     1      -5.077  -0.675  -2.339  1.00  0.00     0.006 A 
ENDBRANCH  56  77
BRANCH  68  85
ATOM     85  C   UNL     1     -13.622   2.487   2.474  1.00  0.00     0.057 A 
ATOM     86  C   UNL     1     -13.905   3.759   1.968  1.00  0.00     0.134 A 
ATOM     87  C   UNL     1     -14.776   1.780   2.911  1.00  0.00     0.134 A 
ATOM     88  F   UNL     1     -12.984   4.526   1.385  1.00  0.00    -0.206 F 
ATOM     89  C   UNL     1     -15.192   4.314   1.980  1.00  0.00     0.040 A 
ATOM     90  C   UNL     1     -16.072   2.291   2.851  1.00  0.00     0.040 A 
ATOM     91  F   UNL     1     -14.734   0.539   3.410  1.00  0.00    -0.206 F 
ATOM     92  C   UNL     1     -16.282   3.579   2.412  1.00  0.00     0.006 A 
ENDBRANCH  68  85
ENDBRANCH  42  43
ENDBRANCH  35  37
ENDBRANCH  34  35
ENDBRANCH  33  34
ENDBRANCH  32  33
ENDBRANCH   1  32
TORSDOF 17
