REMARK SMILES Cc1cc(C)n(C)c(=O)c1C(=O)[NH+]1CCC2(CC1)C[NH2+][C@@H](C(=O)OCCOCCOC(=O)c1ccc(-c3c4nc(c(-c5c(F)cccc5F)c5ccc([nH]5)c(-c5c(F)cccc5F)c5nc(c(-c6c(F)cccc6F)c6ccc3[nH]6)C=C5)C=C4)cc1)C2
REMARK SMILES IDX 27 1 26 2 25 3 24 4 22 5 23 6 21 7 13 8 14 9 18 10 15 12
REMARK SMILES IDX 17 13 16 14 19 15 87 16 20 17 11 20 12 21 10 22 1 23 2 24
REMARK SMILES IDX 3 25 4 26 8 27 5 28 6 29 9 30 7 31 28 32 29 33 30 34 31 35
REMARK SMILES IDX 32 36 33 37 34 38 86 39 35 40 85 41 36 42 37 43 38 44 79 45
REMARK SMILES IDX 39 46 84 47 78 48 80 49 40 50 83 51 77 52 76 53 41 55 67 56
REMARK SMILES IDX 50 57 66 58 51 59 54 60 65 61 81 62 52 63 53 64 64 66 82 67
REMARK SMILES IDX 55 68 42 69 43 70 48 71 44 72 45 73 47 74 49 75 46 76 68 77
REMARK SMILES IDX 69 78 74 79 70 80 71 81 73 82 75 83 72 84 56 85 57 86 62 87
REMARK SMILES IDX 58 88 59 89 61 90 63 91 60 92
REMARK H PARENT 13 11 20 18 20 19 80 54 54 65
REMARK Flexibility Score: inf
ROOT
ATOM      1  O   UNL     1       2.646   0.405  -9.119  1.00  0.00    -0.374 OA
ENDROOT
BRANCH   1   2
ATOM      2  C   UNL     1       1.569  -0.531  -9.173  1.00  0.00     0.202 C 
BRANCH   2   3
ATOM      3  C   UNL     1       1.759  -1.836  -8.398  1.00  0.00     0.261 C 
BRANCH   3   4
ATOM      4  O   UNL     1       1.853  -1.575  -6.989  1.00  0.00    -0.459 OA
BRANCH   4   5
ATOM      5  C   UNL     1       3.003  -1.979  -6.391  1.00  0.00     0.364 C 
ATOM      6  O   UNL     1       3.866  -2.674  -6.920  1.00  0.00    -0.245 OA
BRANCH   5   7
ATOM      7  C   UNL     1       3.125  -1.495  -4.948  1.00  0.00     0.294 C 
ATOM      8  N   UNL     1       1.623   1.899  -1.218  1.00  0.00    -0.267 N 
ATOM      9  C   UNL     1       2.815   1.991  -2.045  1.00  0.00     0.271 C 
ATOM     10  C   UNL     1       0.479   1.327  -1.911  1.00  0.00     0.271 C 
ATOM     11  H   UNL     1       1.967   1.413  -0.434  1.00  0.00     0.357 HD
ATOM     12  C   UNL     1       3.313   0.575  -2.291  1.00  0.00     0.075 C 
ATOM     13  C   UNL     1       0.786  -0.039  -2.554  1.00  0.00     0.075 C 
ATOM     14  C   UNL     1       2.260  -0.323  -2.993  1.00  0.00     0.036 C 
ATOM     15  C   UNL     1       2.629  -1.811  -2.724  1.00  0.00     0.268 C 
ATOM     16  C   UNL     1       2.412  -0.207  -4.536  1.00  0.00     0.090 C 
ATOM     17  N   UNL     1       2.542  -2.475  -4.018  1.00  0.00    -0.334 N 
ATOM     18  H   UNL     1       1.571  -2.675  -4.261  1.00  0.00     0.347 HD
ATOM     19  H   UNL     1       3.022  -3.375  -4.037  1.00  0.00     0.347 HD
BRANCH   8  20
ATOM     20  C   UNL     1       1.701   2.350   0.096  1.00  0.00     0.350 C 
ATOM     21  O   UNL     1       2.647   3.051   0.468  1.00  0.00    -0.225 OA
BRANCH  20  22
ATOM     22  C   UNL     1       0.727   1.895   1.143  1.00  0.00     0.147 A 
ATOM     23  C   UNL     1       1.158  -0.596   0.755  1.00  0.00     0.045 C 
ATOM     24  C   UNL     1       0.551   0.589   1.442  1.00  0.00    -0.027 A 
ATOM     25  C   UNL     1      -0.179   0.201   2.631  1.00  0.00     0.026 A 
ATOM     26  C   UNL     1      -0.488   1.084   3.590  1.00  0.00     0.018 A 
ATOM     27  C   UNL     1       0.220   2.919   2.132  1.00  0.00     0.267 A 
ATOM     28  C   UNL     1      -1.089   0.573   4.872  1.00  0.00     0.064 C 
ATOM     29  N   UNL     1      -0.244   2.436   3.372  1.00  0.00    -0.315 N 
ATOM     30  O   UNL     1       0.230   4.116   1.848  1.00  0.00    -0.268 OA
ATOM     31  C   UNL     1      -0.489   3.409   4.429  1.00  0.00     0.153 C 
ENDBRANCH  20  22
ENDBRANCH   8  20
ENDBRANCH   5   7
ENDBRANCH   4   5
ENDBRANCH   3   4
ENDBRANCH   2   3
ENDBRANCH   1   2
BRANCH   1  32
ATOM     32  C   UNL     1       2.798   1.167  -7.923  1.00  0.00     0.202 C 
BRANCH  32  33
ATOM     33  C   UNL     1       1.812   2.323  -7.701  1.00  0.00     0.261 C 
BRANCH  33  34
ATOM     34  O   UNL     1       0.457   1.867  -7.533  1.00  0.00    -0.460 OA
BRANCH  34  35
ATOM     35  C   UNL     1      -0.382   2.211  -8.538  1.00  0.00     0.338 C 
ATOM     36  O   UNL     1      -0.133   2.924  -9.503  1.00  0.00    -0.246 OA
BRANCH  35  37
ATOM     37  C   UNL     1      -1.638   1.452  -8.435  1.00  0.00     0.060 A 
ATOM     38  C   UNL     1      -1.996   0.648  -9.526  1.00  0.00     0.016 A 
ATOM     39  C   UNL     1      -2.497   1.594  -7.343  1.00  0.00     0.016 A 
ATOM     40  C   UNL     1      -3.236   0.018  -9.550  1.00  0.00     0.010 A 
ATOM     41  C   UNL     1      -3.749   0.971  -7.376  1.00  0.00     0.010 A 
ATOM     42  C   UNL     1      -4.138   0.212  -8.495  1.00  0.00    -0.014 A 
BRANCH  42  43
ATOM     43  C   UNL     1      -5.538  -0.246  -8.653  1.00  0.00     0.031 A 
ATOM     44  C   UNL     1      -6.579   0.738  -9.108  1.00  0.00     0.074 A 
ATOM     45  C   UNL     1      -5.868  -1.533  -8.449  1.00  0.00     0.049 A 
ATOM     46  N   UNL     1      -7.856   0.553  -9.325  1.00  0.00    -0.248 NA
ATOM     47  C   UNL     1      -6.117   2.113  -9.356  1.00  0.00     0.031 C 
ATOM     48  C   UNL     1      -4.940  -2.589  -8.052  1.00  0.00     0.029 A 
ATOM     49  N   UNL     1      -7.080  -2.168  -8.553  1.00  0.00    -0.354 N 
ATOM     50  C   UNL     1      -8.349   1.786  -9.733  1.00  0.00     0.074 A 
ATOM     51  C   UNL     1      -7.244   2.718  -9.703  1.00  0.00     0.031 C 
ATOM     52  C   UNL     1      -5.618  -3.744  -7.943  1.00  0.00     0.029 A 
ATOM     53  C   UNL     1      -7.030  -3.502  -8.236  1.00  0.00     0.049 A 
ATOM     54  H   UNL     1      -7.907  -1.710  -8.829  1.00  0.00     0.167 HD
ATOM     55  C   UNL     1      -9.609   2.108 -10.110  1.00  0.00     0.037 A 
ATOM     56  C   UNL     1      -8.014  -4.420  -8.176  1.00  0.00     0.037 A 
ATOM     57  C   UNL     1     -10.707   1.179 -10.142  1.00  0.00     0.049 A 
ATOM     58  C   UNL     1      -9.422  -4.023  -8.525  1.00  0.00     0.074 A 
ATOM     59  C   UNL     1     -12.014   1.405 -10.534  1.00  0.00     0.029 A 
ATOM     60  N   UNL     1     -10.628  -0.151  -9.757  1.00  0.00    -0.354 N 
ATOM     61  N   UNL     1      -9.875  -2.861  -8.932  1.00  0.00    -0.248 NA
ATOM     62  C   UNL     1     -10.457  -5.061  -8.407  1.00  0.00     0.031 C 
ATOM     63  C   UNL     1     -12.739   0.226 -10.337  1.00  0.00     0.029 A 
ATOM     64  C   UNL     1     -11.872  -0.749  -9.870  1.00  0.00     0.049 A 
ATOM     65  H   UNL     1      -9.809  -0.603  -9.449  1.00  0.00     0.167 HD
ATOM     66  C   UNL     1     -11.240  -3.031  -9.133  1.00  0.00     0.074 A 
ATOM     67  C   UNL     1     -11.540  -4.412  -8.816  1.00  0.00     0.031 C 
ATOM     68  C   UNL     1     -12.159  -2.123  -9.543  1.00  0.00     0.037 A 
BRANCH  55  69
ATOM     69  C   UNL     1      -9.872   3.533 -10.498  1.00  0.00     0.057 A 
ATOM     70  C   UNL     1      -9.402   4.070 -11.703  1.00  0.00     0.134 A 
ATOM     71  C   UNL     1     -10.638   4.365  -9.672  1.00  0.00     0.134 A 
ATOM     72  F   UNL     1      -8.651   3.329 -12.531  1.00  0.00    -0.206 F 
ATOM     73  C   UNL     1      -9.670   5.392 -12.064  1.00  0.00     0.040 A 
ATOM     74  C   UNL     1     -10.933   5.680 -10.034  1.00  0.00     0.040 A 
ATOM     75  F   UNL     1     -11.121   3.911  -8.506  1.00  0.00    -0.206 F 
ATOM     76  C   UNL     1     -10.444   6.198 -11.232  1.00  0.00     0.006 A 
ENDBRANCH  55  69
BRANCH  56  77
ATOM     77  C   UNL     1      -7.691  -5.809  -7.765  1.00  0.00     0.057 A 
ATOM     78  C   UNL     1      -7.712  -6.861  -8.686  1.00  0.00     0.134 A 
ATOM     79  C   UNL     1      -7.325  -6.110  -6.447  1.00  0.00     0.134 A 
ATOM     80  F   UNL     1      -8.076  -6.638  -9.957  1.00  0.00    -0.206 F 
ATOM     81  C   UNL     1      -7.378  -8.164  -8.312  1.00  0.00     0.040 A 
ATOM     82  C   UNL     1      -6.968  -7.404  -6.065  1.00  0.00     0.040 A 
ATOM     83  F   UNL     1      -7.287  -5.144  -5.517  1.00  0.00    -0.206 F 
ATOM     84  C   UNL     1      -6.995  -8.436  -7.000  1.00  0.00     0.006 A 
ENDBRANCH  56  77
BRANCH  68  85
ATOM     85  C   UNL     1     -13.581  -2.584  -9.680  1.00  0.00     0.057 A 
ATOM     86  C   UNL     1     -14.388  -2.818  -8.561  1.00  0.00     0.134 A 
ATOM     87  C   UNL     1     -14.173  -2.715 -10.944  1.00  0.00     0.134 A 
ATOM     88  F   UNL     1     -13.880  -2.719  -7.323  1.00  0.00    -0.206 F 
ATOM     89  C   UNL     1     -15.732  -3.174  -8.692  1.00  0.00     0.040 A 
ATOM     90  C   UNL     1     -15.521  -3.046 -11.088  1.00  0.00     0.040 A 
ATOM     91  F   UNL     1     -13.458  -2.494 -12.057  1.00  0.00    -0.206 F 
ATOM     92  C   UNL     1     -16.304  -3.279  -9.959  1.00  0.00     0.006 A 
ENDBRANCH  68  85
ENDBRANCH  42  43
ENDBRANCH  35  37
ENDBRANCH  34  35
ENDBRANCH  33  34
ENDBRANCH  32  33
ENDBRANCH   1  32
TORSDOF 16
