REMARK SMILES CCc1cn(C[C@H](NC(=O)c2ccco2)C(=O)OCCOCCOC(=O)c2ccc(-c3c4nc(c(-c5c(F)cccc5F)c5ccc([nH]5)c(-c5c(F)cccc5F)c5nc(c(-c6c(F)cccc6F)c6ccc3[nH]6)C=C5)C=C4)cc2)c(=O)[nH]c1=O
REMARK SMILES IDX 20 1 19 2 18 3 16 4 17 5 7 6 6 7 5 8 3 9 4 10 84 11 83 12
REMARK SMILES IDX 85 13 81 14 82 16 2 17 1 18 8 19 9 20 10 22 11 23 12 24
REMARK SMILES IDX 15 25 13 26 14 27 21 28 22 29 23 30 24 31 25 32 26 33 27 34
REMARK SMILES IDX 28 35 80 36 29 37 79 38 30 39 31 40 32 41 73 42 33 43 78 44
REMARK SMILES IDX 72 45 74 46 34 47 77 48 71 49 70 50 35 52 61 53 44 54 60 55
REMARK SMILES IDX 45 56 48 57 59 58 75 59 46 60 47 61 58 63 76 64 49 65 36 66
REMARK SMILES IDX 37 67 42 68 38 69 39 70 41 71 43 72 40 73 62 74 63 75 68 76
REMARK SMILES IDX 64 77 65 78 67 79 69 80 66 81 50 82 51 83 56 84 52 85 53 86
REMARK SMILES IDX 55 87 57 88 54 89
REMARK H PARENT 83 15 8 21 74 51 48 62
REMARK Flexibility Score: inf
ROOT
ATOM      1  C   UNL     1       3.736   3.025   7.935  1.00  0.00     0.202 C 
ENDROOT
BRANCH   1   2
ATOM      2  C   UNL     1       3.202   1.738   8.594  1.00  0.00     0.261 C 
BRANCH   2   3
ATOM      3  O   UNL     1       3.241   0.661   7.648  1.00  0.00    -0.462 OA
BRANCH   3   4
ATOM      4  C   UNL     1       2.134  -0.049   7.385  1.00  0.00     0.330 C 
ATOM      5  O   UNL     1       1.106  -0.015   8.053  1.00  0.00    -0.250 OA
BRANCH   4   6
ATOM      6  C   UNL     1       2.327  -0.997   6.189  1.00  0.00     0.212 C 
BRANCH   6   7
ATOM      7  C   UNL     1       2.185  -2.469   6.648  1.00  0.00     0.164 C 
BRANCH   7   8
ATOM      8  N   UNL     1       3.034  -2.852   7.779  1.00  0.00    -0.298 N 
ATOM      9  C   UNL     1       3.264  -3.106  10.140  1.00  0.00     0.033 A 
ATOM     10  C   UNL     1       2.516  -2.843   9.060  1.00  0.00     0.100 A 
ATOM     11  C   UNL     1       4.726  -3.242   9.925  1.00  0.00     0.256 A 
ATOM     12  N   UNL     1       5.114  -3.443   8.635  1.00  0.00    -0.274 N 
ATOM     13  O   UNL     1       5.533  -3.187  10.847  1.00  0.00    -0.269 OA
ATOM     14  C   UNL     1       4.318  -3.303   7.532  1.00  0.00     0.328 A 
ATOM     15  H   UNL     1       6.049  -3.714   8.484  1.00  0.00     0.175 HD
ATOM     16  O   UNL     1       4.752  -3.540   6.409  1.00  0.00    -0.248 OA
BRANCH   9  17
ATOM     17  C   UNL     1       2.761  -3.332  11.539  1.00  0.00     0.039 C 
ATOM     18  C   UNL     1       1.346  -3.899  11.617  1.00  0.00     0.009 C 
ENDBRANCH   9  17
ENDBRANCH   7   8
ENDBRANCH   6   7
BRANCH   6  19
ATOM     19  N   UNL     1       3.341  -0.785   5.122  1.00  0.00    -0.334 N 
ATOM     20  C   UNL     1       4.713  -0.774   5.039  1.00  0.00     0.287 C 
ATOM     21  H   UNL     1       2.921  -0.607   4.249  1.00  0.00     0.164 HD
ATOM     22  O   UNL     1       5.183  -0.943   3.910  1.00  0.00    -0.266 OA
BRANCH  20  23
ATOM     23  C   UNL     1       5.542  -0.512   6.188  1.00  0.00     0.191 A 
ATOM     24  C   UNL     1       6.563  -1.229   6.782  1.00  0.00     0.056 A 
ATOM     25  O   UNL     1       5.527   0.736   6.744  1.00  0.00    -0.459 OA
ATOM     26  C   UNL     1       6.980  -0.481   7.909  1.00  0.00     0.043 A 
ATOM     27  C   UNL     1       6.393   0.745   7.783  1.00  0.00     0.196 A 
ENDBRANCH  20  23
ENDBRANCH   6  19
ENDBRANCH   4   6
ENDBRANCH   3   4
ENDBRANCH   2   3
ENDBRANCH   1   2
BRANCH   1  28
ATOM     28  O   UNL     1       2.955   3.462   6.820  1.00  0.00    -0.374 OA
BRANCH  28  29
ATOM     29  C   UNL     1       3.271   2.850   5.559  1.00  0.00     0.202 C 
BRANCH  29  30
ATOM     30  C   UNL     1       4.442   3.493   4.796  1.00  0.00     0.261 C 
BRANCH  30  31
ATOM     31  O   UNL     1       5.599   2.618   4.775  1.00  0.00    -0.460 OA
BRANCH  31  32
ATOM     32  C   UNL     1       6.811   3.196   4.972  1.00  0.00     0.338 C 
ATOM     33  O   UNL     1       7.014   4.392   5.128  1.00  0.00    -0.246 OA
BRANCH  32  34
ATOM     34  C   UNL     1       7.897   2.182   5.123  1.00  0.00     0.060 A 
ATOM     35  C   UNL     1       8.005   1.036   4.329  1.00  0.00     0.016 A 
ATOM     36  C   UNL     1       8.854   2.400   6.125  1.00  0.00     0.016 A 
ATOM     37  C   UNL     1       9.048   0.109   4.553  1.00  0.00     0.010 A 
ATOM     38  C   UNL     1       9.880   1.470   6.359  1.00  0.00     0.010 A 
ATOM     39  C   UNL     1       9.994   0.309   5.576  1.00  0.00    -0.014 A 
BRANCH  39  40
ATOM     40  C   UNL     1      11.205  -0.562   5.711  1.00  0.00     0.031 A 
ATOM     41  C   UNL     1      11.334  -1.690   6.702  1.00  0.00     0.074 A 
ATOM     42  C   UNL     1      12.283  -0.254   4.971  1.00  0.00     0.049 A 
ATOM     43  N   UNL     1      12.321  -2.527   6.923  1.00  0.00    -0.248 NA
ATOM     44  C   UNL     1      10.193  -1.894   7.585  1.00  0.00     0.031 C 
ATOM     45  C   UNL     1      12.354   0.846   4.013  1.00  0.00     0.029 A 
ATOM     46  N   UNL     1      13.530  -0.821   4.937  1.00  0.00    -0.354 N 
ATOM     47  C   UNL     1      11.902  -3.360   7.960  1.00  0.00     0.074 A 
ATOM     48  C   UNL     1      10.589  -2.896   8.355  1.00  0.00     0.031 C 
ATOM     49  C   UNL     1      13.589   0.885   3.493  1.00  0.00     0.029 A 
ATOM     50  C   UNL     1      14.393  -0.180   4.090  1.00  0.00     0.049 A 
ATOM     51  H   UNL     1      13.780  -1.611   5.469  1.00  0.00     0.167 HD
ATOM     52  C   UNL     1      12.540  -4.417   8.527  1.00  0.00     0.037 A 
ATOM     53  C   UNL     1      15.689  -0.415   3.821  1.00  0.00     0.037 A 
ATOM     54  C   UNL     1      13.864  -4.858   8.162  1.00  0.00     0.049 A 
ATOM     55  C   UNL     1      16.396  -1.573   4.462  1.00  0.00     0.074 A 
ATOM     56  C   UNL     1      14.565  -5.968   8.608  1.00  0.00     0.029 A 
ATOM     57  N   UNL     1      14.705  -4.187   7.287  1.00  0.00    -0.354 N 
ATOM     58  N   UNL     1      15.947  -2.438   5.337  1.00  0.00    -0.248 NA
ATOM     59  C   UNL     1      17.790  -1.795   4.055  1.00  0.00     0.031 C 
ATOM     60  C   UNL     1      15.851  -5.930   8.054  1.00  0.00     0.029 A 
ATOM     61  C   UNL     1      15.931  -4.831   7.215  1.00  0.00     0.049 A 
ATOM     62  H   UNL     1      14.466  -3.372   6.790  1.00  0.00     0.167 HD
ATOM     63  C   UNL     1      16.995  -3.321   5.571  1.00  0.00     0.074 A 
ATOM     64  C   UNL     1      18.095  -2.894   4.730  1.00  0.00     0.031 C 
ATOM     65  C   UNL     1      17.037  -4.391   6.403  1.00  0.00     0.037 A 
BRANCH  52  66
ATOM     66  C   UNL     1      11.822  -5.174   9.616  1.00  0.00     0.057 A 
ATOM     67  C   UNL     1      12.305  -5.177  10.932  1.00  0.00     0.134 A 
ATOM     68  C   UNL     1      10.682  -5.949   9.353  1.00  0.00     0.134 A 
ATOM     69  F   UNL     1      13.400  -4.474  11.258  1.00  0.00    -0.206 F 
ATOM     70  C   UNL     1      11.680  -5.913  11.943  1.00  0.00     0.040 A 
ATOM     71  C   UNL     1      10.033  -6.667  10.361  1.00  0.00     0.040 A 
ATOM     72  F   UNL     1      10.163  -5.997   8.117  1.00  0.00    -0.206 F 
ATOM     73  C   UNL     1      10.536  -6.654  11.661  1.00  0.00     0.006 A 
ENDBRANCH  52  66
BRANCH  53  74
ATOM     74  C   UNL     1      16.382   0.465   2.854  1.00  0.00     0.057 A 
ATOM     75  C   UNL     1      16.709   1.786   3.180  1.00  0.00     0.134 A 
ATOM     76  C   UNL     1      16.681   0.018   1.564  1.00  0.00     0.134 A 
ATOM     77  F   UNL     1      16.429   2.272   4.398  1.00  0.00    -0.206 F 
ATOM     78  C   UNL     1      17.297   2.639   2.248  1.00  0.00     0.040 A 
ATOM     79  C   UNL     1      17.292   0.853   0.630  1.00  0.00     0.040 A 
ATOM     80  F   UNL     1      16.399  -1.243   1.204  1.00  0.00    -0.206 F 
ATOM     81  C   UNL     1      17.593   2.171   0.969  1.00  0.00     0.006 A 
ENDBRANCH  53  74
BRANCH  65  82
ATOM     82  C   UNL     1      18.316  -5.179   6.438  1.00  0.00     0.057 A 
ATOM     83  C   UNL     1      18.379  -6.470   5.898  1.00  0.00     0.134 A 
ATOM     84  C   UNL     1      19.490  -4.661   7.003  1.00  0.00     0.134 A 
ATOM     85  F   UNL     1      17.292  -7.033   5.349  1.00  0.00    -0.206 F 
ATOM     86  C   UNL     1      19.561  -7.212   5.910  1.00  0.00     0.040 A 
ATOM     87  C   UNL     1      20.686  -5.382   6.995  1.00  0.00     0.040 A 
ATOM     88  F   UNL     1      19.505  -3.425   7.525  1.00  0.00    -0.206 F 
ATOM     89  C   UNL     1      20.722  -6.664   6.451  1.00  0.00     0.006 A 
ENDBRANCH  65  82
ENDBRANCH  39  40
ENDBRANCH  32  34
ENDBRANCH  31  32
ENDBRANCH  30  31
ENDBRANCH  29  30
ENDBRANCH  28  29
ENDBRANCH   1  28
TORSDOF 19
