REMARK SMILES CS(=O)(=O)c1ccc(N2N=C(C(=O)OCCOCCOC(=O)c3ccc(-c4c5nc(c(-c6c(F)cccc6F)c6ccc([nH]6)c(-c6c(F)cccc6F)c6nc(c(-c7c(F)cccc7F)c7ccc4[nH]7)C=C6)C=C5)cc3)C[C@H]2c2cccs2)cc1
REMARK SMILES IDX 17 1 16 2 15 3 14 4 12 5 13 6 11 7 9 8 10 9 78 10 77 11 8 12
REMARK SMILES IDX 5 13 6 14 85 15 7 16 84 17 2 18 1 19 3 20 4 21 79 22 80 23
REMARK SMILES IDX 83 24 81 25 82 26 18 27 19 28 20 29 21 30 22 31 23 32 24 33
REMARK SMILES IDX 76 34 25 35 75 36 26 37 27 38 28 39 69 40 29 41 74 42 68 43
REMARK SMILES IDX 70 44 30 45 73 46 67 47 66 48 31 50 57 51 40 52 56 53 41 54
REMARK SMILES IDX 44 55 55 56 71 57 42 58 43 59 54 61 72 62 45 63 32 64 33 65
REMARK SMILES IDX 38 66 34 67 35 68 37 69 39 70 36 71 58 72 59 73 64 74 60 75
REMARK SMILES IDX 61 76 63 77 65 78 62 79 46 80 47 81 52 82 48 83 49 84 51 85
REMARK SMILES IDX 53 86 50 87
REMARK H PARENT 70 49 44 60
REMARK Flexibility Score: inf
ROOT
ATOM      1  O   UNL     1       0.731 -11.116  -2.234  1.00  0.00    -0.374 OA
ENDROOT
BRANCH   1   2
ATOM      2  C   UNL     1       1.918 -11.908  -2.132  1.00  0.00     0.202 C 
BRANCH   2   3
ATOM      3  C   UNL     1       3.210 -11.105  -2.285  1.00  0.00     0.261 C 
BRANCH   3   4
ATOM      4  O   UNL     1       3.354 -10.245  -1.145  1.00  0.00    -0.459 OA
BRANCH   4   5
ATOM      5  C   UNL     1       3.722  -8.983  -1.429  1.00  0.00     0.354 C 
ATOM      6  O   UNL     1       4.212  -8.558  -2.458  1.00  0.00    -0.245 OA
BRANCH   5   7
ATOM      7  C   UNL     1       3.323  -8.098  -0.279  1.00  0.00     0.148 C 
ATOM      8  N   UNL     1       2.601  -6.442   0.813  1.00  0.00    -0.256 N 
ATOM      9  N   UNL     1       2.719  -6.960  -0.443  1.00  0.00    -0.169 NA
ATOM     10  C   UNL     1       3.456  -7.138   1.788  1.00  0.00     0.154 C 
ATOM     11  C   UNL     1       3.527  -8.530   1.142  1.00  0.00     0.099 C 
BRANCH   8  12
ATOM     12  C   UNL     1       2.088  -5.167   0.968  1.00  0.00     0.060 A 
ATOM     13  C   UNL     1       0.993  -2.599   1.263  1.00  0.00     0.067 A 
ATOM     14  C   UNL     1       0.155  -3.713   1.296  1.00  0.00     0.022 A 
ATOM     15  C   UNL     1       2.369  -2.749   1.083  1.00  0.00     0.022 A 
ATOM     16  C   UNL     1       0.708  -4.989   1.147  1.00  0.00     0.029 A 
ATOM     17  C   UNL     1       2.903  -4.029   0.919  1.00  0.00     0.029 A 
BRANCH  13  18
ATOM     18  S   UNL     1       0.317  -0.968   1.453  1.00  0.00     0.175 S 
ATOM     19  C   UNL     1       0.815  -0.109  -0.017  1.00  0.00     0.163 C 
ATOM     20  O   UNL     1       0.991  -0.366   2.587  1.00  0.00    -0.224 OA
ATOM     21  O   UNL     1      -1.130  -1.082   1.419  1.00  0.00    -0.224 OA
ENDBRANCH  13  18
ENDBRANCH   8  12
BRANCH  10  22
ATOM     22  C   UNL     1       4.824  -6.522   2.056  1.00  0.00     0.030 A 
ATOM     23  C   UNL     1       5.135  -5.572   3.016  1.00  0.00     0.017 A 
ATOM     24  S   UNL     1       6.217  -6.910   1.122  1.00  0.00    -0.147 S 
ATOM     25  C   UNL     1       6.504  -5.178   2.982  1.00  0.00     0.012 A 
ATOM     26  C   UNL     1       7.210  -5.852   2.014  1.00  0.00     0.065 A 
ENDBRANCH  10  22
ENDBRANCH   5   7
ENDBRANCH   4   5
ENDBRANCH   3   4
ENDBRANCH   2   3
ENDBRANCH   1   2
BRANCH   1  27
ATOM     27  C   UNL     1       0.320 -10.417  -1.056  1.00  0.00     0.202 C 
BRANCH  27  28
ATOM     28  C   UNL     1      -0.518 -11.251  -0.081  1.00  0.00     0.261 C 
BRANCH  28  29
ATOM     29  O   UNL     1       0.266 -12.306   0.509  1.00  0.00    -0.460 OA
BRANCH  29  30
ATOM     30  C   UNL     1      -0.091 -13.557   0.129  1.00  0.00     0.338 C 
ATOM     31  O   UNL     1      -1.052 -13.878  -0.548  1.00  0.00    -0.246 OA
BRANCH  30  32
ATOM     32  C   UNL     1       0.958 -14.523   0.516  1.00  0.00     0.060 A 
ATOM     33  C   UNL     1       1.379 -15.434  -0.461  1.00  0.00     0.016 A 
ATOM     34  C   UNL     1       1.479 -14.585   1.811  1.00  0.00     0.016 A 
ATOM     35  C   UNL     1       2.288 -16.438  -0.135  1.00  0.00     0.010 A 
ATOM     36  C   UNL     1       2.388 -15.599   2.139  1.00  0.00     0.010 A 
ATOM     37  C   UNL     1       2.772 -16.548   1.175  1.00  0.00    -0.014 A 
BRANCH  37  38
ATOM     38  C   UNL     1       3.588 -17.730   1.545  1.00  0.00     0.031 A 
ATOM     39  C   UNL     1       2.921 -18.918   2.179  1.00  0.00     0.074 A 
ATOM     40  C   UNL     1       4.904 -17.765   1.274  1.00  0.00     0.049 A 
ATOM     41  N   UNL     1       3.437 -20.069   2.530  1.00  0.00    -0.248 NA
ATOM     42  C   UNL     1       1.480 -18.795   2.452  1.00  0.00     0.031 C 
ATOM     43  C   UNL     1       5.667 -16.687   0.647  1.00  0.00     0.029 A 
ATOM     44  N   UNL     1       5.832 -18.752   1.493  1.00  0.00    -0.354 N 
ATOM     45  C   UNL     1       2.386 -20.808   3.058  1.00  0.00     0.074 A 
ATOM     46  C   UNL     1       1.210 -19.965   3.012  1.00  0.00     0.031 C 
ATOM     47  C   UNL     1       6.950 -17.071   0.534  1.00  0.00     0.029 A 
ATOM     48  C   UNL     1       7.100 -18.414   1.092  1.00  0.00     0.049 A 
ATOM     49  H   UNL     1       5.608 -19.621   1.898  1.00  0.00     0.167 HD
ATOM     50  C   UNL     1       2.396 -22.079   3.526  1.00  0.00     0.037 A 
ATOM     51  C   UNL     1       8.252 -19.107   1.172  1.00  0.00     0.037 A 
ATOM     52  C   UNL     1       3.561 -22.922   3.574  1.00  0.00     0.049 A 
ATOM     53  C   UNL     1       8.247 -20.498   1.744  1.00  0.00     0.074 A 
ATOM     54  C   UNL     1       3.658 -24.236   3.999  1.00  0.00     0.029 A 
ATOM     55  N   UNL     1       4.834 -22.530   3.193  1.00  0.00    -0.354 N 
ATOM     56  N   UNL     1       7.238 -21.203   2.195  1.00  0.00    -0.248 NA
ATOM     57  C   UNL     1       9.542 -21.192   1.812  1.00  0.00     0.031 C 
ATOM     58  C   UNL     1       4.999 -24.627   3.912  1.00  0.00     0.029 A 
ATOM     59  C   UNL     1       5.729 -23.567   3.399  1.00  0.00     0.049 A 
ATOM     60  H   UNL     1       5.068 -21.645   2.830  1.00  0.00     0.167 HD
ATOM     61  C   UNL     1       7.771 -22.426   2.582  1.00  0.00     0.074 A 
ATOM     62  C   UNL     1       9.191 -22.373   2.302  1.00  0.00     0.031 C 
ATOM     63  C   UNL     1       7.140 -23.498   3.121  1.00  0.00     0.037 A 
BRANCH  50  64
ATOM     64  C   UNL     1       1.101 -22.631   4.038  1.00  0.00     0.057 A 
ATOM     65  C   UNL     1       0.076 -23.026   3.169  1.00  0.00     0.134 A 
ATOM     66  C   UNL     1       0.888 -22.798   5.412  1.00  0.00     0.134 A 
ATOM     67  F   UNL     1       0.214 -22.878   1.843  1.00  0.00    -0.206 F 
ATOM     68  C   UNL     1      -1.124 -23.552   3.651  1.00  0.00     0.040 A 
ATOM     69  C   UNL     1      -0.299 -23.341   5.904  1.00  0.00     0.040 A 
ATOM     70  F   UNL     1       1.833 -22.441   6.295  1.00  0.00    -0.206 F 
ATOM     71  C   UNL     1      -1.311 -23.716   5.022  1.00  0.00     0.006 A 
ENDBRANCH  50  64
BRANCH  51  72
ATOM     72  C   UNL     1       9.515 -18.494   0.696  1.00  0.00     0.057 A 
ATOM     73  C   UNL     1      10.135 -18.930  -0.479  1.00  0.00     0.134 A 
ATOM     74  C   UNL     1      10.138 -17.468   1.416  1.00  0.00     0.134 A 
ATOM     75  F   UNL     1       9.597 -19.927  -1.197  1.00  0.00    -0.206 F 
ATOM     76  C   UNL     1      11.338 -18.374  -0.918  1.00  0.00     0.040 A 
ATOM     77  C   UNL     1      11.330 -16.890   0.979  1.00  0.00     0.040 A 
ATOM     78  F   UNL     1       9.590 -17.009   2.551  1.00  0.00    -0.206 F 
ATOM     79  C   UNL     1      11.936 -17.347  -0.190  1.00  0.00     0.006 A 
ENDBRANCH  51  72
BRANCH  63  80
ATOM     80  C   UNL     1       7.978 -24.702   3.430  1.00  0.00     0.057 A 
ATOM     81  C   UNL     1       8.838 -24.734   4.535  1.00  0.00     0.134 A 
ATOM     82  C   UNL     1       7.899 -25.853   2.636  1.00  0.00     0.134 A 
ATOM     83  F   UNL     1       8.968 -23.658   5.326  1.00  0.00    -0.206 F 
ATOM     84  C   UNL     1       9.605 -25.863   4.828  1.00  0.00     0.040 A 
ATOM     85  C   UNL     1       8.645 -26.995   2.931  1.00  0.00     0.040 A 
ATOM     86  F   UNL     1       7.089 -25.889   1.568  1.00  0.00    -0.206 F 
ATOM     87  C   UNL     1       9.505 -27.000   4.028  1.00  0.00     0.006 A 
ENDBRANCH  63  80
ENDBRANCH  37  38
ENDBRANCH  30  32
ENDBRANCH  29  30
ENDBRANCH  28  29
ENDBRANCH  27  28
ENDBRANCH   1  27
TORSDOF 17
