REMARK SMILES O=C(OCCOCCOC(=O)c1ccccc1C[N@H+]1CCCC[C@@H]1CCn1cccn1)c1ccc(-c2c3nc(c(-c4c(F)cccc4F)c4ccc([nH]4)c(-c4c(F)cccc4F)c4nc(c(-c5c(F)cccc5F)c5ccc2[nH]5)C=C4)C=C3)cc1
REMARK SMILES IDX 7 1 6 2 5 3 4 4 3 5 2 6 1 7 32 8 33 9 85 10 34 11 84 12
REMARK SMILES IDX 35 13 36 14 37 15 78 16 38 17 83 18 77 19 79 20 39 21 82 22
REMARK SMILES IDX 76 23 75 24 40 26 66 27 49 28 65 29 50 30 53 31 64 32 80 33
REMARK SMILES IDX 51 34 52 35 63 37 81 38 54 39 41 40 42 41 47 42 43 43 44 44
REMARK SMILES IDX 46 45 48 46 45 47 67 48 68 49 73 50 69 51 70 52 72 53 74 54
REMARK SMILES IDX 71 55 55 56 56 57 61 58 57 59 58 60 60 61 62 62 59 63 8 64
REMARK SMILES IDX 9 65 10 66 11 67 12 68 13 69 17 70 14 71 16 72 15 73 18 74
REMARK SMILES IDX 19 75 20 76 24 77 21 79 23 80 22 81 25 82 26 83 27 84 28 85
REMARK SMILES IDX 31 86 29 87 30 88
REMARK H PARENT 79 25 53 36 19 78
REMARK Flexibility Score: inf
ROOT
ATOM      1  C   UNL     1       3.361   1.587   1.381  1.00  0.00     0.202 C 
ENDROOT
BRANCH   1   2
ATOM      2  O   UNL     1       4.505   0.787   1.044  1.00  0.00    -0.374 OA
BRANCH   2   3
ATOM      3  C   UNL     1       4.991   0.783  -0.299  1.00  0.00     0.202 C 
BRANCH   3   4
ATOM      4  C   UNL     1       4.644  -0.350  -1.272  1.00  0.00     0.261 C 
BRANCH   4   5
ATOM      5  O   UNL     1       3.265  -0.321  -1.683  1.00  0.00    -0.460 OA
BRANCH   5   6
ATOM      6  C   UNL     1       2.214  -0.341  -0.837  1.00  0.00     0.338 C 
ATOM      7  O   UNL     1       1.193   0.291  -1.090  1.00  0.00    -0.246 OA
BRANCH   6   8
ATOM      8  C   UNL     1       2.218  -1.309   0.289  1.00  0.00     0.060 A 
ATOM      9  C   UNL     1       3.361  -1.922   0.808  1.00  0.00     0.016 A 
ATOM     10  C   UNL     1       0.958  -1.700   0.752  1.00  0.00     0.016 A 
ATOM     11  C   UNL     1       3.267  -3.132   1.428  1.00  0.00     0.010 A 
ATOM     12  C   UNL     1       0.847  -2.861   1.475  1.00  0.00     0.010 A 
ATOM     13  C   UNL     1       1.998  -3.623   1.657  1.00  0.00    -0.014 A 
BRANCH  13  14
ATOM     14  C   UNL     1       1.920  -4.978   2.132  1.00  0.00     0.031 A 
ATOM     15  C   UNL     1       2.530  -5.156   3.475  1.00  0.00     0.074 A 
ATOM     16  C   UNL     1       1.276  -5.860   1.346  1.00  0.00     0.049 A 
ATOM     17  N   UNL     1       3.418  -6.016   3.851  1.00  0.00    -0.248 NA
ATOM     18  C   UNL     1       2.256  -4.108   4.482  1.00  0.00     0.031 C 
ATOM     19  C   UNL     1       0.569  -5.603   0.081  1.00  0.00     0.029 A 
ATOM     20  N   UNL     1       0.977  -7.156   1.601  1.00  0.00    -0.354 N 
ATOM     21  C   UNL     1       3.627  -5.762   5.205  1.00  0.00     0.074 A 
ATOM     22  C   UNL     1       3.046  -4.480   5.486  1.00  0.00     0.031 C 
ATOM     23  C   UNL     1      -0.299  -6.607  -0.157  1.00  0.00     0.029 A 
ATOM     24  C   UNL     1      -0.102  -7.625   0.852  1.00  0.00     0.049 A 
ATOM     25  H   UNL     1       1.470  -7.710   2.249  1.00  0.00     0.167 HD
ATOM     26  C   UNL     1       3.990  -6.761   6.051  1.00  0.00     0.037 A 
ATOM     27  C   UNL     1      -0.847  -8.700   1.202  1.00  0.00     0.037 A 
ATOM     28  C   UNL     1       4.674  -7.813   5.346  1.00  0.00     0.049 A 
ATOM     29  C   UNL     1      -0.017  -9.489   2.159  1.00  0.00     0.074 A 
ATOM     30  C   UNL     1       5.856  -7.877   4.635  1.00  0.00     0.029 A 
ATOM     31  N   UNL     1       3.946  -8.914   4.966  1.00  0.00    -0.354 N 
ATOM     32  N   UNL     1       1.112 -10.059   1.820  1.00  0.00    -0.248 NA
ATOM     33  C   UNL     1      -0.157  -9.174   3.577  1.00  0.00     0.031 C 
ATOM     34  C   UNL     1       5.569  -8.718   3.521  1.00  0.00     0.029 A 
ATOM     35  C   UNL     1       4.260  -9.182   3.657  1.00  0.00     0.049 A 
ATOM     36  H   UNL     1       3.316  -9.419   5.529  1.00  0.00     0.167 HD
ATOM     37  C   UNL     1       1.974  -9.807   2.882  1.00  0.00     0.074 A 
ATOM     38  C   UNL     1       1.121  -9.289   3.952  1.00  0.00     0.031 C 
ATOM     39  C   UNL     1       3.329  -9.754   2.711  1.00  0.00     0.037 A 
BRANCH  26  40
ATOM     40  C   UNL     1       3.327  -6.963   7.391  1.00  0.00     0.057 A 
ATOM     41  C   UNL     1       3.804  -7.973   8.241  1.00  0.00     0.134 A 
ATOM     42  C   UNL     1       2.066  -6.430   7.742  1.00  0.00     0.134 A 
ATOM     43  F   UNL     1       4.989  -8.560   8.014  1.00  0.00    -0.206 F 
ATOM     44  C   UNL     1       3.044  -8.476   9.304  1.00  0.00     0.040 A 
ATOM     45  C   UNL     1       1.321  -6.894   8.827  1.00  0.00     0.040 A 
ATOM     46  F   UNL     1       1.437  -5.506   7.008  1.00  0.00    -0.206 F 
ATOM     47  C   UNL     1       1.792  -7.946   9.590  1.00  0.00     0.006 A 
ENDBRANCH  26  40
BRANCH  27  48
ATOM     48  C   UNL     1      -2.321  -8.796   1.114  1.00  0.00     0.057 A 
ATOM     49  C   UNL     1      -2.975 -10.031   1.166  1.00  0.00     0.134 A 
ATOM     50  C   UNL     1      -3.146  -7.657   1.208  1.00  0.00     0.134 A 
ATOM     51  F   UNL     1      -2.270 -11.172   1.137  1.00  0.00    -0.206 F 
ATOM     52  C   UNL     1      -4.368 -10.130   1.300  1.00  0.00     0.040 A 
ATOM     53  C   UNL     1      -4.536  -7.741   1.332  1.00  0.00     0.040 A 
ATOM     54  F   UNL     1      -2.625  -6.423   1.264  1.00  0.00    -0.206 F 
ATOM     55  C   UNL     1      -5.152  -8.983   1.388  1.00  0.00     0.006 A 
ENDBRANCH  27  48
BRANCH  39  56
ATOM     56  C   UNL     1       3.884 -10.104   1.355  1.00  0.00     0.057 A 
ATOM     57  C   UNL     1       3.692  -9.317   0.206  1.00  0.00     0.134 A 
ATOM     58  C   UNL     1       4.796 -11.156   1.246  1.00  0.00     0.134 A 
ATOM     59  F   UNL     1       2.926  -8.222   0.241  1.00  0.00    -0.206 F 
ATOM     60  C   UNL     1       4.345  -9.588  -1.001  1.00  0.00     0.040 A 
ATOM     61  C   UNL     1       5.480 -11.420   0.056  1.00  0.00     0.040 A 
ATOM     62  F   UNL     1       5.086 -11.909   2.318  1.00  0.00    -0.206 F 
ATOM     63  C   UNL     1       5.250 -10.640  -1.075  1.00  0.00     0.006 A 
ENDBRANCH  39  56
ENDBRANCH  13  14
ENDBRANCH   6   8
ENDBRANCH   5   6
ENDBRANCH   4   5
ENDBRANCH   3   4
ENDBRANCH   2   3
ENDBRANCH   1   2
BRANCH   1  64
ATOM     64  C   UNL     1       3.410   3.108   1.216  1.00  0.00     0.261 C 
BRANCH  64  65
ATOM     65  O   UNL     1       3.728   3.485  -0.123  1.00  0.00    -0.460 OA
BRANCH  65  66
ATOM     66  C   UNL     1       5.009   3.846  -0.362  1.00  0.00     0.338 C 
ATOM     67  O   UNL     1       5.906   3.954   0.464  1.00  0.00    -0.246 OA
BRANCH  66  68
ATOM     68  C   UNL     1       5.226   3.865  -1.830  1.00  0.00     0.068 A 
ATOM     69  C   UNL     1       6.360   3.180  -2.305  1.00  0.00     0.016 A 
ATOM     70  C   UNL     1       4.350   4.510  -2.720  1.00  0.00     0.021 A 
ATOM     71  C   UNL     1       6.625   3.111  -3.669  1.00  0.00     0.001 A 
ATOM     72  C   UNL     1       4.635   4.415  -4.092  1.00  0.00     0.010 A 
ATOM     73  C   UNL     1       5.762   3.734  -4.562  1.00  0.00     0.001 A 
BRANCH  70  74
ATOM     74  C   UNL     1       3.192   5.375  -2.253  1.00  0.00     0.300 C 
BRANCH  74  75
ATOM     75  N   UNL     1       3.529   6.787  -1.947  1.00  0.00    -0.329 N 
ATOM     76  C   UNL     1       4.558   6.857  -0.892  1.00  0.00     0.262 C 
ATOM     77  C   UNL     1       3.864   7.605  -3.136  1.00  0.00     0.186 C 
ATOM     78  H   UNL     1       2.677   7.218  -1.588  1.00  0.00     0.348 HD
ATOM     79  C   UNL     1       4.919   8.264  -0.450  1.00  0.00     0.062 C 
ATOM     80  C   UNL     1       4.199   9.049  -2.694  1.00  0.00     0.065 C 
ATOM     81  C   UNL     1       5.313   9.095  -1.655  1.00  0.00     0.012 C 
BRANCH  77  82
ATOM     82  C   UNL     1       2.686   7.639  -4.150  1.00  0.00     0.088 C 
BRANCH  82  83
ATOM     83  C   UNL     1       2.978   8.342  -5.477  1.00  0.00     0.150 C 
BRANCH  83  84
ATOM     84  N   UNL     1       4.050   7.720  -6.232  1.00  0.00    -0.273 N 
ATOM     85  C   UNL     1       5.307   8.214  -6.428  1.00  0.00     0.108 A 
ATOM     86  N   UNL     1       3.856   6.520  -6.814  1.00  0.00    -0.182 NA
ATOM     87  C   UNL     1       5.987   7.253  -7.139  1.00  0.00     0.042 A 
ATOM     88  C   UNL     1       5.044   6.232  -7.351  1.00  0.00     0.135 A 
ENDBRANCH  83  84
ENDBRANCH  82  83
ENDBRANCH  77  82
ENDBRANCH  74  75
ENDBRANCH  70  74
ENDBRANCH  66  68
ENDBRANCH  65  66
ENDBRANCH  64  65
ENDBRANCH   1  64
TORSDOF 19
