REMARK SMILES C[NH2+][C@@]1(C(=O)OCCOCCOC(=O)c2ccc(-c3c4nc(c(-c5c(F)cccc5F)c5ccc([nH]5)c(-c5c(F)cccc5F)c5nc(c(-c6c(F)cccc6F)c6ccc3[nH]6)C=C5)C=C4)cc2)CCC[C@@H](Oc2cc(F)cc(F)c2)C1
REMARK SMILES IDX 9 1 8 2 7 3 6 4 4 5 5 6 3 7 69 8 82 9 70 10 72 11 71 12 2 13
REMARK SMILES IDX 1 14 73 17 74 18 75 19 81 20 76 21 79 22 77 23 78 24 80 25
REMARK SMILES IDX 10 26 11 27 12 28 13 29 14 30 15 31 16 32 68 33 17 34 67 35
REMARK SMILES IDX 18 36 19 37 20 38 61 39 21 40 66 41 60 42 62 43 22 44 65 45
REMARK SMILES IDX 59 46 58 47 23 49 49 50 32 51 48 52 33 53 36 54 47 55 63 56
REMARK SMILES IDX 34 57 35 58 46 60 64 61 37 62 24 63 25 64 30 65 26 66 27 67
REMARK SMILES IDX 29 68 31 69 28 70 50 71 51 72 56 73 52 74 53 75 55 76 57 77
REMARK SMILES IDX 54 78 38 79 39 80 44 81 40 82 41 83 43 84 45 85 42 86
REMARK H PARENT 2 15 2 16 62 48 36 59
REMARK Flexibility Score: inf
ROOT
ATOM      1  O   UNL     1      -1.119   2.613  -3.267  1.00  0.00    -0.374 OA
ENDROOT
BRANCH   1   2
ATOM      2  C   UNL     1      -2.424   2.043  -3.291  1.00  0.00     0.202 C 
BRANCH   2   3
ATOM      3  C   UNL     1      -2.675   0.845  -2.372  1.00  0.00     0.261 C 
BRANCH   3   4
ATOM      4  O   UNL     1      -2.328   1.123  -1.005  1.00  0.00    -0.459 OA
BRANCH   4   5
ATOM      5  C   UNL     1      -1.538   0.185  -0.416  1.00  0.00     0.368 C 
ATOM      6  O   UNL     1      -1.278  -0.901  -0.929  1.00  0.00    -0.245 OA
BRANCH   5   7
ATOM      7  C   UNL     1      -1.033   0.590   1.004  1.00  0.00     0.197 C 
ATOM      8  C   UNL     1      -1.530  -0.499   1.982  1.00  0.00     0.081 C 
ATOM      9  C   UNL     1      -1.488   1.973   1.527  1.00  0.00     0.126 C 
ATOM     10  C   UNL     1      -3.046  -0.415   2.196  1.00  0.00     0.011 C 
ATOM     11  C   UNL     1      -2.967   2.099   1.904  1.00  0.00     0.180 C 
ATOM     12  C   UNL     1      -3.450   0.936   2.778  1.00  0.00     0.046 C 
BRANCH   7  13
ATOM     13  N   UNL     1       0.463   0.710   1.028  1.00  0.00    -0.334 N 
ATOM     14  C   UNL     1       1.220  -0.325   0.338  1.00  0.00     0.331 C 
ATOM     15  H   UNL     1       0.707   1.604   0.603  1.00  0.00     0.347 HD
ATOM     16  H   UNL     1       0.721   0.615   2.010  1.00  0.00     0.347 HD
ENDBRANCH   7  13
BRANCH  11  17
ATOM     17  O   UNL     1      -3.286   3.412   2.433  1.00  0.00    -0.490 OA
BRANCH  17  18
ATOM     18  C   UNL     1      -2.886   3.679   3.714  1.00  0.00     0.125 A 
ATOM     19  C   UNL     1      -3.846   3.668   4.725  1.00  0.00     0.085 A 
ATOM     20  C   UNL     1      -1.582   4.075   4.004  1.00  0.00     0.085 A 
ATOM     21  C   UNL     1      -3.468   3.969   6.032  1.00  0.00     0.129 A 
ATOM     22  C   UNL     1      -1.223   4.350   5.322  1.00  0.00     0.129 A 
ATOM     23  F   UNL     1      -4.389   3.946   7.004  1.00  0.00    -0.207 F 
ATOM     24  C   UNL     1      -2.156   4.293   6.346  1.00  0.00     0.078 A 
ATOM     25  F   UNL     1       0.045   4.679   5.602  1.00  0.00    -0.207 F 
ENDBRANCH  17  18
ENDBRANCH  11  17
ENDBRANCH   5   7
ENDBRANCH   4   5
ENDBRANCH   3   4
ENDBRANCH   2   3
ENDBRANCH   1   2
BRANCH   1  26
ATOM     26  C   UNL     1      -0.723   3.322  -2.092  1.00  0.00     0.202 C 
BRANCH  26  27
ATOM     27  C   UNL     1      -1.480   4.620  -1.769  1.00  0.00     0.261 C 
BRANCH  27  28
ATOM     28  O   UNL     1      -2.875   4.406  -1.470  1.00  0.00    -0.460 OA
BRANCH  28  29
ATOM     29  C   UNL     1      -3.735   5.082  -2.267  1.00  0.00     0.338 C 
ATOM     30  O   UNL     1      -3.455   5.882  -3.154  1.00  0.00    -0.246 OA
BRANCH  29  31
ATOM     31  C   UNL     1      -5.116   4.612  -2.068  1.00  0.00     0.060 A 
ATOM     32  C   UNL     1      -5.776   4.042  -3.166  1.00  0.00     0.016 A 
ATOM     33  C   UNL     1      -5.801   4.850  -0.875  1.00  0.00     0.016 A 
ATOM     34  C   UNL     1      -7.136   3.749  -3.090  1.00  0.00     0.010 A 
ATOM     35  C   UNL     1      -7.172   4.569  -0.806  1.00  0.00     0.010 A 
ATOM     36  C   UNL     1      -7.852   4.051  -1.924  1.00  0.00    -0.014 A 
BRANCH  36  37
ATOM     37  C   UNL     1      -9.334   3.961  -1.939  1.00  0.00     0.031 A 
ATOM     38  C   UNL     1     -10.141   5.205  -2.195  1.00  0.00     0.074 A 
ATOM     39  C   UNL     1      -9.954   2.781  -1.771  1.00  0.00     0.049 A 
ATOM     40  N   UNL     1     -11.441   5.356  -2.243  1.00  0.00    -0.248 NA
ATOM     41  C   UNL     1      -9.382   6.442  -2.432  1.00  0.00     0.031 C 
ATOM     42  C   UNL     1      -9.287   1.498  -1.559  1.00  0.00     0.029 A 
ATOM     43  N   UNL     1     -11.292   2.473  -1.751  1.00  0.00    -0.354 N 
ATOM     44  C   UNL     1     -11.655   6.701  -2.515  1.00  0.00     0.074 A 
ATOM     45  C   UNL     1     -10.353   7.329  -2.594  1.00  0.00     0.031 C 
ATOM     46  C   UNL     1     -10.220   0.541  -1.418  1.00  0.00     0.029 A 
ATOM     47  C   UNL     1     -11.547   1.147  -1.505  1.00  0.00     0.049 A 
ATOM     48  H   UNL     1     -12.001   3.141  -1.898  1.00  0.00     0.167 HD
ATOM     49  C   UNL     1     -12.828   7.354  -2.693  1.00  0.00     0.037 A 
ATOM     50  C   UNL     1     -12.719   0.501  -1.350  1.00  0.00     0.037 A 
ATOM     51  C   UNL     1     -14.124   6.734  -2.613  1.00  0.00     0.049 A 
ATOM     52  C   UNL     1     -14.011   1.262  -1.480  1.00  0.00     0.074 A 
ATOM     53  C   UNL     1     -15.370   7.312  -2.789  1.00  0.00     0.029 A 
ATOM     54  N   UNL     1     -14.341   5.396  -2.325  1.00  0.00    -0.354 N 
ATOM     55  N   UNL     1     -14.201   2.529  -1.757  1.00  0.00    -0.248 NA
ATOM     56  C   UNL     1     -15.253   0.501  -1.277  1.00  0.00     0.031 C 
ATOM     57  C   UNL     1     -16.343   6.331  -2.567  1.00  0.00     0.029 A 
ATOM     58  C   UNL     1     -15.701   5.133  -2.296  1.00  0.00     0.049 A 
ATOM     59  H   UNL     1     -13.634   4.730  -2.166  1.00  0.00     0.167 HD
ATOM     60  C   UNL     1     -15.578   2.711  -1.787  1.00  0.00     0.074 A 
ATOM     61  C   UNL     1     -16.177   1.422  -1.511  1.00  0.00     0.031 C 
ATOM     62  C   UNL     1     -16.283   3.844  -2.024  1.00  0.00     0.037 A 
BRANCH  49  63
ATOM     63  C   UNL     1     -12.761   8.826  -2.973  1.00  0.00     0.057 A 
ATOM     64  C   UNL     1     -12.344   9.323  -4.214  1.00  0.00     0.134 A 
ATOM     65  C   UNL     1     -13.148   9.756  -2.000  1.00  0.00     0.134 A 
ATOM     66  F   UNL     1     -11.948   8.485  -5.184  1.00  0.00    -0.206 F 
ATOM     67  C   UNL     1     -12.294  10.694  -4.471  1.00  0.00     0.040 A 
ATOM     68  C   UNL     1     -13.124  11.128  -2.252  1.00  0.00     0.040 A 
ATOM     69  F   UNL     1     -13.562   9.345  -0.792  1.00  0.00    -0.206 F 
ATOM     70  C   UNL     1     -12.690  11.601  -3.489  1.00  0.00     0.006 A 
ENDBRANCH  49  63
BRANCH  50  71
ATOM     71  C   UNL     1     -12.729  -0.950  -1.037  1.00  0.00     0.057 A 
ATOM     72  C   UNL     1     -13.169  -1.893  -1.972  1.00  0.00     0.134 A 
ATOM     73  C   UNL     1     -12.317  -1.424   0.214  1.00  0.00     0.134 A 
ATOM     74  F   UNL     1     -13.599  -1.496  -3.179  1.00  0.00    -0.206 F 
ATOM     75  C   UNL     1     -13.214  -3.255  -1.670  1.00  0.00     0.040 A 
ATOM     76  C   UNL     1     -12.335  -2.785   0.522  1.00  0.00     0.040 A 
ATOM     77  F   UNL     1     -11.885  -0.570   1.154  1.00  0.00    -0.206 F 
ATOM     78  C   UNL     1     -12.790  -3.705  -0.420  1.00  0.00     0.006 A 
ENDBRANCH  50  71
BRANCH  62  79
ATOM     79  C   UNL     1     -17.780   3.737  -2.025  1.00  0.00     0.057 A 
ATOM     80  C   UNL     1     -18.510   3.590  -0.839  1.00  0.00     0.134 A 
ATOM     81  C   UNL     1     -18.500   3.823  -3.223  1.00  0.00     0.134 A 
ATOM     82  F   UNL     1     -17.879   3.489   0.340  1.00  0.00    -0.206 F 
ATOM     83  C   UNL     1     -19.904   3.514  -0.847  1.00  0.00     0.040 A 
ATOM     84  C   UNL     1     -19.895   3.772  -3.241  1.00  0.00     0.040 A 
ATOM     85  F   UNL     1     -17.861   3.973  -4.393  1.00  0.00    -0.206 F 
ATOM     86  C   UNL     1     -20.600   3.612  -2.051  1.00  0.00     0.006 A 
ENDBRANCH  62  79
ENDBRANCH  36  37
ENDBRANCH  29  31
ENDBRANCH  28  29
ENDBRANCH  27  28
ENDBRANCH  26  27
ENDBRANCH   1  26
TORSDOF 17
