REMARK SMILES CC(C)[NH2+][C@@]1(C(=O)OCCOCCOC(=O)c2ccc(-c3c4nc(c(-c5c(F)cccc5F)c5ccc([nH]5)c(-c5c(F)cccc5F)c5nc(c(-c6c(F)cccc6F)c6ccc3[nH]6)C=C5)C=C4)cc2)CCC[C@@H]1CCOC1CCOCC1
REMARK SMILES IDX 10 1 9 2 8 3 6 4 7 5 5 6 71 7 74 8 72 9 73 10 4 11 2 14 1 15
REMARK SMILES IDX 3 16 75 17 76 18 77 19 78 20 79 21 83 22 80 23 82 24 81 25
REMARK SMILES IDX 11 26 12 27 13 28 14 29 15 30 16 31 17 32 18 33 70 34 19 35
REMARK SMILES IDX 69 36 20 37 21 38 22 39 63 40 23 41 68 42 62 43 64 44 24 45
REMARK SMILES IDX 67 46 61 47 60 48 25 50 51 51 34 52 50 53 35 54 38 55 49 56
REMARK SMILES IDX 65 57 36 58 37 59 48 61 66 62 39 63 26 64 27 65 32 66 28 67
REMARK SMILES IDX 29 68 31 69 33 70 30 71 52 72 53 73 58 74 54 75 55 76 57 77
REMARK SMILES IDX 59 78 56 79 40 80 41 81 46 82 42 83 43 84 45 85 47 86 44 87
REMARK H PARENT 4 12 4 13 64 49 38 60
REMARK Flexibility Score: inf
ROOT
ATOM      1  C   UNL     1      -1.178   1.079   6.288  1.00  0.00     0.202 C 
ENDROOT
BRANCH   1   2
ATOM      2  C   UNL     1      -0.741   2.440   5.747  1.00  0.00     0.261 C 
BRANCH   2   3
ATOM      3  O   UNL     1      -1.272   2.707   4.440  1.00  0.00    -0.459 OA
BRANCH   3   4
ATOM      4  C   UNL     1      -0.330   2.954   3.493  1.00  0.00     0.368 C 
ATOM      5  O   UNL     1       0.873   3.020   3.736  1.00  0.00    -0.245 OA
BRANCH   4   6
ATOM      6  C   UNL     1      -0.910   3.162   2.056  1.00  0.00     0.197 C 
ATOM      7  C   UNL     1      -0.401   4.561   1.637  1.00  0.00     0.081 C 
ATOM      8  C   UNL     1      -2.462   3.458   1.908  1.00  0.00     0.065 C 
ATOM      9  C   UNL     1      -1.346   5.556   2.328  1.00  0.00     0.008 C 
ATOM     10  C   UNL     1      -2.625   4.785   2.660  1.00  0.00     0.011 C 
BRANCH   6  11
ATOM     11  N   UNL     1      -0.472   2.041   1.181  1.00  0.00    -0.330 N 
ATOM     12  H   UNL     1      -0.921   1.198   1.541  1.00  0.00     0.347 HD
ATOM     13  H   UNL     1      -0.734   2.364   0.250  1.00  0.00     0.347 HD
BRANCH  11  14
ATOM     14  C   UNL     1       0.961   1.719   1.025  1.00  0.00     0.176 C 
ATOM     15  C   UNL     1       1.085   0.333   0.362  1.00  0.00     0.075 C 
ATOM     16  C   UNL     1       1.739   2.707   0.153  1.00  0.00     0.075 C 
ENDBRANCH  11  14
ENDBRANCH   6  11
BRANCH   8  17
ATOM     17  C   UNL     1      -3.552   2.422   2.228  1.00  0.00     0.039 C 
BRANCH  17  18
ATOM     18  C   UNL     1      -4.093   1.501   1.100  1.00  0.00     0.161 C 
BRANCH  18  19
ATOM     19  O   UNL     1      -3.162   0.562   0.577  1.00  0.00    -0.378 OA
BRANCH  19  20
ATOM     20  C   UNL     1      -2.583   0.782  -0.718  1.00  0.00     0.122 C 
ATOM     21  C   UNL     1      -2.498   2.222  -1.208  1.00  0.00     0.060 C 
ATOM     22  C   UNL     1      -3.170  -0.072  -1.848  1.00  0.00     0.060 C 
ATOM     23  C   UNL     1      -1.687   2.324  -2.475  1.00  0.00     0.163 C 
ATOM     24  C   UNL     1      -2.318   0.141  -3.109  1.00  0.00     0.163 C 
ATOM     25  O   UNL     1      -2.273   1.518  -3.487  1.00  0.00    -0.381 OA
ENDBRANCH  19  20
ENDBRANCH  18  19
ENDBRANCH  17  18
ENDBRANCH   8  17
ENDBRANCH   4   6
ENDBRANCH   3   4
ENDBRANCH   2   3
ENDBRANCH   1   2
BRANCH   1  26
ATOM     26  O   UNL     1      -1.010  -0.045   5.430  1.00  0.00    -0.374 OA
BRANCH  26  27
ATOM     27  C   UNL     1      -1.935  -0.196   4.349  1.00  0.00     0.202 C 
BRANCH  27  28
ATOM     28  C   UNL     1      -3.422  -0.345   4.722  1.00  0.00     0.261 C 
BRANCH  28  29
ATOM     29  O   UNL     1      -3.985   0.889   5.226  1.00  0.00    -0.460 OA
BRANCH  29  30
ATOM     30  C   UNL     1      -4.649   0.778   6.403  1.00  0.00     0.338 C 
ATOM     31  O   UNL     1      -4.939  -0.249   6.990  1.00  0.00    -0.246 OA
BRANCH  30  32
ATOM     32  C   UNL     1      -4.775   2.105   7.041  1.00  0.00     0.060 A 
ATOM     33  C   UNL     1      -4.126   2.278   8.269  1.00  0.00     0.016 A 
ATOM     34  C   UNL     1      -5.587   3.117   6.524  1.00  0.00     0.016 A 
ATOM     35  C   UNL     1      -4.335   3.433   9.015  1.00  0.00     0.010 A 
ATOM     36  C   UNL     1      -5.802   4.280   7.282  1.00  0.00     0.010 A 
ATOM     37  C   UNL     1      -5.216   4.421   8.553  1.00  0.00    -0.014 A 
BRANCH  37  38
ATOM     38  C   UNL     1      -5.618   5.486   9.512  1.00  0.00     0.031 A 
ATOM     39  C   UNL     1      -6.930   5.362  10.242  1.00  0.00     0.074 A 
ATOM     40  C   UNL     1      -4.759   6.466   9.847  1.00  0.00     0.049 A 
ATOM     41  N   UNL     1      -7.390   6.063  11.249  1.00  0.00    -0.248 NA
ATOM     42  C   UNL     1      -7.842   4.303   9.784  1.00  0.00     0.031 C 
ATOM     43  C   UNL     1      -3.446   6.681   9.242  1.00  0.00     0.029 A 
ATOM     44  N   UNL     1      -4.852   7.445  10.807  1.00  0.00    -0.354 N 
ATOM     45  C   UNL     1      -8.633   5.522  11.553  1.00  0.00     0.074 A 
ATOM     46  C   UNL     1      -8.878   4.466  10.594  1.00  0.00     0.031 C 
ATOM     47  C   UNL     1      -2.844   7.710   9.861  1.00  0.00     0.029 A 
ATOM     48  C   UNL     1      -3.733   8.236  10.896  1.00  0.00     0.049 A 
ATOM     49  H   UNL     1      -5.646   7.567  11.377  1.00  0.00     0.167 HD
ATOM     50  C   UNL     1      -9.488   5.857  12.549  1.00  0.00     0.037 A 
ATOM     51  C   UNL     1      -3.452   9.261  11.724  1.00  0.00     0.037 A 
ATOM     52  C   UNL     1      -9.252   6.908  13.506  1.00  0.00     0.049 A 
ATOM     53  C   UNL     1      -4.440   9.647  12.793  1.00  0.00     0.074 A 
ATOM     54  C   UNL     1     -10.056   7.314  14.558  1.00  0.00     0.029 A 
ATOM     55  N   UNL     1      -8.133   7.726  13.522  1.00  0.00    -0.354 N 
ATOM     56  N   UNL     1      -5.594   9.101  13.092  1.00  0.00    -0.248 NA
ATOM     57  C   UNL     1      -4.075  10.784  13.650  1.00  0.00     0.031 C 
ATOM     58  C   UNL     1      -9.448   8.411  15.178  1.00  0.00     0.029 A 
ATOM     59  C   UNL     1      -8.237   8.650  14.550  1.00  0.00     0.049 A 
ATOM     60  H   UNL     1      -7.376   7.660  12.896  1.00  0.00     0.167 HD
ATOM     61  C   UNL     1      -6.078   9.808  14.188  1.00  0.00     0.074 A 
ATOM     62  C   UNL     1      -5.081  10.807  14.512  1.00  0.00     0.031 C 
ATOM     63  C   UNL     1      -7.242   9.644  14.865  1.00  0.00     0.037 A 
BRANCH  50  64
ATOM     64  C   UNL     1     -10.776   5.089  12.643  1.00  0.00     0.057 A 
ATOM     65  C   UNL     1     -10.814   3.753  13.065  1.00  0.00     0.134 A 
ATOM     66  C   UNL     1     -11.997   5.704  12.340  1.00  0.00     0.134 A 
ATOM     67  F   UNL     1      -9.679   3.099  13.357  1.00  0.00    -0.206 F 
ATOM     68  C   UNL     1     -12.017   3.051  13.159  1.00  0.00     0.040 A 
ATOM     69  C   UNL     1     -13.209   5.022  12.457  1.00  0.00     0.040 A 
ATOM     70  F   UNL     1     -12.033   6.983  11.935  1.00  0.00    -0.206 F 
ATOM     71  C   UNL     1     -13.220   3.688  12.862  1.00  0.00     0.006 A 
ENDBRANCH  50  64
BRANCH  51  72
ATOM     72  C   UNL     1      -2.168   9.998  11.586  1.00  0.00     0.057 A 
ATOM     73  C   UNL     1      -1.178   9.936  12.574  1.00  0.00     0.134 A 
ATOM     74  C   UNL     1      -1.916  10.807  10.472  1.00  0.00     0.134 A 
ATOM     75  F   UNL     1      -1.370   9.199  13.678  1.00  0.00    -0.206 F 
ATOM     76  C   UNL     1       0.006  10.669  12.470  1.00  0.00     0.040 A 
ATOM     77  C   UNL     1      -0.725  11.522  10.341  1.00  0.00     0.040 A 
ATOM     78  F   UNL     1      -2.824  10.909   9.490  1.00  0.00    -0.206 F 
ATOM     79  C   UNL     1       0.237  11.461  11.346  1.00  0.00     0.006 A 
ENDBRANCH  51  72
BRANCH  63  80
ATOM     80  C   UNL     1      -7.482  10.545  16.044  1.00  0.00     0.057 A 
ATOM     81  C   UNL     1      -7.726  11.917  15.896  1.00  0.00     0.134 A 
ATOM     82  C   UNL     1      -7.471  10.031  17.348  1.00  0.00     0.134 A 
ATOM     83  F   UNL     1      -7.741  12.477  14.676  1.00  0.00    -0.206 F 
ATOM     84  C   UNL     1      -7.908  12.751  17.001  1.00  0.00     0.040 A 
ATOM     85  C   UNL     1      -7.683  10.850  18.459  1.00  0.00     0.040 A 
ATOM     86  F   UNL     1      -7.257   8.725  17.565  1.00  0.00    -0.206 F 
ATOM     87  C   UNL     1      -7.890  12.216  18.288  1.00  0.00     0.006 A 
ENDBRANCH  63  80
ENDBRANCH  37  38
ENDBRANCH  30  32
ENDBRANCH  29  30
ENDBRANCH  28  29
ENDBRANCH  27  28
ENDBRANCH  26  27
ENDBRANCH   1  26
TORSDOF 20
