REMARK SMILES COc1cc(N[C@H]2C=C[C@@H](C(=O)OCCOCCOC(=O)c3ccc(-c4c5nc(c(-c6c(F)cccc6F)c6ccc([nH]6)c(-c6c(F)cccc6F)c6nc(c(-c7c(F)cccc7F)c7ccc4[nH]7)C=C6)C=C5)cc3)C2)c([N+](=O)[O-])cc1F
REMARK SMILES IDX 15 1 14 2 13 3 11 4 12 5 10 6 7 7 8 8 76 9 9 10 6 11 5 13
REMARK SMILES IDX 3 14 4 15 82 16 81 17 83 18 77 19 2 20 1 21 78 22 79 23
REMARK SMILES IDX 80 24 16 25 17 26 18 27 19 28 20 29 21 30 22 31 23 32 75 33
REMARK SMILES IDX 24 34 74 35 25 36 26 37 27 38 68 39 28 40 73 41 67 42 69 43
REMARK SMILES IDX 29 44 72 45 66 46 65 47 30 49 56 50 39 51 55 52 40 53 43 54
REMARK SMILES IDX 54 55 70 56 41 57 42 58 53 60 71 61 44 62 31 63 32 64 37 65
REMARK SMILES IDX 33 66 34 67 36 68 38 69 35 70 57 71 58 72 63 73 59 74 60 75
REMARK SMILES IDX 62 76 64 77 61 78 45 79 46 80 51 81 47 82 48 83 50 84 52 85
REMARK SMILES IDX 49 86
REMARK H PARENT 6 12 69 48 43 59
REMARK Flexibility Score: inf
ROOT
ATOM      1  C   UNL     1      -2.348  -0.437   1.560  1.00  0.00     0.202 C 
ENDROOT
BRANCH   1   2
ATOM      2  C   UNL     1      -2.546  -0.231   0.056  1.00  0.00     0.261 C 
BRANCH   2   3
ATOM      3  O   UNL     1      -2.566   1.177  -0.235  1.00  0.00    -0.463 OA
BRANCH   3   4
ATOM      4  C   UNL     1      -3.481   1.585  -1.149  1.00  0.00     0.312 C 
ATOM      5  O   UNL     1      -4.125   0.828  -1.868  1.00  0.00    -0.252 OA
BRANCH   4   6
ATOM      6  C   UNL     1      -3.667   3.103  -1.174  1.00  0.00     0.124 C 
ATOM      7  C   UNL     1      -2.263   5.110  -0.940  1.00  0.00     0.103 C 
ATOM      8  C   UNL     1      -2.446   4.729  -2.368  1.00  0.00    -0.006 C 
ATOM      9  C   UNL     1      -2.890   3.954  -0.148  1.00  0.00     0.048 C 
ATOM     10  C   UNL     1      -3.223   3.649  -2.501  1.00  0.00    -0.014 C 
BRANCH   7  11
ATOM     11  N   UNL     1      -0.872   5.375  -0.619  1.00  0.00    -0.373 N 
ATOM     12  H   UNL     1      -0.683   6.300  -0.340  1.00  0.00     0.161 HD
BRANCH  11  13
ATOM     13  C   UNL     1       0.233   4.543  -0.639  1.00  0.00     0.117 A 
ATOM     14  C   UNL     1       1.180   2.310  -1.077  1.00  0.00     0.157 A 
ATOM     15  C   UNL     1       0.131   3.227  -1.115  1.00  0.00     0.082 A 
ATOM     16  C   UNL     1       2.412   2.723  -0.594  1.00  0.00     0.172 A 
ATOM     17  C   UNL     1       2.591   4.022  -0.137  1.00  0.00     0.131 A 
ATOM     18  F   UNL     1       3.463   1.896  -0.587  1.00  0.00    -0.203 F 
ATOM     19  C   UNL     1       1.510   4.928  -0.157  1.00  0.00     0.295 A 
BRANCH  14  20
ATOM     20  O   UNL     1       0.863   1.080  -1.581  1.00  0.00    -0.494 OA
ATOM     21  C   UNL     1       1.481  -0.014  -0.923  1.00  0.00     0.278 C 
ENDBRANCH  14  20
BRANCH  19  22
ATOM     22  N   UNL     1       1.772   6.294   0.339  1.00  0.00     0.065 N 
ATOM     23  O   UNL     1       0.853   7.127   0.304  1.00  0.00    -0.258 OA
ATOM     24  O   UNL     1       2.907   6.540   0.772  1.00  0.00    -0.258 OA
ENDBRANCH  19  22
ENDBRANCH  11  13
ENDBRANCH   7  11
ENDBRANCH   4   6
ENDBRANCH   3   4
ENDBRANCH   2   3
ENDBRANCH   1   2
BRANCH   1  25
ATOM     25  O   UNL     1      -3.453  -0.045   2.377  1.00  0.00    -0.374 OA
BRANCH  25  26
ATOM     26  C   UNL     1      -3.678   1.353   2.550  1.00  0.00     0.202 C 
BRANCH  26  27
ATOM     27  C   UNL     1      -2.804   2.060   3.594  1.00  0.00     0.261 C 
BRANCH  27  28
ATOM     28  O   UNL     1      -1.395   1.968   3.317  1.00  0.00    -0.460 OA
BRANCH  28  29
ATOM     29  C   UNL     1      -0.729   1.089   4.103  1.00  0.00     0.338 C 
ATOM     30  O   UNL     1      -1.195   0.412   5.012  1.00  0.00    -0.246 OA
BRANCH  29  31
ATOM     31  C   UNL     1       0.667   0.926   3.653  1.00  0.00     0.060 A 
ATOM     32  C   UNL     1       1.165  -0.380   3.552  1.00  0.00     0.016 A 
ATOM     33  C   UNL     1       1.510   2.019   3.437  1.00  0.00     0.016 A 
ATOM     34  C   UNL     1       2.517  -0.598   3.290  1.00  0.00     0.010 A 
ATOM     35  C   UNL     1       2.869   1.798   3.178  1.00  0.00     0.010 A 
ATOM     36  C   UNL     1       3.386   0.489   3.138  1.00  0.00    -0.014 A 
BRANCH  36  37
ATOM     37  C   UNL     1       4.852   0.260   3.053  1.00  0.00     0.031 A 
ATOM     38  C   UNL     1       5.703   0.458   4.272  1.00  0.00     0.074 A 
ATOM     39  C   UNL     1       5.427  -0.145   1.907  1.00  0.00     0.049 A 
ATOM     40  N   UNL     1       6.998   0.333   4.399  1.00  0.00    -0.248 NA
ATOM     41  C   UNL     1       5.003   0.825   5.512  1.00  0.00     0.031 C 
ATOM     42  C   UNL     1       4.704  -0.447   0.683  1.00  0.00     0.029 A 
ATOM     43  N   UNL     1       6.742  -0.352   1.574  1.00  0.00    -0.354 N 
ATOM     44  C   UNL     1       7.269   0.582   5.736  1.00  0.00     0.074 A 
ATOM     45  C   UNL     1       6.010   0.915   6.370  1.00  0.00     0.031 C 
ATOM     46  C   UNL     1       5.575  -0.737  -0.294  1.00  0.00     0.029 A 
ATOM     47  C   UNL     1       6.928  -0.651   0.245  1.00  0.00     0.049 A 
ATOM     48  H   UNL     1       7.479  -0.293   2.223  1.00  0.00     0.167 HD
ATOM     49  C   UNL     1       8.457   0.511   6.380  1.00  0.00     0.037 A 
ATOM     50  C   UNL     1       8.058  -0.823  -0.465  1.00  0.00     0.037 A 
ATOM     51  C   UNL     1       9.707   0.190   5.744  1.00  0.00     0.049 A 
ATOM     52  C   UNL     1       9.380  -0.772   0.243  1.00  0.00     0.074 A 
ATOM     53  C   UNL     1      10.959   0.073   6.321  1.00  0.00     0.029 A 
ATOM     54  N   UNL     1       9.867  -0.052   4.388  1.00  0.00    -0.354 N 
ATOM     55  N   UNL     1       9.621  -0.569   1.515  1.00  0.00    -0.248 NA
ATOM     56  C   UNL     1      10.583  -0.994  -0.571  1.00  0.00     0.031 C 
ATOM     57  C   UNL     1      11.885  -0.188   5.307  1.00  0.00     0.029 A 
ATOM     58  C   UNL     1      11.204  -0.285   4.104  1.00  0.00     0.049 A 
ATOM     59  H   UNL     1       9.140  -0.058   3.725  1.00  0.00     0.167 HD
ATOM     60  C   UNL     1      10.996  -0.675   1.664  1.00  0.00     0.074 A 
ATOM     61  C   UNL     1      11.538  -0.956   0.350  1.00  0.00     0.031 C 
ATOM     62  C   UNL     1      11.736  -0.561   2.793  1.00  0.00     0.037 A 
BRANCH  49  63
ATOM     63  C   UNL     1       8.459   0.793   7.851  1.00  0.00     0.057 A 
ATOM     64  C   UNL     1       9.035   1.965   8.354  1.00  0.00     0.134 A 
ATOM     65  C   UNL     1       7.929  -0.118   8.775  1.00  0.00     0.134 A 
ATOM     66  F   UNL     1       9.562   2.877   7.523  1.00  0.00    -0.206 F 
ATOM     67  C   UNL     1       9.092   2.219   9.725  1.00  0.00     0.040 A 
ATOM     68  C   UNL     1       7.959   0.135  10.147  1.00  0.00     0.040 A 
ATOM     69  F   UNL     1       7.351  -1.253   8.355  1.00  0.00    -0.206 F 
ATOM     70  C   UNL     1       8.549   1.303  10.626  1.00  0.00     0.006 A 
ENDBRANCH  49  63
BRANCH  50  71
ATOM     71  C   UNL     1       7.974  -1.083  -1.923  1.00  0.00     0.057 A 
ATOM     72  C   UNL     1       7.608  -0.073  -2.821  1.00  0.00     0.134 A 
ATOM     73  C   UNL     1       8.223  -2.355  -2.447  1.00  0.00     0.134 A 
ATOM     74  F   UNL     1       7.353   1.167  -2.378  1.00  0.00    -0.206 F 
ATOM     75  C   UNL     1       7.476  -0.323  -4.188  1.00  0.00     0.040 A 
ATOM     76  C   UNL     1       8.113  -2.615  -3.815  1.00  0.00     0.040 A 
ATOM     77  F   UNL     1       8.592  -3.358  -1.638  1.00  0.00    -0.206 F 
ATOM     78  C   UNL     1       7.731  -1.598  -4.688  1.00  0.00     0.006 A 
ENDBRANCH  50  71
BRANCH  62  79
ATOM     79  C   UNL     1      13.217  -0.763   2.674  1.00  0.00     0.057 A 
ATOM     80  C   UNL     1      13.825  -1.907   3.209  1.00  0.00     0.134 A 
ATOM     81  C   UNL     1      14.049   0.205   2.101  1.00  0.00     0.134 A 
ATOM     82  F   UNL     1      13.084  -2.869   3.779  1.00  0.00    -0.206 F 
ATOM     83  C   UNL     1      15.210  -2.071   3.194  1.00  0.00     0.040 A 
ATOM     84  C   UNL     1      15.434   0.041   2.058  1.00  0.00     0.040 A 
ATOM     85  F   UNL     1      13.526   1.316   1.559  1.00  0.00    -0.206 F 
ATOM     86  C   UNL     1      16.019  -1.094   2.616  1.00  0.00     0.006 A 
ENDBRANCH  62  79
ENDBRANCH  36  37
ENDBRANCH  29  31
ENDBRANCH  28  29
ENDBRANCH  27  28
ENDBRANCH  26  27
ENDBRANCH  25  26
ENDBRANCH   1  25
TORSDOF 18
