REMARK SMILES C[NH2+][C@H]1CC[C@@H](Nc2ccc(C(=O)OCCOCCOC(=O)c3ccc(-c4c5nc(c(-c6c(F)cccc6F)c6ccc([nH]6)c(-c6c(F)cccc6F)c6nc(c(-c7c(F)cccc7F)c7ccc4[nH]7)C=C6)C=C5)cc3)c(F)c2F)CC1
REMARK SMILES IDX 16 1 15 2 14 3 12 4 13 5 11 6 8 7 9 8 79 9 10 10 77 11 80 12
REMARK SMILES IDX 78 13 7 14 6 16 3 17 82 18 4 19 81 20 5 21 2 22 1 23 17 26
REMARK SMILES IDX 18 27 19 28 20 29 21 30 22 31 23 32 24 33 76 34 25 35 75 36
REMARK SMILES IDX 26 37 27 38 28 39 69 40 29 41 74 42 68 43 70 44 30 45 73 46
REMARK SMILES IDX 67 47 66 48 31 50 57 51 40 52 56 53 41 54 44 55 55 56 71 57
REMARK SMILES IDX 42 58 43 59 54 61 72 62 45 63 32 64 33 65 38 66 34 67 35 68
REMARK SMILES IDX 37 69 39 70 36 71 58 72 59 73 64 74 60 75 61 76 63 77 65 78
REMARK SMILES IDX 62 79 46 80 47 81 52 82 48 83 49 84 51 85 53 86 50 87
REMARK H PARENT 7 15 2 24 2 25 70 49 44 60
REMARK Flexibility Score: inf
ROOT
ATOM      1  C   UNL     1      -8.565   0.569  10.260  1.00  0.00     0.202 C 
ENDROOT
BRANCH   1   2
ATOM      2  C   UNL     1      -7.179   0.079  10.686  1.00  0.00     0.261 C 
BRANCH   2   3
ATOM      3  O   UNL     1      -6.223   0.262   9.627  1.00  0.00    -0.460 OA
BRANCH   3   4
ATOM      4  C   UNL     1      -5.668  -0.869   9.138  1.00  0.00     0.341 C 
ATOM      5  O   UNL     1      -5.814  -2.007   9.566  1.00  0.00    -0.246 OA
BRANCH   4   6
ATOM      6  C   UNL     1      -4.986  -0.598   7.864  1.00  0.00     0.099 A 
ATOM      7  C   UNL     1      -3.635  -0.249   5.412  1.00  0.00     0.074 A 
ATOM      8  C   UNL     1      -4.528  -1.309   5.583  1.00  0.00     0.030 A 
ATOM      9  C   UNL     1      -3.480   0.655   6.482  1.00  0.00     0.182 A 
ATOM     10  C   UNL     1      -5.180  -1.499   6.808  1.00  0.00     0.021 A 
ATOM     11  C   UNL     1      -4.152   0.496   7.690  1.00  0.00     0.175 A 
ATOM     12  F   UNL     1      -2.659   1.709   6.326  1.00  0.00    -0.201 F 
ATOM     13  F   UNL     1      -3.961   1.390   8.671  1.00  0.00    -0.203 F 
BRANCH   7  14
ATOM     14  N   UNL     1      -2.923  -0.040   4.244  1.00  0.00    -0.380 N 
ATOM     15  H   UNL     1      -2.010   0.318   4.333  1.00  0.00     0.160 HD
BRANCH  14  16
ATOM     16  C   UNL     1      -3.406  -0.302   2.894  1.00  0.00     0.079 C 
ATOM     17  C   UNL     1      -0.926  -0.503   1.214  1.00  0.00     0.182 C 
ATOM     18  C   UNL     1      -1.381  -1.651   2.131  1.00  0.00     0.067 C 
ATOM     19  C   UNL     1      -1.431   0.849   1.739  1.00  0.00     0.067 C 
ATOM     20  C   UNL     1      -2.892  -1.642   2.360  1.00  0.00     0.031 C 
ATOM     21  C   UNL     1      -2.945   0.847   1.981  1.00  0.00     0.031 C 
BRANCH  17  22
ATOM     22  N   UNL     1       0.541  -0.518   1.141  1.00  0.00    -0.346 N 
ATOM     23  C   UNL     1       1.055   0.152  -0.047  1.00  0.00     0.331 C 
ATOM     24  H   UNL     1       0.913  -0.048   1.966  1.00  0.00     0.346 HD
ATOM     25  H   UNL     1       0.836  -1.493   1.095  1.00  0.00     0.346 HD
ENDBRANCH  17  22
ENDBRANCH  14  16
ENDBRANCH   7  14
ENDBRANCH   4   6
ENDBRANCH   3   4
ENDBRANCH   2   3
ENDBRANCH   1   2
BRANCH   1  26
ATOM     26  O   UNL     1      -9.185  -0.168   9.204  1.00  0.00    -0.374 OA
BRANCH  26  27
ATOM     27  C   UNL     1      -8.764   0.132   7.873  1.00  0.00     0.202 C 
BRANCH  27  28
ATOM     28  C   UNL     1      -9.401   1.369   7.229  1.00  0.00     0.261 C 
BRANCH  28  29
ATOM     29  O   UNL     1      -9.030   2.580   7.911  1.00  0.00    -0.460 OA
BRANCH  29  30
ATOM     30  C   UNL     1     -10.034   3.167   8.602  1.00  0.00     0.338 C 
ATOM     31  O   UNL     1     -11.212   2.838   8.617  1.00  0.00    -0.246 OA
BRANCH  30  32
ATOM     32  C   UNL     1      -9.502   4.206   9.502  1.00  0.00     0.060 A 
ATOM     33  C   UNL     1      -9.923   4.170  10.837  1.00  0.00     0.016 A 
ATOM     34  C   UNL     1      -8.686   5.244   9.044  1.00  0.00     0.016 A 
ATOM     35  C   UNL     1      -9.586   5.206  11.704  1.00  0.00     0.010 A 
ATOM     36  C   UNL     1      -8.352   6.288   9.915  1.00  0.00     0.010 A 
ATOM     37  C   UNL     1      -8.838   6.295  11.236  1.00  0.00    -0.014 A 
BRANCH  37  38
ATOM     38  C   UNL     1      -8.714   7.501  12.091  1.00  0.00     0.031 A 
ATOM     39  C   UNL     1      -9.642   8.662  11.854  1.00  0.00     0.074 A 
ATOM     40  C   UNL     1      -7.838   7.536  13.111  1.00  0.00     0.049 A 
ATOM     41  N   UNL     1      -9.738   9.795  12.502  1.00  0.00    -0.248 NA
ATOM     42  C   UNL     1     -10.592   8.526  10.738  1.00  0.00     0.031 C 
ATOM     43  C   UNL     1      -6.913   6.463  13.467  1.00  0.00     0.029 A 
ATOM     44  N   UNL     1      -7.593   8.517  14.039  1.00  0.00    -0.354 N 
ATOM     45  C   UNL     1     -10.759  10.502  11.879  1.00  0.00     0.074 A 
ATOM     46  C   UNL     1     -11.226   9.688  10.777  1.00  0.00     0.031 C 
ATOM     47  C   UNL     1      -6.199   6.843  14.541  1.00  0.00     0.029 A 
ATOM     48  C   UNL     1      -6.601   8.193  14.932  1.00  0.00     0.049 A 
ATOM     49  H   UNL     1      -8.081   9.371  14.062  1.00  0.00     0.167 HD
ATOM     50  C   UNL     1     -11.272  11.712  12.203  1.00  0.00     0.037 A 
ATOM     51  C   UNL     1      -6.074   8.910  15.942  1.00  0.00     0.037 A 
ATOM     52  C   UNL     1     -10.811  12.523  13.298  1.00  0.00     0.049 A 
ATOM     53  C   UNL     1      -6.613  10.285  16.236  1.00  0.00     0.074 A 
ATOM     54  C   UNL     1     -11.275  13.759  13.712  1.00  0.00     0.029 A 
ATOM     55  N   UNL     1      -9.774  12.179  14.151  1.00  0.00    -0.354 N 
ATOM     56  N   UNL     1      -7.596  10.931  15.657  1.00  0.00    -0.248 NA
ATOM     57  C   UNL     1      -5.970  11.030  17.329  1.00  0.00     0.031 C 
ATOM     58  C   UNL     1     -10.491  14.183  14.790  1.00  0.00     0.029 A 
ATOM     59  C   UNL     1      -9.568  13.190  15.075  1.00  0.00     0.049 A 
ATOM     60  H   UNL     1      -9.259  11.341  14.106  1.00  0.00     0.167 HD
ATOM     61  C   UNL     1      -7.708  12.141  16.331  1.00  0.00     0.074 A 
ATOM     62  C   UNL     1      -6.700  12.135  17.371  1.00  0.00     0.031 C 
ATOM     63  C   UNL     1      -8.567  13.165  16.110  1.00  0.00     0.037 A 
BRANCH  50  64
ATOM     64  C   UNL     1     -12.389  12.239  11.351  1.00  0.00     0.057 A 
ATOM     65  C   UNL     1     -13.683  11.709  11.422  1.00  0.00     0.134 A 
ATOM     66  C   UNL     1     -12.175  13.311  10.476  1.00  0.00     0.134 A 
ATOM     67  F   UNL     1     -13.950  10.671  12.230  1.00  0.00    -0.206 F 
ATOM     68  C   UNL     1     -14.723  12.215  10.640  1.00  0.00     0.040 A 
ATOM     69  C   UNL     1     -13.211  13.841   9.706  1.00  0.00     0.040 A 
ATOM     70  F   UNL     1     -10.959  13.867  10.363  1.00  0.00    -0.206 F 
ATOM     71  C   UNL     1     -14.489  13.290   9.783  1.00  0.00     0.006 A 
ENDBRANCH  50  64
BRANCH  51  72
ATOM     72  C   UNL     1      -4.965   8.350  16.755  1.00  0.00     0.057 A 
ATOM     73  C   UNL     1      -5.153   8.001  18.097  1.00  0.00     0.134 A 
ATOM     74  C   UNL     1      -3.683   8.185  16.219  1.00  0.00     0.134 A 
ATOM     75  F   UNL     1      -6.353   8.160  18.675  1.00  0.00    -0.206 F 
ATOM     76  C   UNL     1      -4.101   7.525  18.883  1.00  0.00     0.040 A 
ATOM     77  C   UNL     1      -2.628   7.688  16.985  1.00  0.00     0.040 A 
ATOM     78  F   UNL     1      -3.437   8.505  14.939  1.00  0.00    -0.206 F 
ATOM     79  C   UNL     1      -2.834   7.365  18.325  1.00  0.00     0.006 A 
ENDBRANCH  51  72
BRANCH  63  80
ATOM     80  C   UNL     1      -8.478  14.349  17.028  1.00  0.00     0.057 A 
ATOM     81  C   UNL     1      -7.423  15.266  16.950  1.00  0.00     0.134 A 
ATOM     82  C   UNL     1      -9.481  14.594  17.975  1.00  0.00     0.134 A 
ATOM     83  F   UNL     1      -6.425  15.082  16.073  1.00  0.00    -0.206 F 
ATOM     84  C   UNL     1      -7.356  16.374  17.797  1.00  0.00     0.040 A 
ATOM     85  C   UNL     1      -9.438  15.711  18.810  1.00  0.00     0.040 A 
ATOM     86  F   UNL     1     -10.524  13.760  18.094  1.00  0.00    -0.206 F 
ATOM     87  C   UNL     1      -8.370  16.602  18.726  1.00  0.00     0.006 A 
ENDBRANCH  63  80
ENDBRANCH  37  38
ENDBRANCH  30  32
ENDBRANCH  29  30
ENDBRANCH  28  29
ENDBRANCH  27  28
ENDBRANCH  26  27
ENDBRANCH   1  26
TORSDOF 17
