REMARK SMILES O=C(OCCOCCOC(=O)C1(Cc2ccccc2Cl)CCN(c2ncnc3[nH]ccc23)CC1)c1ccc(-c2c3nc(c(-c4c(F)cccc4F)c4ccc([nH]4)c(-c4c(F)cccc4F)c4nc(c(-c5c(F)cccc5F)c5ccc2[nH]5)C=C4)C=C3)cc1
REMARK SMILES IDX 6 1 5 2 4 3 3 4 2 5 1 6 35 7 36 8 88 9 37 10 87 11 38 12
REMARK SMILES IDX 39 13 40 14 81 15 41 16 86 17 80 18 82 19 42 20 85 21 79 22
REMARK SMILES IDX 78 23 43 25 69 26 52 27 68 28 53 29 56 30 67 31 83 32 54 33
REMARK SMILES IDX 55 34 66 36 84 37 57 38 44 39 45 40 50 41 46 42 47 43 49 44
REMARK SMILES IDX 51 45 48 46 70 47 71 48 76 49 72 50 73 51 75 52 77 53 74 54
REMARK SMILES IDX 58 55 59 56 64 57 60 58 61 59 63 60 65 61 62 62 7 63 8 64
REMARK SMILES IDX 9 65 10 66 11 67 12 68 21 69 34 70 22 71 33 72 23 73 13 74
REMARK SMILES IDX 14 75 15 76 19 77 16 78 18 79 20 80 17 81 24 82 25 83 32 84
REMARK SMILES IDX 26 85 28 86 31 87 27 88 29 89 30 90
REMARK H PARENT 82 24 56 35 29 91
REMARK Flexibility Score: inf
ROOT
ATOM      1  O   UNL     1       3.732  -0.522   1.409  1.00  0.00    -0.374 OA
ENDROOT
BRANCH   1   2
ATOM      2  C   UNL     1       4.342   0.412   0.535  1.00  0.00     0.202 C 
BRANCH   2   3
ATOM      3  C   UNL     1       3.849   0.482  -0.916  1.00  0.00     0.261 C 
BRANCH   3   4
ATOM      4  O   UNL     1       2.408   0.401  -1.043  1.00  0.00    -0.460 OA
BRANCH   4   5
ATOM      5  C   UNL     1       1.710  -0.708  -1.429  1.00  0.00     0.338 C 
ATOM      6  O   UNL     1       0.508  -0.674  -1.639  1.00  0.00    -0.246 OA
BRANCH   5   7
ATOM      7  C   UNL     1       2.459  -1.968  -1.603  1.00  0.00     0.060 A 
ATOM      8  C   UNL     1       3.276  -2.400  -0.580  1.00  0.00     0.016 A 
ATOM      9  C   UNL     1       2.385  -2.740  -2.752  1.00  0.00     0.016 A 
ATOM     10  C   UNL     1       4.297  -3.275  -0.789  1.00  0.00     0.010 A 
ATOM     11  C   UNL     1       3.205  -3.872  -2.849  1.00  0.00     0.010 A 
ATOM     12  C   UNL     1       4.193  -4.115  -1.873  1.00  0.00    -0.014 A 
BRANCH  12  13
ATOM     13  C   UNL     1       5.153  -5.225  -1.917  1.00  0.00     0.031 A 
ATOM     14  C   UNL     1       6.059  -5.309  -3.093  1.00  0.00     0.074 A 
ATOM     15  C   UNL     1       5.272  -6.048  -0.852  1.00  0.00     0.049 A 
ATOM     16  N   UNL     1       6.805  -6.302  -3.480  1.00  0.00    -0.248 NA
ATOM     17  C   UNL     1       6.123  -4.122  -3.965  1.00  0.00     0.031 C 
ATOM     18  C   UNL     1       4.536  -5.926   0.419  1.00  0.00     0.029 A 
ATOM     19  N   UNL     1       6.081  -7.130  -0.642  1.00  0.00    -0.354 N 
ATOM     20  C   UNL     1       7.353  -5.898  -4.686  1.00  0.00     0.074 A 
ATOM     21  C   UNL     1       6.882  -4.560  -4.957  1.00  0.00     0.031 C 
ATOM     22  C   UNL     1       4.972  -6.851   1.284  1.00  0.00     0.029 A 
ATOM     23  C   UNL     1       5.886  -7.730   0.581  1.00  0.00     0.049 A 
ATOM     24  H   UNL     1       6.739  -7.449  -1.302  1.00  0.00     0.167 HD
ATOM     25  C   UNL     1       8.154  -6.623  -5.495  1.00  0.00     0.037 A 
ATOM     26  C   UNL     1       6.329  -8.912   1.040  1.00  0.00     0.037 A 
ATOM     27  C   UNL     1       8.613  -7.937  -5.140  1.00  0.00     0.049 A 
ATOM     28  C   UNL     1       7.151  -9.730   0.088  1.00  0.00     0.074 A 
ATOM     29  C   UNL     1       9.378  -8.819  -5.877  1.00  0.00     0.029 A 
ATOM     30  N   UNL     1       8.350  -8.549  -3.918  1.00  0.00    -0.354 N 
ATOM     31  N   UNL     1       7.569  -9.417  -1.117  1.00  0.00    -0.248 NA
ATOM     32  C   UNL     1       7.529 -11.074   0.531  1.00  0.00     0.031 C 
ATOM     33  C   UNL     1       9.542  -9.980  -5.115  1.00  0.00     0.029 A 
ATOM     34  C   UNL     1       8.926  -9.803  -3.883  1.00  0.00     0.049 A 
ATOM     35  H   UNL     1       7.830  -8.146  -3.186  1.00  0.00     0.167 HD
ATOM     36  C   UNL     1       8.273 -10.518  -1.574  1.00  0.00     0.074 A 
ATOM     37  C   UNL     1       8.245 -11.496  -0.501  1.00  0.00     0.031 C 
ATOM     38  C   UNL     1       8.877 -10.719  -2.770  1.00  0.00     0.037 A 
BRANCH  25  39
ATOM     39  C   UNL     1       8.472  -6.047  -6.838  1.00  0.00     0.057 A 
ATOM     40  C   UNL     1       9.332  -4.955  -7.009  1.00  0.00     0.134 A 
ATOM     41  C   UNL     1       7.862  -6.574  -7.984  1.00  0.00     0.134 A 
ATOM     42  F   UNL     1       9.914  -4.375  -5.948  1.00  0.00    -0.206 F 
ATOM     43  C   UNL     1       9.561  -4.398  -8.269  1.00  0.00     0.040 A 
ATOM     44  C   UNL     1       8.103  -6.042  -9.252  1.00  0.00     0.040 A 
ATOM     45  F   UNL     1       7.011  -7.606  -7.889  1.00  0.00    -0.206 F 
ATOM     46  C   UNL     1       8.950  -4.946  -9.396  1.00  0.00     0.006 A 
ENDBRANCH  25  39
BRANCH  26  47
ATOM     47  C   UNL     1       5.915  -9.429   2.373  1.00  0.00     0.057 A 
ATOM     48  C   UNL     1       6.856  -9.704   3.371  1.00  0.00     0.134 A 
ATOM     49  C   UNL     1       4.571  -9.695   2.677  1.00  0.00     0.134 A 
ATOM     50  F   UNL     1       8.160  -9.489   3.146  1.00  0.00    -0.206 F 
ATOM     51  C   UNL     1       6.484 -10.248   4.604  1.00  0.00     0.040 A 
ATOM     52  C   UNL     1       4.180 -10.205   3.917  1.00  0.00     0.040 A 
ATOM     53  F   UNL     1       3.608  -9.455   1.774  1.00  0.00    -0.206 F 
ATOM     54  C   UNL     1       5.141 -10.497   4.880  1.00  0.00     0.006 A 
ENDBRANCH  26  47
BRANCH  38  55
ATOM     55  C   UNL     1       9.592 -12.021  -2.937  1.00  0.00     0.057 A 
ATOM     56  C   UNL     1       8.900 -13.224  -3.120  1.00  0.00     0.134 A 
ATOM     57  C   UNL     1      10.990 -12.056  -2.959  1.00  0.00     0.134 A 
ATOM     58  F   UNL     1       7.559 -13.250  -3.088  1.00  0.00    -0.206 F 
ATOM     59  C   UNL     1       9.580 -14.426  -3.300  1.00  0.00     0.040 A 
ATOM     60  C   UNL     1      11.680 -13.247  -3.171  1.00  0.00     0.040 A 
ATOM     61  F   UNL     1      11.704 -10.931  -2.796  1.00  0.00    -0.206 F 
ATOM     62  C   UNL     1      10.974 -14.437  -3.336  1.00  0.00     0.006 A 
ENDBRANCH  38  55
ENDBRANCH  12  13
ENDBRANCH   5   7
ENDBRANCH   4   5
ENDBRANCH   3   4
ENDBRANCH   2   3
ENDBRANCH   1   2
BRANCH   1  63
ATOM     63  C   UNL     1       2.396  -0.225   1.831  1.00  0.00     0.202 C 
BRANCH  63  64
ATOM     64  C   UNL     1       2.426   0.052   3.309  1.00  0.00     0.261 C 
BRANCH  64  65
ATOM     65  O   UNL     1       3.106   1.302   3.458  1.00  0.00    -0.463 OA
BRANCH  65  66
ATOM     66  C   UNL     1       4.442   1.241   3.695  1.00  0.00     0.312 C 
ATOM     67  O   UNL     1       5.096   0.213   3.821  1.00  0.00    -0.252 OA
BRANCH  66  68
ATOM     68  C   UNL     1       5.001   2.640   3.912  1.00  0.00     0.075 C 
ATOM     69  C   UNL     1       4.386   3.729   2.987  1.00  0.00     0.040 C 
ATOM     70  C   UNL     1       6.531   2.581   3.667  1.00  0.00     0.040 C 
ATOM     71  C   UNL     1       4.865   3.817   1.545  1.00  0.00     0.119 C 
ATOM     72  C   UNL     1       6.885   2.425   2.184  1.00  0.00     0.119 C 
ATOM     73  N   UNL     1       6.264   3.496   1.440  1.00  0.00    -0.356 N 
BRANCH  68  74
ATOM     74  C   UNL     1       4.692   2.958   5.427  1.00  0.00     0.056 C 
BRANCH  74  75
ATOM     75  C   UNL     1       3.198   3.074   5.746  1.00  0.00    -0.028 A 
ATOM     76  C   UNL     1       2.532   4.260   5.386  1.00  0.00     0.005 A 
ATOM     77  C   UNL     1       2.414   1.991   6.185  1.00  0.00     0.044 A 
ATOM     78  C   UNL     1       1.140   4.302   5.279  1.00  0.00     0.000 A 
ATOM     79  C   UNL     1       1.017   2.035   6.075  1.00  0.00     0.021 A 
ATOM     80  Cl  UNL     1       3.110   0.530   6.793  1.00  0.00    -0.084 Cl
ATOM     81  C   UNL     1       0.385   3.176   5.585  1.00  0.00     0.002 A 
ENDBRANCH  74  75
ENDBRANCH  68  74
BRANCH  73  82
ATOM     82  C   UNL     1       6.962   4.066   0.400  1.00  0.00     0.141 A 
ATOM     83  N   UNL     1       7.210   3.390  -0.745  1.00  0.00    -0.219 NA
ATOM     84  C   UNL     1       7.467   5.366   0.532  1.00  0.00     0.061 A 
ATOM     85  C   UNL     1       7.933   4.015  -1.703  1.00  0.00     0.226 A 
ATOM     86  C   UNL     1       8.212   5.866  -0.517  1.00  0.00     0.142 A 
ATOM     87  C   UNL     1       7.438   6.364   1.545  1.00  0.00     0.033 A 
ATOM     88  N   UNL     1       8.481   5.247  -1.676  1.00  0.00    -0.218 NA
ATOM     89  N   UNL     1       8.652   7.112  -0.157  1.00  0.00    -0.346 N 
ATOM     90  C   UNL     1       8.186   7.428   1.096  1.00  0.00     0.085 A 
ATOM     91  H   UNL     1       9.218   7.695  -0.713  1.00  0.00     0.167 HD
ENDBRANCH  73  82
ENDBRANCH  66  68
ENDBRANCH  65  66
ENDBRANCH  64  65
ENDBRANCH  63  64
ENDBRANCH   1  63
TORSDOF 17
