REMARK SMILES C[C@H]1[C@H](C(=O)OCCOCCOC(=O)c2ccc(-c3c4nc(c(-c5c(F)cccc5F)c5ccc([nH]5)c(-c5c(F)cccc5F)c5nc(c(-c6c(F)cccc6F)c6ccc3[nH]6)C=C5)C=C4)cc2)CCN1C(=O)Nc1ccc(F)c(Cl)c1
REMARK SMILES IDX 9 1 8 2 7 3 6 4 4 5 5 6 3 7 1 8 2 9 71 10 69 11 70 12 72 13
REMARK SMILES IDX 73 14 74 15 75 17 76 18 82 19 77 20 80 21 78 22 81 23 79 24
REMARK SMILES IDX 10 25 11 26 12 27 13 28 14 29 15 30 16 31 68 32 17 33 67 34
REMARK SMILES IDX 18 35 19 36 20 37 61 38 21 39 66 40 60 41 62 42 22 43 65 44
REMARK SMILES IDX 59 45 58 46 23 48 49 49 32 50 48 51 33 52 36 53 47 54 63 55
REMARK SMILES IDX 34 56 35 57 46 59 64 60 37 61 24 62 25 63 30 64 26 65 27 66
REMARK SMILES IDX 29 67 31 68 28 69 50 70 51 71 56 72 52 73 53 74 55 75 57 76
REMARK SMILES IDX 54 77 38 78 39 79 44 80 40 81 41 82 43 83 45 84 42 85
REMARK H PARENT 74 16 62 47 36 58
REMARK Flexibility Score: inf
ROOT
ATOM      1  O   UNL     1       0.996   4.705   2.243  1.00  0.00    -0.374 OA
ENDROOT
BRANCH   1   2
ATOM      2  C   UNL     1       0.036   4.300   3.209  1.00  0.00     0.202 C 
BRANCH   2   3
ATOM      3  C   UNL     1      -1.118   3.400   2.754  1.00  0.00     0.261 C 
BRANCH   3   4
ATOM      4  O   UNL     1      -0.718   2.249   1.990  1.00  0.00    -0.463 OA
BRANCH   4   5
ATOM      5  C   UNL     1      -0.997   2.326   0.662  1.00  0.00     0.311 C 
ATOM      6  O   UNL     1      -1.515   3.291   0.109  1.00  0.00    -0.252 OA
BRANCH   5   7
ATOM      7  C   UNL     1      -0.701   1.056  -0.094  1.00  0.00     0.123 C 
ATOM      8  C   UNL     1       1.618   0.352  -0.692  1.00  0.00     0.032 C 
ATOM      9  C   UNL     1       0.504   0.177   0.348  1.00  0.00     0.098 C 
ATOM     10  N   UNL     1      -0.033  -1.197   0.382  1.00  0.00    -0.321 N 
ATOM     11  C   UNL     1      -1.924   0.156  -0.009  1.00  0.00     0.039 C 
ATOM     12  C   UNL     1      -1.356  -1.220  -0.228  1.00  0.00     0.122 C 
BRANCH  10  13
ATOM     13  C   UNL     1       0.454  -2.395   0.799  1.00  0.00     0.322 C 
ATOM     14  O   UNL     1      -0.269  -3.402   0.794  1.00  0.00    -0.248 OA
ATOM     15  N   UNL     1       1.737  -2.663   1.085  1.00  0.00    -0.308 N 
ATOM     16  H   UNL     1       1.876  -3.634   1.170  1.00  0.00     0.171 HD
BRANCH  15  17
ATOM     17  C   UNL     1       2.930  -1.981   1.299  1.00  0.00     0.044 A 
ATOM     18  C   UNL     1       4.037  -2.447   0.571  1.00  0.00     0.029 A 
ATOM     19  C   UNL     1       3.114  -1.055   2.323  1.00  0.00     0.049 A 
ATOM     20  C   UNL     1       5.312  -1.939   0.803  1.00  0.00     0.043 A 
ATOM     21  C   UNL     1       4.417  -0.618   2.612  1.00  0.00     0.078 A 
ATOM     22  C   UNL     1       5.496  -1.032   1.832  1.00  0.00     0.141 A 
ATOM     23  Cl  UNL     1       4.739   0.349   3.999  1.00  0.00    -0.081 Cl
ATOM     24  F   UNL     1       6.737  -0.589   2.084  1.00  0.00    -0.205 F 
ENDBRANCH  15  17
ENDBRANCH  10  13
ENDBRANCH   5   7
ENDBRANCH   4   5
ENDBRANCH   3   4
ENDBRANCH   2   3
ENDBRANCH   1   2
BRANCH   1  25
ATOM     25  C   UNL     1       1.854   3.724   1.675  1.00  0.00     0.202 C 
BRANCH  25  26
ATOM     26  C   UNL     1       2.794   2.945   2.599  1.00  0.00     0.261 C 
BRANCH  26  27
ATOM     27  O   UNL     1       2.128   2.191   3.632  1.00  0.00    -0.460 OA
BRANCH  27  28
ATOM     28  C   UNL     1       2.423   2.608   4.889  1.00  0.00     0.338 C 
ATOM     29  O   UNL     1       3.130   3.569   5.188  1.00  0.00    -0.246 OA
BRANCH  28  30
ATOM     30  C   UNL     1       1.706   1.850   5.934  1.00  0.00     0.060 A 
ATOM     31  C   UNL     1       1.198   2.591   7.007  1.00  0.00     0.016 A 
ATOM     32  C   UNL     1       1.661   0.453   5.967  1.00  0.00     0.016 A 
ATOM     33  C   UNL     1       0.724   1.943   8.143  1.00  0.00     0.010 A 
ATOM     34  C   UNL     1       1.183  -0.200   7.111  1.00  0.00     0.010 A 
ATOM     35  C   UNL     1       0.757   0.544   8.221  1.00  0.00    -0.014 A 
BRANCH  35  36
ATOM     36  C   UNL     1       0.424  -0.099   9.514  1.00  0.00     0.031 A 
ATOM     37  C   UNL     1       1.523  -0.514  10.452  1.00  0.00     0.074 A 
ATOM     38  C   UNL     1      -0.863  -0.223   9.882  1.00  0.00     0.049 A 
ATOM     39  N   UNL     1       1.438  -0.934  11.689  1.00  0.00    -0.248 NA
ATOM     40  C   UNL     1       2.897  -0.448   9.932  1.00  0.00     0.031 C 
ATOM     41  C   UNL     1      -2.012   0.137   9.053  1.00  0.00     0.029 A 
ATOM     42  N   UNL     1      -1.416  -0.665  11.055  1.00  0.00    -0.354 N 
ATOM     43  C   UNL     1       2.745  -1.169  12.100  1.00  0.00     0.074 A 
ATOM     44  C   UNL     1       3.600  -0.885  10.967  1.00  0.00     0.031 C 
ATOM     45  C   UNL     1      -3.138  -0.080   9.752  1.00  0.00     0.029 A 
ATOM     46  C   UNL     1      -2.786  -0.596  11.074  1.00  0.00     0.049 A 
ATOM     47  H   UNL     1      -0.882  -1.001  11.811  1.00  0.00     0.167 HD
ATOM     48  C   UNL     1       3.190  -1.567  13.316  1.00  0.00     0.037 A 
ATOM     49  C   UNL     1      -3.658  -0.896  12.054  1.00  0.00     0.037 A 
ATOM     50  C   UNL     1       2.337  -1.850  14.441  1.00  0.00     0.049 A 
ATOM     51  C   UNL     1      -3.140  -1.340  13.393  1.00  0.00     0.074 A 
ATOM     52  C   UNL     1       2.694  -2.232  15.723  1.00  0.00     0.029 A 
ATOM     53  N   UNL     1       0.952  -1.787  14.414  1.00  0.00    -0.354 N 
ATOM     54  N   UNL     1      -1.899  -1.495  13.789  1.00  0.00    -0.248 NA
ATOM     55  C   UNL     1      -4.143  -1.631  14.426  1.00  0.00     0.031 C 
ATOM     56  C   UNL     1       1.522  -2.433  16.462  1.00  0.00     0.029 A 
ATOM     57  C   UNL     1       0.438  -2.140  15.651  1.00  0.00     0.049 A 
ATOM     58  H   UNL     1       0.413  -1.529  13.631  1.00  0.00     0.167 HD
ATOM     59  C   UNL     1      -1.971  -1.881  15.120  1.00  0.00     0.074 A 
ATOM     60  C   UNL     1      -3.377  -1.920  15.469  1.00  0.00     0.031 C 
ATOM     61  C   UNL     1      -0.964  -2.176  15.979  1.00  0.00     0.037 A 
BRANCH  48  62
ATOM     62  C   UNL     1       4.672  -1.723  13.492  1.00  0.00     0.057 A 
ATOM     63  C   UNL     1       5.522  -0.614  13.588  1.00  0.00     0.134 A 
ATOM     64  C   UNL     1       5.251  -2.993  13.607  1.00  0.00     0.134 A 
ATOM     65  F   UNL     1       5.032   0.630  13.476  1.00  0.00    -0.206 F 
ATOM     66  C   UNL     1       6.898  -0.763  13.774  1.00  0.00     0.040 A 
ATOM     67  C   UNL     1       6.622  -3.154  13.814  1.00  0.00     0.040 A 
ATOM     68  F   UNL     1       4.492  -4.097  13.530  1.00  0.00    -0.206 F 
ATOM     69  C   UNL     1       7.451  -2.036  13.893  1.00  0.00     0.006 A 
ENDBRANCH  48  62
BRANCH  49  70
ATOM     70  C   UNL     1      -5.113  -0.747  11.812  1.00  0.00     0.057 A 
ATOM     71  C   UNL     1      -5.844   0.290  12.400  1.00  0.00     0.134 A 
ATOM     72  C   UNL     1      -5.802  -1.633  10.976  1.00  0.00     0.134 A 
ATOM     73  F   UNL     1      -5.240   1.159  13.224  1.00  0.00    -0.206 F 
ATOM     74  C   UNL     1      -7.214   0.434  12.176  1.00  0.00     0.040 A 
ATOM     75  C   UNL     1      -7.167  -1.489  10.726  1.00  0.00     0.040 A 
ATOM     76  F   UNL     1      -5.152  -2.643  10.378  1.00  0.00    -0.206 F 
ATOM     77  C   UNL     1      -7.877  -0.454  11.332  1.00  0.00     0.006 A 
ENDBRANCH  49  70
BRANCH  61  78
ATOM     78  C   UNL     1      -1.352  -2.550  17.378  1.00  0.00     0.057 A 
ATOM     79  C   UNL     1      -1.919  -3.795  17.676  1.00  0.00     0.134 A 
ATOM     80  C   UNL     1      -1.141  -1.661  18.439  1.00  0.00     0.134 A 
ATOM     81  F   UNL     1      -2.157  -4.685  16.701  1.00  0.00    -0.206 F 
ATOM     82  C   UNL     1      -2.287  -4.134  18.979  1.00  0.00     0.040 A 
ATOM     83  C   UNL     1      -1.486  -1.997  19.749  1.00  0.00     0.040 A 
ATOM     84  F   UNL     1      -0.596  -0.455  18.221  1.00  0.00    -0.206 F 
ATOM     85  C   UNL     1      -2.067  -3.234  20.021  1.00  0.00     0.006 A 
ENDBRANCH  61  78
ENDBRANCH  35  36
ENDBRANCH  28  30
ENDBRANCH  27  28
ENDBRANCH  26  27
ENDBRANCH  25  26
ENDBRANCH   1  25
TORSDOF 16
