REMARK SMILES O=C(OCCOCCOC(=O)[C@H]1C[C@](O)(c2ccc(F)cc2)[C@@H](c2ccc(F)cc2)O1)c1ccc(-c2c3nc(c(-c4c(F)cccc4F)c4ccc([nH]4)c(-c4c(F)cccc4F)c4nc(c(-c5c(F)cccc5F)c5ccc2[nH]5)C=C4)C=C3)cc1
REMARK SMILES IDX 5 1 4 2 3 3 2 4 1 5 32 6 33 7 85 8 34 9 84 10 35 11 36 12
REMARK SMILES IDX 37 13 78 14 38 15 83 16 77 17 79 18 39 19 82 20 76 21 75 22
REMARK SMILES IDX 40 24 66 25 49 26 65 27 50 28 53 29 64 30 80 31 51 32 52 33
REMARK SMILES IDX 63 35 81 36 54 37 41 38 42 39 47 40 43 41 44 42 46 43 48 44
REMARK SMILES IDX 45 45 67 46 68 47 73 48 69 49 70 50 72 51 74 52 71 53 55 54
REMARK SMILES IDX 56 55 61 56 57 57 58 58 60 59 62 60 59 61 6 62 7 63 8 64
REMARK SMILES IDX 9 65 10 66 11 67 12 68 13 69 31 70 14 71 23 72 16 73 17 74
REMARK SMILES IDX 22 75 18 76 21 77 19 78 20 79 15 80 24 82 25 83 30 84 26 85
REMARK SMILES IDX 29 86 27 87 28 88
REMARK H PARENT 79 23 53 34 15 81
REMARK Flexibility Score: inf
ROOT
ATOM      1  C   UNL     1       3.258   0.674  -2.861  1.00  0.00     0.202 C 
ENDROOT
BRANCH   1   2
ATOM      2  C   UNL     1       3.540  -0.606  -3.679  1.00  0.00     0.261 C 
BRANCH   2   3
ATOM      3  O   UNL     1       3.670  -0.361  -5.092  1.00  0.00    -0.460 OA
BRANCH   3   4
ATOM      4  C   UNL     1       2.835  -0.814  -6.065  1.00  0.00     0.338 C 
ATOM      5  O   UNL     1       3.274  -0.957  -7.204  1.00  0.00    -0.246 OA
BRANCH   4   6
ATOM      6  C   UNL     1       1.371  -1.037  -5.830  1.00  0.00     0.060 A 
ATOM      7  C   UNL     1       0.711  -0.668  -4.662  1.00  0.00     0.016 A 
ATOM      8  C   UNL     1       0.590  -1.567  -6.874  1.00  0.00     0.016 A 
ATOM      9  C   UNL     1      -0.650  -0.811  -4.506  1.00  0.00     0.010 A 
ATOM     10  C   UNL     1      -0.801  -1.707  -6.737  1.00  0.00     0.010 A 
ATOM     11  C   UNL     1      -1.416  -1.322  -5.545  1.00  0.00    -0.014 A 
BRANCH  11  12
ATOM     12  C   UNL     1      -2.842  -1.489  -5.234  1.00  0.00     0.031 A 
ATOM     13  C   UNL     1      -3.283  -2.793  -4.651  1.00  0.00     0.074 A 
ATOM     14  C   UNL     1      -3.615  -0.388  -5.179  1.00  0.00     0.049 A 
ATOM     15  N   UNL     1      -4.438  -3.119  -4.142  1.00  0.00    -0.248 NA
ATOM     16  C   UNL     1      -2.266  -3.859  -4.581  1.00  0.00     0.031 C 
ATOM     17  C   UNL     1      -3.170   0.964  -5.532  1.00  0.00     0.029 A 
ATOM     18  N   UNL     1      -4.892  -0.211  -4.724  1.00  0.00    -0.354 N 
ATOM     19  C   UNL     1      -4.289  -4.422  -3.690  1.00  0.00     0.074 A 
ATOM     20  C   UNL     1      -2.933  -4.830  -3.977  1.00  0.00     0.031 C 
ATOM     21  C   UNL     1      -4.145   1.837  -5.233  1.00  0.00     0.029 A 
ATOM     22  C   UNL     1      -5.299   1.102  -4.729  1.00  0.00     0.049 A 
ATOM     23  H   UNL     1      -5.465  -0.953  -4.422  1.00  0.00     0.167 HD
ATOM     24  C   UNL     1      -5.217  -5.204  -3.096  1.00  0.00     0.037 A 
ATOM     25  C   UNL     1      -6.484   1.636  -4.378  1.00  0.00     0.037 A 
ATOM     26  C   UNL     1      -6.567  -4.778  -2.857  1.00  0.00     0.049 A 
ATOM     27  C   UNL     1      -7.552   0.702  -3.883  1.00  0.00     0.074 A 
ATOM     28  C   UNL     1      -7.646  -5.520  -2.419  1.00  0.00     0.029 A 
ATOM     29  N   UNL     1      -7.015  -3.477  -3.042  1.00  0.00    -0.354 N 
ATOM     30  N   UNL     1      -7.457  -0.574  -3.589  1.00  0.00    -0.248 NA
ATOM     31  C   UNL     1      -8.897   1.262  -3.706  1.00  0.00     0.031 C 
ATOM     32  C   UNL     1      -8.759  -4.673  -2.373  1.00  0.00     0.029 A 
ATOM     33  C   UNL     1      -8.362  -3.396  -2.743  1.00  0.00     0.049 A 
ATOM     34  H   UNL     1      -6.457  -2.723  -3.341  1.00  0.00     0.167 HD
ATOM     35  C   UNL     1      -8.724  -0.970  -3.191  1.00  0.00     0.074 A 
ATOM     36  C   UNL     1      -9.567   0.209  -3.258  1.00  0.00     0.031 C 
ATOM     37  C   UNL     1      -9.160  -2.198  -2.818  1.00  0.00     0.037 A 
BRANCH  24  38
ATOM     38  C   UNL     1      -4.814  -6.605  -2.761  1.00  0.00     0.057 A 
ATOM     39  C   UNL     1      -5.205  -7.669  -3.583  1.00  0.00     0.134 A 
ATOM     40  C   UNL     1      -4.019  -6.902  -1.648  1.00  0.00     0.134 A 
ATOM     41  F   UNL     1      -5.953  -7.446  -4.673  1.00  0.00    -0.206 F 
ATOM     42  C   UNL     1      -4.826  -8.983  -3.305  1.00  0.00     0.040 A 
ATOM     43  C   UNL     1      -3.621  -8.211  -1.367  1.00  0.00     0.040 A 
ATOM     44  F   UNL     1      -3.583  -5.922  -0.842  1.00  0.00    -0.206 F 
ATOM     45  C   UNL     1      -4.029  -9.256  -2.195  1.00  0.00     0.006 A 
ENDBRANCH  24  38
BRANCH  25  46
ATOM     46  C   UNL     1      -6.735   3.093  -4.538  1.00  0.00     0.057 A 
ATOM     47  C   UNL     1      -6.728   3.696  -5.804  1.00  0.00     0.134 A 
ATOM     48  C   UNL     1      -7.001   3.918  -3.440  1.00  0.00     0.134 A 
ATOM     49  F   UNL     1      -6.488   2.964  -6.902  1.00  0.00    -0.206 F 
ATOM     50  C   UNL     1      -6.951   5.064  -5.970  1.00  0.00     0.040 A 
ATOM     51  C   UNL     1      -7.253   5.284  -3.594  1.00  0.00     0.040 A 
ATOM     52  F   UNL     1      -7.046   3.402  -2.203  1.00  0.00    -0.206 F 
ATOM     53  C   UNL     1      -7.221   5.862  -4.862  1.00  0.00     0.006 A 
ENDBRANCH  25  46
BRANCH  37  54
ATOM     54  C   UNL     1     -10.604  -2.325  -2.451  1.00  0.00     0.057 A 
ATOM     55  C   UNL     1     -10.987  -2.492  -1.115  1.00  0.00     0.134 A 
ATOM     56  C   UNL     1     -11.602  -2.374  -3.430  1.00  0.00     0.134 A 
ATOM     57  F   UNL     1     -10.070  -2.464  -0.135  1.00  0.00    -0.206 F 
ATOM     58  C   UNL     1     -12.316  -2.720  -0.766  1.00  0.00     0.040 A 
ATOM     59  C   UNL     1     -12.938  -2.582  -3.092  1.00  0.00     0.040 A 
ATOM     60  F   UNL     1     -11.293  -2.211  -4.726  1.00  0.00    -0.206 F 
ATOM     61  C   UNL     1     -13.296  -2.766  -1.757  1.00  0.00     0.006 A 
ENDBRANCH  37  54
ENDBRANCH  11  12
ENDBRANCH   4   6
ENDBRANCH   3   4
ENDBRANCH   2   3
ENDBRANCH   1   2
BRANCH   1  62
ATOM     62  O   UNL     1       2.255   1.574  -3.337  1.00  0.00    -0.374 OA
BRANCH  62  63
ATOM     63  C   UNL     1       2.517   2.282  -4.551  1.00  0.00     0.202 C 
BRANCH  63  64
ATOM     64  C   UNL     1       2.471   3.798  -4.338  1.00  0.00     0.261 C 
BRANCH  64  65
ATOM     65  O   UNL     1       3.804   4.277  -4.093  1.00  0.00    -0.461 OA
BRANCH  65  66
ATOM     66  C   UNL     1       4.295   4.114  -2.840  1.00  0.00     0.335 C 
ATOM     67  O   UNL     1       3.625   3.857  -1.841  1.00  0.00    -0.249 OA
BRANCH  66  68
ATOM     68  C   UNL     1       5.826   4.057  -2.870  1.00  0.00     0.232 C 
ATOM     69  C   UNL     1       6.242   2.642  -3.264  1.00  0.00     0.087 C 
ATOM     70  O   UNL     1       6.453   4.962  -3.786  1.00  0.00    -0.355 OA
ATOM     71  C   UNL     1       7.466   2.822  -4.135  1.00  0.00     0.123 C 
ATOM     72  C   UNL     1       7.156   4.195  -4.799  1.00  0.00     0.186 C 
BRANCH  71  73
ATOM     73  C   UNL     1       8.720   2.751  -3.255  1.00  0.00    -0.013 A 
ATOM     74  C   UNL     1       9.262   1.486  -2.929  1.00  0.00     0.010 A 
ATOM     75  C   UNL     1       9.359   3.889  -2.734  1.00  0.00     0.010 A 
ATOM     76  C   UNL     1      10.423   1.366  -2.166  1.00  0.00     0.039 A 
ATOM     77  C   UNL     1      10.524   3.768  -1.970  1.00  0.00     0.039 A 
ATOM     78  C   UNL     1      11.050   2.511  -1.703  1.00  0.00     0.123 A 
ATOM     79  F   UNL     1      12.178   2.403  -0.989  1.00  0.00    -0.207 F 
ENDBRANCH  71  73
BRANCH  71  80
ATOM     80  O   UNL     1       7.620   1.781  -5.101  1.00  0.00    -0.382 OA
ATOM     81  H   UNL     1       6.852   1.773  -5.693  1.00  0.00     0.212 HD
ENDBRANCH  71  80
BRANCH  72  82
ATOM     82  C   UNL     1       6.311   4.308  -6.068  1.00  0.00    -0.016 A 
ATOM     83  C   UNL     1       5.574   3.262  -6.645  1.00  0.00     0.009 A 
ATOM     84  C   UNL     1       6.244   5.574  -6.687  1.00  0.00     0.009 A 
ATOM     85  C   UNL     1       4.804   3.468  -7.795  1.00  0.00     0.039 A 
ATOM     86  C   UNL     1       5.483   5.780  -7.839  1.00  0.00     0.039 A 
ATOM     87  C   UNL     1       4.769   4.724  -8.383  1.00  0.00     0.123 A 
ATOM     88  F   UNL     1       4.033   4.918  -9.485  1.00  0.00    -0.207 F 
ENDBRANCH  72  82
ENDBRANCH  66  68
ENDBRANCH  65  66
ENDBRANCH  64  65
ENDBRANCH  63  64
ENDBRANCH  62  63
ENDBRANCH   1  62
TORSDOF 17
