REMARK SMILES CC[NH2+][C@]1(C(=O)OCCOCCOC(=O)c2ccc(-c3c4nc(c(-c5c(F)cccc5F)c5ccc([nH]5)c(-c5c(F)cccc5F)c5nc(c(-c6c(F)cccc6F)c6ccc3[nH]6)C=C5)C=C4)cc2)CCC[C@H]1CC[N@H+]1CCC[C@@H](CC)C1
REMARK SMILES IDX 9 1 8 2 7 3 5 4 6 5 4 6 70 7 73 8 71 9 72 10 3 11 2 14 1 15
REMARK SMILES IDX 74 16 75 17 76 18 77 19 83 20 78 22 80 23 79 24 81 25 82 26
REMARK SMILES IDX 10 27 11 28 12 29 13 30 14 31 15 32 16 33 17 34 69 35 18 36
REMARK SMILES IDX 68 37 19 38 20 39 21 40 62 41 22 42 67 43 61 44 63 45 23 46
REMARK SMILES IDX 66 47 60 48 59 49 24 51 50 52 33 53 49 54 34 55 37 56 48 57
REMARK SMILES IDX 64 58 35 59 36 60 47 62 65 63 38 64 25 65 26 66 31 67 27 68
REMARK SMILES IDX 28 69 30 70 32 71 29 72 51 73 52 74 57 75 53 76 54 77 56 78
REMARK SMILES IDX 58 79 55 80 39 81 40 82 45 83 41 84 42 85 44 86 46 87 43 88
REMARK H PARENT 3 12 3 13 76 21 63 50 37 61
REMARK Flexibility Score: inf
ROOT
ATOM      1  C   UNL     1       1.340  -1.037  -0.242  1.00  0.00     0.202 C 
ENDROOT
BRANCH   1   2
ATOM      2  C   UNL     1       0.211  -0.008  -0.240  1.00  0.00     0.261 C 
BRANCH   2   3
ATOM      3  O   UNL     1       0.287   0.992  -1.276  1.00  0.00    -0.459 OA
BRANCH   3   4
ATOM      4  C   UNL     1       0.949   2.153  -0.945  1.00  0.00     0.368 C 
ATOM      5  O   UNL     1       1.738   2.270  -0.017  1.00  0.00    -0.245 OA
BRANCH   4   6
ATOM      6  C   UNL     1       0.406   3.348  -1.772  1.00  0.00     0.197 C 
ATOM      7  C   UNL     1       0.863   4.695  -1.180  1.00  0.00     0.081 C 
ATOM      8  C   UNL     1       0.912   3.503  -3.257  1.00  0.00     0.068 C 
ATOM      9  C   UNL     1       0.557   5.726  -2.266  1.00  0.00     0.008 C 
ATOM     10  C   UNL     1       0.356   4.923  -3.564  1.00  0.00     0.011 C 
BRANCH   6  11
ATOM     11  N   UNL     1      -1.100   3.238  -1.806  1.00  0.00    -0.332 N 
ATOM     12  H   UNL     1      -1.456   3.935  -2.459  1.00  0.00     0.347 HD
ATOM     13  H   UNL     1      -1.316   2.282  -2.087  1.00  0.00     0.347 HD
BRANCH  11  14
ATOM     14  C   UNL     1      -1.750   3.450  -0.510  1.00  0.00     0.257 C 
ATOM     15  C   UNL     1      -3.215   3.050  -0.593  1.00  0.00     0.071 C 
ENDBRANCH  11  14
ENDBRANCH   6  11
BRANCH   8  16
ATOM     16  C   UNL     1       2.462   3.556  -3.464  1.00  0.00     0.072 C 
BRANCH  16  17
ATOM     17  C   UNL     1       3.153   2.769  -4.617  1.00  0.00     0.262 C 
BRANCH  17  18
ATOM     18  N   UNL     1       2.347   1.925  -5.512  1.00  0.00    -0.335 N 
ATOM     19  C   UNL     1       1.734   2.724  -6.591  1.00  0.00     0.262 C 
ATOM     20  C   UNL     1       3.184   0.870  -6.134  1.00  0.00     0.265 C 
ATOM     21  H   UNL     1       1.615   1.502  -4.943  1.00  0.00     0.348 HD
ATOM     22  C   UNL     1       0.849   1.854  -7.491  1.00  0.00     0.062 C 
ATOM     23  C   UNL     1       2.297  -0.111  -6.919  1.00  0.00     0.044 C 
ATOM     24  C   UNL     1       1.591   0.638  -8.051  1.00  0.00     0.015 C 
BRANCH  23  25
ATOM     25  C   UNL     1       3.092  -1.347  -7.373  1.00  0.00     0.006 C 
ATOM     26  C   UNL     1       2.268  -2.346  -8.175  1.00  0.00     0.004 C 
ENDBRANCH  23  25
ENDBRANCH  17  18
ENDBRANCH  16  17
ENDBRANCH   8  16
ENDBRANCH   4   6
ENDBRANCH   3   4
ENDBRANCH   2   3
ENDBRANCH   1   2
BRANCH   1  27
ATOM     27  O   UNL     1       2.595  -0.393  -0.131  1.00  0.00    -0.374 OA
BRANCH  27  28
ATOM     28  C   UNL     1       3.447  -0.412  -1.269  1.00  0.00     0.202 C 
BRANCH  28  29
ATOM     29  C   UNL     1       2.859  -0.059  -2.638  1.00  0.00     0.261 C 
BRANCH  29  30
ATOM     30  O   UNL     1       1.820  -0.909  -3.140  1.00  0.00    -0.460 OA
BRANCH  30  31
ATOM     31  C   UNL     1       2.211  -2.127  -3.558  1.00  0.00     0.338 C 
ATOM     32  O   UNL     1       3.340  -2.598  -3.472  1.00  0.00    -0.246 OA
BRANCH  31  33
ATOM     33  C   UNL     1       1.060  -2.866  -4.118  1.00  0.00     0.060 A 
ATOM     34  C   UNL     1       1.049  -4.258  -3.991  1.00  0.00     0.016 A 
ATOM     35  C   UNL     1       0.040  -2.218  -4.828  1.00  0.00     0.016 A 
ATOM     36  C   UNL     1       0.048  -5.004  -4.608  1.00  0.00     0.010 A 
ATOM     37  C   UNL     1      -0.932  -2.968  -5.489  1.00  0.00     0.010 A 
ATOM     38  C   UNL     1      -0.926  -4.366  -5.388  1.00  0.00    -0.014 A 
BRANCH  38  39
ATOM     39  C   UNL     1      -1.963  -5.176  -6.057  1.00  0.00     0.031 A 
ATOM     40  C   UNL     1      -1.666  -5.876  -7.349  1.00  0.00     0.074 A 
ATOM     41  C   UNL     1      -3.165  -5.289  -5.466  1.00  0.00     0.049 A 
ATOM     42  N   UNL     1      -2.397  -6.739  -8.005  1.00  0.00    -0.248 NA
ATOM     43  C   UNL     1      -0.381  -5.561  -7.992  1.00  0.00     0.031 C 
ATOM     44  C   UNL     1      -3.554  -4.621  -4.223  1.00  0.00     0.029 A 
ATOM     45  N   UNL     1      -4.276  -6.000  -5.829  1.00  0.00    -0.354 N 
ATOM     46  C   UNL     1      -1.652  -7.094  -9.123  1.00  0.00     0.074 A 
ATOM     47  C   UNL     1      -0.427  -6.323  -9.078  1.00  0.00     0.031 C 
ATOM     48  C   UNL     1      -4.824  -4.942  -3.934  1.00  0.00     0.029 A 
ATOM     49  C   UNL     1      -5.327  -5.849  -4.961  1.00  0.00     0.049 A 
ATOM     50  H   UNL     1      -4.317  -6.566  -6.634  1.00  0.00     0.167 HD
ATOM     51  C   UNL     1      -1.967  -7.993 -10.086  1.00  0.00     0.037 A 
ATOM     52  C   UNL     1      -6.555  -6.397  -4.985  1.00  0.00     0.037 A 
ATOM     53  C   UNL     1      -3.204  -8.733 -10.117  1.00  0.00     0.049 A 
ATOM     54  C   UNL     1      -6.872  -7.402  -6.052  1.00  0.00     0.074 A 
ATOM     55  C   UNL     1      -3.609  -9.706 -11.014  1.00  0.00     0.029 A 
ATOM     56  N   UNL     1      -4.243  -8.565  -9.213  1.00  0.00    -0.354 N 
ATOM     57  N   UNL     1      -6.120  -7.811  -7.047  1.00  0.00    -0.248 NA
ATOM     58  C   UNL     1      -8.188  -8.048  -5.984  1.00  0.00     0.031 C 
ATOM     59  C   UNL     1      -4.908 -10.101 -10.673  1.00  0.00     0.029 A 
ATOM     60  C   UNL     1      -5.297  -9.401  -9.541  1.00  0.00     0.049 A 
ATOM     61  H   UNL     1      -4.232  -7.944  -8.449  1.00  0.00     0.167 HD
ATOM     62  C   UNL     1      -6.862  -8.775  -7.712  1.00  0.00     0.074 A 
ATOM     63  C   UNL     1      -8.117  -8.902  -6.996  1.00  0.00     0.031 C 
ATOM     64  C   UNL     1      -6.537  -9.495  -8.813  1.00  0.00     0.037 A 
BRANCH  51  65
ATOM     65  C   UNL     1      -0.968  -8.233 -11.181  1.00  0.00     0.057 A 
ATOM     66  C   UNL     1       0.213  -8.951 -10.953  1.00  0.00     0.134 A 
ATOM     67  C   UNL     1      -1.220  -7.807 -12.491  1.00  0.00     0.134 A 
ATOM     68  F   UNL     1       0.518  -9.383  -9.720  1.00  0.00    -0.206 F 
ATOM     69  C   UNL     1       1.112  -9.228 -11.985  1.00  0.00     0.040 A 
ATOM     70  C   UNL     1      -0.338  -8.094 -13.536  1.00  0.00     0.040 A 
ATOM     71  F   UNL     1      -2.334  -7.120 -12.782  1.00  0.00    -0.206 F 
ATOM     72  C   UNL     1       0.833  -8.806 -13.284  1.00  0.00     0.006 A 
ENDBRANCH  51  65
BRANCH  52  73
ATOM     73  C   UNL     1      -7.535  -6.035  -3.934  1.00  0.00     0.057 A 
ATOM     74  C   UNL     1      -7.869  -6.926  -2.910  1.00  0.00     0.134 A 
ATOM     75  C   UNL     1      -8.124  -4.764  -3.905  1.00  0.00     0.134 A 
ATOM     76  F   UNL     1      -7.342  -8.159  -2.890  1.00  0.00    -0.206 F 
ATOM     77  C   UNL     1      -8.763  -6.572  -1.898  1.00  0.00     0.040 A 
ATOM     78  C   UNL     1      -9.003  -4.390  -2.888  1.00  0.00     0.040 A 
ATOM     79  F   UNL     1      -7.831  -3.861  -4.851  1.00  0.00    -0.206 F 
ATOM     80  C   UNL     1      -9.327  -5.298  -1.882  1.00  0.00     0.006 A 
ENDBRANCH  52  73
BRANCH  64  81
ATOM     81  C   UNL     1      -7.556 -10.480  -9.296  1.00  0.00     0.057 A 
ATOM     82  C   UNL     1      -8.713 -10.067  -9.968  1.00  0.00     0.134 A 
ATOM     83  C   UNL     1      -7.370 -11.854  -9.102  1.00  0.00     0.134 A 
ATOM     84  F   UNL     1      -8.951  -8.762 -10.170  1.00  0.00    -0.206 F 
ATOM     85  C   UNL     1      -9.663 -10.987 -10.410  1.00  0.00     0.040 A 
ATOM     86  C   UNL     1      -8.303 -12.785  -9.558  1.00  0.00     0.040 A 
ATOM     87  F   UNL     1      -6.279 -12.312  -8.470  1.00  0.00    -0.206 F 
ATOM     88  C   UNL     1      -9.457 -12.351 -10.209  1.00  0.00     0.006 A 
ENDBRANCH  64  81
ENDBRANCH  38  39
ENDBRANCH  31  33
ENDBRANCH  30  31
ENDBRANCH  29  30
ENDBRANCH  28  29
ENDBRANCH  27  28
ENDBRANCH   1  27
TORSDOF 20
