REMARK SMILES C[C@@H](C(=O)OCCOCCOC(=O)c1ccc(-c2c3nc(c(-c4c(F)cccc4F)c4ccc([nH]4)c(-c4c(F)cccc4F)c4nc(c(-c5c(F)cccc5F)c5ccc2[nH]5)C=C4)C=C3)cc1)c1ccc(-c2cccc(OC(=O)NCCC3CCCCC3)c2)c(F)c1
REMARK SMILES IDX 6 1 5 2 3 3 4 4 2 5 1 6 68 7 69 8 92 9 70 10 90 11 71 12
REMARK SMILES IDX 91 13 72 14 73 15 89 16 74 17 76 18 75 19 77 20 78 21 79 22
REMARK SMILES IDX 80 23 81 25 82 26 83 27 84 28 88 29 85 30 87 31 86 32 7 33
REMARK SMILES IDX 8 34 9 35 10 36 11 37 12 38 13 39 14 40 15 41 67 42 16 43
REMARK SMILES IDX 66 44 17 45 18 46 19 47 60 48 20 49 65 50 59 51 61 52 21 53
REMARK SMILES IDX 64 54 58 55 57 56 22 58 48 59 31 60 47 61 32 62 35 63 46 64
REMARK SMILES IDX 62 65 33 66 34 67 45 69 63 70 36 71 23 72 24 73 29 74 25 75
REMARK SMILES IDX 26 76 28 77 30 78 27 79 49 80 50 81 55 82 51 83 52 84 54 85
REMARK SMILES IDX 56 86 53 87 37 88 38 89 43 90 39 91 40 92 42 93 44 94 41 95
REMARK H PARENT 80 24 61 57 35 68
REMARK Flexibility Score: inf
ROOT
ATOM      1  C   UNL     1       2.374  -0.158  -4.239  1.00  0.00     0.261 C 
ENDROOT
BRANCH   1   2
ATOM      2  O   UNL     1       2.075   0.223  -2.884  1.00  0.00    -0.463 OA
BRANCH   2   3
ATOM      3  C   UNL     1       1.027   1.080  -2.735  1.00  0.00     0.313 C 
ATOM      4  O   UNL     1       0.464   1.645  -3.667  1.00  0.00    -0.252 OA
BRANCH   3   5
ATOM      5  C   UNL     1       0.603   1.262  -1.271  1.00  0.00     0.126 C 
ATOM      6  C   UNL     1       1.358   0.402  -0.251  1.00  0.00     0.025 C 
BRANCH   5   7
ATOM      7  C   UNL     1      -0.913   1.124  -1.159  1.00  0.00    -0.031 A 
ATOM      8  C   UNL     1      -1.721   2.263  -1.294  1.00  0.00     0.005 A 
ATOM      9  C   UNL     1      -1.547  -0.118  -1.038  1.00  0.00     0.044 A 
ATOM     10  C   UNL     1      -3.118   2.160  -1.306  1.00  0.00     0.012 A 
ATOM     11  C   UNL     1      -2.937  -0.215  -1.077  1.00  0.00     0.131 A 
ATOM     12  C   UNL     1      -3.755   0.915  -1.198  1.00  0.00     0.018 A 
ATOM     13  F   UNL     1      -3.477  -1.442  -0.994  1.00  0.00    -0.206 F 
BRANCH  12  14
ATOM     14  C   UNL     1      -5.220   0.816  -1.117  1.00  0.00    -0.012 A 
ATOM     15  C   UNL     1      -6.073   1.448  -2.034  1.00  0.00     0.009 A 
ATOM     16  C   UNL     1      -5.800   0.108  -0.052  1.00  0.00     0.056 A 
ATOM     17  C   UNL     1      -7.462   1.383  -1.878  1.00  0.00     0.004 A 
ATOM     18  C   UNL     1      -7.179   0.061   0.120  1.00  0.00     0.133 A 
ATOM     19  C   UNL     1      -8.016   0.695  -0.797  1.00  0.00     0.047 A 
BRANCH  18  20
ATOM     20  O   UNL     1      -7.818  -0.583   1.210  1.00  0.00    -0.410 OA
BRANCH  20  21
ATOM     21  C   UNL     1      -7.161  -1.091   2.329  1.00  0.00     0.412 C 
ATOM     22  O   UNL     1      -5.948  -1.147   2.511  1.00  0.00    -0.224 OA
ATOM     23  N   UNL     1      -7.995  -1.536   3.309  1.00  0.00    -0.321 N 
ATOM     24  H   UNL     1      -7.559  -1.865   4.128  1.00  0.00     0.167 HD
BRANCH  23  25
ATOM     25  C   UNL     1      -9.439  -1.586   3.297  1.00  0.00     0.119 C 
BRANCH  25  26
ATOM     26  C   UNL     1      -9.940  -3.030   3.326  1.00  0.00     0.025 C 
BRANCH  26  27
ATOM     27  C   UNL     1      -9.507  -3.836   4.572  1.00  0.00    -0.009 C 
ATOM     28  C   UNL     1     -10.152  -3.297   5.860  1.00  0.00     0.003 C 
ATOM     29  C   UNL     1      -9.843  -5.323   4.375  1.00  0.00     0.003 C 
ATOM     30  C   UNL     1      -9.800  -4.148   7.079  1.00  0.00     0.000 C 
ATOM     31  C   UNL     1      -9.469  -6.155   5.599  1.00  0.00     0.000 C 
ATOM     32  C   UNL     1     -10.136  -5.618   6.860  1.00  0.00     0.000 C 
ENDBRANCH  26  27
ENDBRANCH  25  26
ENDBRANCH  23  25
ENDBRANCH  20  21
ENDBRANCH  18  20
ENDBRANCH  12  14
ENDBRANCH   5   7
ENDBRANCH   3   5
ENDBRANCH   2   3
ENDBRANCH   1   2
BRANCH   1  33
ATOM     33  C   UNL     1       2.315  -1.678  -4.423  1.00  0.00     0.202 C 
BRANCH  33  34
ATOM     34  O   UNL     1       1.058  -2.325  -4.233  1.00  0.00    -0.374 OA
BRANCH  34  35
ATOM     35  C   UNL     1       0.541  -2.391  -2.909  1.00  0.00     0.202 C 
BRANCH  35  36
ATOM     36  C   UNL     1       1.167  -3.401  -1.936  1.00  0.00     0.261 C 
BRANCH  36  37
ATOM     37  O   UNL     1       2.574  -3.189  -1.735  1.00  0.00    -0.460 OA
BRANCH  37  38
ATOM     38  C   UNL     1       3.363  -4.117  -2.330  1.00  0.00     0.338 C 
ATOM     39  O   UNL     1       3.010  -5.119  -2.928  1.00  0.00    -0.246 OA
BRANCH  38  40
ATOM     40  C   UNL     1       4.764  -3.661  -2.332  1.00  0.00     0.060 A 
ATOM     41  C   UNL     1       5.403  -3.564  -3.575  1.00  0.00     0.016 A 
ATOM     42  C   UNL     1       5.465  -3.420  -1.150  1.00  0.00     0.016 A 
ATOM     43  C   UNL     1       6.762  -3.276  -3.640  1.00  0.00     0.010 A 
ATOM     44  C   UNL     1       6.833  -3.141  -1.216  1.00  0.00     0.010 A 
ATOM     45  C   UNL     1       7.495  -3.106  -2.459  1.00  0.00    -0.014 A 
BRANCH  45  46
ATOM     46  C   UNL     1       8.974  -3.045  -2.527  1.00  0.00     0.031 A 
ATOM     47  C   UNL     1       9.772  -4.269  -2.173  1.00  0.00     0.074 A 
ATOM     48  C   UNL     1       9.594  -1.927  -2.942  1.00  0.00     0.049 A 
ATOM     49  N   UNL     1      11.070  -4.432  -2.136  1.00  0.00    -0.248 NA
ATOM     50  C   UNL     1       9.004  -5.471  -1.811  1.00  0.00     0.031 C 
ATOM     51  C   UNL     1       8.926  -0.695  -3.359  1.00  0.00     0.029 A 
ATOM     52  N   UNL     1      10.931  -1.649  -3.078  1.00  0.00    -0.354 N 
ATOM     53  C   UNL     1      11.273  -5.747  -1.735  1.00  0.00     0.074 A 
ATOM     54  C   UNL     1       9.968  -6.329  -1.512  1.00  0.00     0.031 C 
ATOM     55  C   UNL     1       9.858   0.211  -3.700  1.00  0.00     0.029 A 
ATOM     56  C   UNL     1      11.184  -0.364  -3.489  1.00  0.00     0.049 A 
ATOM     57  H   UNL     1      11.640  -2.308  -2.899  1.00  0.00     0.167 HD
ATOM     58  C   UNL     1      12.444  -6.410  -1.576  1.00  0.00     0.037 A 
ATOM     59  C   UNL     1      12.356   0.281  -3.652  1.00  0.00     0.037 A 
ATOM     60  C   UNL     1      13.739  -5.826  -1.805  1.00  0.00     0.049 A 
ATOM     61  C   UNL     1      13.643  -0.456  -3.392  1.00  0.00     0.074 A 
ATOM     62  C   UNL     1      14.984  -6.421  -1.695  1.00  0.00     0.029 A 
ATOM     63  N   UNL     1      13.957  -4.509  -2.180  1.00  0.00    -0.354 N 
ATOM     64  N   UNL     1      13.827  -1.705  -3.038  1.00  0.00    -0.248 NA
ATOM     65  C   UNL     1      14.888   0.308  -3.557  1.00  0.00     0.031 C 
ATOM     66  C   UNL     1      15.957  -5.447  -1.942  1.00  0.00     0.029 A 
ATOM     67  C   UNL     1      15.318  -4.262  -2.273  1.00  0.00     0.049 A 
ATOM     68  H   UNL     1      13.250  -3.846  -2.355  1.00  0.00     0.167 HD
ATOM     69  C   UNL     1      15.204  -1.886  -2.971  1.00  0.00     0.074 A 
ATOM     70  C   UNL     1      15.807  -0.621  -3.334  1.00  0.00     0.031 C 
ATOM     71  C   UNL     1      15.905  -2.999  -2.643  1.00  0.00     0.037 A 
BRANCH  58  72
ATOM     72  C   UNL     1      12.377  -7.833  -1.099  1.00  0.00     0.057 A 
ATOM     73  C   UNL     1      11.890  -8.870  -1.906  1.00  0.00     0.134 A 
ATOM     74  C   UNL     1      12.841  -8.175   0.178  1.00  0.00     0.134 A 
ATOM     75  F   UNL     1      11.418  -8.610  -3.135  1.00  0.00    -0.206 F 
ATOM     76  C   UNL     1      11.844 -10.189  -1.452  1.00  0.00     0.040 A 
ATOM     77  C   UNL     1      12.828  -9.495   0.632  1.00  0.00     0.040 A 
ATOM     78  F   UNL     1      13.326  -7.234   1.002  1.00  0.00    -0.206 F 
ATOM     79  C   UNL     1      12.322 -10.506  -0.181  1.00  0.00     0.006 A 
ENDBRANCH  58  72
BRANCH  59  80
ATOM     80  C   UNL     1      12.370   1.706  -4.070  1.00  0.00     0.057 A 
ATOM     81  C   UNL     1      12.877   2.092  -5.316  1.00  0.00     0.134 A 
ATOM     82  C   UNL     1      11.901   2.719  -3.224  1.00  0.00     0.134 A 
ATOM     83  F   UNL     1      13.362   1.172  -6.163  1.00  0.00    -0.206 F 
ATOM     84  C   UNL     1      12.935   3.434  -5.699  1.00  0.00     0.040 A 
ATOM     85  C   UNL     1      11.926   4.061  -3.605  1.00  0.00     0.040 A 
ATOM     86  F   UNL     1      11.401   2.416  -2.017  1.00  0.00    -0.206 F 
ATOM     87  C   UNL     1      12.453   4.422  -4.843  1.00  0.00     0.006 A 
ENDBRANCH  59  80
BRANCH  71  88
ATOM     88  C   UNL     1      17.404  -2.914  -2.704  1.00  0.00     0.057 A 
ATOM     89  C   UNL     1      18.147  -2.170  -1.780  1.00  0.00     0.134 A 
ATOM     90  C   UNL     1      18.116  -3.623  -3.682  1.00  0.00     0.134 A 
ATOM     91  F   UNL     1      17.529  -1.459  -0.825  1.00  0.00    -0.206 F 
ATOM     92  C   UNL     1      19.541  -2.110  -1.842  1.00  0.00     0.040 A 
ATOM     93  C   UNL     1      19.510  -3.597  -3.735  1.00  0.00     0.040 A 
ATOM     94  F   UNL     1      17.468  -4.366  -4.593  1.00  0.00    -0.206 F 
ATOM     95  C   UNL     1      20.226  -2.832  -2.818  1.00  0.00     0.006 A 
ENDBRANCH  71  88
ENDBRANCH  45  46
ENDBRANCH  38  40
ENDBRANCH  37  38
ENDBRANCH  36  37
ENDBRANCH  35  36
ENDBRANCH  34  35
ENDBRANCH  33  34
ENDBRANCH   1  33
TORSDOF 21
