REMARK SMILES O=C(NC[C@@H]1CC[C@@H](C(=O)OCCOCCOC(=O)c2ccc(-c3c4nc(c(-c5c(F)cccc5F)c5ccc([nH]5)c(-c5c(F)cccc5F)c5nc(c(-c6c(F)cccc6F)c6ccc3[nH]6)C=C5)C=C4)cc2)O1)NC1CC1
REMARK SMILES IDX 13 1 12 2 11 3 9 4 10 5 8 6 5 7 6 8 74 9 7 10 4 11 3 12 1 13
REMARK SMILES IDX 2 14 75 15 76 18 77 19 78 20 14 21 15 22 16 23 17 24 18 25
REMARK SMILES IDX 19 26 20 27 21 28 73 29 22 30 72 31 23 32 24 33 25 34 66 35
REMARK SMILES IDX 26 36 71 37 65 38 67 39 27 40 70 41 64 42 63 43 28 45 54 46
REMARK SMILES IDX 37 47 53 48 38 49 41 50 52 51 68 52 39 53 40 54 51 56 69 57
REMARK SMILES IDX 42 58 29 59 30 60 35 61 31 62 32 63 34 64 36 65 33 66 55 67
REMARK SMILES IDX 56 68 61 69 57 70 58 71 60 72 62 73 59 74 43 75 44 76 49 77
REMARK SMILES IDX 45 78 46 79 48 80 50 81 47 82
REMARK H PARENT 3 16 75 17 67 44 41 55
REMARK Flexibility Score: inf
ROOT
ATOM      1  C   UNL     1       5.664   6.235  -4.004  1.00  0.00     0.202 C 
ENDROOT
BRANCH   1   2
ATOM      2  C   UNL     1       4.654   6.804  -3.002  1.00  0.00     0.261 C 
BRANCH   2   3
ATOM      3  O   UNL     1       4.697   6.041  -1.782  1.00  0.00    -0.461 OA
BRANCH   3   4
ATOM      4  C   UNL     1       3.491   5.682  -1.263  1.00  0.00     0.335 C 
ATOM      5  O   UNL     1       2.411   6.127  -1.632  1.00  0.00    -0.249 OA
BRANCH   4   6
ATOM      6  C   UNL     1       3.634   4.597  -0.191  1.00  0.00     0.228 C 
ATOM      7  C   UNL     1       4.897   2.685   0.276  1.00  0.00     0.138 C 
ATOM      8  C   UNL     1       4.838   3.556   1.521  1.00  0.00     0.037 C 
ATOM      9  O   UNL     1       4.042   3.314  -0.700  1.00  0.00    -0.361 OA
ATOM     10  C   UNL     1       4.626   4.925   0.912  1.00  0.00     0.047 C 
BRANCH   7  11
ATOM     11  C   UNL     1       4.519   1.210   0.484  1.00  0.00     0.149 C 
BRANCH  11  12
ATOM     12  N   UNL     1       3.085   0.987   0.604  1.00  0.00    -0.336 N 
ATOM     13  O   UNL     1       1.061   0.159   0.165  1.00  0.00    -0.249 OA
ATOM     14  C   UNL     1       2.273   0.094  -0.022  1.00  0.00     0.315 C 
ATOM     15  N   UNL     1       2.871  -0.831  -0.829  1.00  0.00    -0.335 N 
ATOM     16  H   UNL     1       2.628   1.580   1.244  1.00  0.00     0.165 HD
ATOM     17  H   UNL     1       3.854  -0.847  -0.877  1.00  0.00     0.165 HD
BRANCH  15  18
ATOM     18  C   UNL     1       2.136  -1.778  -1.609  1.00  0.00     0.084 C 
ATOM     19  C   UNL     1       2.852  -2.681  -2.579  1.00  0.00     0.027 C 
ATOM     20  C   UNL     1       2.247  -3.252  -1.331  1.00  0.00     0.027 C 
ENDBRANCH  15  18
ENDBRANCH  11  12
ENDBRANCH   7  11
ENDBRANCH   4   6
ENDBRANCH   3   4
ENDBRANCH   2   3
ENDBRANCH   1   2
BRANCH   1  21
ATOM     21  O   UNL     1       5.301   4.981  -4.589  1.00  0.00    -0.374 OA
BRANCH  21  22
ATOM     22  C   UNL     1       5.409   3.830  -3.752  1.00  0.00     0.202 C 
BRANCH  22  23
ATOM     23  C   UNL     1       6.793   3.177  -3.703  1.00  0.00     0.261 C 
BRANCH  23  24
ATOM     24  O   UNL     1       7.805   4.086  -3.234  1.00  0.00    -0.460 OA
BRANCH  24  25
ATOM     25  C   UNL     1       8.612   4.564  -4.208  1.00  0.00     0.338 C 
ATOM     26  O   UNL     1       8.640   4.218  -5.382  1.00  0.00    -0.246 OA
BRANCH  25  27
ATOM     27  C   UNL     1       9.416   5.698  -3.715  1.00  0.00     0.060 A 
ATOM     28  C   UNL     1       9.495   6.826  -4.540  1.00  0.00     0.016 A 
ATOM     29  C   UNL     1      10.158   5.631  -2.532  1.00  0.00     0.016 A 
ATOM     30  C   UNL     1      10.380   7.855  -4.232  1.00  0.00     0.010 A 
ATOM     31  C   UNL     1      11.048   6.667  -2.224  1.00  0.00     0.010 A 
ATOM     32  C   UNL     1      11.200   7.756  -3.101  1.00  0.00    -0.014 A 
BRANCH  32  33
ATOM     33  C   UNL     1      12.337   8.699  -2.965  1.00  0.00     0.031 A 
ATOM     34  C   UNL     1      13.704   8.261  -3.415  1.00  0.00     0.074 A 
ATOM     35  C   UNL     1      12.146   9.952  -2.517  1.00  0.00     0.049 A 
ATOM     36  N   UNL     1      14.823   8.938  -3.454  1.00  0.00    -0.248 NA
ATOM     37  C   UNL     1      13.824   6.871  -3.883  1.00  0.00     0.031 C 
ATOM     38  C   UNL     1      10.870  10.503  -2.067  1.00  0.00     0.029 A 
ATOM     39  N   UNL     1      13.034  10.988  -2.373  1.00  0.00    -0.354 N 
ATOM     40  C   UNL     1      15.777   8.060  -3.954  1.00  0.00     0.074 A 
ATOM     41  C   UNL     1      15.116   6.790  -4.161  1.00  0.00     0.031 C 
ATOM     42  C   UNL     1      11.059  11.779  -1.688  1.00  0.00     0.029 A 
ATOM     43  C   UNL     1      12.469  12.128  -1.861  1.00  0.00     0.049 A 
ATOM     44  H   UNL     1      13.986  10.919  -2.615  1.00  0.00     0.167 HD
ATOM     45  C   UNL     1      17.082   8.293  -4.232  1.00  0.00     0.037 A 
ATOM     46  C   UNL     1      13.027  13.317  -1.562  1.00  0.00     0.037 A 
ATOM     47  C   UNL     1      17.744   9.553  -4.027  1.00  0.00     0.049 A 
ATOM     48  C   UNL     1      14.485  13.547  -1.851  1.00  0.00     0.074 A 
ATOM     49  C   UNL     1      19.058   9.894  -4.296  1.00  0.00     0.029 A 
ATOM     50  N   UNL     1      17.139  10.682  -3.494  1.00  0.00    -0.354 N 
ATOM     51  N   UNL     1      15.367  12.723  -2.362  1.00  0.00    -0.248 NA
ATOM     52  C   UNL     1      15.021  14.880  -1.536  1.00  0.00     0.031 C 
ATOM     53  C   UNL     1      19.258  11.218  -3.888  1.00  0.00     0.029 A 
ATOM     54  C   UNL     1      18.058  11.715  -3.406  1.00  0.00     0.049 A 
ATOM     55  H   UNL     1      16.195  10.740  -3.219  1.00  0.00     0.167 HD
ATOM     56  C   UNL     1      16.555  13.440  -2.450  1.00  0.00     0.074 A 
ATOM     57  C   UNL     1      16.275  14.771  -1.952  1.00  0.00     0.031 C 
ATOM     58  C   UNL     1      17.766  13.033  -2.904  1.00  0.00     0.037 A 
BRANCH  45  59
ATOM     59  C   UNL     1      17.878   7.141  -4.772  1.00  0.00     0.057 A 
ATOM     60  C   UNL     1      17.689   6.656  -6.073  1.00  0.00     0.134 A 
ATOM     61  C   UNL     1      18.842   6.505  -3.979  1.00  0.00     0.134 A 
ATOM     62  F   UNL     1      16.769   7.210  -6.877  1.00  0.00    -0.206 F 
ATOM     63  C   UNL     1      18.406   5.560  -6.556  1.00  0.00     0.040 A 
ATOM     64  C   UNL     1      19.583   5.424  -4.459  1.00  0.00     0.040 A 
ATOM     65  F   UNL     1      19.075   6.920  -2.725  1.00  0.00    -0.206 F 
ATOM     66  C   UNL     1      19.360   4.943  -5.748  1.00  0.00     0.006 A 
ENDBRANCH  45  59
BRANCH  46  67
ATOM     67  C   UNL     1      12.193  14.384  -0.958  1.00  0.00     0.057 A 
ATOM     68  C   UNL     1      11.815  15.517  -1.686  1.00  0.00     0.134 A 
ATOM     69  C   UNL     1      11.746  14.287   0.366  1.00  0.00     0.134 A 
ATOM     70  F   UNL     1      12.230  15.675  -2.951  1.00  0.00    -0.206 F 
ATOM     71  C   UNL     1      11.030  16.521  -1.117  1.00  0.00     0.040 A 
ATOM     72  C   UNL     1      10.944  15.272   0.940  1.00  0.00     0.040 A 
ATOM     73  F   UNL     1      12.073  13.222   1.114  1.00  0.00    -0.206 F 
ATOM     74  C   UNL     1      10.587  16.396   0.199  1.00  0.00     0.006 A 
ENDBRANCH  46  67
BRANCH  58  75
ATOM     75  C   UNL     1      18.874  14.045  -2.903  1.00  0.00     0.057 A 
ATOM     76  C   UNL     1      19.497  14.457  -1.718  1.00  0.00     0.134 A 
ATOM     77  C   UNL     1      19.347  14.588  -4.104  1.00  0.00     0.134 A 
ATOM     78  F   UNL     1      19.083  13.983  -0.533  1.00  0.00    -0.206 F 
ATOM     79  C   UNL     1      20.534  15.391  -1.726  1.00  0.00     0.040 A 
ATOM     80  C   UNL     1      20.399  15.505  -4.127  1.00  0.00     0.040 A 
ATOM     81  F   UNL     1      18.800  14.229  -5.276  1.00  0.00    -0.206 F 
ATOM     82  C   UNL     1      20.991  15.914  -2.934  1.00  0.00     0.006 A 
ENDBRANCH  58  75
ENDBRANCH  32  33
ENDBRANCH  25  27
ENDBRANCH  24  25
ENDBRANCH  23  24
ENDBRANCH  22  23
ENDBRANCH  21  22
ENDBRANCH   1  21
TORSDOF 17
