REMARK SMILES Cc1cc(S(F)(F)(F)(F)F)cc2c1O[C@H](C(F)(F)F)C(C(=O)OCCOCCOC(=O)c1ccc(-c3c4nc(c(-c5c(F)cccc5F)c5ccc([nH]5)c(-c5c(F)cccc5F)c5nc(c(-c6c(F)cccc6F)c6ccc3[nH]6)C=C5)C=C4)cc1)=C2
REMARK SMILES IDX 27 1 26 2 25 3 24 4 23 5 21 6 22 7 20 8 1 9 2 10 3 11 13 12
REMARK SMILES IDX 4 13 12 14 14 15 11 16 86 17 15 18 5 19 6 20 7 21 8 22 9 23
REMARK SMILES IDX 10 24 16 25 17 26 18 27 19 28 28 29 29 30 30 31 31 32 32 33
REMARK SMILES IDX 33 34 85 35 34 36 84 37 35 38 36 39 37 40 78 41 38 42 83 43
REMARK SMILES IDX 77 44 79 45 39 46 82 47 76 48 75 49 40 51 66 52 49 53 65 54
REMARK SMILES IDX 50 55 53 56 64 57 80 58 51 59 52 60 63 62 81 63 54 64 41 65
REMARK SMILES IDX 42 66 47 67 43 68 44 69 46 70 48 71 45 72 67 73 68 74 73 75
REMARK SMILES IDX 69 76 70 77 72 78 74 79 71 80 55 81 56 82 61 83 57 84 58 85
REMARK SMILES IDX 60 86 62 87 59 88
REMARK H PARENT 79 50 53 61
REMARK Flexibility Score: inf
ROOT
ATOM      1  C   UNL     1      -1.507  -5.694  -4.483  1.00  0.00     0.202 C 
ENDROOT
BRANCH   1   2
ATOM      2  O   UNL     1      -1.616  -6.984  -5.068  1.00  0.00    -0.374 OA
BRANCH   2   3
ATOM      3  C   UNL     1      -1.216  -7.967  -4.125  1.00  0.00     0.202 C 
BRANCH   3   4
ATOM      4  C   UNL     1       0.226  -7.717  -3.714  1.00  0.00     0.261 C 
BRANCH   4   5
ATOM      5  O   UNL     1       0.335  -6.428  -3.129  1.00  0.00    -0.460 OA
BRANCH   5   6
ATOM      6  C   UNL     1      -0.012  -5.275  -3.882  1.00  0.00     0.338 C 
ATOM      7  O   UNL     1      -0.419  -5.397  -5.080  1.00  0.00    -0.246 OA
BRANCH   6   8
ATOM      8  C   UNL     1       0.105  -3.895  -3.256  1.00  0.00     0.087 C 
ATOM      9  C   UNL     1       0.946   0.046  -0.070  1.00  0.00     0.048 C 
ATOM     10  C   UNL     1       0.439  -0.113  -1.495  1.00  0.00    -0.007 A 
ATOM     11  C   UNL     1       0.097   0.994  -2.240  1.00  0.00     0.031 A 
ATOM     12  C   UNL     1       0.335  -1.381  -2.065  1.00  0.00     0.130 A 
ATOM     13  C   UNL     1      -0.353   0.857  -3.547  1.00  0.00     0.108 A 
ATOM     14  C   UNL     1      -0.119  -1.515  -3.396  1.00  0.00     0.019 A 
ATOM     15  O   UNL     1       0.682  -2.599  -1.322  1.00  0.00    -0.475 OA
ATOM     16  C   UNL     1      -0.457  -0.375  -4.128  1.00  0.00     0.036 A 
ATOM     17  C   UNL     1      -0.219  -2.858  -3.969  1.00  0.00     0.027 C 
ATOM     18  C   UNL     1       0.555  -3.793  -1.940  1.00  0.00     0.316 C 
BRANCH  13  19
ATOM     19  S   UNL     1      -0.807   2.332  -4.494  1.00  0.00     0.310 S 
ATOM     20  F   UNL     1      -2.301   2.502  -3.988  1.00  0.00    -0.094 F 
ATOM     21  F   UNL     1      -1.378   1.455  -5.671  1.00  0.00    -0.094 F 
ATOM     22  F   UNL     1      -1.006   3.630  -5.326  1.00  0.00    -0.094 F 
ATOM     23  F   UNL     1      -0.365   3.205  -3.254  1.00  0.00    -0.094 F 
ATOM     24  F   UNL     1      -0.706   1.034  -3.597  1.00  0.00    -0.094 F 
ENDBRANCH  13  19
BRANCH  18  25
ATOM     25  C   UNL     1       2.000  -4.252  -2.056  1.00  0.00     0.430 C 
ATOM     26  F   UNL     1       2.555  -4.280  -0.848  1.00  0.00    -0.167 F 
ATOM     27  F   UNL     1       2.037  -5.470  -2.589  1.00  0.00    -0.167 F 
ATOM     28  F   UNL     1       2.672  -3.407  -2.833  1.00  0.00    -0.167 F 
ENDBRANCH  18  25
ENDBRANCH   6   8
ENDBRANCH   5   6
ENDBRANCH   4   5
ENDBRANCH   3   4
ENDBRANCH   2   3
ENDBRANCH   1   2
BRANCH   1  29
ATOM     29  C   UNL     1      -2.404  -5.616  -3.259  1.00  0.00     0.261 C 
BRANCH  29  30
ATOM     30  O   UNL     1      -2.004  -6.599  -2.315  1.00  0.00    -0.460 OA
BRANCH  30  31
ATOM     31  C   UNL     1      -2.026  -7.974  -2.670  1.00  0.00     0.338 C 
ATOM     32  O   UNL     1      -2.405  -8.325  -3.831  1.00  0.00    -0.246 OA
BRANCH  31  33
ATOM     33  C   UNL     1      -1.598  -9.026  -1.660  1.00  0.00     0.060 A 
ATOM     34  C   UNL     1      -0.620  -9.971  -1.950  1.00  0.00     0.016 A 
ATOM     35  C   UNL     1      -2.037  -8.941  -0.422  1.00  0.00     0.016 A 
ATOM     36  C   UNL     1       0.180 -10.404  -0.869  1.00  0.00     0.010 A 
ATOM     37  C   UNL     1      -1.538  -9.787   0.574  1.00  0.00     0.010 A 
ATOM     38  C   UNL     1      -0.454 -10.505   0.368  1.00  0.00    -0.014 A 
BRANCH  38  39
ATOM     39  C   UNL     1       0.091 -11.421   1.451  1.00  0.00     0.031 A 
ATOM     40  C   UNL     1      -0.681 -12.465   1.963  1.00  0.00     0.074 A 
ATOM     41  C   UNL     1       1.431 -11.232   1.745  1.00  0.00     0.049 A 
ATOM     42  N   UNL     1      -0.284 -13.452   2.768  1.00  0.00    -0.248 NA
ATOM     43  C   UNL     1      -2.112 -12.648   1.679  1.00  0.00     0.031 C 
ATOM     44  C   UNL     1       2.219 -10.187   1.226  1.00  0.00     0.029 A 
ATOM     45  N   UNL     1       2.230 -11.993   2.569  1.00  0.00    -0.354 N 
ATOM     46  C   UNL     1      -1.304 -14.273   3.028  1.00  0.00     0.074 A 
ATOM     47  C   UNL     1      -2.495 -13.764   2.336  1.00  0.00     0.031 C 
ATOM     48  C   UNL     1       3.471 -10.308   1.738  1.00  0.00     0.029 A 
ATOM     49  C   UNL     1       3.488 -11.432   2.586  1.00  0.00     0.049 A 
ATOM     50  H   UNL     1       1.951 -12.799   3.062  1.00  0.00     0.167 HD
ATOM     51  C   UNL     1      -1.285 -15.427   3.813  1.00  0.00     0.037 A 
ATOM     52  C   UNL     1       4.599 -11.861   3.295  1.00  0.00     0.037 A 
ATOM     53  C   UNL     1      -0.162 -15.880   4.488  1.00  0.00     0.049 A 
ATOM     54  C   UNL     1       4.602 -12.983   4.128  1.00  0.00     0.074 A 
ATOM     55  C   UNL     1      -0.125 -17.045   5.277  1.00  0.00     0.029 A 
ATOM     56  N   UNL     1       1.089 -15.305   4.524  1.00  0.00    -0.354 N 
ATOM     57  N   UNL     1       3.594 -13.825   4.356  1.00  0.00    -0.248 NA
ATOM     58  C   UNL     1       5.764 -13.427   4.909  1.00  0.00     0.031 C 
ATOM     59  C   UNL     1       1.129 -17.167   5.790  1.00  0.00     0.029 A 
ATOM     60  C   UNL     1       1.895 -16.079   5.330  1.00  0.00     0.049 A 
ATOM     61  H   UNL     1       1.360 -14.483   4.055  1.00  0.00     0.167 HD
ATOM     62  C   UNL     1       3.980 -14.789   5.194  1.00  0.00     0.074 A 
ATOM     63  C   UNL     1       5.380 -14.542   5.568  1.00  0.00     0.031 C 
ATOM     64  C   UNL     1       3.224 -15.866   5.660  1.00  0.00     0.037 A 
BRANCH  51  65
ATOM     65  C   UNL     1      -2.569 -16.232   3.935  1.00  0.00     0.057 A 
ATOM     66  C   UNL     1      -3.116 -16.419   5.117  1.00  0.00     0.134 A 
ATOM     67  C   UNL     1      -3.153 -16.767   2.782  1.00  0.00     0.134 A 
ATOM     68  F   UNL     1      -2.557 -15.918   6.215  1.00  0.00    -0.206 F 
ATOM     69  C   UNL     1      -4.295 -17.155   5.190  1.00  0.00     0.040 A 
ATOM     70  C   UNL     1      -4.378 -17.247   2.809  1.00  0.00     0.040 A 
ATOM     71  F   UNL     1      -2.462 -16.792   1.646  1.00  0.00    -0.206 F 
ATOM     72  C   UNL     1      -5.077 -17.212   4.014  1.00  0.00     0.006 A 
ENDBRANCH  51  65
BRANCH  52  73
ATOM     73  C   UNL     1       5.887 -11.065   3.159  1.00  0.00     0.057 A 
ATOM     74  C   UNL     1       5.914  -9.796   3.506  1.00  0.00     0.134 A 
ATOM     75  C   UNL     1       7.033 -11.697   2.666  1.00  0.00     0.134 A 
ATOM     76  F   UNL     1       4.822  -9.192   3.967  1.00  0.00    -0.206 F 
ATOM     77  C   UNL     1       7.112  -9.102   3.379  1.00  0.00     0.040 A 
ATOM     78  C   UNL     1       8.215 -11.126   2.771  1.00  0.00     0.040 A 
ATOM     79  F   UNL     1       6.928 -12.888   2.083  1.00  0.00    -0.206 F 
ATOM     80  C   UNL     1       8.294  -9.876   3.382  1.00  0.00     0.006 A 
ENDBRANCH  52  73
BRANCH  64  81
ATOM     81  C   UNL     1       3.899 -16.865   6.585  1.00  0.00     0.057 A 
ATOM     82  C   UNL     1       3.997 -18.135   6.255  1.00  0.00     0.134 A 
ATOM     83  C   UNL     1       4.545 -16.369   7.722  1.00  0.00     0.134 A 
ATOM     84  F   UNL     1       3.376 -18.610   5.179  1.00  0.00    -0.206 F 
ATOM     85  C   UNL     1       4.767 -18.969   7.059  1.00  0.00     0.040 A 
ATOM     86  C   UNL     1       5.461 -17.083   8.342  1.00  0.00     0.040 A 
ATOM     87  F   UNL     1       4.231 -15.161   8.183  1.00  0.00    -0.206 F 
ATOM     88  C   UNL     1       5.767 -18.346   7.839  1.00  0.00     0.006 A 
ENDBRANCH  64  81
ENDBRANCH  38  39
ENDBRANCH  31  33
ENDBRANCH  30  31
ENDBRANCH  29  30
ENDBRANCH   1  29
TORSDOF 16
