REMARK SMILES Cc1c(C(=O)OCCOCCOC(=O)c2ccc(-c3c4nc(c(-c5c(F)cccc5F)c5ccc([nH]5)c(-c5c(F)cccc5F)c5nc(c(-c6c(F)cccc6F)c6ccc3[nH]6)C=C5)C=C4)cc2)oc2c1/C(=N/NC(=O)C(c1ccccc1)c1ccccc1)CCC2
REMARK SMILES IDX 8 1 7 2 6 3 4 4 5 5 3 6 1 7 2 8 71 9 69 10 70 11 72 12 92 13
REMARK SMILES IDX 73 14 90 15 91 16 74 17 75 18 76 20 77 21 78 22 79 23 83 24
REMARK SMILES IDX 80 25 82 26 81 27 84 28 85 29 89 30 86 31 88 32 87 33 9 34
REMARK SMILES IDX 10 35 11 36 12 37 13 38 14 39 15 40 16 41 68 42 17 43 67 44
REMARK SMILES IDX 18 45 19 46 20 47 61 48 21 49 66 50 60 51 62 52 22 53 65 54
REMARK SMILES IDX 59 55 58 56 23 58 49 59 32 60 48 61 33 62 36 63 47 64 63 65
REMARK SMILES IDX 34 66 35 67 46 69 64 70 37 71 24 72 25 73 30 74 26 75 27 76
REMARK SMILES IDX 29 77 31 78 28 79 50 80 51 81 56 82 52 83 53 84 55 85 57 86
REMARK SMILES IDX 54 87 38 88 39 89 44 90 40 91 41 92 43 93 45 94 42 95
REMARK H PARENT 74 19 62 57 36 68
REMARK Flexibility Score: inf
ROOT
ATOM      1  C   UNL     1      -2.990  -1.817   4.354  1.00  0.00     0.202 C 
ENDROOT
BRANCH   1   2
ATOM      2  C   UNL     1      -1.696  -1.511   5.109  1.00  0.00     0.261 C 
BRANCH   2   3
ATOM      3  O   UNL     1      -1.047  -0.376   4.552  1.00  0.00    -0.457 OA
BRANCH   3   4
ATOM      4  C   UNL     1      -0.101  -0.630   3.602  1.00  0.00     0.374 C 
ATOM      5  O   UNL     1       0.402  -1.710   3.365  1.00  0.00    -0.242 OA
BRANCH   4   6
ATOM      6  C   UNL     1       0.061   0.582   2.837  1.00  0.00     0.215 A 
ATOM      7  C   UNL     1       0.956  -0.130   0.515  1.00  0.00     0.049 C 
ATOM      8  C   UNL     1       0.518   0.843   1.546  1.00  0.00     0.012 A 
ATOM      9  C   UNL     1       0.561   2.262   1.463  1.00  0.00     0.043 A 
ATOM     10  O   UNL     1      -0.368   1.729   3.435  1.00  0.00    -0.453 OA
ATOM     11  C   UNL     1      -0.052   2.727   2.612  1.00  0.00     0.114 A 
ATOM     12  C   UNL     1       1.229   3.204   0.567  1.00  0.00     0.072 C 
ATOM     13  C   UNL     1      -0.208   4.096   3.142  1.00  0.00     0.076 C 
ATOM     14  N   UNL     1       1.597   2.734  -0.591  1.00  0.00    -0.177 NA
ATOM     15  C   UNL     1       1.459   4.487   1.341  1.00  0.00     0.059 C 
ATOM     16  C   UNL     1       0.250   5.062   2.072  1.00  0.00     0.014 C 
BRANCH  14  17
ATOM     17  N   UNL     1       2.313   3.182  -1.681  1.00  0.00    -0.246 N 
ATOM     18  C   UNL     1       2.968   4.327  -2.115  1.00  0.00     0.252 C 
ATOM     19  H   UNL     1       2.381   2.472  -2.360  1.00  0.00     0.193 HD
ATOM     20  O   UNL     1       3.489   4.306  -3.239  1.00  0.00    -0.272 OA
BRANCH  18  21
ATOM     21  C   UNL     1       3.072   5.587  -1.246  1.00  0.00     0.140 C 
BRANCH  21  22
ATOM     22  C   UNL     1       1.602   6.200  -1.181  1.00  0.00    -0.031 A 
ATOM     23  C   UNL     1       1.280   7.393  -0.515  1.00  0.00     0.005 A 
ATOM     24  C   UNL     1       0.490   5.500  -1.739  1.00  0.00     0.005 A 
ATOM     25  C   UNL     1      -0.070   7.756  -0.297  1.00  0.00     0.000 A 
ATOM     26  C   UNL     1      -0.842   5.824  -1.476  1.00  0.00     0.000 A 
ATOM     27  C   UNL     1      -1.126   6.953  -0.736  1.00  0.00     0.000 A 
ENDBRANCH  21  22
BRANCH  21  28
ATOM     28  C   UNL     1       3.969   5.185   0.010  1.00  0.00    -0.031 A 
ATOM     29  C   UNL     1       4.568   3.891   0.061  1.00  0.00     0.005 A 
ATOM     30  C   UNL     1       4.122   5.962   1.171  1.00  0.00     0.005 A 
ATOM     31  C   UNL     1       4.975   3.288   1.254  1.00  0.00     0.000 A 
ATOM     32  C   UNL     1       4.592   5.371   2.370  1.00  0.00     0.000 A 
ATOM     33  C   UNL     1       4.948   4.020   2.425  1.00  0.00     0.000 A 
ENDBRANCH  21  28
ENDBRANCH  18  21
ENDBRANCH  14  17
ENDBRANCH   4   6
ENDBRANCH   3   4
ENDBRANCH   2   3
ENDBRANCH   1   2
BRANCH   1  34
ATOM     34  O   UNL     1      -2.890  -2.292   3.009  1.00  0.00    -0.374 OA
BRANCH  34  35
ATOM     35  C   UNL     1      -2.691  -1.376   1.933  1.00  0.00     0.202 C 
BRANCH  35  36
ATOM     36  C   UNL     1      -3.862  -0.543   1.437  1.00  0.00     0.261 C 
BRANCH  36  37
ATOM     37  O   UNL     1      -4.341   0.293   2.474  1.00  0.00    -0.460 OA
BRANCH  37  38
ATOM     38  C   UNL     1      -5.357  -0.242   3.184  1.00  0.00     0.338 C 
ATOM     39  O   UNL     1      -5.847  -1.350   3.057  1.00  0.00    -0.246 OA
BRANCH  38  40
ATOM     40  C   UNL     1      -5.891   0.803   4.070  1.00  0.00     0.060 A 
ATOM     41  C   UNL     1      -7.160   0.508   4.565  1.00  0.00     0.016 A 
ATOM     42  C   UNL     1      -5.434   2.115   3.882  1.00  0.00     0.016 A 
ATOM     43  C   UNL     1      -8.109   1.490   4.457  1.00  0.00     0.010 A 
ATOM     44  C   UNL     1      -6.385   3.087   3.750  1.00  0.00     0.010 A 
ATOM     45  C   UNL     1      -7.717   2.719   3.921  1.00  0.00    -0.014 A 
BRANCH  45  46
ATOM     46  C   UNL     1      -8.738   3.685   3.612  1.00  0.00     0.031 A 
ATOM     47  C   UNL     1      -9.215   4.364   4.833  1.00  0.00     0.074 A 
ATOM     48  C   UNL     1      -9.083   3.955   2.340  1.00  0.00     0.049 A 
ATOM     49  N   UNL     1     -10.374   4.249   5.386  1.00  0.00    -0.248 NA
ATOM     50  C   UNL     1      -8.212   5.042   5.674  1.00  0.00     0.031 C 
ATOM     51  C   UNL     1      -8.488   3.456   1.096  1.00  0.00     0.029 A 
ATOM     52  N   UNL     1     -10.003   4.853   1.899  1.00  0.00    -0.354 N 
ATOM     53  C   UNL     1     -10.308   5.026   6.536  1.00  0.00     0.074 A 
ATOM     54  C   UNL     1      -8.916   5.273   6.780  1.00  0.00     0.031 C 
ATOM     55  C   UNL     1      -8.893   4.233   0.064  1.00  0.00     0.029 A 
ATOM     56  C   UNL     1      -9.856   5.199   0.556  1.00  0.00     0.049 A 
ATOM     57  H   UNL     1     -10.709   5.226   2.475  1.00  0.00     0.167 HD
ATOM     58  C   UNL     1     -11.417   5.638   7.027  1.00  0.00     0.037 A 
ATOM     59  C   UNL     1     -10.428   6.288  -0.019  1.00  0.00     0.037 A 
ATOM     60  C   UNL     1     -12.610   5.056   6.466  1.00  0.00     0.049 A 
ATOM     61  C   UNL     1     -11.560   6.694   0.867  1.00  0.00     0.074 A 
ATOM     62  C   UNL     1     -13.181   3.800   6.519  1.00  0.00     0.029 A 
ATOM     63  N   UNL     1     -13.170   5.690   5.382  1.00  0.00    -0.354 N 
ATOM     64  N   UNL     1     -12.631   5.961   1.030  1.00  0.00    -0.248 NA
ATOM     65  C   UNL     1     -11.259   7.607   1.964  1.00  0.00     0.031 C 
ATOM     66  C   UNL     1     -13.691   3.574   5.209  1.00  0.00     0.029 A 
ATOM     67  C   UNL     1     -13.488   4.731   4.455  1.00  0.00     0.049 A 
ATOM     68  H   UNL     1     -13.317   6.659   5.288  1.00  0.00     0.167 HD
ATOM     69  C   UNL     1     -12.886   6.002   2.395  1.00  0.00     0.074 A 
ATOM     70  C   UNL     1     -12.037   7.074   2.913  1.00  0.00     0.031 C 
ATOM     71  C   UNL     1     -13.516   4.970   3.030  1.00  0.00     0.037 A 
BRANCH  58  72
ATOM     72  C   UNL     1     -11.411   6.997   7.676  1.00  0.00     0.057 A 
ATOM     73  C   UNL     1     -12.611   7.482   8.223  1.00  0.00     0.134 A 
ATOM     74  C   UNL     1     -10.388   7.957   7.531  1.00  0.00     0.134 A 
ATOM     75  F   UNL     1     -13.659   6.667   8.419  1.00  0.00    -0.206 F 
ATOM     76  C   UNL     1     -12.809   8.837   8.507  1.00  0.00     0.040 A 
ATOM     77  C   UNL     1     -10.558   9.302   7.861  1.00  0.00     0.040 A 
ATOM     78  F   UNL     1      -9.204   7.683   6.973  1.00  0.00    -0.206 F 
ATOM     79  C   UNL     1     -11.784   9.755   8.314  1.00  0.00     0.006 A 
ENDBRANCH  58  72
BRANCH  59  80
ATOM     80  C   UNL     1      -9.853   7.178  -1.057  1.00  0.00     0.057 A 
ATOM     81  C   UNL     1     -10.644   8.092  -1.768  1.00  0.00     0.134 A 
ATOM     82  C   UNL     1      -8.462   7.332  -1.202  1.00  0.00     0.134 A 
ATOM     83  F   UNL     1     -11.980   8.064  -1.660  1.00  0.00    -0.206 F 
ATOM     84  C   UNL     1     -10.084   9.101  -2.569  1.00  0.00     0.040 A 
ATOM     85  C   UNL     1      -7.891   8.329  -2.000  1.00  0.00     0.040 A 
ATOM     86  F   UNL     1      -7.603   6.574  -0.505  1.00  0.00    -0.206 F 
ATOM     87  C   UNL     1      -8.702   9.226  -2.680  1.00  0.00     0.006 A 
ENDBRANCH  59  80
BRANCH  71  88
ATOM     88  C   UNL     1     -14.092   3.863   2.189  1.00  0.00     0.057 A 
ATOM     89  C   UNL     1     -13.315   2.972   1.431  1.00  0.00     0.134 A 
ATOM     90  C   UNL     1     -15.450   3.562   2.320  1.00  0.00     0.134 A 
ATOM     91  F   UNL     1     -11.989   3.119   1.336  1.00  0.00    -0.206 F 
ATOM     92  C   UNL     1     -13.873   1.850   0.810  1.00  0.00     0.040 A 
ATOM     93  C   UNL     1     -16.013   2.427   1.733  1.00  0.00     0.040 A 
ATOM     94  F   UNL     1     -16.240   4.333   3.084  1.00  0.00    -0.206 F 
ATOM     95  C   UNL     1     -15.226   1.570   0.969  1.00  0.00     0.006 A 
ENDBRANCH  71  88
ENDBRANCH  45  46
ENDBRANCH  38  40
ENDBRANCH  37  38
ENDBRANCH  36  37
ENDBRANCH  35  36
ENDBRANCH  34  35
ENDBRANCH   1  34
TORSDOF 18
