REMARK SMILES [NH3+][C@@H]1CCCCC[C@H]1C(=O)N1[C@@H](C2CC2)SC[C@H]1C(=O)OCCOCCOC(=O)c1ccc(-c2c3nc(c(-c4c(F)cccc4F)c4ccc([nH]4)c(-c4c(F)cccc4F)c4nc(c(-c5c(F)cccc5F)c5ccc2[nH]5)C=C4)C=C3)cc1
REMARK SMILES IDX 22 1 21 2 19 3 20 4 18 5 11 6 12 7 16 8 17 9 9 10 10 11 8 12
REMARK SMILES IDX 2 13 1 14 3 18 7 20 6 21 5 22 4 23 13 25 14 26 15 27 23 28
REMARK SMILES IDX 24 29 25 30 26 31 27 32 28 33 29 34 30 35 31 36 83 37 32 38
REMARK SMILES IDX 82 39 33 40 34 41 35 42 76 43 36 44 81 45 75 46 77 47 37 48
REMARK SMILES IDX 80 49 74 50 73 51 38 53 64 54 47 55 63 56 48 57 51 58 62 59
REMARK SMILES IDX 78 60 49 61 50 62 61 64 79 65 52 66 39 67 40 68 45 69 41 70
REMARK SMILES IDX 42 71 44 72 46 73 43 74 65 75 66 76 71 77 67 78 68 79 70 80
REMARK SMILES IDX 72 81 69 82 53 83 54 84 59 85 55 86 56 87 58 88 60 89 57 90
REMARK H PARENT 1 15 1 16 1 17 77 52 51 63
REMARK Flexibility Score: 90.00
ROOT
ATOM      1  C   UNL     1       5.991   1.484   4.999  1.00  0.00     0.261 C 
ENDROOT
BRANCH   1   2
ATOM      2  O   UNL     1       4.684   1.602   4.398  1.00  0.00    -0.462 OA
BRANCH   2   3
ATOM      3  C   UNL     1       3.991   2.703   4.784  1.00  0.00     0.329 C 
ATOM      4  O   UNL     1       4.391   3.500   5.631  1.00  0.00    -0.250 OA
BRANCH   3   5
ATOM      5  C   UNL     1       2.622   2.884   4.115  1.00  0.00     0.206 C 
ATOM      6  N   UNL     1       2.103   1.992   3.065  1.00  0.00    -0.315 N 
ATOM      7  C   UNL     1       1.294   0.905   3.580  1.00  0.00     0.147 C 
ATOM      8  S   UNL     1       0.383   1.625   4.955  1.00  0.00    -0.134 SA
ATOM      9  C   UNL     1       1.575   2.961   5.232  1.00  0.00     0.109 C 
BRANCH   6  10
ATOM     10  C   UNL     1       2.365   2.316   1.754  1.00  0.00     0.233 C 
ATOM     11  O   UNL     1       3.450   2.853   1.482  1.00  0.00    -0.274 OA
BRANCH  10  12
ATOM     12  C   UNL     1       1.267   2.403   0.662  1.00  0.00     0.136 C 
BRANCH  12  13
ATOM     13  C   UNL     1       0.263   1.256   0.457  1.00  0.00     0.193 C 
BRANCH  13  14
ATOM     14  N   UNL     1       0.988  -0.001   0.197  1.00  0.00    -0.354 N 
ATOM     15  H   UNL     1       0.318  -0.758   0.062  1.00  0.00     0.344 HD
ATOM     16  H   UNL     1       1.590  -0.216   0.992  1.00  0.00     0.344 HD
ATOM     17  H   UNL     1       1.558   0.103  -0.642  1.00  0.00     0.344 HD
ENDBRANCH  13  14
BRANCH  13  18
ATOM     18  C   UNL     1      -0.786   1.485  -0.658  1.00  0.00     0.066 CG0
ATOM     19  G   UNL     1      -1.836   2.536  -0.281  1.00  0.00     0.000 G0
ENDBRANCH  13  18
ENDBRANCH  12  13
BRANCH  12  20
ATOM     20  C   UNL     1       0.619   3.798   0.830  1.00  0.00     0.020 C 
BRANCH  20  21
ATOM     21  C   UNL     1      -0.003   4.339  -0.456  1.00  0.00     0.001 C 
BRANCH  21  22
ATOM     22  C   UNL     1      -1.467   3.969  -0.641  1.00  0.00     0.000 C 
BRANCH  22  23
ATOM     23  C   UNL     1      -1.836   2.536  -0.281  1.00  0.00     0.006 CG0
ATOM     24  G   UNL     1      -0.786   1.485  -0.658  1.00  0.00     0.000 G0
ENDBRANCH  22  23
ENDBRANCH  21  22
ENDBRANCH  20  21
ENDBRANCH  12  20
ENDBRANCH  10  12
ENDBRANCH   6  10
BRANCH   7  25
ATOM     25  C   UNL     1       2.151  -0.289   3.912  1.00  0.00     0.022 C 
ATOM     26  C   UNL     1       2.769  -0.600   5.260  1.00  0.00     0.007 C 
ATOM     27  C   UNL     1       1.617  -1.425   4.763  1.00  0.00     0.007 C 
ENDBRANCH   7  25
ENDBRANCH   3   5
ENDBRANCH   2   3
ENDBRANCH   1   2
BRANCH   1  28
ATOM     28  C   UNL     1       7.002   0.847   4.044  1.00  0.00     0.202 C 
BRANCH  28  29
ATOM     29  O   UNL     1       7.404   1.640   2.925  1.00  0.00    -0.374 OA
BRANCH  29  30
ATOM     30  C   UNL     1       6.390   1.984   1.981  1.00  0.00     0.202 C 
BRANCH  30  31
ATOM     31  C   UNL     1       5.987   0.886   0.986  1.00  0.00     0.261 C 
BRANCH  31  32
ATOM     32  O   UNL     1       5.616  -0.358   1.607  1.00  0.00    -0.460 OA
BRANCH  32  33
ATOM     33  C   UNL     1       6.533  -1.343   1.466  1.00  0.00     0.338 C 
ATOM     34  O   UNL     1       7.577  -1.304   0.827  1.00  0.00    -0.246 OA
BRANCH  33  35
ATOM     35  C   UNL     1       6.194  -2.501   2.310  1.00  0.00     0.060 A 
ATOM     36  C   UNL     1       7.176  -2.957   3.198  1.00  0.00     0.016 A 
ATOM     37  C   UNL     1       4.997  -3.204   2.150  1.00  0.00     0.016 A 
ATOM     38  C   UNL     1       6.991  -4.154   3.885  1.00  0.00     0.010 A 
ATOM     39  C   UNL     1       4.817  -4.412   2.836  1.00  0.00     0.010 A 
ATOM     40  C   UNL     1       5.831  -4.911   3.674  1.00  0.00    -0.014 A 
BRANCH  40  41
ATOM     41  C   UNL     1       5.764  -6.288   4.222  1.00  0.00     0.031 A 
ATOM     42  C   UNL     1       6.113  -7.449   3.331  1.00  0.00     0.074 A 
ATOM     43  C   UNL     1       5.465  -6.493   5.516  1.00  0.00     0.049 A 
ATOM     44  N   UNL     1       6.160  -8.727   3.613  1.00  0.00    -0.248 NA
ATOM     45  C   UNL     1       6.460  -7.129   1.936  1.00  0.00     0.031 C 
ATOM     46  C   UNL     1       5.144  -5.446   6.485  1.00  0.00     0.029 A 
ATOM     47  N   UNL     1       5.390  -7.657   6.240  1.00  0.00    -0.354 N 
ATOM     48  C   UNL     1       6.549  -9.360   2.438  1.00  0.00     0.074 A 
ATOM     49  C   UNL     1       6.689  -8.332   1.429  1.00  0.00     0.031 C 
ATOM     50  C   UNL     1       4.904  -6.016   7.678  1.00  0.00     0.029 A 
ATOM     51  C   UNL     1       5.035  -7.466   7.553  1.00  0.00     0.049 A 
ATOM     52  H   UNL     1       5.574  -8.544   5.854  1.00  0.00     0.167 HD
ATOM     53  C   UNL     1       6.783 -10.676   2.224  1.00  0.00     0.037 A 
ATOM     54  C   UNL     1       4.831  -8.363   8.536  1.00  0.00     0.037 A 
ATOM     55  C   UNL     1       6.643 -11.698   3.227  1.00  0.00     0.049 A 
ATOM     56  C   UNL     1       5.038  -9.828   8.254  1.00  0.00     0.074 A 
ATOM     57  C   UNL     1       6.855 -13.061   3.106  1.00  0.00     0.029 A 
ATOM     58  N   UNL     1       6.251 -11.468   4.536  1.00  0.00    -0.354 N 
ATOM     59  N   UNL     1       5.429 -10.410   7.146  1.00  0.00    -0.248 NA
ATOM     60  C   UNL     1       4.782 -10.760   9.361  1.00  0.00     0.031 C 
ATOM     61  C   UNL     1       6.557 -13.660   4.335  1.00  0.00     0.029 A 
ATOM     62  C   UNL     1       6.200 -12.665   5.230  1.00  0.00     0.049 A 
ATOM     63  H   UNL     1       6.041 -10.585   4.917  1.00  0.00     0.167 HD
ATOM     64  C   UNL     1       5.493 -11.768   7.431  1.00  0.00     0.074 A 
ATOM     65  C   UNL     1       5.114 -11.923   8.819  1.00  0.00     0.031 C 
ATOM     66  C   UNL     1       5.835 -12.797   6.617  1.00  0.00     0.037 A 
BRANCH  53  67
ATOM     67  C   UNL     1       7.212 -11.090   0.848  1.00  0.00     0.057 A 
ATOM     68  C   UNL     1       8.504 -10.834   0.372  1.00  0.00     0.134 A 
ATOM     69  C   UNL     1       6.341 -11.796   0.008  1.00  0.00     0.134 A 
ATOM     70  F   UNL     1       9.381 -10.151   1.123  1.00  0.00    -0.206 F 
ATOM     71  C   UNL     1       8.912 -11.254  -0.895  1.00  0.00     0.040 A 
ATOM     72  C   UNL     1       6.744 -12.240  -1.253  1.00  0.00     0.040 A 
ATOM     73  F   UNL     1       5.091 -12.078   0.405  1.00  0.00    -0.206 F 
ATOM     74  C   UNL     1       8.033 -11.966  -1.708  1.00  0.00     0.006 A 
ENDBRANCH  53  67
BRANCH  54  75
ATOM     75  C   UNL     1       4.399  -7.911   9.883  1.00  0.00     0.057 A 
ATOM     76  C   UNL     1       5.243  -8.022  10.994  1.00  0.00     0.134 A 
ATOM     77  C   UNL     1       3.116  -7.393  10.096  1.00  0.00     0.134 A 
ATOM     78  F   UNL     1       6.475  -8.534  10.858  1.00  0.00    -0.206 F 
ATOM     79  C   UNL     1       4.819  -7.657  12.273  1.00  0.00     0.040 A 
ATOM     80  C   UNL     1       2.688  -6.999  11.365  1.00  0.00     0.040 A 
ATOM     81  F   UNL     1       2.260  -7.260   9.073  1.00  0.00    -0.206 F 
ATOM     82  C   UNL     1       3.538  -7.140  12.460  1.00  0.00     0.006 A 
ENDBRANCH  54  75
BRANCH  66  83
ATOM     83  C   UNL     1       5.851 -14.171   7.216  1.00  0.00     0.057 A 
ATOM     84  C   UNL     1       4.669 -14.860   7.516  1.00  0.00     0.134 A 
ATOM     85  C   UNL     1       7.064 -14.829   7.458  1.00  0.00     0.134 A 
ATOM     86  F   UNL     1       3.476 -14.280   7.318  1.00  0.00    -0.206 F 
ATOM     87  C   UNL     1       4.694 -16.147   8.055  1.00  0.00     0.040 A 
ATOM     88  C   UNL     1       7.101 -16.124   7.974  1.00  0.00     0.040 A 
ATOM     89  F   UNL     1       8.231 -14.227   7.184  1.00  0.00    -0.206 F 
ATOM     90  C   UNL     1       5.913 -16.785   8.280  1.00  0.00     0.006 A 
ENDBRANCH  66  83
ENDBRANCH  40  41
ENDBRANCH  33  35
ENDBRANCH  32  33
ENDBRANCH  31  32
ENDBRANCH  30  31
ENDBRANCH  29  30
ENDBRANCH  28  29
ENDBRANCH   1  28
TORSDOF 18
