REMARK SMILES O=C(OCCOCCOC(=O)c1cc(Cl)c2c(c1)[C@H]1C=CC[C@H]1[C@H](c1ccc(S(=O)(=O)N3CCOCC3)cc1)N2)c1ccc(-c2c3nc(c(-c4c(F)cccc4F)c4ccc([nH]4)c(-c4c(F)cccc4F)c4nc(c(-c5c(F)cccc5F)c5ccc2[nH]5)C=C4)C=C3)cc1
REMARK SMILES IDX 7 1 6 2 5 3 4 4 3 5 2 6 1 7 41 8 42 9 94 10 43 11 93 12
REMARK SMILES IDX 44 13 45 14 46 15 87 16 47 17 92 18 86 19 88 20 48 21 91 22
REMARK SMILES IDX 85 23 84 24 49 26 75 27 58 28 74 29 59 30 62 31 73 32 89 33
REMARK SMILES IDX 60 34 61 35 72 37 90 38 63 39 50 40 51 41 56 42 52 43 53 44
REMARK SMILES IDX 55 45 57 46 54 47 76 48 77 49 82 50 78 51 79 52 81 53 83 54
REMARK SMILES IDX 80 55 64 56 65 57 70 58 66 59 67 60 69 61 71 62 68 63 8 64
REMARK SMILES IDX 9 65 10 66 11 67 12 68 13 69 18 70 14 71 17 72 15 73 16 74
REMARK SMILES IDX 19 75 40 76 20 77 23 78 24 79 21 81 22 82 25 83 26 84 39 85
REMARK SMILES IDX 27 86 38 87 28 88 29 89 30 90 31 91 32 92 33 93 37 94 34 95
REMARK SMILES IDX 36 96 35 97
REMARK H PARENT 88 25 62 36 40 80
REMARK Flexibility Score: inf
ROOT
ATOM      1  C   UNL     1       2.699  -1.962  -0.129  1.00  0.00     0.202 C 
ENDROOT
BRANCH   1   2
ATOM      2  O   UNL     1       4.000  -1.382  -0.015  1.00  0.00    -0.374 OA
BRANCH   2   3
ATOM      3  C   UNL     1       4.301  -0.792   1.246  1.00  0.00     0.202 C 
BRANCH   3   4
ATOM      4  C   UNL     1       4.177   0.731   1.292  1.00  0.00     0.261 C 
BRANCH   4   5
ATOM      5  O   UNL     1       2.863   1.172   0.935  1.00  0.00    -0.460 OA
BRANCH   5   6
ATOM      6  C   UNL     1       2.385   1.535  -0.277  1.00  0.00     0.338 C 
ATOM      7  O   UNL     1       1.286   2.087  -0.311  1.00  0.00    -0.246 OA
BRANCH   6   8
ATOM      8  C   UNL     1       3.056   1.246  -1.591  1.00  0.00     0.060 A 
ATOM      9  C   UNL     1       4.327   0.698  -1.772  1.00  0.00     0.016 A 
ATOM     10  C   UNL     1       2.305   1.527  -2.751  1.00  0.00     0.016 A 
ATOM     11  C   UNL     1       4.811   0.368  -3.029  1.00  0.00     0.010 A 
ATOM     12  C   UNL     1       2.813   1.274  -4.030  1.00  0.00     0.010 A 
ATOM     13  C   UNL     1       4.077   0.702  -4.161  1.00  0.00    -0.014 A 
BRANCH  13  14
ATOM     14  C   UNL     1       4.800   0.656  -5.437  1.00  0.00     0.031 A 
ATOM     15  C   UNL     1       5.763   1.772  -5.712  1.00  0.00     0.074 A 
ATOM     16  C   UNL     1       4.722  -0.427  -6.224  1.00  0.00     0.049 A 
ATOM     17  N   UNL     1       6.629   1.902  -6.678  1.00  0.00    -0.248 NA
ATOM     18  C   UNL     1       5.790   2.867  -4.723  1.00  0.00     0.031 C 
ATOM     19  C   UNL     1       3.911  -1.615  -5.955  1.00  0.00     0.029 A 
ATOM     20  N   UNL     1       5.355  -0.707  -7.403  1.00  0.00    -0.354 N 
ATOM     21  C   UNL     1       7.330   3.065  -6.391  1.00  0.00     0.074 A 
ATOM     22  C   UNL     1       6.787   3.612  -5.169  1.00  0.00     0.031 C 
ATOM     23  C   UNL     1       4.078  -2.490  -6.962  1.00  0.00     0.029 A 
ATOM     24  C   UNL     1       4.982  -1.908  -7.950  1.00  0.00     0.049 A 
ATOM     25  H   UNL     1       6.014  -0.105  -7.818  1.00  0.00     0.167 HD
ATOM     26  C   UNL     1       8.330   3.634  -7.099  1.00  0.00     0.037 A 
ATOM     27  C   UNL     1       5.320  -2.443  -9.137  1.00  0.00     0.037 A 
ATOM     28  C   UNL     1       8.775   3.130  -8.367  1.00  0.00     0.049 A 
ATOM     29  C   UNL     1       6.287  -1.683 -10.007  1.00  0.00     0.074 A 
ATOM     30  C   UNL     1       9.704   3.667  -9.236  1.00  0.00     0.029 A 
ATOM     31  N   UNL     1       8.278   1.978  -8.963  1.00  0.00    -0.354 N 
ATOM     32  N   UNL     1       6.940  -0.573  -9.748  1.00  0.00    -0.248 NA
ATOM     33  C   UNL     1       6.557  -2.241 -11.337  1.00  0.00     0.031 C 
ATOM     34  C   UNL     1       9.721   2.873 -10.389  1.00  0.00     0.029 A 
ATOM     35  C   UNL     1       8.849   1.808 -10.211  1.00  0.00     0.049 A 
ATOM     36  H   UNL     1       7.618   1.372  -8.557  1.00  0.00     0.167 HD
ATOM     37  C   UNL     1       7.712  -0.310 -10.871  1.00  0.00     0.074 A 
ATOM     38  C   UNL     1       7.457  -1.389 -11.806  1.00  0.00     0.031 C 
ATOM     39  C   UNL     1       8.556   0.724 -11.115  1.00  0.00     0.037 A 
BRANCH  26  40
ATOM     40  C   UNL     1       8.903   4.904  -6.549  1.00  0.00     0.057 A 
ATOM     41  C   UNL     1       8.567   6.137  -7.121  1.00  0.00     0.134 A 
ATOM     42  C   UNL     1       9.726   4.918  -5.415  1.00  0.00     0.134 A 
ATOM     43  F   UNL     1       7.767   6.194  -8.196  1.00  0.00    -0.206 F 
ATOM     44  C   UNL     1       9.026   7.339  -6.582  1.00  0.00     0.040 A 
ATOM     45  C   UNL     1      10.175   6.116  -4.855  1.00  0.00     0.040 A 
ATOM     46  F   UNL     1      10.052   3.773  -4.796  1.00  0.00    -0.206 F 
ATOM     47  C   UNL     1       9.826   7.332  -5.441  1.00  0.00     0.006 A 
ENDBRANCH  26  40
BRANCH  27  48
ATOM     48  C   UNL     1       4.698  -3.710  -9.597  1.00  0.00     0.057 A 
ATOM     49  C   UNL     1       3.328  -3.777  -9.883  1.00  0.00     0.134 A 
ATOM     50  C   UNL     1       5.453  -4.870  -9.801  1.00  0.00     0.134 A 
ATOM     51  F   UNL     1       2.546  -2.700  -9.714  1.00  0.00    -0.206 F 
ATOM     52  C   UNL     1       2.731  -4.949 -10.350  1.00  0.00     0.040 A 
ATOM     53  C   UNL     1       4.873  -6.043 -10.292  1.00  0.00     0.040 A 
ATOM     54  F   UNL     1       6.774  -4.866  -9.569  1.00  0.00    -0.206 F 
ATOM     55  C   UNL     1       3.507  -6.084 -10.565  1.00  0.00     0.006 A 
ENDBRANCH  27  48
BRANCH  39  56
ATOM     56  C   UNL     1       9.268   0.716 -12.434  1.00  0.00     0.057 A 
ATOM     57  C   UNL     1      10.644   0.465 -12.496  1.00  0.00     0.134 A 
ATOM     58  C   UNL     1       8.602   0.990 -13.634  1.00  0.00     0.134 A 
ATOM     59  F   UNL     1      11.342   0.207 -11.379  1.00  0.00    -0.206 F 
ATOM     60  C   UNL     1      11.334   0.489 -13.707  1.00  0.00     0.040 A 
ATOM     61  C   UNL     1       9.276   0.987 -14.856  1.00  0.00     0.040 A 
ATOM     62  F   UNL     1       7.281   1.226 -13.641  1.00  0.00    -0.206 F 
ATOM     63  C   UNL     1      10.648   0.743 -14.893  1.00  0.00     0.006 A 
ENDBRANCH  39  56
ENDBRANCH  13  14
ENDBRANCH   6   8
ENDBRANCH   5   6
ENDBRANCH   4   5
ENDBRANCH   3   4
ENDBRANCH   2   3
ENDBRANCH   1   2
BRANCH   1  64
ATOM     64  C   UNL     1       2.746  -3.482   0.044  1.00  0.00     0.261 C 
BRANCH  64  65
ATOM     65  O   UNL     1       3.227  -3.816   1.354  1.00  0.00    -0.460 OA
BRANCH  65  66
ATOM     66  C   UNL     1       4.570  -4.009   1.446  1.00  0.00     0.338 C 
ATOM     67  O   UNL     1       5.377  -4.113   0.550  1.00  0.00    -0.246 OA
BRANCH  66  68
ATOM     68  C   UNL     1       4.932  -3.828   2.866  1.00  0.00     0.062 A 
ATOM     69  C   UNL     1       4.184  -4.419   3.878  1.00  0.00     0.038 A 
ATOM     70  C   UNL     1       5.989  -2.964   3.174  1.00  0.00     0.022 A 
ATOM     71  C   UNL     1       4.521  -4.154   5.200  1.00  0.00     0.065 A 
ATOM     72  C   UNL     1       6.273  -2.628   4.503  1.00  0.00    -0.015 A 
ATOM     73  Cl  UNL     1       3.603  -4.934   6.444  1.00  0.00    -0.082 Cl
ATOM     74  C   UNL     1       5.562  -3.258   5.532  1.00  0.00     0.057 A 
ATOM     75  C   UNL     1       7.338  -1.608   4.801  1.00  0.00     0.049 C 
ATOM     76  N   UNL     1       5.933  -3.075   6.848  1.00  0.00    -0.376 N 
ATOM     77  C   UNL     1       6.888  -0.166   4.779  1.00  0.00    -0.023 C 
ATOM     78  C   UNL     1       7.937  -1.716   6.213  1.00  0.00     0.031 C 
ATOM     79  C   UNL     1       6.851  -2.038   7.265  1.00  0.00     0.114 C 
ATOM     80  H   UNL     1       5.557  -3.675   7.532  1.00  0.00     0.161 HD
ATOM     81  C   UNL     1       7.566   0.558   5.681  1.00  0.00    -0.030 C 
ATOM     82  C   UNL     1       8.524  -0.306   6.444  1.00  0.00     0.034 C 
BRANCH  79  83
ATOM     83  C   UNL     1       7.476  -2.483   8.575  1.00  0.00    -0.025 A 
ATOM     84  C   UNL     1       8.027  -3.769   8.742  1.00  0.00     0.007 A 
ATOM     85  C   UNL     1       7.500  -1.591   9.647  1.00  0.00     0.007 A 
ATOM     86  C   UNL     1       8.644  -4.131   9.942  1.00  0.00     0.022 A 
ATOM     87  C   UNL     1       8.074  -1.970  10.852  1.00  0.00     0.022 A 
ATOM     88  C   UNL     1       8.687  -3.212  10.990  1.00  0.00     0.082 A 
BRANCH  88  89
ATOM     89  S   UNL     1       9.594  -3.592  12.472  1.00  0.00     0.243 S 
ATOM     90  O   UNL     1       8.621  -3.999  13.460  1.00  0.00    -0.207 OA
ATOM     91  O   UNL     1      10.687  -4.455  12.075  1.00  0.00    -0.207 OA
BRANCH  89  92
ATOM     92  N   UNL     1      10.269  -2.128  12.944  1.00  0.00    -0.193 NA
ATOM     93  C   UNL     1       9.624  -1.226  13.922  1.00  0.00     0.131 C 
ATOM     94  C   UNL     1      11.426  -1.548  12.238  1.00  0.00     0.131 C 
ATOM     95  C   UNL     1       9.461   0.208  13.386  1.00  0.00     0.177 C 
ATOM     96  C   UNL     1      11.054  -0.179  11.667  1.00  0.00     0.177 C 
ATOM     97  O   UNL     1      10.623   0.705  12.711  1.00  0.00    -0.379 OA
ENDBRANCH  89  92
ENDBRANCH  88  89
ENDBRANCH  79  83
ENDBRANCH  66  68
ENDBRANCH  65  66
ENDBRANCH  64  65
ENDBRANCH   1  64
TORSDOF 17
