REMARK SMILES C[NH+]1CCC(NC(=O)N[C@H]2C=C[C@H](C(=O)OCCOCCOC(=O)c3ccc(-c4c5nc(c(-c6c(F)cccc6F)c6ccc([nH]6)c(-c6c(F)cccc6F)c6nc(c(-c7c(F)cccc7F)c7ccc4[nH]7)C=C6)C=C5)cc3)C2)CC1
REMARK SMILES IDX 19 1 18 2 17 3 16 4 14 5 15 6 13 7 10 8 11 9 79 10 12 11
REMARK SMILES IDX 9 12 6 13 7 14 8 16 5 18 1 19 2 20 3 21 81 22 4 24 80 25
REMARK SMILES IDX 20 26 21 27 22 28 23 29 24 30 25 31 26 32 78 33 27 34 77 35
REMARK SMILES IDX 28 36 29 37 30 38 71 39 31 40 76 41 70 42 72 43 32 44 75 45
REMARK SMILES IDX 69 46 68 47 33 49 59 50 42 51 58 52 43 53 46 54 57 55 73 56
REMARK SMILES IDX 44 57 45 58 56 60 74 61 47 62 34 63 35 64 40 65 36 66 37 67
REMARK SMILES IDX 39 68 41 69 38 70 60 71 61 72 66 73 62 74 63 75 65 76 67 77
REMARK SMILES IDX 64 78 48 79 49 80 54 81 50 82 51 83 53 84 55 85 52 86
REMARK H PARENT 6 15 9 17 2 23 72 48 46 59
REMARK Flexibility Score: inf
ROOT
ATOM      1  O   UNL     1      -1.548   2.916  -4.468  1.00  0.00    -0.374 OA
ENDROOT
BRANCH   1   2
ATOM      2  C   UNL     1      -2.731   2.329  -3.921  1.00  0.00     0.202 C 
BRANCH   2   3
ATOM      3  C   UNL     1      -2.762   0.800  -3.981  1.00  0.00     0.261 C 
BRANCH   3   4
ATOM      4  O   UNL     1      -1.684   0.258  -3.210  1.00  0.00    -0.463 OA
BRANCH   4   5
ATOM      5  C   UNL     1      -0.575  -0.166  -3.893  1.00  0.00     0.312 C 
ATOM      6  O   UNL     1      -0.480  -0.300  -5.102  1.00  0.00    -0.252 OA
BRANCH   5   7
ATOM      7  C   UNL     1       0.534  -0.376  -2.878  1.00  0.00     0.124 C 
ATOM      8  C   UNL     1       2.988  -0.349  -2.901  1.00  0.00     0.107 C 
ATOM      9  C   UNL     1       2.449  -1.731  -2.787  1.00  0.00    -0.006 C 
ATOM     10  C   UNL     1       1.757   0.548  -3.059  1.00  0.00     0.048 C 
ATOM     11  C   UNL     1       1.112  -1.755  -2.839  1.00  0.00    -0.014 C 
BRANCH   8  12
ATOM     12  N   UNL     1       3.980  -0.043  -1.877  1.00  0.00    -0.332 N 
ATOM     13  N   UNL     1       3.227  -0.038   0.387  1.00  0.00    -0.335 N 
ATOM     14  C   UNL     1       4.164   0.041  -0.559  1.00  0.00     0.315 C 
ATOM     15  H   UNL     1       3.590  -0.116   1.299  1.00  0.00     0.165 HD
ATOM     16  O   UNL     1       5.328   0.203  -0.178  1.00  0.00    -0.249 OA
ATOM     17  H   UNL     1       4.827   0.189  -2.324  1.00  0.00     0.165 HD
BRANCH  13  18
ATOM     18  C   UNL     1       1.788  -0.031   0.337  1.00  0.00     0.095 C 
ATOM     19  C   UNL     1      -2.407   0.039   0.697  1.00  0.00     0.332 C 
ATOM     20  N   UNL     1      -1.008   0.032   1.147  1.00  0.00    -0.337 N 
ATOM     21  C   UNL     1      -0.328   1.244   0.672  1.00  0.00     0.264 C 
ATOM     22  C   UNL     1      -0.365  -1.229   0.747  1.00  0.00     0.264 C 
ATOM     23  H   UNL     1      -0.950   0.062   2.164  1.00  0.00     0.347 HD
ATOM     24  C   UNL     1       1.179   1.233   0.934  1.00  0.00     0.086 C 
ATOM     25  C   UNL     1       1.149  -1.253   0.981  1.00  0.00     0.086 C 
ENDBRANCH  13  18
ENDBRANCH   8  12
ENDBRANCH   5   7
ENDBRANCH   4   5
ENDBRANCH   3   4
ENDBRANCH   2   3
ENDBRANCH   1   2
BRANCH   1  26
ATOM     26  C   UNL     1      -0.472   3.106  -3.548  1.00  0.00     0.202 C 
BRANCH  26  27
ATOM     27  C   UNL     1      -0.451   4.464  -2.844  1.00  0.00     0.261 C 
BRANCH  27  28
ATOM     28  O   UNL     1      -1.543   4.574  -1.918  1.00  0.00    -0.460 OA
BRANCH  28  29
ATOM     29  C   UNL     1      -2.614   5.244  -2.404  1.00  0.00     0.338 C 
ATOM     30  O   UNL     1      -2.706   5.826  -3.469  1.00  0.00    -0.246 OA
BRANCH  29  31
ATOM     31  C   UNL     1      -3.768   5.030  -1.514  1.00  0.00     0.060 A 
ATOM     32  C   UNL     1      -4.976   4.653  -2.113  1.00  0.00     0.016 A 
ATOM     33  C   UNL     1      -3.692   5.260  -0.139  1.00  0.00     0.016 A 
ATOM     34  C   UNL     1      -6.132   4.567  -1.346  1.00  0.00     0.010 A 
ATOM     35  C   UNL     1      -4.855   5.175   0.630  1.00  0.00     0.010 A 
ATOM     36  C   UNL     1      -6.086   4.871   0.021  1.00  0.00    -0.014 A 
BRANCH  36  37
ATOM     37  C   UNL     1      -7.352   5.018   0.774  1.00  0.00     0.031 A 
ATOM     38  C   UNL     1      -7.867   6.399   1.072  1.00  0.00     0.074 A 
ATOM     39  C   UNL     1      -8.053   3.934   1.148  1.00  0.00     0.049 A 
ATOM     40  N   UNL     1      -8.935   6.761   1.735  1.00  0.00    -0.248 NA
ATOM     41  C   UNL     1      -7.068   7.522   0.556  1.00  0.00     0.031 C 
ATOM     42  C   UNL     1      -7.674   2.549   0.877  1.00  0.00     0.029 A 
ATOM     43  N   UNL     1      -9.232   3.833   1.840  1.00  0.00    -0.354 N 
ATOM     44  C   UNL     1      -8.933   8.151   1.722  1.00  0.00     0.074 A 
ATOM     45  C   UNL     1      -7.739   8.567   1.018  1.00  0.00     0.031 C 
ATOM     46  C   UNL     1      -8.603   1.733   1.403  1.00  0.00     0.029 A 
ATOM     47  C   UNL     1      -9.620   2.538   2.076  1.00  0.00     0.049 A 
ATOM     48  H   UNL     1      -9.751   4.615   2.139  1.00  0.00     0.167 HD
ATOM     49  C   UNL     1      -9.850   9.002   2.239  1.00  0.00     0.037 A 
ATOM     50  C   UNL     1     -10.666   2.060   2.777  1.00  0.00     0.037 A 
ATOM     51  C   UNL     1     -11.036   8.580   2.939  1.00  0.00     0.049 A 
ATOM     52  C   UNL     1     -11.630   3.028   3.410  1.00  0.00     0.074 A 
ATOM     53  C   UNL     1     -12.036   9.362   3.490  1.00  0.00     0.029 A 
ATOM     54  N   UNL     1     -11.375   7.259   3.192  1.00  0.00    -0.354 N 
ATOM     55  N   UNL     1     -11.633   4.339   3.373  1.00  0.00    -0.248 NA
ATOM     56  C   UNL     1     -12.739   2.447   4.179  1.00  0.00     0.031 C 
ATOM     57  C   UNL     1     -12.950   8.516   4.127  1.00  0.00     0.029 A 
ATOM     58  C   UNL     1     -12.555   7.205   3.916  1.00  0.00     0.049 A 
ATOM     59  H   UNL     1     -10.854   6.476   2.901  1.00  0.00     0.167 HD
ATOM     60  C   UNL     1     -12.758   4.738   4.084  1.00  0.00     0.074 A 
ATOM     61  C   UNL     1     -13.421   3.529   4.528  1.00  0.00     0.031 C 
ATOM     62  C   UNL     1     -13.205   5.992   4.345  1.00  0.00     0.037 A 
BRANCH  49  63
ATOM     63  C   UNL     1      -9.592  10.474   2.091  1.00  0.00     0.057 A 
ATOM     64  C   UNL     1      -9.669  11.122   0.850  1.00  0.00     0.134 A 
ATOM     65  C   UNL     1      -9.293  11.262   3.210  1.00  0.00     0.134 A 
ATOM     66  F   UNL     1      -9.938  10.426  -0.265  1.00  0.00    -0.206 F 
ATOM     67  C   UNL     1      -9.433  12.493   0.725  1.00  0.00     0.040 A 
ATOM     68  C   UNL     1      -9.084  12.637   3.103  1.00  0.00     0.040 A 
ATOM     69  F   UNL     1      -9.207  10.708   4.429  1.00  0.00    -0.206 F 
ATOM     70  C   UNL     1      -9.147  13.256   1.856  1.00  0.00     0.006 A 
ENDBRANCH  49  63
BRANCH  50  71
ATOM     71  C   UNL     1     -10.853   0.594   2.926  1.00  0.00     0.057 A 
ATOM     72  C   UNL     1     -11.937  -0.063   2.335  1.00  0.00     0.134 A 
ATOM     73  C   UNL     1      -9.963  -0.181   3.680  1.00  0.00     0.134 A 
ATOM     74  F   UNL     1     -12.836   0.628   1.617  1.00  0.00    -0.206 F 
ATOM     75  C   UNL     1     -12.143  -1.433   2.504  1.00  0.00     0.040 A 
ATOM     76  C   UNL     1     -10.140  -1.557   3.834  1.00  0.00     0.040 A 
ATOM     77  F   UNL     1      -8.901   0.387   4.269  1.00  0.00    -0.206 F 
ATOM     78  C   UNL     1     -11.239  -2.185   3.252  1.00  0.00     0.006 A 
ENDBRANCH  50  71
BRANCH  62  79
ATOM     79  C   UNL     1     -14.493   6.119   5.108  1.00  0.00     0.057 A 
ATOM     80  C   UNL     1     -14.589   5.794   6.467  1.00  0.00     0.134 A 
ATOM     81  C   UNL     1     -15.647   6.606   4.479  1.00  0.00     0.134 A 
ATOM     82  F   UNL     1     -13.526   5.311   7.128  1.00  0.00    -0.206 F 
ATOM     83  C   UNL     1     -15.792   5.919   7.165  1.00  0.00     0.040 A 
ATOM     84  C   UNL     1     -16.847   6.766   5.173  1.00  0.00     0.040 A 
ATOM     85  F   UNL     1     -15.624   6.947   3.181  1.00  0.00    -0.206 F 
ATOM     86  C   UNL     1     -16.924   6.414   6.519  1.00  0.00     0.006 A 
ENDBRANCH  62  79
ENDBRANCH  36  37
ENDBRANCH  29  31
ENDBRANCH  28  29
ENDBRANCH  27  28
ENDBRANCH  26  27
ENDBRANCH   1  26
TORSDOF 16
