REMARK SMILES O=C(OCCOCCOC(=O)c1cc(-c2ccn(C(F)F)c(=O)c2)ccc1O)c1ccc(-c2c3nc(c(-c4c(F)cccc4F)c4ccc([nH]4)c(-c4c(F)cccc4F)c4nc(c(-c5c(F)cccc5F)c5ccc2[nH]5)C=C4)C=C3)cc1
REMARK SMILES IDX 6 1 5 2 4 3 3 4 2 5 1 6 29 7 30 8 82 9 31 10 81 11 32 12
REMARK SMILES IDX 33 13 34 14 75 15 35 16 80 17 74 18 76 19 36 20 79 21 73 22
REMARK SMILES IDX 72 23 37 25 63 26 46 27 62 28 47 29 50 30 61 31 77 32 48 33
REMARK SMILES IDX 49 34 60 36 78 37 51 38 38 39 39 40 44 41 40 42 41 43 43 44
REMARK SMILES IDX 45 45 42 46 64 47 65 48 70 49 66 50 67 51 69 52 71 53 68 54
REMARK SMILES IDX 52 55 53 56 58 57 54 58 55 59 57 60 59 61 56 62 7 63 8 64
REMARK SMILES IDX 9 65 10 66 11 67 12 68 13 69 27 70 14 71 26 72 25 73 28 74
REMARK SMILES IDX 15 76 16 77 24 78 17 79 22 80 18 81 23 82 19 83 20 84 21 85
REMARK H PARENT 76 24 50 35 28 75
REMARK Flexibility Score: inf
ROOT
ATOM      1  O   UNL     1       4.378   1.044   1.068  1.00  0.00    -0.374 OA
ENDROOT
BRANCH   1   2
ATOM      2  C   UNL     1       4.667   1.193  -0.319  1.00  0.00     0.202 C 
BRANCH   2   3
ATOM      3  C   UNL     1       4.227   0.077  -1.267  1.00  0.00     0.261 C 
BRANCH   3   4
ATOM      4  O   UNL     1       2.861  -0.318  -1.093  1.00  0.00    -0.460 OA
BRANCH   4   5
ATOM      5  C   UNL     1       2.437  -1.409  -0.408  1.00  0.00     0.338 C 
ATOM      6  O   UNL     1       1.381  -1.950  -0.727  1.00  0.00    -0.246 OA
BRANCH   5   7
ATOM      7  C   UNL     1       3.090  -1.815   0.871  1.00  0.00     0.060 A 
ATOM      8  C   UNL     1       2.241  -2.269   1.897  1.00  0.00     0.016 A 
ATOM      9  C   UNL     1       4.463  -1.771   1.120  1.00  0.00     0.016 A 
ATOM     10  C   UNL     1       2.754  -2.616   3.151  1.00  0.00     0.010 A 
ATOM     11  C   UNL     1       4.970  -2.031   2.384  1.00  0.00     0.010 A 
ATOM     12  C   UNL     1       4.122  -2.479   3.396  1.00  0.00    -0.014 A 
BRANCH  12  13
ATOM     13  C   UNL     1       4.762  -3.025   4.600  1.00  0.00     0.031 A 
ATOM     14  C   UNL     1       5.056  -2.176   5.790  1.00  0.00     0.074 A 
ATOM     15  C   UNL     1       5.226  -4.282   4.498  1.00  0.00     0.049 A 
ATOM     16  N   UNL     1       5.549  -2.535   6.945  1.00  0.00    -0.248 NA
ATOM     17  C   UNL     1       4.785  -0.737   5.663  1.00  0.00     0.031 C 
ATOM     18  C   UNL     1       5.091  -5.131   3.308  1.00  0.00     0.029 A 
ATOM     19  N   UNL     1       5.935  -5.046   5.378  1.00  0.00    -0.354 N 
ATOM     20  C   UNL     1       5.614  -1.376   7.704  1.00  0.00     0.074 A 
ATOM     21  C   UNL     1       5.167  -0.290   6.854  1.00  0.00     0.031 C 
ATOM     22  C   UNL     1       5.705  -6.300   3.533  1.00  0.00     0.029 A 
ATOM     23  C   UNL     1       6.247  -6.287   4.884  1.00  0.00     0.049 A 
ATOM     24  H   UNL     1       6.196  -4.739   6.276  1.00  0.00     0.167 HD
ATOM     25  C   UNL     1       6.003  -1.252   8.996  1.00  0.00     0.037 A 
ATOM     26  C   UNL     1       6.871  -7.313   5.480  1.00  0.00     0.037 A 
ATOM     27  C   UNL     1       6.510  -2.354   9.781  1.00  0.00     0.049 A 
ATOM     28  C   UNL     1       7.277  -7.154   6.913  1.00  0.00     0.074 A 
ATOM     29  C   UNL     1       6.851  -2.384  11.122  1.00  0.00     0.029 A 
ATOM     30  N   UNL     1       6.789  -3.618   9.273  1.00  0.00    -0.354 N 
ATOM     31  N   UNL     1       7.158  -6.108   7.696  1.00  0.00    -0.248 NA
ATOM     32  C   UNL     1       7.865  -8.332   7.554  1.00  0.00     0.031 C 
ATOM     33  C   UNL     1       7.393  -3.644  11.408  1.00  0.00     0.029 A 
ATOM     34  C   UNL     1       7.333  -4.423  10.262  1.00  0.00     0.049 A 
ATOM     35  H   UNL     1       6.623  -3.901   8.345  1.00  0.00     0.167 HD
ATOM     36  C   UNL     1       7.627  -6.510   8.936  1.00  0.00     0.074 A 
ATOM     37  C   UNL     1       8.005  -7.905   8.800  1.00  0.00     0.031 C 
ATOM     38  C   UNL     1       7.734  -5.798  10.087  1.00  0.00     0.037 A 
BRANCH  25  39
ATOM     39  C   UNL     1       5.892   0.106   9.633  1.00  0.00     0.057 A 
ATOM     40  C   UNL     1       7.029   0.801  10.063  1.00  0.00     0.134 A 
ATOM     41  C   UNL     1       4.647   0.711   9.865  1.00  0.00     0.134 A 
ATOM     42  F   UNL     1       8.253   0.282   9.885  1.00  0.00    -0.206 F 
ATOM     43  C   UNL     1       6.934   2.043  10.695  1.00  0.00     0.040 A 
ATOM     44  C   UNL     1       4.541   1.965  10.472  1.00  0.00     0.040 A 
ATOM     45  F   UNL     1       3.513   0.105   9.481  1.00  0.00    -0.206 F 
ATOM     46  C   UNL     1       5.688   2.632  10.895  1.00  0.00     0.006 A 
ENDBRANCH  25  39
BRANCH  26  47
ATOM     47  C   UNL     1       7.017  -8.599   4.763  1.00  0.00     0.057 A 
ATOM     48  C   UNL     1       7.904  -8.754   3.694  1.00  0.00     0.134 A 
ATOM     49  C   UNL     1       6.228  -9.699   5.117  1.00  0.00     0.134 A 
ATOM     50  F   UNL     1       8.664  -7.726   3.287  1.00  0.00    -0.206 F 
ATOM     51  C   UNL     1       8.008  -9.964   3.006  1.00  0.00     0.040 A 
ATOM     52  C   UNL     1       6.339 -10.921   4.455  1.00  0.00     0.040 A 
ATOM     53  F   UNL     1       5.355  -9.604   6.131  1.00  0.00    -0.206 F 
ATOM     54  C   UNL     1       7.231 -11.054   3.393  1.00  0.00     0.006 A 
ENDBRANCH  26  47
BRANCH  38  55
ATOM     55  C   UNL     1       8.275  -6.547  11.271  1.00  0.00     0.057 A 
ATOM     56  C   UNL     1       7.441  -6.878  12.346  1.00  0.00     0.134 A 
ATOM     57  C   UNL     1       9.605  -6.989  11.322  1.00  0.00     0.134 A 
ATOM     58  F   UNL     1       6.161  -6.479  12.366  1.00  0.00    -0.206 F 
ATOM     59  C   UNL     1       7.904  -7.641  13.418  1.00  0.00     0.040 A 
ATOM     60  C   UNL     1      10.068  -7.784  12.371  1.00  0.00     0.040 A 
ATOM     61  F   UNL     1      10.450  -6.722  10.315  1.00  0.00    -0.206 F 
ATOM     62  C   UNL     1       9.216  -8.111  13.423  1.00  0.00     0.006 A 
ENDBRANCH  38  55
ENDBRANCH  12  13
ENDBRANCH   5   7
ENDBRANCH   4   5
ENDBRANCH   3   4
ENDBRANCH   2   3
ENDBRANCH   1   2
BRANCH   1  63
ATOM     63  C   UNL     1       3.113   1.567   1.488  1.00  0.00     0.202 C 
BRANCH  63  64
ATOM     64  C   UNL     1       3.117   3.070   1.800  1.00  0.00     0.261 C 
BRANCH  64  65
ATOM     65  O   UNL     1       3.455   3.857   0.648  1.00  0.00    -0.460 OA
BRANCH  65  66
ATOM     66  C   UNL     1       4.745   4.279   0.562  1.00  0.00     0.342 C 
ATOM     67  O   UNL     1       5.637   4.109   1.377  1.00  0.00    -0.246 OA
BRANCH  66  68
ATOM     68  C   UNL     1       4.981   4.756  -0.817  1.00  0.00     0.102 A 
ATOM     69  C   UNL     1       5.947   4.089  -1.595  1.00  0.00     0.028 A 
ATOM     70  C   UNL     1       4.218   5.784  -1.373  1.00  0.00     0.130 A 
ATOM     71  C   UNL     1       6.096   4.406  -2.948  1.00  0.00    -0.017 A 
ATOM     72  C   UNL     1       4.403   6.141  -2.706  1.00  0.00     0.048 A 
ATOM     73  C   UNL     1       5.328   5.447  -3.490  1.00  0.00     0.012 A 
BRANCH  70  74
ATOM     74  O   UNL     1       3.303   6.450  -0.611  1.00  0.00    -0.507 OA
ATOM     75  H   UNL     1       3.177   6.211   0.286  1.00  0.00     0.293 HD
ENDBRANCH  70  74
BRANCH  71  76
ATOM     76  C   UNL     1       7.021   3.679  -3.838  1.00  0.00    -0.011 A 
ATOM     77  C   UNL     1       8.332   4.192  -4.179  1.00  0.00     0.027 A 
ATOM     78  C   UNL     1       6.570   2.574  -4.460  1.00  0.00     0.080 A 
ATOM     79  C   UNL     1       9.040   3.642  -5.172  1.00  0.00     0.095 A 
ATOM     80  C   UNL     1       7.370   1.922  -5.538  1.00  0.00     0.255 A 
ATOM     81  N   UNL     1       8.564   2.545  -5.865  1.00  0.00    -0.258 N 
ATOM     82  O   UNL     1       6.913   0.921  -6.080  1.00  0.00    -0.269 OA
BRANCH  81  83
ATOM     83  C   UNL     1       9.285   2.030  -7.003  1.00  0.00     0.451 C 
ATOM     84  F   UNL     1       9.602   0.724  -6.842  1.00  0.00    -0.185 F 
ATOM     85  F   UNL     1       8.543   2.146  -8.133  1.00  0.00    -0.185 F 
ENDBRANCH  81  83
ENDBRANCH  71  76
ENDBRANCH  66  68
ENDBRANCH  65  66
ENDBRANCH  64  65
ENDBRANCH  63  64
ENDBRANCH   1  63
TORSDOF 17
