REMARK SMILES CC(=O)c1c(C)nn(CC(=O)N2CCC[C@H](c3cccc(C(=O)OCCOCCOC(=O)c4ccc(-c5c6nc(c(-c7c(F)cccc7F)c7ccc([nH]7)c(-c7c(F)cccc7F)c7nc(c(-c8c(F)cccc8F)c8ccc5[nH]8)C=C7)C=C6)cc4)c3)C2)c1C
REMARK SMILES IDX 25 1 24 2 22 3 23 4 21 5 17 6 18 7 87 8 19 9 20 10 16 11
REMARK SMILES IDX 12 12 13 13 88 14 14 15 15 16 10 17 11 18 9 19 8 20 4 21
REMARK SMILES IDX 5 22 89 23 6 24 7 25 90 26 2 27 1 28 3 29 26 30 27 31 28 32
REMARK SMILES IDX 29 33 30 34 31 35 32 36 33 37 34 38 86 39 35 40 85 41 36 42
REMARK SMILES IDX 37 43 38 44 79 45 39 46 84 47 78 48 80 49 40 50 83 51 77 52
REMARK SMILES IDX 76 53 41 55 67 56 50 57 66 58 51 59 54 60 65 61 81 62 52 63
REMARK SMILES IDX 53 64 64 66 82 67 55 68 42 69 43 70 48 71 44 72 45 73 47 74
REMARK SMILES IDX 49 75 46 76 68 77 69 78 74 79 70 80 71 81 73 82 75 83 72 84
REMARK SMILES IDX 56 85 57 86 62 87 58 88 59 89 61 90 63 91 60 92
REMARK H PARENT 80 54 54 65
REMARK Flexibility Score: inf
ROOT
ATOM      1  C   UNL     1      -0.720  -8.598  -9.248  1.00  0.00     0.261 C 
ENDROOT
BRANCH   1   2
ATOM      2  O   UNL     1      -0.058  -7.615  -8.442  1.00  0.00    -0.460 OA
BRANCH   2   3
ATOM      3  C   UNL     1       0.407  -6.547  -9.137  1.00  0.00     0.338 C 
ATOM      4  O   UNL     1       0.411  -6.402 -10.348  1.00  0.00    -0.246 OA
BRANCH   3   5
ATOM      5  C   UNL     1       0.702  -5.449  -8.197  1.00  0.00     0.060 A 
ATOM      6  C   UNL     1       1.707  -4.581  -6.160  1.00  0.00    -0.042 A 
ATOM      7  C   UNL     1       1.190  -3.329  -6.521  1.00  0.00     0.004 A 
ATOM      8  C   UNL     1       1.379  -5.665  -6.990  1.00  0.00     0.019 A 
ATOM      9  C   UNL     1       0.478  -3.114  -7.698  1.00  0.00     0.001 A 
ATOM     10  C   UNL     1       0.261  -4.173  -8.557  1.00  0.00     0.016 A 
BRANCH   6  11
ATOM     11  C   UNL     1       2.623  -4.763  -4.943  1.00  0.00     0.039 C 
ATOM     12  N   UNL     1       4.109  -2.741  -5.175  1.00  0.00    -0.340 N 
ATOM     13  C   UNL     1       5.237  -3.563  -5.632  1.00  0.00     0.119 C 
ATOM     14  C   UNL     1       3.165  -3.450  -4.294  1.00  0.00     0.127 C 
ATOM     15  C   UNL     1       4.794  -4.893  -6.235  1.00  0.00     0.022 C 
ATOM     16  C   UNL     1       3.854  -5.634  -5.283  1.00  0.00     0.012 C 
BRANCH  12  17
ATOM     17  C   UNL     1       3.929  -1.497  -5.770  1.00  0.00     0.244 C 
ATOM     18  O   UNL     1       4.478  -1.265  -6.860  1.00  0.00    -0.273 OA
BRANCH  17  19
ATOM     19  C   UNL     1       3.311  -0.296  -5.065  1.00  0.00     0.244 C 
BRANCH  19  20
ATOM     20  N   UNL     1       2.195  -0.471  -4.153  1.00  0.00    -0.259 N 
ATOM     21  C   UNL     1       0.904  -0.723  -2.384  1.00  0.00     0.061 A 
ATOM     22  C   UNL     1       0.177  -0.825  -3.601  1.00  0.00     0.070 A 
ATOM     23  C   UNL     1       2.216  -0.471  -2.775  1.00  0.00     0.047 A 
ATOM     24  C   UNL     1      -1.252  -1.167  -3.823  1.00  0.00     0.069 C 
ATOM     25  N   UNL     1       0.951  -0.550  -4.655  1.00  0.00    -0.177 NA
ATOM     26  C   UNL     1       3.483  -0.325  -2.014  1.00  0.00     0.067 C 
BRANCH  21  27
ATOM     27  C   UNL     1       0.372  -0.901  -1.040  1.00  0.00     0.163 C 
ATOM     28  C   UNL     1       0.740   0.101   0.024  1.00  0.00     0.093 C 
ATOM     29  O   UNL     1      -0.401  -1.823  -0.784  1.00  0.00    -0.294 OA
ENDBRANCH  21  27
ENDBRANCH  19  20
ENDBRANCH  17  19
ENDBRANCH  12  17
ENDBRANCH   6  11
ENDBRANCH   3   5
ENDBRANCH   2   3
ENDBRANCH   1   2
BRANCH   1  30
ATOM     30  C   UNL     1      -2.230  -8.631  -9.000  1.00  0.00     0.202 C 
BRANCH  30  31
ATOM     31  O   UNL     1      -3.012  -7.477  -9.306  1.00  0.00    -0.374 OA
BRANCH  31  32
ATOM     32  C   UNL     1      -2.862  -6.281  -8.549  1.00  0.00     0.202 C 
BRANCH  32  33
ATOM     33  C   UNL     1      -3.364  -6.245  -7.114  1.00  0.00     0.261 C 
BRANCH  33  34
ATOM     34  O   UNL     1      -2.782  -7.265  -6.324  1.00  0.00    -0.460 OA
BRANCH  34  35
ATOM     35  C   UNL     1      -3.577  -8.353  -6.179  1.00  0.00     0.338 C 
ATOM     36  O   UNL     1      -4.577  -8.628  -6.806  1.00  0.00    -0.246 OA
BRANCH  35  37
ATOM     37  C   UNL     1      -3.135  -9.079  -4.984  1.00  0.00     0.060 A 
ATOM     38  C   UNL     1      -3.990 -10.098  -4.571  1.00  0.00     0.016 A 
ATOM     39  C   UNL     1      -2.220  -8.463  -4.118  1.00  0.00     0.016 A 
ATOM     40  C   UNL     1      -4.166 -10.265  -3.220  1.00  0.00     0.010 A 
ATOM     41  C   UNL     1      -2.409  -8.618  -2.771  1.00  0.00     0.010 A 
ATOM     42  C   UNL     1      -3.453  -9.434  -2.345  1.00  0.00    -0.014 A 
BRANCH  42  43
ATOM     43  C   UNL     1      -3.669  -9.591  -0.926  1.00  0.00     0.031 A 
ATOM     44  C   UNL     1      -3.066 -10.866  -0.480  1.00  0.00     0.074 A 
ATOM     45  C   UNL     1      -4.260  -8.653  -0.159  1.00  0.00     0.049 A 
ATOM     46  N   UNL     1      -3.698 -11.959  -0.214  1.00  0.00    -0.248 NA
ATOM     47  C   UNL     1      -1.611 -11.044  -0.642  1.00  0.00     0.031 C 
ATOM     48  C   UNL     1      -4.685  -7.302  -0.538  1.00  0.00     0.029 A 
ATOM     49  N   UNL     1      -4.546  -8.697   1.174  1.00  0.00    -0.354 N 
ATOM     50  C   UNL     1      -2.707 -12.880   0.103  1.00  0.00     0.074 A 
ATOM     51  C   UNL     1      -1.485 -12.356  -0.434  1.00  0.00     0.031 C 
ATOM     52  C   UNL     1      -4.959  -6.582   0.577  1.00  0.00     0.029 A 
ATOM     53  C   UNL     1      -4.870  -7.455   1.732  1.00  0.00     0.049 A 
ATOM     54  H   UNL     1      -4.526  -9.530   1.699  1.00  0.00     0.167 HD
ATOM     55  C   UNL     1      -2.925 -13.775   1.103  1.00  0.00     0.037 A 
ATOM     56  C   UNL     1      -5.014  -7.199   3.059  1.00  0.00     0.037 A 
ATOM     57  C   UNL     1      -4.339 -13.856   1.389  1.00  0.00     0.049 A 
ATOM     58  C   UNL     1      -5.274  -8.500   3.715  1.00  0.00     0.074 A 
ATOM     59  C   UNL     1      -5.460 -14.337   0.749  1.00  0.00     0.029 A 
ATOM     60  N   UNL     1      -4.762 -12.942   2.320  1.00  0.00    -0.354 N 
ATOM     61  N   UNL     1      -6.374  -9.176   3.540  1.00  0.00    -0.248 NA
ATOM     62  C   UNL     1      -4.143  -9.264   4.221  1.00  0.00     0.031 C 
ATOM     63  C   UNL     1      -6.539 -13.501   1.170  1.00  0.00     0.029 A 
ATOM     64  C   UNL     1      -6.064 -12.587   2.110  1.00  0.00     0.049 A 
ATOM     65  H   UNL     1      -4.199 -12.587   3.046  1.00  0.00     0.167 HD
ATOM     66  C   UNL     1      -5.961 -10.495   3.474  1.00  0.00     0.074 A 
ATOM     67  C   UNL     1      -4.618 -10.502   4.051  1.00  0.00     0.031 C 
ATOM     68  C   UNL     1      -6.623 -11.376   2.668  1.00  0.00     0.037 A 
BRANCH  55  69
ATOM     69  C   UNL     1      -1.893 -14.103   2.169  1.00  0.00     0.057 A 
ATOM     70  C   UNL     1      -2.244 -15.028   3.170  1.00  0.00     0.134 A 
ATOM     71  C   UNL     1      -0.732 -13.348   2.447  1.00  0.00     0.134 A 
ATOM     72  F   UNL     1      -3.329 -15.807   3.037  1.00  0.00    -0.206 F 
ATOM     73  C   UNL     1      -1.548 -15.128   4.382  1.00  0.00     0.040 A 
ATOM     74  C   UNL     1      -0.006 -13.472   3.634  1.00  0.00     0.040 A 
ATOM     75  F   UNL     1      -0.277 -12.380   1.646  1.00  0.00    -0.206 F 
ATOM     76  C   UNL     1      -0.430 -14.340   4.622  1.00  0.00     0.006 A 
ENDBRANCH  55  69
BRANCH  56  77
ATOM     77  C   UNL     1      -4.679  -5.996   3.857  1.00  0.00     0.057 A 
ATOM     78  C   UNL     1      -5.200  -5.798   5.147  1.00  0.00     0.134 A 
ATOM     79  C   UNL     1      -3.589  -5.184   3.505  1.00  0.00     0.134 A 
ATOM     80  F   UNL     1      -6.211  -6.556   5.597  1.00  0.00    -0.206 F 
ATOM     81  C   UNL     1      -4.649  -4.870   6.044  1.00  0.00     0.040 A 
ATOM     82  C   UNL     1      -3.029  -4.255   4.391  1.00  0.00     0.040 A 
ATOM     83  F   UNL     1      -2.970  -5.344   2.326  1.00  0.00    -0.206 F 
ATOM     84  C   UNL     1      -3.548  -4.106   5.671  1.00  0.00     0.006 A 
ENDBRANCH  56  77
BRANCH  68  85
ATOM     85  C   UNL     1      -8.000 -10.982   2.216  1.00  0.00     0.057 A 
ATOM     86  C   UNL     1      -8.283  -9.944   1.316  1.00  0.00     0.134 A 
ATOM     87  C   UNL     1      -9.077 -11.759   2.650  1.00  0.00     0.134 A 
ATOM     88  F   UNL     1      -7.305  -9.197   0.788  1.00  0.00    -0.206 F 
ATOM     89  C   UNL     1      -9.591  -9.671   0.899  1.00  0.00     0.040 A 
ATOM     90  C   UNL     1     -10.380 -11.520   2.217  1.00  0.00     0.040 A 
ATOM     91  F   UNL     1      -8.868 -12.797   3.476  1.00  0.00    -0.206 F 
ATOM     92  C   UNL     1     -10.644 -10.466   1.348  1.00  0.00     0.006 A 
ENDBRANCH  68  85
ENDBRANCH  42  43
ENDBRANCH  35  37
ENDBRANCH  34  35
ENDBRANCH  33  34
ENDBRANCH  32  33
ENDBRANCH  31  32
ENDBRANCH  30  31
ENDBRANCH   1  30
TORSDOF 19
