REMARK SMILES CCC(CC)([NH2+]Cc1ccc(Cl)cc1[N+](=O)[O-])C(=O)OCCOCCOC(=O)c1ccc(-c2c3nc(c(-c4c(F)cccc4F)c4ccc([nH]4)c(-c4c(F)cccc4F)c4nc(c(-c5c(F)cccc5F)c5ccc2[nH]5)C=C4)C=C3)cc1
REMARK SMILES IDX 22 1 21 2 20 3 18 4 19 5 3 6 2 7 1 8 4 9 5 10 6 11 7 14 8 15
REMARK SMILES IDX 9 16 14 17 10 18 13 19 11 20 12 21 15 22 16 23 17 24 23 25
REMARK SMILES IDX 24 26 25 27 26 28 27 29 28 30 29 31 30 32 82 33 31 34 81 35
REMARK SMILES IDX 32 36 33 37 34 38 75 39 35 40 80 41 74 42 76 43 36 44 79 45
REMARK SMILES IDX 73 46 72 47 37 49 63 50 46 51 62 52 47 53 50 54 61 55 77 56
REMARK SMILES IDX 48 57 49 58 60 60 78 61 51 62 38 63 39 64 44 65 40 66 41 67
REMARK SMILES IDX 43 68 45 69 42 70 64 71 65 72 70 73 66 74 67 75 69 76 71 77
REMARK SMILES IDX 68 78 52 79 53 80 58 81 54 82 55 83 57 84 59 85 56 86
REMARK H PARENT 6 12 6 13 76 48 50 59
REMARK Flexibility Score: inf
ROOT
ATOM      1  C   UNL     1       5.440   2.918   0.480  1.00  0.00     0.202 C 
ENDROOT
BRANCH   1   2
ATOM      2  C   UNL     1       4.599   2.210  -0.596  1.00  0.00     0.261 C 
BRANCH   2   3
ATOM      3  O   UNL     1       3.214   2.522  -0.376  1.00  0.00    -0.459 OA
BRANCH   3   4
ATOM      4  C   UNL     1       2.256   1.644  -0.797  1.00  0.00     0.368 C 
ATOM      5  O   UNL     1       2.489   0.616  -1.417  1.00  0.00    -0.245 OA
BRANCH   4   6
ATOM      6  C   UNL     1       0.840   2.073  -0.255  1.00  0.00     0.194 C 
BRANCH   6   7
ATOM      7  C   UNL     1       0.746   1.477   1.195  1.00  0.00     0.077 C 
ATOM      8  C   UNL     1       1.103  -0.015   1.296  1.00  0.00     0.011 C 
ENDBRANCH   6   7
BRANCH   6   9
ATOM      9  C   UNL     1      -0.336   1.480  -1.071  1.00  0.00     0.077 C 
ATOM     10  C   UNL     1      -1.742   1.765  -0.535  1.00  0.00     0.011 C 
ENDBRANCH   6   9
BRANCH   6  11
ATOM     11  N   UNL     1       0.696   3.560  -0.209  1.00  0.00    -0.328 N 
ATOM     12  H   UNL     1       1.112   3.863   0.672  1.00  0.00     0.347 HD
ATOM     13  H   UNL     1      -0.307   3.689  -0.343  1.00  0.00     0.347 HD
BRANCH  11  14
ATOM     14  C   UNL     1       1.267   4.414  -1.252  1.00  0.00     0.305 C 
BRANCH  14  15
ATOM     15  C   UNL     1       0.405   4.912  -2.404  1.00  0.00     0.084 A 
ATOM     16  C   UNL     1      -0.013   6.262  -2.363  1.00  0.00     0.018 A 
ATOM     17  C   UNL     1       0.144   4.222  -3.612  1.00  0.00     0.279 A 
ATOM     18  C   UNL     1      -0.626   6.881  -3.462  1.00  0.00     0.021 A 
ATOM     19  C   UNL     1      -0.542   4.817  -4.688  1.00  0.00     0.106 A 
ATOM     20  C   UNL     1      -0.898   6.153  -4.614  1.00  0.00     0.047 A 
ATOM     21  Cl  UNL     1      -1.599   6.924  -5.982  1.00  0.00    -0.084 Cl
BRANCH  17  22
ATOM     22  N   UNL     1       0.710   2.913  -3.915  1.00  0.00     0.063 N 
ATOM     23  O   UNL     1       1.904   2.735  -3.655  1.00  0.00    -0.258 OA
ATOM     24  O   UNL     1      -0.038   2.090  -4.463  1.00  0.00    -0.258 OA
ENDBRANCH  17  22
ENDBRANCH  14  15
ENDBRANCH  11  14
ENDBRANCH   6  11
ENDBRANCH   4   6
ENDBRANCH   3   4
ENDBRANCH   2   3
ENDBRANCH   1   2
BRANCH   1  25
ATOM     25  O   UNL     1       5.333   2.373   1.802  1.00  0.00    -0.374 OA
BRANCH  25  26
ATOM     26  C   UNL     1       4.095   2.590   2.476  1.00  0.00     0.202 C 
BRANCH  26  27
ATOM     27  C   UNL     1       3.985   3.880   3.291  1.00  0.00     0.261 C 
BRANCH  27  28
ATOM     28  O   UNL     1       4.070   5.044   2.454  1.00  0.00    -0.460 OA
BRANCH  28  29
ATOM     29  C   UNL     1       5.253   5.696   2.530  1.00  0.00     0.338 C 
ATOM     30  O   UNL     1       6.191   5.455   3.268  1.00  0.00    -0.246 OA
BRANCH  29  31
ATOM     31  C   UNL     1       5.328   6.717   1.472  1.00  0.00     0.060 A 
ATOM     32  C   UNL     1       6.476   6.728   0.671  1.00  0.00     0.016 A 
ATOM     33  C   UNL     1       4.353   7.709   1.340  1.00  0.00     0.016 A 
ATOM     34  C   UNL     1       6.690   7.772  -0.223  1.00  0.00     0.010 A 
ATOM     35  C   UNL     1       4.573   8.761   0.449  1.00  0.00     0.010 A 
ATOM     36  C   UNL     1       5.763   8.819  -0.299  1.00  0.00    -0.014 A 
BRANCH  36  37
ATOM     37  C   UNL     1       6.124  10.069  -1.004  1.00  0.00     0.031 A 
ATOM     38  C   UNL     1       6.646  11.221  -0.194  1.00  0.00     0.074 A 
ATOM     39  C   UNL     1       5.987  10.179  -2.335  1.00  0.00     0.049 A 
ATOM     40  N   UNL     1       6.915  12.445  -0.566  1.00  0.00    -0.248 NA
ATOM     41  C   UNL     1       6.890  10.956   1.234  1.00  0.00     0.031 C 
ATOM     42  C   UNL     1       5.543   9.112  -3.229  1.00  0.00     0.029 A 
ATOM     43  N   UNL     1       6.192  11.254  -3.161  1.00  0.00    -0.354 N 
ATOM     44  C   UNL     1       7.340  13.101   0.583  1.00  0.00     0.074 A 
ATOM     45  C   UNL     1       7.276  12.146   1.667  1.00  0.00     0.031 C 
ATOM     46  C   UNL     1       5.482   9.596  -4.482  1.00  0.00     0.029 A 
ATOM     47  C   UNL     1       5.848  11.012  -4.467  1.00  0.00     0.049 A 
ATOM     48  H   UNL     1       6.551  12.115  -2.847  1.00  0.00     0.167 HD
ATOM     49  C   UNL     1       7.746  14.385   0.720  1.00  0.00     0.037 A 
ATOM     50  C   UNL     1       5.801  11.849  -5.520  1.00  0.00     0.037 A 
ATOM     51  C   UNL     1       7.811  15.328  -0.363  1.00  0.00     0.049 A 
ATOM     52  C   UNL     1       6.199  13.289  -5.337  1.00  0.00     0.074 A 
ATOM     53  C   UNL     1       8.223  16.648  -0.336  1.00  0.00     0.029 A 
ATOM     54  N   UNL     1       7.446  15.047  -1.672  1.00  0.00    -0.354 N 
ATOM     55  N   UNL     1       6.603  13.902  -4.250  1.00  0.00    -0.248 NA
ATOM     56  C   UNL     1       6.133  14.154  -6.524  1.00  0.00     0.031 C 
ATOM     57  C   UNL     1       8.066  17.179  -1.621  1.00  0.00     0.029 A 
ATOM     58  C   UNL     1       7.601  16.176  -2.458  1.00  0.00     0.049 A 
ATOM     59  H   UNL     1       7.123  14.175  -1.994  1.00  0.00     0.167 HD
ATOM     60  C   UNL     1       6.868  15.213  -4.626  1.00  0.00     0.074 A 
ATOM     61  C   UNL     1       6.578  15.307  -6.042  1.00  0.00     0.031 C 
ATOM     62  C   UNL     1       7.316  16.245  -3.869  1.00  0.00     0.037 A 
BRANCH  49  63
ATOM     63  C   UNL     1       8.109  14.845   2.101  1.00  0.00     0.057 A 
ATOM     64  C   UNL     1       9.278  14.418   2.744  1.00  0.00     0.134 A 
ATOM     65  C   UNL     1       7.273  15.726   2.798  1.00  0.00     0.134 A 
ATOM     66  F   UNL     1      10.113  13.559   2.138  1.00  0.00    -0.206 F 
ATOM     67  C   UNL     1       9.586  14.826   4.043  1.00  0.00     0.040 A 
ATOM     68  C   UNL     1       7.583  16.161   4.087  1.00  0.00     0.040 A 
ATOM     69  F   UNL     1       6.138  16.174   2.240  1.00  0.00    -0.206 F 
ATOM     70  C   UNL     1       8.739  15.704   4.717  1.00  0.00     0.006 A 
ENDBRANCH  49  63
BRANCH  50  71
ATOM     71  C   UNL     1       5.340  11.344  -6.836  1.00  0.00     0.057 A 
ATOM     72  C   UNL     1       6.233  11.166  -7.898  1.00  0.00     0.134 A 
ATOM     73  C   UNL     1       3.999  11.007  -7.054  1.00  0.00     0.134 A 
ATOM     74  F   UNL     1       7.526  11.491  -7.754  1.00  0.00    -0.206 F 
ATOM     75  C   UNL     1       5.807  10.675  -9.133  1.00  0.00     0.040 A 
ATOM     76  C   UNL     1       3.563  10.495  -8.277  1.00  0.00     0.040 A 
ATOM     77  F   UNL     1       3.096  11.151  -6.073  1.00  0.00    -0.206 F 
ATOM     78  C   UNL     1       4.470  10.331  -9.322  1.00  0.00     0.006 A 
ENDBRANCH  50  71
BRANCH  62  79
ATOM     79  C   UNL     1       7.564  17.553  -4.559  1.00  0.00     0.057 A 
ATOM     80  C   UNL     1       6.516  18.398  -4.943  1.00  0.00     0.134 A 
ATOM     81  C   UNL     1       8.874  18.002  -4.777  1.00  0.00     0.134 A 
ATOM     82  F   UNL     1       5.241  18.020  -4.770  1.00  0.00    -0.206 F 
ATOM     83  C   UNL     1       6.762  19.640  -5.531  1.00  0.00     0.040 A 
ATOM     84  C   UNL     1       9.132  19.250  -5.344  1.00  0.00     0.040 A 
ATOM     85  F   UNL     1       9.922  17.243  -4.422  1.00  0.00    -0.206 F 
ATOM     86  C   UNL     1       8.073  20.072  -5.725  1.00  0.00     0.006 A 
ENDBRANCH  62  79
ENDBRANCH  36  37
ENDBRANCH  29  31
ENDBRANCH  28  29
ENDBRANCH  27  28
ENDBRANCH  26  27
ENDBRANCH  25  26
ENDBRANCH   1  25
TORSDOF 20
