REMARK SMILES O=C(CCCN1C(=O)C(=O)/C(=C(\[O-])c2ccccc2)[C@H]1c1ccc([N+](=O)[O-])cc1)OCCOCCOC(=O)c1ccc(-c2c3nc(c(-c4c(F)cccc4F)c4ccc([nH]4)c(-c4c(F)cccc4F)c4nc(c(-c5c(F)cccc5F)c5ccc2[nH]5)C=C4)C=C3)cc1
REMARK SMILES IDX 31 1 30 2 2 3 1 4 3 5 4 6 5 7 6 8 7 9 20 10 8 11 9 12 11 13
REMARK SMILES IDX 10 14 12 15 13 16 21 17 22 18 29 19 23 20 28 21 24 22 25 23
REMARK SMILES IDX 26 24 27 25 14 26 15 27 19 28 16 29 18 30 17 31 32 32 33 33
REMARK SMILES IDX 34 34 35 35 36 36 37 37 38 38 39 39 40 40 92 41 41 42 91 43
REMARK SMILES IDX 42 44 43 45 44 46 85 47 45 48 90 49 84 50 86 51 46 52 89 53
REMARK SMILES IDX 83 54 82 55 47 57 73 58 56 59 72 60 57 61 60 62 71 63 87 64
REMARK SMILES IDX 58 65 59 66 70 68 88 69 61 70 48 71 49 72 54 73 50 74 51 75
REMARK SMILES IDX 53 76 55 77 52 78 74 79 75 80 80 81 76 82 77 83 79 84 81 85
REMARK SMILES IDX 78 86 62 87 63 88 68 89 64 90 65 91 67 92 69 93 66 94
REMARK H PARENT 86 56 60 67
REMARK Flexibility Score: inf
ROOT
ATOM      1  C   UNL     1       3.293   0.971  -0.201  1.00  0.00     0.261 C 
ENDROOT
BRANCH   1   2
ATOM      2  O   UNL     1       2.175   0.157  -0.587  1.00  0.00    -0.463 OA
BRANCH   2   3
ATOM      3  C   UNL     1       2.113  -1.181  -0.668  1.00  0.00     0.305 C 
ATOM      4  O   UNL     1       1.099  -1.703  -1.130  1.00  0.00    -0.252 OA
BRANCH   3   5
ATOM      5  C   UNL     1       3.250  -2.045  -0.178  1.00  0.00     0.124 C 
BRANCH   5   6
ATOM      6  C   UNL     1       4.319  -2.421  -1.194  1.00  0.00     0.033 C 
BRANCH   6   7
ATOM      7  C   UNL     1       5.537  -1.527  -1.491  1.00  0.00     0.121 C 
BRANCH   7   8
ATOM      8  N   UNL     1       6.309  -0.837  -0.448  1.00  0.00    -0.325 N 
ATOM      9  C   UNL     1       6.661   0.496  -0.683  1.00  0.00     0.295 C 
ATOM     10  C   UNL     1       7.247  -1.472   0.510  1.00  0.00     0.150 C 
ATOM     11  O   UNL     1       6.278   1.250  -1.549  1.00  0.00    -0.265 OA
ATOM     12  C   UNL     1       7.695   0.897   0.345  1.00  0.00     0.248 C 
ATOM     13  C   UNL     1       8.139  -0.333   1.001  1.00  0.00     0.025 C 
ATOM     14  O   UNL     1       8.095   2.020   0.557  1.00  0.00    -0.283 OA
ATOM     15  C   UNL     1       9.209  -0.287   1.816  1.00  0.00    -0.092 C 
ATOM     16  O   UNL     1       9.837   0.877   2.217  1.00  0.00    -0.872 OA
BRANCH  10  17
ATOM     17  C   UNL     1       6.595  -2.294   1.623  1.00  0.00    -0.020 A 
ATOM     18  C   UNL     1       6.486  -1.845   2.957  1.00  0.00     0.013 A 
ATOM     19  C   UNL     1       6.189  -3.612   1.349  1.00  0.00     0.013 A 
ATOM     20  C   UNL     1       6.083  -2.707   3.987  1.00  0.00     0.086 A 
ATOM     21  C   UNL     1       5.712  -4.459   2.356  1.00  0.00     0.086 A 
ATOM     22  C   UNL     1       5.702  -4.014   3.679  1.00  0.00     0.269 A 
BRANCH  22  23
ATOM     23  N   UNL     1       5.340  -4.944   4.751  1.00  0.00     0.062 N 
ATOM     24  O   UNL     1       5.743  -4.688   5.895  1.00  0.00    -0.258 OA
ATOM     25  O   UNL     1       4.671  -5.940   4.444  1.00  0.00    -0.258 OA
ENDBRANCH  22  23
ENDBRANCH  10  17
BRANCH  15  26
ATOM     26  C   UNL     1       9.831  -1.500   2.350  1.00  0.00    -0.033 A 
ATOM     27  C   UNL     1       9.943  -1.710   3.729  1.00  0.00     0.007 A 
ATOM     28  C   UNL     1      10.331  -2.463   1.464  1.00  0.00     0.007 A 
ATOM     29  C   UNL     1      10.490  -2.899   4.211  1.00  0.00     0.001 A 
ATOM     30  C   UNL     1      10.872  -3.651   1.947  1.00  0.00     0.001 A 
ATOM     31  C   UNL     1      10.941  -3.873   3.320  1.00  0.00     0.000 A 
ENDBRANCH  15  26
ENDBRANCH   7   8
ENDBRANCH   6   7
ENDBRANCH   5   6
ENDBRANCH   3   5
ENDBRANCH   2   3
ENDBRANCH   1   2
BRANCH   1  32
ATOM     32  C   UNL     1       3.910   0.663   1.159  1.00  0.00     0.202 C 
BRANCH  32  33
ATOM     33  O   UNL     1       3.024   0.237   2.181  1.00  0.00    -0.374 OA
BRANCH  33  34
ATOM     34  C   UNL     1       1.901   1.067   2.456  1.00  0.00     0.202 C 
BRANCH  34  35
ATOM     35  C   UNL     1       2.255   2.361   3.183  1.00  0.00     0.261 C 
BRANCH  35  36
ATOM     36  O   UNL     1       2.749   3.343   2.256  1.00  0.00    -0.460 OA
BRANCH  36  37
ATOM     37  C   UNL     1       4.061   3.661   2.353  1.00  0.00     0.338 C 
ATOM     38  O   UNL     1       4.885   3.201   3.122  1.00  0.00    -0.246 OA
BRANCH  37  39
ATOM     39  C   UNL     1       4.395   4.566   1.241  1.00  0.00     0.060 A 
ATOM     40  C   UNL     1       5.531   4.307   0.466  1.00  0.00     0.016 A 
ATOM     41  C   UNL     1       3.619   5.701   1.013  1.00  0.00     0.016 A 
ATOM     42  C   UNL     1       5.936   5.217  -0.509  1.00  0.00     0.010 A 
ATOM     43  C   UNL     1       4.023   6.611   0.043  1.00  0.00     0.010 A 
ATOM     44  C   UNL     1       5.205   6.394  -0.688  1.00  0.00    -0.014 A 
BRANCH  44  45
ATOM     45  C   UNL     1       5.732   7.517  -1.490  1.00  0.00     0.031 A 
ATOM     46  C   UNL     1       6.296   8.697  -0.755  1.00  0.00     0.074 A 
ATOM     47  C   UNL     1       5.616   7.525  -2.826  1.00  0.00     0.049 A 
ATOM     48  N   UNL     1       6.550   9.903  -1.185  1.00  0.00    -0.248 NA
ATOM     49  C   UNL     1       6.583   8.487   0.673  1.00  0.00     0.031 C 
ATOM     50  C   UNL     1       5.139   6.410  -3.640  1.00  0.00     0.029 A 
ATOM     51  N   UNL     1       5.849   8.533  -3.726  1.00  0.00    -0.354 N 
ATOM     52  C   UNL     1       6.989  10.609  -0.073  1.00  0.00     0.074 A 
ATOM     53  C   UNL     1       6.951   9.701   1.052  1.00  0.00     0.031 C 
ATOM     54  C   UNL     1       5.075   6.809  -4.921  1.00  0.00     0.029 A 
ATOM     55  C   UNL     1       5.450   8.219  -5.000  1.00  0.00     0.049 A 
ATOM     56  H   UNL     1       6.261   9.393  -3.482  1.00  0.00     0.167 HD
ATOM     57  C   UNL     1       7.378  11.904  -0.002  1.00  0.00     0.037 A 
ATOM     58  C   UNL     1       5.346   9.003  -6.090  1.00  0.00     0.037 A 
ATOM     59  C   UNL     1       7.401  12.788  -1.137  1.00  0.00     0.049 A 
ATOM     60  C   UNL     1       5.720  10.457  -5.984  1.00  0.00     0.074 A 
ATOM     61  C   UNL     1       7.788  14.114  -1.193  1.00  0.00     0.029 A 
ATOM     62  N   UNL     1       7.008  12.428  -2.420  1.00  0.00    -0.354 N 
ATOM     63  N   UNL     1       6.129  11.131  -4.934  1.00  0.00    -0.248 NA
ATOM     64  C   UNL     1       5.615  11.261  -7.208  1.00  0.00     0.031 C 
ATOM     65  C   UNL     1       7.574  14.573  -2.498  1.00  0.00     0.029 A 
ATOM     66  C   UNL     1       7.119  13.514  -3.270  1.00  0.00     0.049 A 
ATOM     67  H   UNL     1       6.696  11.533  -2.685  1.00  0.00     0.167 HD
ATOM     68  C   UNL     1       6.364  12.427  -5.377  1.00  0.00     0.074 A 
ATOM     69  C   UNL     1       6.048  12.444  -6.791  1.00  0.00     0.031 C 
ATOM     70  C   UNL     1       6.810  13.502  -4.680  1.00  0.00     0.037 A 
BRANCH  57  71
ATOM     71  C   UNL     1       7.744  12.439   1.353  1.00  0.00     0.057 A 
ATOM     72  C   UNL     1       8.882  12.007   2.048  1.00  0.00     0.134 A 
ATOM     73  C   UNL     1       6.928  13.387   1.985  1.00  0.00     0.134 A 
ATOM     74  F   UNL     1       9.699  11.089   1.510  1.00  0.00    -0.206 F 
ATOM     75  C   UNL     1       9.170  12.463   3.336  1.00  0.00     0.040 A 
ATOM     76  C   UNL     1       7.223  13.876   3.259  1.00  0.00     0.040 A 
ATOM     77  F   UNL     1       5.824  13.849   1.379  1.00  0.00    -0.206 F 
ATOM     78  C   UNL     1       8.340  13.404   3.943  1.00  0.00     0.006 A 
ENDBRANCH  57  71
BRANCH  58  79
ATOM     79  C   UNL     1       4.847   8.423  -7.362  1.00  0.00     0.057 A 
ATOM     80  C   UNL     1       5.703   8.224  -8.450  1.00  0.00     0.134 A 
ATOM     81  C   UNL     1       3.513   8.019  -7.507  1.00  0.00     0.134 A 
ATOM     82  F   UNL     1       6.985   8.608  -8.378  1.00  0.00    -0.206 F 
ATOM     83  C   UNL     1       5.252   7.646  -9.638  1.00  0.00     0.040 A 
ATOM     84  C   UNL     1       3.055   7.417  -8.680  1.00  0.00     0.040 A 
ATOM     85  F   UNL     1       2.643   8.178  -6.499  1.00  0.00    -0.206 F 
ATOM     86  C   UNL     1       3.926   7.231  -9.752  1.00  0.00     0.006 A 
ENDBRANCH  58  79
BRANCH  70  87
ATOM     87  C   UNL     1       7.043  14.774  -5.442  1.00  0.00     0.057 A 
ATOM     88  C   UNL     1       5.990  15.574  -5.899  1.00  0.00     0.134 A 
ATOM     89  C   UNL     1       8.349  15.239  -5.652  1.00  0.00     0.134 A 
ATOM     90  F   UNL     1       4.717  15.181  -5.739  1.00  0.00    -0.206 F 
ATOM     91  C   UNL     1       6.227  16.788  -6.548  1.00  0.00     0.040 A 
ATOM     92  C   UNL     1       8.597  16.462  -6.274  1.00  0.00     0.040 A 
ATOM     93  F   UNL     1       9.402  14.524  -5.229  1.00  0.00    -0.206 F 
ATOM     94  C   UNL     1       7.534  17.239  -6.727  1.00  0.00     0.006 A 
ENDBRANCH  70  87
ENDBRANCH  44  45
ENDBRANCH  37  39
ENDBRANCH  36  37
ENDBRANCH  35  36
ENDBRANCH  34  35
ENDBRANCH  33  34
ENDBRANCH  32  33
ENDBRANCH   1  32
TORSDOF 20
