REMARK SMILES C[C@H](NC(=O)c1ccncc1/C=C/C(=O)OCCOCCOC(=O)c1ccc(-c2c3nc(c(-c4c(F)cccc4F)c4ccc([nH]4)c(-c4c(F)cccc4F)c4nc(c(-c5c(F)cccc5F)c5ccc2[nH]5)C=C4)C=C3)cc1)c1ccco1
REMARK SMILES IDX 18 1 17 2 16 3 14 4 15 5 13 6 12 7 11 8 6 9 7 10 8 11 10 12
REMARK SMILES IDX 9 13 4 14 3 15 5 17 2 18 1 19 79 20 80 21 83 22 81 23 82 24
REMARK SMILES IDX 19 25 20 26 21 27 22 28 23 29 24 30 25 31 26 32 78 33 27 34
REMARK SMILES IDX 77 35 28 36 29 37 30 38 71 39 31 40 76 41 70 42 72 43 32 44
REMARK SMILES IDX 75 45 69 46 68 47 33 49 59 50 42 51 58 52 43 53 46 54 57 55
REMARK SMILES IDX 73 56 44 57 45 58 56 60 74 61 47 62 34 63 35 64 40 65 36 66
REMARK SMILES IDX 37 67 39 68 41 69 38 70 60 71 61 72 66 73 62 74 63 75 65 76
REMARK SMILES IDX 67 77 64 78 48 79 49 80 54 81 50 82 51 83 53 84 55 85 52 86
REMARK H PARENT 3 16 72 48 46 59
REMARK Flexibility Score: inf
ROOT
ATOM      1  C   UNL     1       1.364  -7.600   2.333  1.00  0.00     0.202 C 
ENDROOT
BRANCH   1   2
ATOM      2  C   UNL     1       2.603  -6.769   2.670  1.00  0.00     0.261 C 
BRANCH   2   3
ATOM      3  O   UNL     1       2.758  -5.664   1.762  1.00  0.00    -0.460 OA
BRANCH   3   4
ATOM      4  C   UNL     1       3.851  -5.734   0.970  1.00  0.00     0.330 C 
ATOM      5  O   UNL     1       4.723  -6.590   1.007  1.00  0.00    -0.247 OA
BRANCH   4   6
ATOM      6  C   UNL     1       3.901  -4.663  -0.046  1.00  0.00     0.094 C 
ATOM      7  C   UNL     1       3.027  -3.662  -0.258  1.00  0.00     0.018 C 
BRANCH   7   8
ATOM      8  C   UNL     1       3.293  -2.636  -1.294  1.00  0.00     0.006 A 
ATOM      9  C   UNL     1       2.995  -1.271  -1.156  1.00  0.00     0.050 A 
ATOM     10  C   UNL     1       3.508  -0.333  -2.058  1.00  0.00     0.034 A 
ATOM     11  C   UNL     1       4.162  -0.802  -3.179  1.00  0.00     0.112 A 
ATOM     12  C   UNL     1       3.905  -2.986  -2.499  1.00  0.00     0.119 A 
ATOM     13  N   UNL     1       4.327  -2.111  -3.443  1.00  0.00    -0.264 NA
BRANCH   9  14
ATOM     14  C   UNL     1       2.149  -0.779  -0.057  1.00  0.00     0.252 C 
ATOM     15  N   UNL     1       0.939  -0.188  -0.312  1.00  0.00    -0.342 N 
ATOM     16  H   UNL     1       0.404  -0.054   0.503  1.00  0.00     0.164 HD
ATOM     17  O   UNL     1       2.516  -0.945   1.102  1.00  0.00    -0.269 OA
BRANCH  15  18
ATOM     18  C   UNL     1       0.255   0.294  -1.520  1.00  0.00     0.145 C 
ATOM     19  C   UNL     1       0.445  -0.495  -2.816  1.00  0.00     0.039 C 
BRANCH  18  20
ATOM     20  C   UNL     1      -1.212   0.320  -1.213  1.00  0.00     0.125 A 
ATOM     21  C   UNL     1      -2.145  -0.674  -0.984  1.00  0.00     0.048 A 
ATOM     22  O   UNL     1      -1.826   1.538  -1.235  1.00  0.00    -0.467 OA
ATOM     23  C   UNL     1      -3.400  -0.029  -0.892  1.00  0.00     0.042 A 
ATOM     24  C   UNL     1      -3.153   1.315  -1.044  1.00  0.00     0.195 A 
ENDBRANCH  18  20
ENDBRANCH  15  18
ENDBRANCH   9  14
ENDBRANCH   7   8
ENDBRANCH   4   6
ENDBRANCH   3   4
ENDBRANCH   2   3
ENDBRANCH   1   2
BRANCH   1  25
ATOM     25  O   UNL     1       1.371  -8.236   1.056  1.00  0.00    -0.374 OA
BRANCH  25  26
ATOM     26  C   UNL     1       1.006  -7.435  -0.069  1.00  0.00     0.202 C 
BRANCH  26  27
ATOM     27  C   UNL     1      -0.498  -7.208  -0.264  1.00  0.00     0.261 C 
BRANCH  27  28
ATOM     28  O   UNL     1      -1.050  -6.360   0.762  1.00  0.00    -0.460 OA
BRANCH  28  29
ATOM     29  C   UNL     1      -1.898  -6.975   1.618  1.00  0.00     0.338 C 
ATOM     30  O   UNL     1      -2.314  -8.124   1.554  1.00  0.00    -0.246 OA
BRANCH  29  31
ATOM     31  C   UNL     1      -2.145  -6.113   2.789  1.00  0.00     0.060 A 
ATOM     32  C   UNL     1      -1.954  -6.674   4.059  1.00  0.00     0.016 A 
ATOM     33  C   UNL     1      -2.615  -4.805   2.654  1.00  0.00     0.016 A 
ATOM     34  C   UNL     1      -2.279  -5.944   5.200  1.00  0.00     0.010 A 
ATOM     35  C   UNL     1      -2.949  -4.077   3.801  1.00  0.00     0.010 A 
ATOM     36  C   UNL     1      -2.816  -4.656   5.077  1.00  0.00    -0.014 A 
BRANCH  36  37
ATOM     37  C   UNL     1      -3.367  -3.974   6.272  1.00  0.00     0.031 A 
ATOM     38  C   UNL     1      -4.850  -4.007   6.513  1.00  0.00     0.074 A 
ATOM     39  C   UNL     1      -2.555  -3.354   7.146  1.00  0.00     0.049 A 
ATOM     40  N   UNL     1      -5.548  -3.461   7.476  1.00  0.00    -0.248 NA
ATOM     41  C   UNL     1      -5.654  -4.754   5.534  1.00  0.00     0.031 C 
ATOM     42  C   UNL     1      -1.100  -3.283   7.043  1.00  0.00     0.029 A 
ATOM     43  N   UNL     1      -2.849  -2.660   8.292  1.00  0.00    -0.354 N 
ATOM     44  C   UNL     1      -6.872  -3.790   7.215  1.00  0.00     0.074 A 
ATOM     45  C   UNL     1      -6.883  -4.558   5.988  1.00  0.00     0.031 C 
ATOM     46  C   UNL     1      -0.624  -2.580   8.085  1.00  0.00     0.029 A 
ATOM     47  C   UNL     1      -1.744  -2.127   8.908  1.00  0.00     0.049 A 
ATOM     48  H   UNL     1      -3.764  -2.554   8.640  1.00  0.00     0.167 HD
ATOM     49  C   UNL     1      -7.978  -3.489   7.937  1.00  0.00     0.037 A 
ATOM     50  C   UNL     1      -1.651  -1.348  10.003  1.00  0.00     0.037 A 
ATOM     51  C   UNL     1      -7.966  -2.726   9.158  1.00  0.00     0.049 A 
ATOM     52  C   UNL     1      -2.900  -0.964  10.749  1.00  0.00     0.074 A 
ATOM     53  C   UNL     1      -9.029  -2.394   9.979  1.00  0.00     0.029 A 
ATOM     54  N   UNL     1      -6.831  -2.168   9.728  1.00  0.00    -0.354 N 
ATOM     55  N   UNL     1      -4.143  -1.305  10.513  1.00  0.00    -0.248 NA
ATOM     56  C   UNL     1      -2.730  -0.086  11.916  1.00  0.00     0.031 C 
ATOM     57  C   UNL     1      -8.545  -1.592  11.019  1.00  0.00     0.029 A 
ATOM     58  C   UNL     1      -7.173  -1.466  10.873  1.00  0.00     0.049 A 
ATOM     59  H   UNL     1      -5.918  -2.257   9.372  1.00  0.00     0.167 HD
ATOM     60  C   UNL     1      -4.900  -0.708  11.514  1.00  0.00     0.074 A 
ATOM     61  C   UNL     1      -3.974   0.011  12.365  1.00  0.00     0.031 C 
ATOM     62  C   UNL     1      -6.241  -0.755  11.712  1.00  0.00     0.037 A 
BRANCH  49  63
ATOM     63  C   UNL     1      -9.297  -3.962   7.400  1.00  0.00     0.057 A 
ATOM     64  C   UNL     1      -9.662  -5.314   7.412  1.00  0.00     0.134 A 
ATOM     65  C   UNL     1     -10.218  -3.049   6.871  1.00  0.00     0.134 A 
ATOM     66  F   UNL     1      -8.819  -6.242   7.891  1.00  0.00    -0.206 F 
ATOM     67  C   UNL     1     -10.882  -5.745   6.888  1.00  0.00     0.040 A 
ATOM     68  C   UNL     1     -11.452  -3.465   6.368  1.00  0.00     0.040 A 
ATOM     69  F   UNL     1      -9.933  -1.738   6.833  1.00  0.00    -0.206 F 
ATOM     70  C   UNL     1     -11.783  -4.818   6.368  1.00  0.00     0.006 A 
ENDBRANCH  49  63
BRANCH  50  71
ATOM     71  C   UNL     1      -0.320  -0.878  10.462  1.00  0.00     0.057 A 
ATOM     72  C   UNL     1       0.257  -1.376  11.635  1.00  0.00     0.134 A 
ATOM     73  C   UNL     1       0.404   0.078   9.740  1.00  0.00     0.134 A 
ATOM     74  F   UNL     1      -0.401  -2.276  12.381  1.00  0.00    -0.206 F 
ATOM     75  C   UNL     1       1.505  -0.936  12.079  1.00  0.00     0.040 A 
ATOM     76  C   UNL     1       1.663   0.511  10.160  1.00  0.00     0.040 A 
ATOM     77  F   UNL     1      -0.097   0.596   8.609  1.00  0.00    -0.206 F 
ATOM     78  C   UNL     1       2.214   0.006  11.336  1.00  0.00     0.006 A 
ENDBRANCH  50  71
BRANCH  62  79
ATOM     79  C   UNL     1      -6.785  -0.036  12.912  1.00  0.00     0.057 A 
ATOM     80  C   UNL     1      -6.862   1.361  12.965  1.00  0.00     0.134 A 
ATOM     81  C   UNL     1      -7.275  -0.753  14.011  1.00  0.00     0.134 A 
ATOM     82  F   UNL     1      -6.399   2.107  11.950  1.00  0.00    -0.206 F 
ATOM     83  C   UNL     1      -7.389   2.021  14.078  1.00  0.00     0.040 A 
ATOM     84  C   UNL     1      -7.827  -0.106  15.118  1.00  0.00     0.040 A 
ATOM     85  F   UNL     1      -7.239  -2.094  14.020  1.00  0.00    -0.206 F 
ATOM     86  C   UNL     1      -7.880   1.285  15.155  1.00  0.00     0.006 A 
ENDBRANCH  62  79
ENDBRANCH  36  37
ENDBRANCH  29  31
ENDBRANCH  28  29
ENDBRANCH  27  28
ENDBRANCH  26  27
ENDBRANCH  25  26
ENDBRANCH   1  25
TORSDOF 18
