REMARK SMILES O=C(OCCOCCOC(=O)[C@H]1CC2=c3ccccc3=N[C@H]2[C@@H](c2ccccc2)[NH2+]1)c1ccc(-c2c3nc(c(-c4c(F)cccc4F)c4ccc([nH]4)c(-c4c(F)cccc4F)c4nc(c(-c5c(F)cccc5F)c5ccc2[nH]5)C=C4)C=C3)cc1
REMARK SMILES IDX 5 1 4 2 3 3 2 4 1 5 31 6 32 7 84 8 33 9 83 10 34 11 35 12
REMARK SMILES IDX 36 13 77 14 37 15 82 16 76 17 78 18 38 19 81 20 75 21 74 22
REMARK SMILES IDX 39 24 65 25 48 26 64 27 49 28 52 29 63 30 79 31 50 32 51 33
REMARK SMILES IDX 62 35 80 36 53 37 40 38 41 39 46 40 42 41 43 42 45 43 47 44
REMARK SMILES IDX 44 45 66 46 67 47 72 48 68 49 69 50 71 51 73 52 70 53 54 54
REMARK SMILES IDX 55 55 60 56 56 57 57 58 59 59 61 60 58 61 6 62 7 63 8 64
REMARK SMILES IDX 9 65 10 66 11 67 12 68 13 69 30 70 14 71 23 72 15 75 22 76
REMARK SMILES IDX 16 77 20 78 21 79 17 80 19 81 18 82 24 83 25 84 29 85 26 86
REMARK SMILES IDX 28 87 27 88
REMARK H PARENT 78 23 52 34 30 73 30 74
REMARK Flexibility Score: inf
ROOT
ATOM      1  C   UNL     1       4.790  -0.493  -1.357  1.00  0.00     0.202 C 
ENDROOT
BRANCH   1   2
ATOM      2  C   UNL     1       4.444  -1.607  -0.370  1.00  0.00     0.261 C 
BRANCH   2   3
ATOM      3  O   UNL     1       3.055  -1.591  -0.003  1.00  0.00    -0.460 OA
BRANCH   3   4
ATOM      4  C   UNL     1       2.432  -0.988   1.036  1.00  0.00     0.338 C 
ATOM      5  O   UNL     1       1.255  -1.291   1.238  1.00  0.00    -0.246 OA
BRANCH   4   6
ATOM      6  C   UNL     1       3.030   0.071   1.922  1.00  0.00     0.060 A 
ATOM      7  C   UNL     1       2.131   0.736   2.784  1.00  0.00     0.016 A 
ATOM      8  C   UNL     1       4.368   0.470   1.969  1.00  0.00     0.016 A 
ATOM      9  C   UNL     1       2.555   1.755   3.643  1.00  0.00     0.010 A 
ATOM     10  C   UNL     1       4.798   1.497   2.809  1.00  0.00     0.010 A 
ATOM     11  C   UNL     1       3.897   2.135   3.657  1.00  0.00    -0.014 A 
BRANCH  11  12
ATOM     12  C   UNL     1       4.413   3.091   4.651  1.00  0.00     0.031 A 
ATOM     13  C   UNL     1       4.621   4.530   4.308  1.00  0.00     0.074 A 
ATOM     14  C   UNL     1       4.777   2.596   5.847  1.00  0.00     0.049 A 
ATOM     15  N   UNL     1       4.993   5.513   5.085  1.00  0.00    -0.248 NA
ATOM     16  C   UNL     1       4.401   4.914   2.906  1.00  0.00     0.031 C 
ATOM     17  C   UNL     1       4.704   1.182   6.226  1.00  0.00     0.029 A 
ATOM     18  N   UNL     1       5.299   3.214   6.948  1.00  0.00    -0.354 N 
ATOM     19  C   UNL     1       5.009   6.644   4.281  1.00  0.00     0.074 A 
ATOM     20  C   UNL     1       4.676   6.212   2.938  1.00  0.00     0.031 C 
ATOM     21  C   UNL     1       5.175   1.040   7.474  1.00  0.00     0.029 A 
ATOM     22  C   UNL     1       5.563   2.350   7.980  1.00  0.00     0.049 A 
ATOM     23  H   UNL     1       5.470   4.182   6.995  1.00  0.00     0.167 HD
ATOM     24  C   UNL     1       5.257   7.925   4.646  1.00  0.00     0.037 A 
ATOM     25  C   UNL     1       6.044   2.601   9.209  1.00  0.00     0.037 A 
ATOM     26  C   UNL     1       5.649   8.313   5.979  1.00  0.00     0.049 A 
ATOM     27  C   UNL     1       6.289   4.028   9.598  1.00  0.00     0.074 A 
ATOM     28  C   UNL     1       5.909   9.578   6.478  1.00  0.00     0.029 A 
ATOM     29  N   UNL     1       5.856   7.423   7.025  1.00  0.00    -0.354 N 
ATOM     30  N   UNL     1       6.185   5.112   8.866  1.00  0.00    -0.248 NA
ATOM     31  C   UNL     1       6.678   4.271  10.991  1.00  0.00     0.031 C 
ATOM     32  C   UNL     1       6.304   9.447   7.817  1.00  0.00     0.029 A 
ATOM     33  C   UNL     1       6.250   8.106   8.164  1.00  0.00     0.049 A 
ATOM     34  H   UNL     1       5.740   6.447   6.966  1.00  0.00     0.167 HD
ATOM     35  C   UNL     1       6.474   6.170   9.713  1.00  0.00     0.074 A 
ATOM     36  C   UNL     1       6.732   5.594  11.020  1.00  0.00     0.031 C 
ATOM     37  C   UNL     1       6.523   7.498   9.442  1.00  0.00     0.037 A 
BRANCH  24  38
ATOM     38  C   UNL     1       5.093   8.985   3.594  1.00  0.00     0.057 A 
ATOM     39  C   UNL     1       6.190   9.697   3.094  1.00  0.00     0.134 A 
ATOM     40  C   UNL     1       3.826   9.322   3.093  1.00  0.00     0.134 A 
ATOM     41  F   UNL     1       7.430   9.434   3.531  1.00  0.00    -0.206 F 
ATOM     42  C   UNL     1       6.034  10.700   2.134  1.00  0.00     0.040 A 
ATOM     43  C   UNL     1       3.661  10.307   2.117  1.00  0.00     0.040 A 
ATOM     44  F   UNL     1       2.732   8.675   3.522  1.00  0.00    -0.206 F 
ATOM     45  C   UNL     1       4.767  11.003   1.638  1.00  0.00     0.006 A 
ENDBRANCH  24  38
BRANCH  25  46
ATOM     46  C   UNL     1       6.233   1.486  10.165  1.00  0.00     0.057 A 
ATOM     47  C   UNL     1       7.269   0.558  10.007  1.00  0.00     0.134 A 
ATOM     48  C   UNL     1       5.355   1.300  11.238  1.00  0.00     0.134 A 
ATOM     49  F   UNL     1       8.129   0.671   8.985  1.00  0.00    -0.206 F 
ATOM     50  C   UNL     1       7.426  -0.515  10.885  1.00  0.00     0.040 A 
ATOM     51  C   UNL     1       5.513   0.243  12.136  1.00  0.00     0.040 A 
ATOM     52  F   UNL     1       4.345   2.159  11.440  1.00  0.00    -0.206 F 
ATOM     53  C   UNL     1       6.549  -0.671  11.957  1.00  0.00     0.006 A 
ENDBRANCH  25  46
BRANCH  37  54
ATOM     54  C   UNL     1       6.865   8.392  10.597  1.00  0.00     0.057 A 
ATOM     55  C   UNL     1       5.883   9.186  11.199  1.00  0.00     0.134 A 
ATOM     56  C   UNL     1       8.159   8.436  11.134  1.00  0.00     0.134 A 
ATOM     57  F   UNL     1       4.627   9.192  10.728  1.00  0.00    -0.206 F 
ATOM     58  C   UNL     1       6.171   9.980  12.309  1.00  0.00     0.040 A 
ATOM     59  C   UNL     1       8.452   9.206  12.259  1.00  0.00     0.040 A 
ATOM     60  F   UNL     1       9.138   7.682  10.611  1.00  0.00    -0.206 F 
ATOM     61  C   UNL     1       7.456   9.981  12.850  1.00  0.00     0.006 A 
ENDBRANCH  37  54
ENDBRANCH  11  12
ENDBRANCH   4   6
ENDBRANCH   3   4
ENDBRANCH   2   3
ENDBRANCH   1   2
BRANCH   1  62
ATOM     62  O   UNL     1       4.469   0.804  -0.859  1.00  0.00    -0.374 OA
BRANCH  62  63
ATOM     63  C   UNL     1       3.241   1.340  -1.357  1.00  0.00     0.202 C 
BRANCH  63  64
ATOM     64  C   UNL     1       3.472   2.181  -2.604  1.00  0.00     0.261 C 
BRANCH  64  65
ATOM     65  O   UNL     1       3.785   1.356  -3.734  1.00  0.00    -0.459 OA
BRANCH  65  66
ATOM     66  C   UNL     1       5.093   1.266  -4.105  1.00  0.00     0.365 C 
ATOM     67  O   UNL     1       6.056   1.595  -3.409  1.00  0.00    -0.245 OA
BRANCH  66  68
ATOM     68  C   UNL     1       5.226   0.714  -5.527  1.00  0.00     0.298 C 
ATOM     69  C   UNL     1       5.819  -0.734  -5.570  1.00  0.00     0.111 C 
ATOM     70  N   UNL     1       3.946   0.926  -6.241  1.00  0.00    -0.326 N 
ATOM     71  C   UNL     1       5.204  -1.781  -6.551  1.00  0.00    -0.024 C 
ATOM     72  C   UNL     1       4.027   0.192  -7.499  1.00  0.00     0.243 C 
ATOM     73  H   UNL     1       3.808   1.920  -6.425  1.00  0.00     0.347 HD
ATOM     74  H   UNL     1       3.160   0.597  -5.681  1.00  0.00     0.347 HD
ATOM     75  C   UNL     1       4.945  -2.993  -6.045  1.00  0.00     0.002 A 
ATOM     76  C   UNL     1       3.902  -1.313  -7.189  1.00  0.00     0.196 C 
ATOM     77  C   UNL     1       5.144  -4.299  -6.633  1.00  0.00     0.010 A 
ATOM     78  C   UNL     1       3.518  -2.775  -5.646  1.00  0.00     0.066 A 
ATOM     79  N   UNL     1       2.897  -1.739  -6.143  1.00  0.00    -0.270 NA
ATOM     80  C   UNL     1       4.454  -5.319  -6.090  1.00  0.00     0.001 A 
ATOM     81  C   UNL     1       3.035  -3.843  -4.736  1.00  0.00     0.028 A 
ATOM     82  C   UNL     1       3.549  -5.070  -4.968  1.00  0.00     0.002 A 
BRANCH  72  83
ATOM     83  C   UNL     1       3.338   0.896  -8.654  1.00  0.00     0.012 A 
ATOM     84  C   UNL     1       2.942   0.213  -9.809  1.00  0.00     0.010 A 
ATOM     85  C   UNL     1       3.460   2.303  -8.722  1.00  0.00     0.010 A 
ATOM     86  C   UNL     1       2.784   0.904 -11.015  1.00  0.00     0.001 A 
ATOM     87  C   UNL     1       3.305   2.988  -9.923  1.00  0.00     0.001 A 
ATOM     88  C   UNL     1       2.996   2.282 -11.078  1.00  0.00     0.000 A 
ENDBRANCH  72  83
ENDBRANCH  66  68
ENDBRANCH  65  66
ENDBRANCH  64  65
ENDBRANCH  63  64
ENDBRANCH  62  63
ENDBRANCH   1  62
TORSDOF 15
