REMARK SMILES Cc1ccccc1OC1(C(=O)OCCOCCOC(=O)c2ccc(-c3c4nc(c(-c5c(F)cccc5F)c5ccc([nH]5)c(-c5c(F)cccc5F)c5nc(c(-c6c(F)cccc6F)c6ccc3[nH]6)C=C5)C=C4)cc2)CCN(C(=O)[C@H]2CCCCO2)CC1
REMARK SMILES IDX 15 1 14 2 13 3 12 4 10 5 11 6 9 7 75 8 87 9 76 10 86 11
REMARK SMILES IDX 77 12 78 13 79 14 8 15 7 16 1 17 2 18 3 19 4 20 6 21 5 22
REMARK SMILES IDX 80 23 81 24 85 25 82 26 84 27 83 28 16 29 17 30 18 31 19 32
REMARK SMILES IDX 20 33 21 34 22 35 74 36 23 37 73 38 24 39 25 40 26 41 67 42
REMARK SMILES IDX 27 43 72 44 66 45 68 46 28 47 71 48 65 49 64 50 29 52 55 53
REMARK SMILES IDX 38 54 54 55 39 56 42 57 53 58 69 59 40 60 41 61 52 63 70 64
REMARK SMILES IDX 43 65 30 66 31 67 36 68 32 69 33 70 35 71 37 72 34 73 56 74
REMARK SMILES IDX 57 75 62 76 58 77 59 78 61 79 63 80 60 81 44 82 45 83 50 84
REMARK SMILES IDX 46 85 47 86 49 87 51 88 48 89
REMARK H PARENT 68 51 42 62
REMARK Flexibility Score: inf
ROOT
ATOM      1  O   UNL     1       8.214  -7.831  -2.909  1.00  0.00    -0.374 OA
ENDROOT
BRANCH   1   2
ATOM      2  C   UNL     1       8.954  -6.710  -2.471  1.00  0.00     0.202 C 
BRANCH   2   3
ATOM      3  C   UNL     1       8.267  -5.500  -3.044  1.00  0.00     0.261 C 
BRANCH   3   4
ATOM      4  O   UNL     1       6.948  -5.247  -2.497  1.00  0.00    -0.460 OA
BRANCH   4   5
ATOM      5  C   UNL     1       5.941  -6.187  -2.470  1.00  0.00     0.350 C 
ATOM      6  O   UNL     1       5.699  -6.989  -3.356  1.00  0.00    -0.247 OA
BRANCH   5   7
ATOM      7  C   UNL     1       5.147  -6.005  -1.134  1.00  0.00     0.209 C 
ATOM      8  C   UNL     1       6.252  -5.969  -0.075  1.00  0.00     0.082 C 
ATOM      9  C   UNL     1       4.283  -4.764  -1.382  1.00  0.00     0.082 C 
ATOM     10  C   UNL     1       6.766  -4.567   0.222  1.00  0.00     0.124 C 
ATOM     11  C   UNL     1       4.672  -3.481  -0.663  1.00  0.00     0.124 C 
ATOM     12  N   UNL     1       5.716  -3.563   0.354  1.00  0.00    -0.340 N 
ATOM     13  C   UNL     1       5.892  -2.594   1.350  1.00  0.00     0.251 C 
ATOM     14  O   UNL     1       6.888  -2.619   2.080  1.00  0.00    -0.272 OA
BRANCH   7  15
ATOM     15  O   UNL     1       4.322  -7.170  -0.946  1.00  0.00    -0.475 OA
BRANCH  15  16
ATOM     16  C   UNL     1       3.417  -7.425   0.054  1.00  0.00     0.123 A 
ATOM     17  C   UNL     1       3.919  -5.727   1.984  1.00  0.00     0.048 C 
ATOM     18  C   UNL     1       3.181  -6.835   1.312  1.00  0.00    -0.009 A 
ATOM     19  C   UNL     1       2.177  -7.366   2.159  1.00  0.00     0.007 A 
ATOM     20  C   UNL     1       1.407  -8.456   1.795  1.00  0.00     0.001 A 
ATOM     21  C   UNL     1       2.616  -8.533  -0.288  1.00  0.00     0.047 A 
ATOM     22  C   UNL     1       1.629  -9.045   0.564  1.00  0.00     0.004 A 
ENDBRANCH  15  16
ENDBRANCH   7  15
BRANCH  13  23
ATOM     23  C   UNL     1       4.789  -1.522   1.542  1.00  0.00     0.207 C 
ATOM     24  C   UNL     1       3.613  -2.129   2.323  1.00  0.00     0.042 C 
ATOM     25  O   UNL     1       5.353  -0.421   2.264  1.00  0.00    -0.368 OA
ATOM     26  C   UNL     1       2.600  -1.074   2.749  1.00  0.00     0.006 C 
ATOM     27  C   UNL     1       4.419   0.609   2.557  1.00  0.00     0.161 C 
ATOM     28  C   UNL     1       3.305   0.079   3.444  1.00  0.00     0.029 C 
ENDBRANCH  13  23
ENDBRANCH   5   7
ENDBRANCH   4   5
ENDBRANCH   3   4
ENDBRANCH   2   3
ENDBRANCH   1   2
BRANCH   1  29
ATOM     29  C   UNL     1       8.576  -9.083  -2.362  1.00  0.00     0.202 C 
BRANCH  29  30
ATOM     30  C   UNL     1      10.022  -9.476  -2.686  1.00  0.00     0.261 C 
BRANCH  30  31
ATOM     31  O   UNL     1      10.189  -9.635  -4.113  1.00  0.00    -0.460 OA
BRANCH  31  32
ATOM     32  C   UNL     1      10.690  -8.561  -4.781  1.00  0.00     0.338 C 
ATOM     33  O   UNL     1      11.725  -7.969  -4.492  1.00  0.00    -0.246 OA
BRANCH  32  34
ATOM     34  C   UNL     1       9.668  -8.024  -5.725  1.00  0.00     0.060 A 
ATOM     35  C   UNL     1       9.849  -6.761  -6.322  1.00  0.00     0.016 A 
ATOM     36  C   UNL     1       8.407  -8.612  -5.719  1.00  0.00     0.016 A 
ATOM     37  C   UNL     1       8.737  -6.021  -6.753  1.00  0.00     0.010 A 
ATOM     38  C   UNL     1       7.315  -7.827  -6.010  1.00  0.00     0.010 A 
ATOM     39  C   UNL     1       7.462  -6.521  -6.503  1.00  0.00    -0.014 A 
BRANCH  39  40
ATOM     40  C   UNL     1       6.194  -5.800  -6.646  1.00  0.00     0.031 A 
ATOM     41  C   UNL     1       5.186  -6.365  -7.577  1.00  0.00     0.074 A 
ATOM     42  C   UNL     1       5.826  -4.827  -5.774  1.00  0.00     0.049 A 
ATOM     43  N   UNL     1       4.074  -5.784  -7.852  1.00  0.00    -0.248 NA
ATOM     44  C   UNL     1       5.352  -7.617  -8.321  1.00  0.00     0.031 C 
ATOM     45  C   UNL     1       4.473  -4.374  -5.442  1.00  0.00     0.029 A 
ATOM     46  N   UNL     1       6.625  -3.981  -4.994  1.00  0.00    -0.354 N 
ATOM     47  C   UNL     1       3.265  -6.692  -8.485  1.00  0.00     0.074 A 
ATOM     48  C   UNL     1       4.143  -7.761  -8.876  1.00  0.00     0.031 C 
ATOM     49  C   UNL     1       4.534  -3.187  -4.814  1.00  0.00     0.029 A 
ATOM     50  C   UNL     1       5.926  -2.777  -4.815  1.00  0.00     0.049 A 
ATOM     51  H   UNL     1       7.518  -4.192  -4.637  1.00  0.00     0.167 HD
ATOM     52  C   UNL     1       1.925  -6.456  -8.479  1.00  0.00     0.037 A 
ATOM     53  C   UNL     1       6.431  -1.595  -5.257  1.00  0.00     0.037 A 
ATOM     54  C   UNL     1       1.654  -5.092  -8.001  1.00  0.00     0.049 A 
ATOM     55  C   UNL     1       5.506  -1.056  -6.306  1.00  0.00     0.074 A 
ATOM     56  C   UNL     1       1.106  -4.570  -6.843  1.00  0.00     0.029 A 
ATOM     57  N   UNL     1       2.269  -4.021  -8.657  1.00  0.00    -0.354 N 
ATOM     58  N   UNL     1       4.733  -1.836  -7.015  1.00  0.00    -0.248 NA
ATOM     59  C   UNL     1       5.250   0.360  -6.540  1.00  0.00     0.031 C 
ATOM     60  C   UNL     1       1.492  -3.197  -6.764  1.00  0.00     0.029 A 
ATOM     61  C   UNL     1       2.232  -2.872  -7.893  1.00  0.00     0.049 A 
ATOM     62  H   UNL     1       2.676  -4.079  -9.552  1.00  0.00     0.167 HD
ATOM     63  C   UNL     1       3.828  -1.077  -7.686  1.00  0.00     0.074 A 
ATOM     64  C   UNL     1       4.222   0.294  -7.405  1.00  0.00     0.031 C 
ATOM     65  C   UNL     1       2.797  -1.619  -8.392  1.00  0.00     0.037 A 
BRANCH  52  66
ATOM     66  C   UNL     1       0.847  -7.481  -8.766  1.00  0.00     0.057 A 
ATOM     67  C   UNL     1      -0.503  -7.085  -8.827  1.00  0.00     0.134 A 
ATOM     68  C   UNL     1       1.042  -8.872  -8.900  1.00  0.00     0.134 A 
ATOM     69  F   UNL     1      -0.861  -5.801  -8.683  1.00  0.00    -0.206 F 
ATOM     70  C   UNL     1      -1.560  -7.989  -9.022  1.00  0.00     0.040 A 
ATOM     71  C   UNL     1       0.000  -9.780  -9.145  1.00  0.00     0.040 A 
ATOM     72  F   UNL     1       2.237  -9.450  -8.742  1.00  0.00    -0.206 F 
ATOM     73  C   UNL     1      -1.311  -9.341  -9.201  1.00  0.00     0.006 A 
ENDBRANCH  52  66
BRANCH  53  74
ATOM     74  C   UNL     1       7.918  -1.555  -5.172  1.00  0.00     0.057 A 
ATOM     75  C   UNL     1       8.478  -1.482  -3.879  1.00  0.00     0.134 A 
ATOM     76  C   UNL     1       8.735  -2.084  -6.178  1.00  0.00     0.134 A 
ATOM     77  F   UNL     1       7.746  -1.004  -2.859  1.00  0.00    -0.206 F 
ATOM     78  C   UNL     1       9.728  -2.033  -3.573  1.00  0.00     0.040 A 
ATOM     79  C   UNL     1       9.987  -2.647  -5.878  1.00  0.00     0.040 A 
ATOM     80  F   UNL     1       8.279  -2.206  -7.432  1.00  0.00    -0.206 F 
ATOM     81  C   UNL     1      10.466  -2.663  -4.569  1.00  0.00     0.006 A 
ENDBRANCH  53  74
BRANCH  65  82
ATOM     82  C   UNL     1       2.210  -0.948  -9.601  1.00  0.00     0.057 A 
ATOM     83  C   UNL     1       2.892   0.029 -10.346  1.00  0.00     0.134 A 
ATOM     84  C   UNL     1       1.013  -1.418 -10.179  1.00  0.00     0.134 A 
ATOM     85  F   UNL     1       4.104   0.477  -9.989  1.00  0.00    -0.206 F 
ATOM     86  C   UNL     1       2.388   0.552 -11.538  1.00  0.00     0.040 A 
ATOM     87  C   UNL     1       0.534  -0.950 -11.403  1.00  0.00     0.040 A 
ATOM     88  F   UNL     1       0.278  -2.381  -9.605  1.00  0.00    -0.206 F 
ATOM     89  C   UNL     1       1.211   0.054 -12.078  1.00  0.00     0.006 A 
ENDBRANCH  65  82
ENDBRANCH  39  40
ENDBRANCH  32  34
ENDBRANCH  31  32
ENDBRANCH  30  31
ENDBRANCH  29  30
ENDBRANCH   1  29
TORSDOF 17
