REMARK SMILES O=C(OCCOCCOC(=O)[C@@H]1CCCC[C@@H]1NS(=O)(=O)c1ccc2ccccc2c1)c1ccc(-c2c3nc(c(-c4c(F)cccc4F)c4ccc([nH]4)c(-c4c(F)cccc4F)c4nc(c(-c5c(F)cccc5F)c5ccc2[nH]5)C=C4)C=C3)cc1
REMARK SMILES IDX 7 1 6 2 5 3 4 4 3 5 2 6 1 7 32 8 33 9 85 10 34 11 84 12
REMARK SMILES IDX 35 13 36 14 37 15 78 16 38 17 83 18 77 19 79 20 39 21 82 22
REMARK SMILES IDX 76 23 75 24 40 26 66 27 49 28 65 29 50 30 53 31 64 32 80 33
REMARK SMILES IDX 51 34 52 35 63 37 81 38 54 39 41 40 42 41 47 42 43 43 44 44
REMARK SMILES IDX 46 45 48 46 45 47 67 48 68 49 73 50 69 51 70 52 72 53 74 54
REMARK SMILES IDX 71 55 55 56 56 57 61 58 57 59 58 60 60 61 62 62 59 63 8 64
REMARK SMILES IDX 9 65 10 66 11 67 12 68 13 69 17 70 14 71 16 72 15 73 18 74
REMARK SMILES IDX 19 76 20 77 21 78 22 79 23 80 31 81 24 82 30 83 25 84 29 85
REMARK SMILES IDX 26 86 28 87 27 88
REMARK H PARENT 79 25 53 36 18 75
REMARK Flexibility Score: inf
ROOT
ATOM      1  C   UNL     1       2.794  -2.074  -0.873  1.00  0.00     0.202 C 
ENDROOT
BRANCH   1   2
ATOM      2  O   UNL     1       4.188  -1.760  -0.948  1.00  0.00    -0.374 OA
BRANCH   2   3
ATOM      3  C   UNL     1       4.830  -1.218   0.212  1.00  0.00     0.202 C 
BRANCH   3   4
ATOM      4  C   UNL     1       4.397   0.173   0.708  1.00  0.00     0.261 C 
BRANCH   4   5
ATOM      5  O   UNL     1       2.972   0.330   0.640  1.00  0.00    -0.460 OA
BRANCH   5   6
ATOM      6  C   UNL     1       2.232   0.900  -0.336  1.00  0.00     0.338 C 
ATOM      7  O   UNL     1       1.008   0.928  -0.249  1.00  0.00    -0.246 OA
BRANCH   6   8
ATOM      8  C   UNL     1       2.867   1.476  -1.533  1.00  0.00     0.060 A 
ATOM      9  C   UNL     1       4.022   0.939  -2.089  1.00  0.00     0.016 A 
ATOM     10  C   UNL     1       2.219   2.528  -2.189  1.00  0.00     0.016 A 
ATOM     11  C   UNL     1       4.581   1.437  -3.224  1.00  0.00     0.010 A 
ATOM     12  C   UNL     1       2.741   3.015  -3.381  1.00  0.00     0.010 A 
ATOM     13  C   UNL     1       3.919   2.453  -3.884  1.00  0.00    -0.014 A 
BRANCH  13  14
ATOM     14  C   UNL     1       4.608   2.941  -5.062  1.00  0.00     0.031 A 
ATOM     15  C   UNL     1       5.413   4.175  -4.905  1.00  0.00     0.074 A 
ATOM     16  C   UNL     1       4.653   2.134  -6.133  1.00  0.00     0.049 A 
ATOM     17  N   UNL     1       6.057   4.849  -5.808  1.00  0.00    -0.248 NA
ATOM     18  C   UNL     1       5.521   4.719  -3.538  1.00  0.00     0.031 C 
ATOM     19  C   UNL     1       4.036   0.801  -6.215  1.00  0.00     0.029 A 
ATOM     20  N   UNL     1       5.271   2.291  -7.334  1.00  0.00    -0.354 N 
ATOM     21  C   UNL     1       6.591   5.935  -5.136  1.00  0.00     0.074 A 
ATOM     22  C   UNL     1       6.227   5.817  -3.744  1.00  0.00     0.031 C 
ATOM     23  C   UNL     1       4.304   0.269  -7.416  1.00  0.00     0.029 A 
ATOM     24  C   UNL     1       5.018   1.262  -8.204  1.00  0.00     0.049 A 
ATOM     25  H   UNL     1       5.841   3.062  -7.556  1.00  0.00     0.167 HD
ATOM     26  C   UNL     1       7.293   6.952  -5.678  1.00  0.00     0.037 A 
ATOM     27  C   UNL     1       5.275   1.193  -9.520  1.00  0.00     0.037 A 
ATOM     28  C   UNL     1       7.598   6.991  -7.081  1.00  0.00     0.049 A 
ATOM     29  C   UNL     1       5.964   2.379 -10.127  1.00  0.00     0.074 A 
ATOM     30  C   UNL     1       8.227   7.977  -7.810  1.00  0.00     0.029 A 
ATOM     31  N   UNL     1       7.274   5.968  -7.973  1.00  0.00    -0.354 N 
ATOM     32  N   UNL     1       6.386   3.474  -9.532  1.00  0.00    -0.248 NA
ATOM     33  C   UNL     1       6.195   2.346 -11.570  1.00  0.00     0.031 C 
ATOM     34  C   UNL     1       8.235   7.574  -9.150  1.00  0.00     0.029 A 
ATOM     35  C   UNL     1       7.667   6.308  -9.251  1.00  0.00     0.049 A 
ATOM     36  H   UNL     1       6.829   5.125  -7.726  1.00  0.00     0.167 HD
ATOM     37  C   UNL     1       6.944   4.261 -10.523  1.00  0.00     0.074 A 
ATOM     38  C   UNL     1       6.814   3.505 -11.759  1.00  0.00     0.031 C 
ATOM     39  C   UNL     1       7.510   5.491 -10.434  1.00  0.00     0.037 A 
BRANCH  26  40
ATOM     40  C   UNL     1       7.614   8.101  -4.773  1.00  0.00     0.057 A 
ATOM     41  C   UNL     1       8.523   7.997  -3.711  1.00  0.00     0.134 A 
ATOM     42  C   UNL     1       6.905   9.303  -4.898  1.00  0.00     0.134 A 
ATOM     43  F   UNL     1       9.201   6.858  -3.504  1.00  0.00    -0.206 F 
ATOM     44  C   UNL     1       8.684   9.031  -2.784  1.00  0.00     0.040 A 
ATOM     45  C   UNL     1       7.078  10.352  -3.994  1.00  0.00     0.040 A 
ATOM     46  F   UNL     1       6.003   9.463  -5.878  1.00  0.00    -0.206 F 
ATOM     47  C   UNL     1       7.960  10.213  -2.925  1.00  0.00     0.006 A 
ENDBRANCH  26  40
BRANCH  27  48
ATOM     48  C   UNL     1       4.793   0.030 -10.304  1.00  0.00     0.057 A 
ATOM     49  C   UNL     1       5.678  -0.888 -10.875  1.00  0.00     0.134 A 
ATOM     50  C   UNL     1       3.420  -0.230 -10.442  1.00  0.00     0.134 A 
ATOM     51  F   UNL     1       7.001  -0.696 -10.783  1.00  0.00    -0.206 F 
ATOM     52  C   UNL     1       5.218  -2.019 -11.555  1.00  0.00     0.040 A 
ATOM     53  C   UNL     1       2.948  -1.369 -11.095  1.00  0.00     0.040 A 
ATOM     54  F   UNL     1       2.515   0.603  -9.906  1.00  0.00    -0.206 F 
ATOM     55  C   UNL     1       3.850  -2.267 -11.658  1.00  0.00     0.006 A 
ENDBRANCH  27  48
BRANCH  39  56
ATOM     56  C   UNL     1       8.061   6.061 -11.701  1.00  0.00     0.057 A 
ATOM     57  C   UNL     1       7.229   6.602 -12.686  1.00  0.00     0.134 A 
ATOM     58  C   UNL     1       9.446   6.150 -11.883  1.00  0.00     0.134 A 
ATOM     59  F   UNL     1       5.895   6.530 -12.566  1.00  0.00    -0.206 F 
ATOM     60  C   UNL     1       7.760   7.215 -13.818  1.00  0.00     0.040 A 
ATOM     61  C   UNL     1       9.988   6.786 -12.996  1.00  0.00     0.040 A 
ATOM     62  F   UNL     1      10.287   5.655 -10.962  1.00  0.00    -0.206 F 
ATOM     63  C   UNL     1       9.143   7.320 -13.968  1.00  0.00     0.006 A 
ENDBRANCH  39  56
ENDBRANCH  13  14
ENDBRANCH   6   8
ENDBRANCH   5   6
ENDBRANCH   4   5
ENDBRANCH   3   4
ENDBRANCH   2   3
ENDBRANCH   1   2
BRANCH   1  64
ATOM     64  C   UNL     1       2.555  -3.565  -1.065  1.00  0.00     0.261 C 
BRANCH  64  65
ATOM     65  O   UNL     1       2.881  -4.191   0.185  1.00  0.00    -0.463 OA
BRANCH  65  66
ATOM     66  C   UNL     1       4.213  -4.362   0.386  1.00  0.00     0.310 C 
ATOM     67  O   UNL     1       5.064  -4.405  -0.494  1.00  0.00    -0.252 OA
BRANCH  66  68
ATOM     68  C   UNL     1       4.535  -4.547   1.848  1.00  0.00     0.117 C 
ATOM     69  C   UNL     1       4.262  -6.021   2.141  1.00  0.00     0.017 C 
ATOM     70  C   UNL     1       3.964  -3.534   2.901  1.00  0.00     0.084 C 
ATOM     71  C   UNL     1       4.688  -6.385   3.548  1.00  0.00     0.001 C 
ATOM     72  C   UNL     1       4.362  -4.014   4.300  1.00  0.00     0.021 C 
ATOM     73  C   UNL     1       4.002  -5.473   4.555  1.00  0.00     0.002 C 
BRANCH  70  74
ATOM     74  N   UNL     1       2.525  -3.254   2.749  1.00  0.00    -0.207 NA
ATOM     75  H   UNL     1       2.091  -4.174   2.667  1.00  0.00     0.141 HD
BRANCH  74  76
ATOM     76  S   UNL     1       1.513  -2.399   3.789  1.00  0.00     0.240 S 
ATOM     77  O   UNL     1       0.257  -2.297   3.079  1.00  0.00    -0.207 OA
ATOM     78  O   UNL     1       1.566  -3.026   5.093  1.00  0.00    -0.207 OA
BRANCH  76  79
ATOM     79  C   UNL     1       2.157  -0.737   3.965  1.00  0.00     0.083 A 
ATOM     80  C   UNL     1       3.013  -0.432   5.024  1.00  0.00     0.022 A 
ATOM     81  C   UNL     1       1.670   0.307   3.166  1.00  0.00     0.030 A 
ATOM     82  C   UNL     1       3.471   0.881   5.206  1.00  0.00     0.010 A 
ATOM     83  C   UNL     1       2.157   1.632   3.313  1.00  0.00    -0.017 A 
ATOM     84  C   UNL     1       3.090   1.913   4.333  1.00  0.00    -0.018 A 
ATOM     85  C   UNL     1       1.773   2.680   2.450  1.00  0.00     0.009 A 
ATOM     86  C   UNL     1       3.621   3.213   4.447  1.00  0.00     0.009 A 
ATOM     87  C   UNL     1       2.351   3.949   2.539  1.00  0.00     0.001 A 
ATOM     88  C   UNL     1       3.274   4.217   3.540  1.00  0.00     0.001 A 
ENDBRANCH  76  79
ENDBRANCH  74  76
ENDBRANCH  70  74
ENDBRANCH  66  68
ENDBRANCH  65  66
ENDBRANCH  64  65
ENDBRANCH   1  64
TORSDOF 17
