REMARK SMILES O=C(OCCOCCOC(=O)c1ccc(-c2c3nc(c(-c4c(F)cccc4F)c4ccc([nH]4)c(-c4c(F)cccc4F)c4nc(c(-c5c(F)cccc5F)c5ccc2[nH]5)C=C4)C=C3)cc1)C1=Cc2cc(Cl)c(Cl)c(Cl)c2O[C@@H]1C(F)(F)F
REMARK SMILES IDX 7 1 6 2 5 3 4 4 3 5 2 6 1 7 66 8 67 9 78 10 68 11 77 12
REMARK SMILES IDX 69 13 76 14 70 15 74 16 71 17 72 18 75 19 73 20 79 21 80 22
REMARK SMILES IDX 81 23 82 24 8 25 9 26 10 27 11 28 12 29 13 30 65 31 14 32
REMARK SMILES IDX 64 33 15 34 16 35 17 36 58 37 18 38 63 39 57 40 59 41 19 42
REMARK SMILES IDX 62 43 56 44 55 45 20 47 46 48 29 49 45 50 30 51 33 52 44 53
REMARK SMILES IDX 60 54 31 55 32 56 43 58 61 59 34 60 21 61 22 62 27 63 23 64
REMARK SMILES IDX 24 65 26 66 28 67 25 68 47 69 48 70 53 71 49 72 50 73 52 74
REMARK SMILES IDX 54 75 51 76 35 77 36 78 41 79 37 80 38 81 40 82 42 83 39 84
REMARK H PARENT 59 46 33 57
REMARK Flexibility Score: inf
ROOT
ATOM      1  C   UNL     1       2.784  -1.177  -2.852  1.00  0.00     0.202 C 
ENDROOT
BRANCH   1   2
ATOM      2  O   UNL     1       4.016  -0.683  -2.295  1.00  0.00    -0.374 OA
BRANCH   2   3
ATOM      3  C   UNL     1       4.260   0.456  -1.188  1.00  0.00     0.202 C 
BRANCH   3   4
ATOM      4  C   UNL     1       3.497   0.606   0.836  1.00  0.00     0.261 C 
BRANCH   4   5
ATOM      5  O   UNL     1       2.552   1.701   1.383  1.00  0.00    -0.460 OA
BRANCH   5   6
ATOM      6  C   UNL     1       2.640   2.850   0.710  1.00  0.00     0.338 C 
ATOM      7  O   UNL     1       2.009   3.869   0.821  1.00  0.00    -0.246 OA
BRANCH   6   8
ATOM      8  C   UNL     1       3.472   2.327  -0.344  1.00  0.00     0.087 C 
ATOM      9  C   UNL     1       4.883   2.211   0.108  1.00  0.00     0.027 C 
ATOM     10  C   UNL     1       2.335   0.828  -0.816  1.00  0.00     0.316 C 
ATOM     11  C   UNL     1       5.689   0.626   0.482  1.00  0.00     0.020 A 
ATOM     12  O   UNL     1       3.147  -0.855  -0.353  1.00  0.00    -0.474 OA
ATOM     13  C   UNL     1       6.938   0.638   1.035  1.00  0.00     0.034 A 
ATOM     14  C   UNL     1       4.841  -0.879   0.334  1.00  0.00     0.148 A 
ATOM     15  C   UNL     1       7.391  -0.600   1.514  1.00  0.00     0.062 A 
ATOM     16  C   UNL     1       5.288  -1.994   0.997  1.00  0.00     0.103 A 
ATOM     17  Cl  UNL     1       9.018  -0.554   2.156  1.00  0.00    -0.083 Cl
ATOM     18  C   UNL     1       6.596  -1.833   1.558  1.00  0.00     0.082 A 
ATOM     19  Cl  UNL     1       4.216  -3.261   1.412  1.00  0.00    -0.079 Cl
ATOM     20  Cl  UNL     1       7.303  -3.143   2.461  1.00  0.00    -0.081 Cl
BRANCH  10  21
ATOM     21  C   UNL     1       1.769   1.348  -2.201  1.00  0.00     0.430 C 
ATOM     22  F   UNL     1       0.832   0.564  -2.763  1.00  0.00    -0.167 F 
ATOM     23  F   UNL     1       1.151   2.542  -1.967  1.00  0.00    -0.167 F 
ATOM     24  F   UNL     1       2.711   1.625  -3.131  1.00  0.00    -0.167 F 
ENDBRANCH  10  21
ENDBRANCH   6   8
ENDBRANCH   5   6
ENDBRANCH   4   5
ENDBRANCH   3   4
ENDBRANCH   2   3
ENDBRANCH   1   2
BRANCH   1  25
ATOM     25  C   UNL     1       2.856  -2.624  -3.337  1.00  0.00     0.261 C 
BRANCH  25  26
ATOM     26  O   UNL     1       3.426  -3.478  -2.353  1.00  0.00    -0.460 OA
BRANCH  26  27
ATOM     27  C   UNL     1       4.769  -3.600  -2.458  1.00  0.00     0.338 C 
ATOM     28  O   UNL     1       5.515  -3.015  -3.224  1.00  0.00    -0.246 OA
BRANCH  27  29
ATOM     29  C   UNL     1       5.233  -4.593  -1.478  1.00  0.00     0.060 A 
ATOM     30  C   UNL     1       6.559  -4.504  -1.046  1.00  0.00     0.016 A 
ATOM     31  C   UNL     1       4.380  -5.591  -0.982  1.00  0.00     0.016 A 
ATOM     32  C   UNL     1       7.032  -5.414  -0.110  1.00  0.00     0.010 A 
ATOM     33  C   UNL     1       4.850  -6.492  -0.034  1.00  0.00     0.010 A 
ATOM     34  C   UNL     1       6.181  -6.410   0.392  1.00  0.00    -0.014 A 
BRANCH  34  35
ATOM     35  C   UNL     1       6.760  -7.470   1.234  1.00  0.00     0.031 A 
ATOM     36  C   UNL     1       7.265  -8.697   0.551  1.00  0.00     0.074 A 
ATOM     37  C   UNL     1       6.894  -7.299   2.558  1.00  0.00     0.049 A 
ATOM     38  N   UNL     1       7.926  -9.704   1.053  1.00  0.00    -0.248 NA
ATOM     39  C   UNL     1       6.978  -8.811  -0.889  1.00  0.00     0.031 C 
ATOM     40  C   UNL     1       6.384  -6.159   3.309  1.00  0.00     0.029 A 
ATOM     41  N   UNL     1       7.520  -8.066   3.502  1.00  0.00    -0.354 N 
ATOM     42  C   UNL     1       8.156 -10.558  -0.013  1.00  0.00     0.074 A 
ATOM     43  C   UNL     1       7.518  -9.984  -1.176  1.00  0.00     0.031 C 
ATOM     44  C   UNL     1       6.784  -6.254   4.587  1.00  0.00     0.029 A 
ATOM     45  C   UNL     1       7.508  -7.508   4.758  1.00  0.00     0.049 A 
ATOM     46  H   UNL     1       7.938  -8.935   3.302  1.00  0.00     0.167 HD
ATOM     47  C   UNL     1       8.857 -11.712  -0.015  1.00  0.00     0.037 A 
ATOM     48  C   UNL     1       8.012  -7.975   5.915  1.00  0.00     0.037 A 
ATOM     49  C   UNL     1       9.444 -12.288   1.164  1.00  0.00     0.049 A 
ATOM     50  C   UNL     1       8.728  -9.299   5.890  1.00  0.00     0.074 A 
ATOM     51  C   UNL     1      10.151 -13.469   1.285  1.00  0.00     0.029 A 
ATOM     52  N   UNL     1       9.373 -11.728   2.432  1.00  0.00    -0.354 N 
ATOM     53  N   UNL     1       8.985 -10.084   4.870  1.00  0.00    -0.248 NA
ATOM     54  C   UNL     1       9.222  -9.805   7.176  1.00  0.00     0.031 C 
ATOM     55  C   UNL     1      10.462 -13.650   2.636  1.00  0.00     0.029 A 
ATOM     56  C   UNL     1      10.008 -12.550   3.347  1.00  0.00     0.049 A 
ATOM     57  H   UNL     1       8.937 -10.872   2.649  1.00  0.00     0.167 HD
ATOM     58  C   UNL     1       9.686 -11.165   5.387  1.00  0.00     0.074 A 
ATOM     59  C   UNL     1       9.847 -10.912   6.805  1.00  0.00     0.031 C 
ATOM     60  C   UNL     1      10.149 -12.272   4.755  1.00  0.00     0.037 A 
BRANCH  47  61
ATOM     61  C   UNL     1       8.996 -12.421  -1.327  1.00  0.00     0.057 A 
ATOM     62  C   UNL     1       9.783 -11.901  -2.364  1.00  0.00     0.134 A 
ATOM     63  C   UNL     1       8.341 -13.636  -1.556  1.00  0.00     0.134 A 
ATOM     64  F   UNL     1      10.412 -10.725  -2.217  1.00  0.00    -0.206 F 
ATOM     65  C   UNL     1       9.903 -12.559  -3.588  1.00  0.00     0.040 A 
ATOM     66  C   UNL     1       8.476 -14.317  -2.766  1.00  0.00     0.040 A 
ATOM     67  F   UNL     1       7.562 -14.181  -0.610  1.00  0.00    -0.206 F 
ATOM     68  C   UNL     1       9.256 -13.777  -3.788  1.00  0.00     0.006 A 
ENDBRANCH  47  61
BRANCH  48  69
ATOM     69  C   UNL     1       7.827  -7.227   7.187  1.00  0.00     0.057 A 
ATOM     70  C   UNL     1       8.917  -6.739   7.918  1.00  0.00     0.134 A 
ATOM     71  C   UNL     1       6.552  -7.034   7.735  1.00  0.00     0.134 A 
ATOM     72  F   UNL     1      10.167  -6.905   7.462  1.00  0.00    -0.206 F 
ATOM     73  C   UNL     1       8.750  -6.127   9.163  1.00  0.00     0.040 A 
ATOM     74  C   UNL     1       6.368  -6.391   8.960  1.00  0.00     0.040 A 
ATOM     75  F   UNL     1       5.461  -7.470   7.088  1.00  0.00    -0.206 F 
ATOM     76  C   UNL     1       7.471  -5.950   9.686  1.00  0.00     0.006 A 
ENDBRANCH  48  69
BRANCH  60  77
ATOM     77  C   UNL     1      10.898 -13.266   5.596  1.00  0.00     0.057 A 
ATOM     78  C   UNL     1      10.265 -14.027   6.588  1.00  0.00     0.134 A 
ATOM     79  C   UNL     1      12.271 -13.467   5.405  1.00  0.00     0.134 A 
ATOM     80  F   UNL     1       8.954 -13.877   6.829  1.00  0.00    -0.206 F 
ATOM     81  C   UNL     1      10.981 -14.915   7.392  1.00  0.00     0.040 A 
ATOM     82  C   UNL     1      12.989 -14.381   6.176  1.00  0.00     0.040 A 
ATOM     83  F   UNL     1      12.936 -12.783   4.462  1.00  0.00    -0.206 F 
ATOM     84  C   UNL     1      12.346 -15.097   7.183  1.00  0.00     0.006 A 
ENDBRANCH  60  77
ENDBRANCH  34  35
ENDBRANCH  27  29
ENDBRANCH  26  27
ENDBRANCH  25  26
ENDBRANCH   1  25
TORSDOF 15
