REMARK SMILES Cc1c(CC(=O)OCCOCCOC(=O)c2ccc(-c3c4nc(c(-c5c(F)cccc5F)c5ccc([nH]5)c(-c5c(F)cccc5F)c5nc(c(-c6c(F)cccc6F)c6ccc3[nH]6)C=C5)C=C4)cc2)cc(-c2ccc(S(C)(=O)=O)cc2)n1-c1ccccc1
REMARK SMILES IDX 9 1 8 2 7 3 5 4 6 5 4 6 3 7 1 8 2 9 82 10 70 11 71 12 83 13
REMARK SMILES IDX 84 14 88 15 85 16 87 17 86 18 72 19 73 20 81 21 74 22 80 23
REMARK SMILES IDX 75 24 76 25 77 26 78 27 79 28 10 29 11 30 12 31 13 32 14 33
REMARK SMILES IDX 15 34 16 35 17 36 69 37 18 38 68 39 19 40 20 41 21 42 62 43
REMARK SMILES IDX 22 44 67 45 61 46 63 47 23 48 66 49 60 50 59 51 24 53 50 54
REMARK SMILES IDX 33 55 49 56 34 57 37 58 48 59 64 60 35 61 36 62 47 64 65 65
REMARK SMILES IDX 38 66 25 67 26 68 31 69 27 70 28 71 30 72 32 73 29 74 51 75
REMARK SMILES IDX 52 76 57 77 53 78 54 79 56 80 58 81 55 82 39 83 40 84 45 85
REMARK SMILES IDX 41 86 42 87 44 88 46 89 43 90
REMARK H PARENT 63 52 37 63
REMARK Flexibility Score: inf
ROOT
ATOM      1  C   UNL     1       4.956  -2.268  -1.859  1.00  0.00     0.202 C 
ENDROOT
BRANCH   1   2
ATOM      2  C   UNL     1       3.864  -3.237  -2.352  1.00  0.00     0.261 C 
BRANCH   2   3
ATOM      3  O   UNL     1       2.571  -2.616  -2.535  1.00  0.00    -0.463 OA
BRANCH   3   4
ATOM      4  C   UNL     1       1.548  -3.135  -1.800  1.00  0.00     0.310 C 
ATOM      5  O   UNL     1       1.639  -4.166  -1.135  1.00  0.00    -0.252 OA
BRANCH   4   6
ATOM      6  C   UNL     1       0.222  -2.406  -1.925  1.00  0.00     0.160 C 
BRANCH   6   7
ATOM      7  C   UNL     1       0.196  -0.930  -2.259  1.00  0.00    -0.015 A 
ATOM      8  C   UNL     1       0.230   0.237   0.076  1.00  0.00     0.065 C 
ATOM      9  C   UNL     1       0.215   0.189  -1.417  1.00  0.00     0.024 A 
ATOM     10  N   UNL     1       0.072   1.347  -2.193  1.00  0.00    -0.314 N 
ATOM     11  C   UNL     1      -0.067  -0.428  -3.559  1.00  0.00     0.033 A 
ATOM     12  C   UNL     1      -0.204   0.946  -3.494  1.00  0.00     0.053 A 
BRANCH  10  13
ATOM     13  C   UNL     1       0.162   2.713  -1.757  1.00  0.00     0.046 A 
ATOM     14  C   UNL     1      -0.889   3.607  -1.934  1.00  0.00     0.026 A 
ATOM     15  C   UNL     1       1.374   3.221  -1.295  1.00  0.00     0.026 A 
ATOM     16  C   UNL     1      -0.711   4.966  -1.624  1.00  0.00     0.002 A 
ATOM     17  C   UNL     1       1.573   4.572  -1.009  1.00  0.00     0.002 A 
ATOM     18  C   UNL     1       0.518   5.450  -1.168  1.00  0.00     0.000 A 
ENDBRANCH  10  13
BRANCH  12  19
ATOM     19  C   UNL     1      -0.489   1.850  -4.600  1.00  0.00    -0.001 A 
ATOM     20  C   UNL     1       0.531   2.644  -5.134  1.00  0.00     0.011 A 
ATOM     21  C   UNL     1      -1.778   1.905  -5.143  1.00  0.00     0.011 A 
ATOM     22  C   UNL     1       0.266   3.501  -6.198  1.00  0.00     0.021 A 
ATOM     23  C   UNL     1      -2.054   2.768  -6.204  1.00  0.00     0.021 A 
ATOM     24  C   UNL     1      -1.025   3.563  -6.722  1.00  0.00     0.067 A 
BRANCH  24  25
ATOM     25  S   UNL     1      -1.367   4.618  -8.111  1.00  0.00     0.175 S 
ATOM     26  C   UNL     1      -1.055   6.254  -7.494  1.00  0.00     0.163 C 
ATOM     27  O   UNL     1      -0.313   4.317  -9.110  1.00  0.00    -0.224 OA
ATOM     28  O   UNL     1      -2.736   4.515  -8.436  1.00  0.00    -0.224 OA
ENDBRANCH  24  25
ENDBRANCH  12  19
ENDBRANCH   6   7
ENDBRANCH   4   6
ENDBRANCH   3   4
ENDBRANCH   2   3
ENDBRANCH   1   2
BRANCH   1  29
ATOM     29  O   UNL     1       4.630  -1.482  -0.727  1.00  0.00    -0.374 OA
BRANCH  29  30
ATOM     30  C   UNL     1       3.702  -0.426  -0.971  1.00  0.00     0.202 C 
BRANCH  30  31
ATOM     31  C   UNL     1       4.202   0.888  -1.687  1.00  0.00     0.261 C 
BRANCH  31  32
ATOM     32  O   UNL     1       4.013   1.286  -3.155  1.00  0.00    -0.460 OA
BRANCH  32  33
ATOM     33  C   UNL     1       4.751   2.416  -3.610  1.00  0.00     0.338 C 
ATOM     34  O   UNL     1       5.634   2.876  -2.883  1.00  0.00    -0.246 OA
BRANCH  33  35
ATOM     35  C   UNL     1       4.524   3.232  -5.023  1.00  0.00     0.060 A 
ATOM     36  C   UNL     1       5.246   2.994  -6.200  1.00  0.00     0.016 A 
ATOM     37  C   UNL     1       3.982   4.546  -5.105  1.00  0.00     0.016 A 
ATOM     38  C   UNL     1       5.449   4.030  -7.345  1.00  0.00     0.010 A 
ATOM     39  C   UNL     1       4.250   5.608  -6.216  1.00  0.00     0.010 A 
ATOM     40  C   UNL     1       5.139   5.476  -7.335  1.00  0.00    -0.014 A 
BRANCH  40  41
ATOM     41  C   UNL     1       6.084   6.883  -8.114  1.00  0.00     0.031 A 
ATOM     42  C   UNL     1       7.946   7.286  -7.741  1.00  0.00     0.074 A 
ATOM     43  C   UNL     1       5.470   7.776  -9.076  1.00  0.00     0.049 A 
ATOM     44  N   UNL     1       8.839   6.989  -8.677  1.00  0.00    -0.248 NA
ATOM     45  C   UNL     1       9.267   6.905  -6.662  1.00  0.00     0.031 C 
ATOM     46  C   UNL     1       4.088   8.276  -9.236  1.00  0.00     0.029 A 
ATOM     47  N   UNL     1       6.006   8.457 -10.226  1.00  0.00    -0.354 N 
ATOM     48  C   UNL     1       9.188   5.659  -8.337  1.00  0.00     0.074 A 
ATOM     49  C   UNL     1       9.973   5.887  -7.218  1.00  0.00     0.031 C 
ATOM     50  C   UNL     1       3.939   9.093 -10.344  1.00  0.00     0.029 A 
ATOM     51  C   UNL     1       5.162   9.170 -11.155  1.00  0.00     0.049 A 
ATOM     52  H   UNL     1       6.977   8.435 -10.383  1.00  0.00     0.167 HD
ATOM     53  C   UNL     1       8.076   4.874  -8.214  1.00  0.00     0.037 A 
ATOM     54  C   UNL     1       5.546   9.801 -12.370  1.00  0.00     0.037 A 
ATOM     55  C   UNL     1       7.566   5.123  -9.799  1.00  0.00     0.049 A 
ATOM     56  C   UNL     1       6.986   9.489 -12.672  1.00  0.00     0.074 A 
ATOM     57  C   UNL     1       7.893   4.612 -11.082  1.00  0.00     0.029 A 
ATOM     58  N   UNL     1       7.528   6.458 -10.364  1.00  0.00    -0.354 N 
ATOM     59  N   UNL     1       8.016  10.038 -12.102  1.00  0.00    -0.248 NA
ATOM     60  C   UNL     1       7.368   8.579 -13.769  1.00  0.00     0.031 C 
ATOM     61  C   UNL     1       8.589   5.684 -11.898  1.00  0.00     0.029 A 
ATOM     62  C   UNL     1       8.630   6.857 -11.146  1.00  0.00     0.049 A 
ATOM     63  H   UNL     1       6.765   7.060 -10.207  1.00  0.00     0.167 HD
ATOM     64  C   UNL     1       8.955   9.048 -12.226  1.00  0.00     0.074 A 
ATOM     65  C   UNL     1       8.668   8.437 -13.500  1.00  0.00     0.031 C 
ATOM     66  C   UNL     1       9.118   8.362 -11.059  1.00  0.00     0.037 A 
BRANCH  53  67
ATOM     67  C   UNL     1       7.600   5.102  -6.404  1.00  0.00     0.057 A 
ATOM     68  C   UNL     1       8.337   4.386  -5.440  1.00  0.00     0.134 A 
ATOM     69  C   UNL     1       6.961   6.312  -5.598  1.00  0.00     0.134 A 
ATOM     70  F   UNL     1       8.998   3.280  -5.793  1.00  0.00    -0.206 F 
ATOM     71  C   UNL     1       8.606   4.901  -4.097  1.00  0.00     0.040 A 
ATOM     72  C   UNL     1       7.167   6.743  -4.281  1.00  0.00     0.040 A 
ATOM     73  F   UNL     1       6.230   7.330  -6.098  1.00  0.00    -0.206 F 
ATOM     74  C   UNL     1       8.081   6.082  -3.544  1.00  0.00     0.006 A 
ENDBRANCH  53  67
BRANCH  54  75
ATOM     75  C   UNL     1       5.101  10.659 -13.615  1.00  0.00     0.057 A 
ATOM     76  C   UNL     1       6.053  11.567 -14.215  1.00  0.00     0.134 A 
ATOM     77  C   UNL     1       4.084  10.291 -14.499  1.00  0.00     0.134 A 
ATOM     78  F   UNL     1       7.074  12.062 -13.498  1.00  0.00    -0.206 F 
ATOM     79  C   UNL     1       6.076  11.929 -15.582  1.00  0.00     0.040 A 
ATOM     80  C   UNL     1       4.066  10.697 -15.868  1.00  0.00     0.040 A 
ATOM     81  F   UNL     1       3.120   9.453 -14.101  1.00  0.00    -0.206 F 
ATOM     82  C   UNL     1       5.083  11.474 -16.426  1.00  0.00     0.006 A 
ENDBRANCH  54  75
BRANCH  66  83
ATOM     83  C   UNL     1       9.144   9.510  -9.793  1.00  0.00     0.057 A 
ATOM     84  C   UNL     1       8.130  10.495  -9.462  1.00  0.00     0.134 A 
ATOM     85  C   UNL     1      10.322   9.806  -9.089  1.00  0.00     0.134 A 
ATOM     86  F   UNL     1       6.936  10.537 -10.040  1.00  0.00    -0.206 F 
ATOM     87  C   UNL     1       8.233  11.582  -8.572  1.00  0.00     0.040 A 
ATOM     88  C   UNL     1      10.447  10.916  -8.179  1.00  0.00     0.040 A 
ATOM     89  F   UNL     1      11.425   9.071  -9.277  1.00  0.00    -0.206 F 
ATOM     90  C   UNL     1       9.412  11.813  -7.926  1.00  0.00     0.006 A 
ENDBRANCH  66  83
ENDBRANCH  40  41
ENDBRANCH  33  35
ENDBRANCH  32  33
ENDBRANCH  31  32
ENDBRANCH  30  31
ENDBRANCH  29  30
ENDBRANCH   1  29
TORSDOF 18
