REMARK SMILES CCc1c(C)nc(Nc2cc(Cl)ccc2C)nc1OCC(=O)OCCOCCOC(=O)c1ccc(-c2c3nc(c(-c4c(F)cccc4F)c4ccc([nH]4)c(-c4c(F)cccc4F)c4nc(c(-c5c(F)cccc5F)c5ccc2[nH]5)C=C4)C=C3)cc1
REMARK SMILES IDX 25 1 24 2 23 3 21 4 22 5 20 6 19 7 18 8 3 9 4 10 5 11 6 12
REMARK SMILES IDX 17 13 7 14 2 15 1 16 8 17 9 19 10 20 15 21 11 22 14 23 16 24
REMARK SMILES IDX 12 25 13 26 26 27 27 28 28 29 29 30 30 31 31 32 32 33 33 34
REMARK SMILES IDX 85 35 34 36 84 37 35 38 36 39 37 40 78 41 38 42 83 43 77 44
REMARK SMILES IDX 79 45 39 46 82 47 76 48 75 49 40 51 66 52 49 53 65 54 50 55
REMARK SMILES IDX 53 56 64 57 80 58 51 59 52 60 63 62 81 63 54 64 41 65 42 66
REMARK SMILES IDX 47 67 43 68 44 69 46 70 48 71 45 72 67 73 68 74 73 75 69 76
REMARK SMILES IDX 70 77 72 78 74 79 71 80 55 81 56 82 61 83 57 84 58 85 60 86
REMARK SMILES IDX 62 87 59 88
REMARK H PARENT 8 18 79 50 53 61
REMARK Flexibility Score: inf
ROOT
ATOM      1  C   UNL     1      -3.444  -0.687   0.489  1.00  0.00     0.202 C 
ENDROOT
BRANCH   1   2
ATOM      2  C   UNL     1      -3.356  -1.106  -0.984  1.00  0.00     0.261 C 
BRANCH   2   3
ATOM      3  O   UNL     1      -2.393  -2.169  -1.174  1.00  0.00    -0.461 OA
BRANCH   3   4
ATOM      4  C   UNL     1      -1.537  -2.021  -2.223  1.00  0.00     0.344 C 
ATOM      5  O   UNL     1      -1.580  -1.101  -3.033  1.00  0.00    -0.248 OA
BRANCH   4   6
ATOM      6  C   UNL     1      -0.491  -3.139  -2.311  1.00  0.00     0.353 C 
BRANCH   6   7
ATOM      7  O   UNL     1      -0.080  -3.809  -1.147  1.00  0.00    -0.465 OA
BRANCH   7   8
ATOM      8  C   UNL     1       0.944  -3.508  -0.310  1.00  0.00     0.222 A 
ATOM      9  C   UNL     1       1.679  -2.313  -0.170  1.00  0.00     0.035 A 
ATOM     10  C   UNL     1       2.453  -2.273   0.997  1.00  0.00     0.050 A 
ATOM     11  C   UNL     1       3.090  -1.084   1.651  1.00  0.00     0.067 C 
ATOM     12  N   UNL     1       2.533  -3.321   1.845  1.00  0.00    -0.218 NA
ATOM     13  N   UNL     1       1.075  -4.560   0.535  1.00  0.00    -0.177 NA
ATOM     14  C   UNL     1       1.860  -4.436   1.595  1.00  0.00     0.230 A 
BRANCH   9  15
ATOM     15  C   UNL     1       1.632  -1.222  -1.212  1.00  0.00     0.040 C 
ATOM     16  C   UNL     1       2.094   0.206  -0.960  1.00  0.00     0.009 C 
ENDBRANCH   9  15
BRANCH  14  17
ATOM     17  N   UNL     1       1.941  -5.493   2.501  1.00  0.00    -0.324 N 
ATOM     18  H   UNL     1       1.509  -6.338   2.241  1.00  0.00     0.170 HD
BRANCH  17  19
ATOM     19  C   UNL     1       2.584  -5.461   3.747  1.00  0.00     0.045 A 
ATOM     20  C   UNL     1       3.795  -6.148   3.909  1.00  0.00     0.047 A 
ATOM     21  C   UNL     1       2.086  -4.686   4.819  1.00  0.00    -0.027 A 
ATOM     22  C   UNL     1       4.529  -6.014   5.088  1.00  0.00     0.043 A 
ATOM     23  C   UNL     1       2.840  -4.562   5.998  1.00  0.00     0.007 A 
ATOM     24  C   UNL     1       0.754  -3.988   4.735  1.00  0.00     0.046 C 
ATOM     25  Cl  UNL     1       6.044  -6.817   5.248  1.00  0.00    -0.084 Cl
ATOM     26  C   UNL     1       4.063  -5.216   6.128  1.00  0.00     0.021 A 
ENDBRANCH  17  19
ENDBRANCH  14  17
ENDBRANCH   7   8
ENDBRANCH   6   7
ENDBRANCH   4   6
ENDBRANCH   3   4
ENDBRANCH   2   3
ENDBRANCH   1   2
BRANCH   1  27
ATOM     27  O   UNL     1      -2.369   0.114   0.992  1.00  0.00    -0.374 OA
BRANCH  27  28
ATOM     28  C   UNL     1      -1.080  -0.485   1.018  1.00  0.00     0.202 C 
BRANCH  28  29
ATOM     29  C   UNL     1      -0.761  -1.407   2.193  1.00  0.00     0.261 C 
BRANCH  29  30
ATOM     30  O   UNL     1      -1.819  -2.301   2.494  1.00  0.00    -0.460 OA
BRANCH  30  31
ATOM     31  C   UNL     1      -2.486  -1.968   3.613  1.00  0.00     0.338 C 
ATOM     32  O   UNL     1      -2.221  -1.104   4.435  1.00  0.00    -0.246 OA
BRANCH  31  33
ATOM     33  C   UNL     1      -3.740  -2.711   3.597  1.00  0.00     0.060 A 
ATOM     34  C   UNL     1      -4.914  -1.957   3.659  1.00  0.00     0.016 A 
ATOM     35  C   UNL     1      -3.753  -4.107   3.524  1.00  0.00     0.016 A 
ATOM     36  C   UNL     1      -6.127  -2.612   3.732  1.00  0.00     0.010 A 
ATOM     37  C   UNL     1      -4.973  -4.764   3.597  1.00  0.00     0.010 A 
ATOM     38  C   UNL     1      -6.149  -4.013   3.756  1.00  0.00    -0.014 A 
BRANCH  38  39
ATOM     39  C   UNL     1      -7.396  -4.672   4.169  1.00  0.00     0.031 A 
ATOM     40  C   UNL     1      -7.527  -5.089   5.603  1.00  0.00     0.074 A 
ATOM     41  C   UNL     1      -8.400  -4.803   3.290  1.00  0.00     0.049 A 
ATOM     42  N   UNL     1      -8.538  -5.643   6.215  1.00  0.00    -0.248 NA
ATOM     43  C   UNL     1      -6.357  -4.848   6.468  1.00  0.00     0.031 C 
ATOM     44  C   UNL     1      -8.356  -4.378   1.891  1.00  0.00     0.029 A 
ATOM     45  N   UNL     1      -9.655  -5.318   3.450  1.00  0.00    -0.354 N 
ATOM     46  C   UNL     1      -8.126  -5.817   7.530  1.00  0.00     0.074 A 
ATOM     47  C   UNL     1      -6.762  -5.351   7.622  1.00  0.00     0.031 C 
ATOM     48  C   UNL     1      -9.540  -4.648   1.318  1.00  0.00     0.029 A 
ATOM     49  C   UNL     1     -10.406  -5.289   2.303  1.00  0.00     0.049 A 
ATOM     50  H   UNL     1      -9.988  -5.675   4.306  1.00  0.00     0.167 HD
ATOM     51  C   UNL     1      -8.837  -6.312   8.568  1.00  0.00     0.037 A 
ATOM     52  C   UNL     1     -11.651  -5.748   2.086  1.00  0.00     0.037 A 
ATOM     53  C   UNL     1     -10.194  -6.772   8.442  1.00  0.00     0.049 A 
ATOM     54  C   UNL     1     -12.398  -6.353   3.243  1.00  0.00     0.074 A 
ATOM     55  C   UNL     1     -11.024  -7.294   9.415  1.00  0.00     0.029 A 
ATOM     56  N   UNL     1     -10.914  -6.769   7.254  1.00  0.00    -0.354 N 
ATOM     57  N   UNL     1     -12.014  -6.500   4.490  1.00  0.00    -0.248 NA
ATOM     58  C   UNL     1     -13.751  -6.848   2.967  1.00  0.00     0.031 C 
ATOM     59  C   UNL     1     -12.228  -7.658   8.804  1.00  0.00     0.029 A 
ATOM     60  C   UNL     1     -12.172  -7.303   7.464  1.00  0.00     0.049 A 
ATOM     61  H   UNL     1     -10.579  -6.434   6.391  1.00  0.00     0.167 HD
ATOM     62  C   UNL     1     -13.086  -7.079   5.155  1.00  0.00     0.074 A 
ATOM     63  C   UNL     1     -14.140  -7.240   4.173  1.00  0.00     0.031 C 
ATOM     64  C   UNL     1     -13.196  -7.443   6.457  1.00  0.00     0.037 A 
BRANCH  51  65
ATOM     65  C   UNL     1      -8.146  -6.412   9.897  1.00  0.00     0.057 A 
ATOM     66  C   UNL     1      -7.799  -5.278  10.644  1.00  0.00     0.134 A 
ATOM     67  C   UNL     1      -7.822  -7.662  10.438  1.00  0.00     0.134 A 
ATOM     68  F   UNL     1      -8.059  -4.048  10.175  1.00  0.00    -0.206 F 
ATOM     69  C   UNL     1      -7.133  -5.384  11.867  1.00  0.00     0.040 A 
ATOM     70  C   UNL     1      -7.182  -7.782  11.672  1.00  0.00     0.040 A 
ATOM     71  F   UNL     1      -8.121  -8.789   9.774  1.00  0.00    -0.206 F 
ATOM     72  C   UNL     1      -6.829  -6.640  12.388  1.00  0.00     0.006 A 
ENDBRANCH  51  65
BRANCH  52  73
ATOM     73  C   UNL     1     -12.252  -5.651   0.733  1.00  0.00     0.057 A 
ATOM     74  C   UNL     1     -13.340  -4.811   0.476  1.00  0.00     0.134 A 
ATOM     75  C   UNL     1     -11.745  -6.394  -0.341  1.00  0.00     0.134 A 
ATOM     76  F   UNL     1     -13.878  -4.082   1.464  1.00  0.00    -0.206 F 
ATOM     77  C   UNL     1     -13.914  -4.726  -0.794  1.00  0.00     0.040 A 
ATOM     78  C   UNL     1     -12.291  -6.299  -1.621  1.00  0.00     0.040 A 
ATOM     79  F   UNL     1     -10.696  -7.212  -0.165  1.00  0.00    -0.206 F 
ATOM     80  C   UNL     1     -13.385  -5.468  -1.849  1.00  0.00     0.006 A 
ENDBRANCH  52  73
BRANCH  64  81
ATOM     81  C   UNL     1     -14.514  -8.012   6.893  1.00  0.00     0.057 A 
ATOM     82  C   UNL     1     -14.935  -9.289   6.502  1.00  0.00     0.134 A 
ATOM     83  C   UNL     1     -15.351  -7.285   7.748  1.00  0.00     0.134 A 
ATOM     84  F   UNL     1     -14.183 -10.031   5.675  1.00  0.00    -0.206 F 
ATOM     85  C   UNL     1     -16.158  -9.811   6.925  1.00  0.00     0.040 A 
ATOM     86  C   UNL     1     -16.560  -7.809   8.204  1.00  0.00     0.040 A 
ATOM     87  F   UNL     1     -14.998  -6.060   8.169  1.00  0.00    -0.206 F 
ATOM     88  C   UNL     1     -16.970  -9.073   7.785  1.00  0.00     0.006 A 
ENDBRANCH  64  81
ENDBRANCH  38  39
ENDBRANCH  31  33
ENDBRANCH  30  31
ENDBRANCH  29  30
ENDBRANCH  28  29
ENDBRANCH  27  28
ENDBRANCH   1  27
TORSDOF 19
