REMARK SMILES O=C(CC1(C(=O)OCCOCCOC(=O)c2ccc(-c3c4nc(c(-c5c(F)cccc5F)c5ccc([nH]5)c(-c5c(F)cccc5F)c5nc(c(-c6c(F)cccc6F)c6ccc3[nH]6)C=C5)C=C4)cc2)CCCCC1)Nc1ccc(N2CCOC2=O)cc1
REMARK SMILES IDX 9 1 8 2 7 3 5 4 6 5 4 6 70 7 74 8 71 9 73 10 72 11 3 12 2 13
REMARK SMILES IDX 1 14 75 15 76 17 77 18 87 19 78 20 86 21 79 22 80 23 81 24
REMARK SMILES IDX 84 25 82 26 83 27 85 28 10 29 11 30 12 31 13 32 14 33 15 34
REMARK SMILES IDX 16 35 17 36 69 37 18 38 68 39 19 40 20 41 21 42 62 43 22 44
REMARK SMILES IDX 67 45 61 46 63 47 23 48 66 49 60 50 59 51 24 53 50 54 33 55
REMARK SMILES IDX 49 56 34 57 37 58 48 59 64 60 35 61 36 62 47 64 65 65 38 66
REMARK SMILES IDX 25 67 26 68 31 69 27 70 28 71 30 72 32 73 29 74 51 75 52 76
REMARK SMILES IDX 57 77 53 78 54 79 56 80 58 81 55 82 39 83 40 84 45 85 41 86
REMARK SMILES IDX 42 87 44 88 46 89 43 90
REMARK H PARENT 75 16 63 52 37 63
REMARK Flexibility Score: inf
ROOT
ATOM      1  C   UNL     1       8.050  -0.181   0.639  1.00  0.00     0.202 C 
ENDROOT
BRANCH   1   2
ATOM      2  C   UNL     1       7.414   0.632   1.767  1.00  0.00     0.261 C 
BRANCH   2   3
ATOM      3  O   UNL     1       6.077   0.184   2.053  1.00  0.00    -0.463 OA
BRANCH   3   4
ATOM      4  C   UNL     1       5.102   1.109   1.876  1.00  0.00     0.312 C 
ATOM      5  O   UNL     1       5.311   2.272   1.549  1.00  0.00    -0.252 OA
BRANCH   4   6
ATOM      6  C   UNL     1       3.682   0.566   2.129  1.00  0.00     0.077 C 
ATOM      7  C   UNL     1       3.252   1.222   3.467  1.00  0.00     0.019 C 
ATOM      8  C   UNL     1       3.560  -0.974   2.269  1.00  0.00     0.019 C 
ATOM      9  C   UNL     1       3.993   0.636   4.674  1.00  0.00     0.001 C 
ATOM     10  C   UNL     1       4.151  -1.599   3.533  1.00  0.00     0.001 C 
ATOM     11  C   UNL     1       3.752  -0.861   4.799  1.00  0.00     0.000 C 
BRANCH   6  12
ATOM     12  C   UNL     1       2.830   1.135   0.930  1.00  0.00     0.119 C 
BRANCH  12  13
ATOM     13  C   UNL     1       1.848   0.248   0.164  1.00  0.00     0.225 C 
ATOM     14  O   UNL     1       0.641   0.471   0.199  1.00  0.00    -0.275 OA
ATOM     15  N   UNL     1       2.439  -0.774  -0.556  1.00  0.00    -0.326 N 
ATOM     16  H   UNL     1       3.412  -0.889  -0.460  1.00  0.00     0.169 HD
BRANCH  15  17
ATOM     17  C   UNL     1       1.766  -1.662  -1.413  1.00  0.00     0.041 A 
ATOM     18  C   UNL     1       2.148  -3.007  -1.400  1.00  0.00     0.028 A 
ATOM     19  C   UNL     1       0.771  -1.241  -2.293  1.00  0.00     0.028 A 
ATOM     20  C   UNL     1       1.478  -3.940  -2.196  1.00  0.00     0.028 A 
ATOM     21  C   UNL     1       0.173  -2.159  -3.165  1.00  0.00     0.028 A 
ATOM     22  C   UNL     1       0.492  -3.518  -3.089  1.00  0.00     0.047 A 
BRANCH  22  23
ATOM     23  N   UNL     1      -0.229  -4.454  -3.845  1.00  0.00    -0.274 N 
ATOM     24  C   UNL     1      -0.750  -5.664  -3.296  1.00  0.00     0.171 C 
ATOM     25  C   UNL     1      -0.599  -4.331  -5.166  1.00  0.00     0.414 C 
ATOM     26  C   UNL     1      -1.835  -6.002  -4.289  1.00  0.00     0.257 C 
ATOM     27  O   UNL     1      -1.421  -5.374  -5.507  1.00  0.00    -0.447 OA
ATOM     28  O   UNL     1      -0.246  -3.475  -5.968  1.00  0.00    -0.224 OA
ENDBRANCH  22  23
ENDBRANCH  15  17
ENDBRANCH  12  13
ENDBRANCH   6  12
ENDBRANCH   4   6
ENDBRANCH   3   4
ENDBRANCH   2   3
ENDBRANCH   1   2
BRANCH   1  29
ATOM     29  O   UNL     1       7.424  -0.146  -0.640  1.00  0.00    -0.374 OA
BRANCH  29  30
ATOM     30  C   UNL     1       6.146  -0.752  -0.788  1.00  0.00     0.202 C 
BRANCH  30  31
ATOM     31  C   UNL     1       6.060  -2.283  -0.739  1.00  0.00     0.261 C 
BRANCH  31  32
ATOM     32  O   UNL     1       6.591  -2.853   0.465  1.00  0.00    -0.460 OA
BRANCH  32  33
ATOM     33  C   UNL     1       7.728  -3.564   0.263  1.00  0.00     0.338 C 
ATOM     34  O   UNL     1       8.266  -3.814  -0.802  1.00  0.00    -0.246 OA
BRANCH  33  35
ATOM     35  C   UNL     1       8.377  -3.874   1.544  1.00  0.00     0.060 A 
ATOM     36  C   UNL     1       9.688  -3.412   1.710  1.00  0.00     0.016 A 
ATOM     37  C   UNL     1       7.779  -4.699   2.498  1.00  0.00     0.016 A 
ATOM     38  C   UNL     1      10.435  -3.832   2.800  1.00  0.00     0.010 A 
ATOM     39  C   UNL     1       8.535  -5.122   3.596  1.00  0.00     0.010 A 
ATOM     40  C   UNL     1       9.879  -4.728   3.723  1.00  0.00    -0.014 A 
BRANCH  40  41
ATOM     41  C   UNL     1      10.776  -5.340   4.729  1.00  0.00     0.031 A 
ATOM     42  C   UNL     1      11.273  -6.743   4.518  1.00  0.00     0.074 A 
ATOM     43  C   UNL     1      11.219  -4.606   5.765  1.00  0.00     0.049 A 
ATOM     44  N   UNL     1      12.120  -7.439   5.232  1.00  0.00    -0.248 NA
ATOM     45  C   UNL     1      10.747  -7.459   3.344  1.00  0.00     0.031 C 
ATOM     46  C   UNL     1      10.832  -3.223   6.042  1.00  0.00     0.029 A 
ATOM     47  N   UNL     1      12.104  -4.916   6.764  1.00  0.00    -0.354 N 
ATOM     48  C   UNL     1      12.229  -8.670   4.596  1.00  0.00     0.074 A 
ATOM     49  C   UNL     1      11.331  -8.642   3.463  1.00  0.00     0.031 C 
ATOM     50  C   UNL     1      11.488  -2.798   7.133  1.00  0.00     0.029 A 
ATOM     51  C   UNL     1      12.313  -3.888   7.648  1.00  0.00     0.049 A 
ATOM     52  H   UNL     1      12.546  -5.792   6.840  1.00  0.00     0.167 HD
ATOM     53  C   UNL     1      13.018  -9.721   4.922  1.00  0.00     0.037 A 
ATOM     54  C   UNL     1      13.077  -3.839   8.755  1.00  0.00     0.037 A 
ATOM     55  C   UNL     1      13.911  -9.737   6.053  1.00  0.00     0.049 A 
ATOM     56  C   UNL     1      13.894  -5.045   9.131  1.00  0.00     0.074 A 
ATOM     57  C   UNL     1      14.766 -10.744   6.463  1.00  0.00     0.029 A 
ATOM     58  N   UNL     1      14.055  -8.696   6.960  1.00  0.00    -0.354 N 
ATOM     59  N   UNL     1      14.011  -6.193   8.508  1.00  0.00    -0.248 NA
ATOM     60  C   UNL     1      14.691  -4.943  10.360  1.00  0.00     0.031 C 
ATOM     61  C   UNL     1      15.381 -10.338   7.652  1.00  0.00     0.029 A 
ATOM     62  C   UNL     1      14.961  -9.050   7.947  1.00  0.00     0.049 A 
ATOM     63  H   UNL     1      13.584  -7.834   6.909  1.00  0.00     0.167 HD
ATOM     64  C   UNL     1      14.913  -6.941   9.255  1.00  0.00     0.074 A 
ATOM     65  C   UNL     1      15.329  -6.104  10.362  1.00  0.00     0.031 C 
ATOM     66  C   UNL     1      15.358  -8.206   9.046  1.00  0.00     0.037 A 
BRANCH  53  67
ATOM     67  C   UNL     1      12.929 -10.951   4.063  1.00  0.00     0.057 A 
ATOM     68  C   UNL     1      13.411 -10.979   2.747  1.00  0.00     0.134 A 
ATOM     69  C   UNL     1      12.381 -12.136   4.572  1.00  0.00     0.134 A 
ATOM     70  F   UNL     1      13.936  -9.876   2.191  1.00  0.00    -0.206 F 
ATOM     71  C   UNL     1      13.329 -12.131   1.962  1.00  0.00     0.040 A 
ATOM     72  C   UNL     1      12.320 -13.302   3.807  1.00  0.00     0.040 A 
ATOM     73  F   UNL     1      11.903 -12.182   5.824  1.00  0.00    -0.206 F 
ATOM     74  C   UNL     1      12.789 -13.300   2.495  1.00  0.00     0.006 A 
ENDBRANCH  53  67
BRANCH  54  75
ATOM     75  C   UNL     1      13.099  -2.610   9.588  1.00  0.00     0.057 A 
ATOM     76  C   UNL     1      14.253  -1.827   9.705  1.00  0.00     0.134 A 
ATOM     77  C   UNL     1      11.966  -2.196  10.301  1.00  0.00     0.134 A 
ATOM     78  F   UNL     1      15.376  -2.180   9.062  1.00  0.00    -0.206 F 
ATOM     79  C   UNL     1      14.287  -0.692  10.517  1.00  0.00     0.040 A 
ATOM     80  C   UNL     1      11.977  -1.047  11.092  1.00  0.00     0.040 A 
ATOM     81  F   UNL     1      10.826  -2.899  10.227  1.00  0.00    -0.206 F 
ATOM     82  C   UNL     1      13.144  -0.296  11.208  1.00  0.00     0.006 A 
ENDBRANCH  54  75
BRANCH  66  83
ATOM     83  C   UNL     1      16.367  -8.743  10.021  1.00  0.00     0.057 A 
ATOM     84  C   UNL     1      16.031  -9.043  11.348  1.00  0.00     0.134 A 
ATOM     85  C   UNL     1      17.690  -8.976   9.623  1.00  0.00     0.134 A 
ATOM     86  F   UNL     1      14.785  -8.834  11.799  1.00  0.00    -0.206 F 
ATOM     87  C   UNL     1      16.983  -9.515  12.254  1.00  0.00     0.040 A 
ATOM     88  C   UNL     1      18.642  -9.480  10.509  1.00  0.00     0.040 A 
ATOM     89  F   UNL     1      18.078  -8.723   8.364  1.00  0.00    -0.206 F 
ATOM     90  C   UNL     1      18.293  -9.741  11.832  1.00  0.00     0.006 A 
ENDBRANCH  66  83
ENDBRANCH  40  41
ENDBRANCH  33  35
ENDBRANCH  32  33
ENDBRANCH  31  32
ENDBRANCH  30  31
ENDBRANCH  29  30
ENDBRANCH   1  29
TORSDOF 18
