REMARK SMILES O=C(OCCOCCOC(=O)c1ccn(-c2cc(-c3ccncc3)nc(-c3ccccc3F)n2)n1)c1ccc(-c2c3nc(c(-c4c(F)cccc4F)c4ccc([nH]4)c(-c4c(F)cccc4F)c4nc(c(-c5c(F)cccc5F)c5ccc2[nH]5)C=C4)C=C3)cc1
REMARK SMILES IDX 6 1 5 2 4 3 3 4 2 5 1 6 36 7 37 8 89 9 38 10 88 11 39 12
REMARK SMILES IDX 40 13 41 14 82 15 42 16 87 17 81 18 83 19 43 20 86 21 80 22
REMARK SMILES IDX 79 23 44 25 70 26 53 27 69 28 54 29 57 30 68 31 84 32 55 33
REMARK SMILES IDX 56 34 67 36 85 37 58 38 45 39 46 40 51 41 47 42 48 43 50 44
REMARK SMILES IDX 52 45 49 46 71 47 72 48 77 49 73 50 74 51 76 52 78 53 75 54
REMARK SMILES IDX 59 55 60 56 65 57 61 58 62 59 64 60 66 61 63 62 7 63 8 64
REMARK SMILES IDX 9 65 10 66 11 67 12 68 13 69 35 70 14 71 15 72 16 73 17 74
REMARK SMILES IDX 34 75 18 76 26 77 25 78 19 79 20 80 24 81 21 82 23 83 22 84
REMARK SMILES IDX 27 85 28 86 32 87 29 88 31 89 33 90 30 91
REMARK H PARENT 83 24 57 35
REMARK Flexibility Score: inf
ROOT
ATOM      1  O   UNL     1       4.150   1.111  -0.455  1.00  0.00    -0.374 OA
ENDROOT
BRANCH   1   2
ATOM      2  C   UNL     1       4.708  -0.101  -0.950  1.00  0.00     0.202 C 
BRANCH   2   3
ATOM      3  C   UNL     1       4.633  -1.323  -0.045  1.00  0.00     0.261 C 
BRANCH   3   4
ATOM      4  O   UNL     1       3.311  -1.874   0.147  1.00  0.00    -0.460 OA
BRANCH   4   5
ATOM      5  C   UNL     1       2.223  -1.076   0.257  1.00  0.00     0.338 C 
ATOM      6  O   UNL     1       1.308  -1.094  -0.557  1.00  0.00    -0.246 OA
BRANCH   5   7
ATOM      7  C   UNL     1       2.053  -0.458   1.596  1.00  0.00     0.060 A 
ATOM      8  C   UNL     1       3.106  -0.343   2.502  1.00  0.00     0.016 A 
ATOM      9  C   UNL     1       0.751  -0.124   1.997  1.00  0.00     0.016 A 
ATOM     10  C   UNL     1       2.847  -0.138   3.835  1.00  0.00     0.010 A 
ATOM     11  C   UNL     1       0.488   0.131   3.334  1.00  0.00     0.010 A 
ATOM     12  C   UNL     1       1.530   0.021   4.251  1.00  0.00    -0.014 A 
BRANCH  12  13
ATOM     13  C   UNL     1       1.333   0.079   5.687  1.00  0.00     0.031 A 
ATOM     14  C   UNL     1       2.007   1.220   6.356  1.00  0.00     0.074 A 
ATOM     15  C   UNL     1       0.590  -0.836   6.334  1.00  0.00     0.049 A 
ATOM     16  N   UNL     1       2.918   1.193   7.274  1.00  0.00    -0.248 NA
ATOM     17  C   UNL     1       1.719   2.564   5.830  1.00  0.00     0.031 C 
ATOM     18  C   UNL     1      -0.300  -1.847   5.759  1.00  0.00     0.029 A 
ATOM     19  N   UNL     1       0.395  -0.978   7.671  1.00  0.00    -0.354 N 
ATOM     20  C   UNL     1       3.182   2.527   7.579  1.00  0.00     0.074 A 
ATOM     21  C   UNL     1       2.537   3.316   6.564  1.00  0.00     0.031 C 
ATOM     22  C   UNL     1      -1.122  -2.310   6.727  1.00  0.00     0.029 A 
ATOM     23  C   UNL     1      -0.725  -1.727   7.997  1.00  0.00     0.049 A 
ATOM     24  H   UNL     1       0.993  -0.585   8.346  1.00  0.00     0.167 HD
ATOM     25  C   UNL     1       3.708   2.889   8.780  1.00  0.00     0.037 A 
ATOM     26  C   UNL     1      -1.332  -1.762   9.207  1.00  0.00     0.037 A 
ATOM     27  C   UNL     1       4.417   1.800   9.397  1.00  0.00     0.049 A 
ATOM     28  C   UNL     1      -0.356  -1.271  10.214  1.00  0.00     0.074 A 
ATOM     29  C   UNL     1       5.503   1.022   9.046  1.00  0.00     0.029 A 
ATOM     30  N   UNL     1       3.817   1.146  10.444  1.00  0.00    -0.354 N 
ATOM     31  N   UNL     1       0.719  -1.917  10.571  1.00  0.00    -0.248 NA
ATOM     32  C   UNL     1      -0.356   0.153  10.519  1.00  0.00     0.031 C 
ATOM     33  C   UNL     1       5.216  -0.273   9.567  1.00  0.00     0.029 A 
ATOM     34  C   UNL     1       3.993  -0.196  10.233  1.00  0.00     0.049 A 
ATOM     35  H   UNL     1       3.349   1.562  11.203  1.00  0.00     0.167 HD
ATOM     36  C   UNL     1       1.680  -0.933  10.755  1.00  0.00     0.074 A 
ATOM     37  C   UNL     1       0.937   0.322  10.806  1.00  0.00     0.031 C 
ATOM     38  C   UNL     1       3.006  -1.196  10.566  1.00  0.00     0.037 A 
BRANCH  25  39
ATOM     39  C   UNL     1       3.229   4.093   9.561  1.00  0.00     0.057 A 
ATOM     40  C   UNL     1       1.996   4.744   9.341  1.00  0.00     0.134 A 
ATOM     41  C   UNL     1       3.862   4.415  10.775  1.00  0.00     0.134 A 
ATOM     42  F   UNL     1       1.235   4.511   8.267  1.00  0.00    -0.206 F 
ATOM     43  C   UNL     1       1.417   5.607  10.274  1.00  0.00     0.040 A 
ATOM     44  C   UNL     1       3.265   5.237  11.739  1.00  0.00     0.040 A 
ATOM     45  F   UNL     1       5.039   3.863  11.107  1.00  0.00    -0.206 F 
ATOM     46  C   UNL     1       2.031   5.826  11.494  1.00  0.00     0.006 A 
ENDBRANCH  25  39
BRANCH  26  47
ATOM     47  C   UNL     1      -2.786  -1.836   9.483  1.00  0.00     0.057 A 
ATOM     48  C   UNL     1      -3.747  -1.384   8.559  1.00  0.00     0.134 A 
ATOM     49  C   UNL     1      -3.257  -2.101  10.776  1.00  0.00     0.134 A 
ATOM     50  F   UNL     1      -3.404  -1.022   7.314  1.00  0.00    -0.206 F 
ATOM     51  C   UNL     1      -5.088  -1.195   8.901  1.00  0.00     0.040 A 
ATOM     52  C   UNL     1      -4.597  -1.903  11.136  1.00  0.00     0.040 A 
ATOM     53  F   UNL     1      -2.413  -2.495  11.740  1.00  0.00    -0.206 F 
ATOM     54  C   UNL     1      -5.515  -1.438  10.200  1.00  0.00     0.006 A 
ENDBRANCH  26  47
BRANCH  38  55
ATOM     55  C   UNL     1       3.431  -2.628  10.412  1.00  0.00     0.057 A 
ATOM     56  C   UNL     1       4.401  -3.139  11.282  1.00  0.00     0.134 A 
ATOM     57  C   UNL     1       3.047  -3.442   9.337  1.00  0.00     0.134 A 
ATOM     58  F   UNL     1       4.859  -2.391  12.298  1.00  0.00    -0.206 F 
ATOM     59  C   UNL     1       4.966  -4.402  11.094  1.00  0.00     0.040 A 
ATOM     60  C   UNL     1       3.580  -4.722   9.157  1.00  0.00     0.040 A 
ATOM     61  F   UNL     1       2.201  -2.999   8.399  1.00  0.00    -0.206 F 
ATOM     62  C   UNL     1       4.550  -5.201  10.033  1.00  0.00     0.006 A 
ENDBRANCH  38  55
ENDBRANCH  12  13
ENDBRANCH   5   7
ENDBRANCH   4   5
ENDBRANCH   3   4
ENDBRANCH   2   3
ENDBRANCH   1   2
BRANCH   1  63
ATOM     63  C   UNL     1       3.038   1.653  -1.190  1.00  0.00     0.202 C 
BRANCH  63  64
ATOM     64  C   UNL     1       3.176   1.922  -2.701  1.00  0.00     0.261 C 
BRANCH  64  65
ATOM     65  O   UNL     1       3.325   0.713  -3.471  1.00  0.00    -0.458 OA
BRANCH  65  66
ATOM     66  C   UNL     1       4.559   0.506  -4.020  1.00  0.00     0.358 C 
ATOM     67  O   UNL     1       5.444   1.359  -4.083  1.00  0.00    -0.244 OA
BRANCH  66  68
ATOM     68  C   UNL     1       4.777  -0.883  -4.442  1.00  0.00     0.170 A 
ATOM     69  C   UNL     1       4.516  -1.418  -5.724  1.00  0.00     0.058 A 
ATOM     70  N   UNL     1       5.351  -1.809  -3.635  1.00  0.00    -0.159 NA
ATOM     71  C   UNL     1       5.143  -2.638  -5.730  1.00  0.00     0.118 A 
ATOM     72  N   UNL     1       5.666  -2.831  -4.472  1.00  0.00    -0.222 N 
BRANCH  72  73
ATOM     73  C   UNL     1       6.529  -3.897  -4.095  1.00  0.00     0.158 A 
ATOM     74  C   UNL     1       6.405  -4.479  -2.849  1.00  0.00     0.078 A 
ATOM     75  N   UNL     1       7.423  -4.310  -5.020  1.00  0.00    -0.209 NA
ATOM     76  C   UNL     1       7.225  -5.570  -2.616  1.00  0.00     0.077 A 
ATOM     77  C   UNL     1       8.252  -5.296  -4.649  1.00  0.00     0.165 A 
ATOM     78  N   UNL     1       8.188  -5.954  -3.482  1.00  0.00    -0.228 NA
BRANCH  76  79
ATOM     79  C   UNL     1       7.053  -6.461  -1.460  1.00  0.00     0.003 A 
ATOM     80  C   UNL     1       5.864  -7.183  -1.284  1.00  0.00     0.030 A 
ATOM     81  C   UNL     1       8.088  -6.679  -0.546  1.00  0.00     0.030 A 
ATOM     82  C   UNL     1       5.761  -8.062  -0.216  1.00  0.00     0.111 A 
ATOM     83  C   UNL     1       7.886  -7.571   0.497  1.00  0.00     0.111 A 
ATOM     84  N   UNL     1       6.742  -8.263   0.685  1.00  0.00    -0.265 NA
ENDBRANCH  76  79
BRANCH  77  85
ATOM     85  C   UNL     1       9.358  -5.588  -5.549  1.00  0.00     0.055 A 
ATOM     86  C   UNL     1      10.384  -4.646  -5.755  1.00  0.00     0.015 A 
ATOM     87  C   UNL     1       9.417  -6.788  -6.260  1.00  0.00     0.134 A 
ATOM     88  C   UNL     1      11.429  -4.905  -6.647  1.00  0.00     0.001 A 
ATOM     89  C   UNL     1      10.452  -7.050  -7.158  1.00  0.00     0.040 A 
ATOM     90  F   UNL     1       8.450  -7.707  -6.119  1.00  0.00    -0.206 F 
ATOM     91  C   UNL     1      11.460  -6.106  -7.352  1.00  0.00     0.003 A 
ENDBRANCH  77  85
ENDBRANCH  72  73
ENDBRANCH  66  68
ENDBRANCH  65  66
ENDBRANCH  64  65
ENDBRANCH  63  64
ENDBRANCH   1  63
TORSDOF 17
