REMARK SMILES C[C@@H](C(=O)[C@H](C)[C@@H](C)C(=O)OCCOCCOC(=O)c1ccc(-c2c3nc(c(-c4c(F)cccc4F)c4ccc([nH]4)c(-c4c(F)cccc4F)c4nc(c(-c5c(F)cccc5F)c5ccc2[nH]5)C=C4)C=C3)cc1)c1ccccc1
REMARK SMILES IDX 13 1 12 2 11 3 9 4 10 5 7 6 8 7 5 8 6 9 3 10 4 11 2 12 1 13
REMARK SMILES IDX 74 14 75 15 79 16 76 17 78 18 77 19 14 20 15 21 16 22 17 23
REMARK SMILES IDX 18 24 19 25 20 26 21 27 73 28 22 29 72 30 23 31 24 32 25 33
REMARK SMILES IDX 66 34 26 35 71 36 65 37 67 38 27 39 70 40 64 41 63 42 28 44
REMARK SMILES IDX 54 45 37 46 53 47 38 48 41 49 52 50 68 51 39 52 40 53 51 55
REMARK SMILES IDX 69 56 42 57 29 58 30 59 35 60 31 61 32 62 34 63 36 64 33 65
REMARK SMILES IDX 55 66 56 67 61 68 57 69 58 70 60 71 62 72 59 73 43 74 44 75
REMARK SMILES IDX 49 76 45 77 46 78 48 79 50 80 47 81
REMARK H PARENT 67 43 41 54
REMARK Flexibility Score: inf
ROOT
ATOM      1  C   UNL     1       7.024  -2.524  -2.930  1.00  0.00     0.202 C 
ENDROOT
BRANCH   1   2
ATOM      2  C   UNL     1       5.946  -2.976  -1.942  1.00  0.00     0.261 C 
BRANCH   2   3
ATOM      3  O   UNL     1       4.677  -2.303  -2.102  1.00  0.00    -0.463 OA
BRANCH   3   4
ATOM      4  C   UNL     1       4.293  -1.462  -1.102  1.00  0.00     0.309 C 
ATOM      5  O   UNL     1       5.024  -1.075  -0.201  1.00  0.00    -0.252 OA
BRANCH   4   6
ATOM      6  C   UNL     1       2.812  -1.101  -1.169  1.00  0.00     0.106 C 
ATOM      7  C   UNL     1       2.077  -2.461  -1.157  1.00  0.00     0.021 C 
BRANCH   6   8
ATOM      8  C   UNL     1       2.381  -0.148  -2.325  1.00  0.00     0.067 C 
ATOM      9  C   UNL     1       0.854  -0.303  -2.556  1.00  0.00     0.017 C 
BRANCH   8  10
ATOM     10  C   UNL     1       2.637   1.403  -2.193  1.00  0.00     0.143 C 
ATOM     11  O   UNL     1       1.791   2.188  -2.644  1.00  0.00    -0.299 OA
BRANCH  10  12
ATOM     12  C   UNL     1       3.946   1.969  -1.609  1.00  0.00     0.083 C 
ATOM     13  C   UNL     1       3.845   2.080  -0.091  1.00  0.00     0.021 C 
BRANCH  12  14
ATOM     14  C   UNL     1       4.372   3.333  -2.200  1.00  0.00    -0.038 A 
ATOM     15  C   UNL     1       5.546   3.479  -2.962  1.00  0.00     0.004 A 
ATOM     16  C   UNL     1       3.631   4.500  -1.953  1.00  0.00     0.004 A 
ATOM     17  C   UNL     1       5.937   4.714  -3.494  1.00  0.00     0.000 A 
ATOM     18  C   UNL     1       4.043   5.746  -2.446  1.00  0.00     0.000 A 
ATOM     19  C   UNL     1       5.190   5.852  -3.227  1.00  0.00     0.000 A 
ENDBRANCH  12  14
ENDBRANCH  10  12
ENDBRANCH   8  10
ENDBRANCH   6   8
ENDBRANCH   4   6
ENDBRANCH   3   4
ENDBRANCH   2   3
ENDBRANCH   1   2
BRANCH   1  20
ATOM     20  O   UNL     1       7.667  -1.286  -2.664  1.00  0.00    -0.374 OA
BRANCH  20  21
ATOM     21  C   UNL     1       6.925  -0.073  -2.744  1.00  0.00     0.202 C 
BRANCH  21  22
ATOM     22  C   UNL     1       5.820   0.019  -3.799  1.00  0.00     0.261 C 
BRANCH  22  23
ATOM     23  O   UNL     1       6.173  -0.531  -5.042  1.00  0.00    -0.460 OA
BRANCH  23  24
ATOM     24  C   UNL     1       7.100   0.136  -5.756  1.00  0.00     0.338 C 
ATOM     25  O   UNL     1       7.659   1.177  -5.532  1.00  0.00    -0.246 OA
BRANCH  24  26
ATOM     26  C   UNL     1       7.299  -0.828  -6.830  1.00  0.00     0.060 A 
ATOM     27  C   UNL     1       8.350  -1.738  -6.701  1.00  0.00     0.016 A 
ATOM     28  C   UNL     1       6.236  -1.018  -7.720  1.00  0.00     0.016 A 
ATOM     29  C   UNL     1       8.346  -2.868  -7.502  1.00  0.00     0.010 A 
ATOM     30  C   UNL     1       6.221  -2.160  -8.495  1.00  0.00     0.010 A 
ATOM     31  C   UNL     1       7.286  -3.070  -8.398  1.00  0.00    -0.014 A 
BRANCH  31  32
ATOM     32  C   UNL     1       7.362  -4.149  -9.388  1.00  0.00     0.031 A 
ATOM     33  C   UNL     1       7.802  -3.767 -10.766  1.00  0.00     0.074 A 
ATOM     34  C   UNL     1       6.999  -5.399  -9.058  1.00  0.00     0.049 A 
ATOM     35  N   UNL     1       7.877  -4.499 -11.841  1.00  0.00    -0.248 NA
ATOM     36  C   UNL     1       8.190  -2.357 -10.964  1.00  0.00     0.031 C 
ATOM     37  C   UNL     1       6.543  -5.830  -7.735  1.00  0.00     0.029 A 
ATOM     38  N   UNL     1       6.939  -6.531  -9.821  1.00  0.00    -0.354 N 
ATOM     39  C   UNL     1       8.304  -3.638 -12.841  1.00  0.00     0.074 A 
ATOM     40  C   UNL     1       8.441  -2.323 -12.262  1.00  0.00     0.031 C 
ATOM     41  C   UNL     1       6.234  -7.138  -7.786  1.00  0.00     0.029 A 
ATOM     42  C   UNL     1       6.449  -7.622  -9.146  1.00  0.00     0.049 A 
ATOM     43  H   UNL     1       7.219  -6.562 -10.764  1.00  0.00     0.167 HD
ATOM     44  C   UNL     1       8.567  -3.933 -14.132  1.00  0.00     0.037 A 
ATOM     45  C   UNL     1       6.190  -8.861  -9.604  1.00  0.00     0.037 A 
ATOM     46  C   UNL     1       8.433  -5.255 -14.674  1.00  0.00     0.049 A 
ATOM     47  C   UNL     1       6.487  -9.158 -11.051  1.00  0.00     0.074 A 
ATOM     48  C   UNL     1       8.718  -5.696 -15.951  1.00  0.00     0.029 A 
ATOM     49  N   UNL     1       7.965  -6.347 -13.957  1.00  0.00    -0.354 N 
ATOM     50  N   UNL     1       6.961  -8.358 -11.978  1.00  0.00    -0.248 NA
ATOM     51  C   UNL     1       6.220 -10.524 -11.516  1.00  0.00     0.031 C 
ATOM     52  C   UNL     1       8.380  -7.051 -16.019  1.00  0.00     0.029 A 
ATOM     53  C   UNL     1       7.928  -7.461 -14.773  1.00  0.00     0.049 A 
ATOM     54  H   UNL     1       7.699  -6.331 -13.010  1.00  0.00     0.167 HD
ATOM     55  C   UNL     1       7.072  -9.128 -13.128  1.00  0.00     0.074 A 
ATOM     56  C   UNL     1       6.632 -10.463 -12.774  1.00  0.00     0.031 C 
ATOM     57  C   UNL     1       7.492  -8.773 -14.367  1.00  0.00     0.037 A 
BRANCH  44  58
ATOM     58  C   UNL     1       9.001  -2.814 -15.025  1.00  0.00     0.057 A 
ATOM     59  C   UNL     1      10.270  -2.230 -14.919  1.00  0.00     0.134 A 
ATOM     60  C   UNL     1       8.141  -2.321 -16.014  1.00  0.00     0.134 A 
ATOM     61  F   UNL     1      11.129  -2.636 -13.972  1.00  0.00    -0.206 F 
ATOM     62  C   UNL     1      10.665  -1.188 -15.760  1.00  0.00     0.040 A 
ATOM     63  C   UNL     1       8.533  -1.296 -16.875  1.00  0.00     0.040 A 
ATOM     64  F   UNL     1       6.907  -2.828 -16.157  1.00  0.00    -0.206 F 
ATOM     65  C   UNL     1       9.798  -0.726 -16.748  1.00  0.00     0.006 A 
ENDBRANCH  44  58
BRANCH  45  66
ATOM     66  C   UNL     1       5.616  -9.897  -8.708  1.00  0.00     0.057 A 
ATOM     67  C   UNL     1       6.351 -11.030  -8.339  1.00  0.00     0.134 A 
ATOM     68  C   UNL     1       4.305  -9.800  -8.226  1.00  0.00     0.134 A 
ATOM     69  F   UNL     1       7.608 -11.191  -8.780  1.00  0.00    -0.206 F 
ATOM     70  C   UNL     1       5.796 -12.041  -7.551  1.00  0.00     0.040 A 
ATOM     71  C   UNL     1       3.745 -10.790  -7.416  1.00  0.00     0.040 A 
ATOM     72  F   UNL     1       3.547  -8.737  -8.533  1.00  0.00    -0.206 F 
ATOM     73  C   UNL     1       4.488 -11.921  -7.085  1.00  0.00     0.006 A 
ENDBRANCH  45  66
BRANCH  57  74
ATOM     74  C   UNL     1       7.517  -9.849 -15.407  1.00  0.00     0.057 A 
ATOM     75  C   UNL     1       6.341 -10.332 -15.993  1.00  0.00     0.134 A 
ATOM     76  C   UNL     1       8.736 -10.364 -15.866  1.00  0.00     0.134 A 
ATOM     77  F   UNL     1       5.144  -9.883 -15.585  1.00  0.00    -0.206 F 
ATOM     78  C   UNL     1       6.376 -11.307 -16.988  1.00  0.00     0.040 A 
ATOM     79  C   UNL     1       8.784 -11.319 -16.880  1.00  0.00     0.040 A 
ATOM     80  F   UNL     1       9.896  -9.930 -15.351  1.00  0.00    -0.206 F 
ATOM     81  C   UNL     1       7.601 -11.797 -17.440  1.00  0.00     0.006 A 
ENDBRANCH  57  74
ENDBRANCH  31  32
ENDBRANCH  24  26
ENDBRANCH  23  24
ENDBRANCH  22  23
ENDBRANCH  21  22
ENDBRANCH  20  21
ENDBRANCH   1  20
TORSDOF 18
