REMARK SMILES COC(=O)c1ccc(-c2ccc(C(=O)OCCOCCOC(=O)c3ccc(-c4c5nc(c(-c6c(F)cccc6F)c6ccc([nH]6)c(-c6c(F)cccc6F)c6nc(c(-c7c(F)cccc7F)c7ccc4[nH]7)C=C6)C=C5)cc3)cc2O)cc1F
REMARK SMILES IDX 17 1 16 2 15 3 13 4 14 5 12 6 9 7 10 8 79 9 11 10 78 11 8 12
REMARK SMILES IDX 5 13 6 14 82 15 7 16 81 17 83 18 3 19 4 20 2 21 1 22 80 23
REMARK SMILES IDX 18 25 19 26 20 27 21 28 22 29 23 30 24 31 25 32 77 33 26 34
REMARK SMILES IDX 76 35 27 36 28 37 29 38 70 39 30 40 75 41 69 42 71 43 31 44
REMARK SMILES IDX 74 45 68 46 67 47 32 49 58 50 41 51 57 52 42 53 45 54 56 55
REMARK SMILES IDX 72 56 43 57 44 58 55 60 73 61 46 62 33 63 34 64 39 65 35 66
REMARK SMILES IDX 36 67 38 68 40 69 37 70 59 71 60 72 65 73 61 74 62 75 64 76
REMARK SMILES IDX 66 77 63 78 47 79 48 80 53 81 49 82 50 83 52 84 54 85 51 86
REMARK H PARENT 80 24 71 48 45 59
REMARK Flexibility Score: inf
ROOT
ATOM      1  C   UNL     1      -2.291  -6.559  12.776  1.00  0.00     0.202 C 
ENDROOT
BRANCH   1   2
ATOM      2  C   UNL     1      -3.308  -5.564  12.211  1.00  0.00     0.261 C 
BRANCH   2   3
ATOM      3  O   UNL     1      -3.057  -5.302  10.819  1.00  0.00    -0.460 OA
BRANCH   3   4
ATOM      4  C   UNL     1      -2.637  -4.044  10.547  1.00  0.00     0.338 C 
ATOM      5  O   UNL     1      -2.606  -3.098  11.320  1.00  0.00    -0.246 OA
BRANCH   4   6
ATOM      6  C   UNL     1      -2.054  -3.979   9.189  1.00  0.00     0.063 A 
ATOM      7  C   UNL     1      -0.929  -3.638   6.628  1.00  0.00     0.024 A 
ATOM      8  C   UNL     1      -0.403  -2.961   7.741  1.00  0.00     0.013 A 
ATOM      9  C   UNL     1      -1.992  -4.538   6.844  1.00  0.00     0.124 A 
ATOM     10  C   UNL     1      -0.965  -3.121   9.006  1.00  0.00     0.016 A 
ATOM     11  C   UNL     1      -2.552  -4.720   8.113  1.00  0.00     0.062 A 
BRANCH   7  12
ATOM     12  C   UNL     1      -0.426  -3.299   5.287  1.00  0.00    -0.012 A 
ATOM     13  C   UNL     1       0.538  -2.417   2.789  1.00  0.00     0.095 A 
ATOM     14  C   UNL     1       1.397  -3.066   3.683  1.00  0.00     0.019 A 
ATOM     15  C   UNL     1      -0.802  -2.248   3.125  1.00  0.00     0.138 A 
ATOM     16  C   UNL     1       0.918  -3.496   4.927  1.00  0.00     0.010 A 
ATOM     17  C   UNL     1      -1.280  -2.682   4.358  1.00  0.00     0.049 A 
ATOM     18  F   UNL     1      -1.667  -1.673   2.277  1.00  0.00    -0.206 F 
BRANCH  13  19
ATOM     19  C   UNL     1       1.080  -1.930   1.508  1.00  0.00     0.340 C 
ATOM     20  O   UNL     1       1.966  -2.504   0.893  1.00  0.00    -0.246 OA
BRANCH  19  21
ATOM     21  O   UNL     1       0.531  -0.732   1.201  1.00  0.00    -0.465 OA
ATOM     22  C   UNL     1       1.033  -0.143   0.001  1.00  0.00     0.282 C 
ENDBRANCH  19  21
ENDBRANCH  13  19
ENDBRANCH   7  12
BRANCH   9  23
ATOM     23  O   UNL     1      -2.496  -5.233   5.777  1.00  0.00    -0.507 OA
ATOM     24  H   UNL     1      -2.125  -5.116   4.924  1.00  0.00     0.293 HD
ENDBRANCH   9  23
ENDBRANCH   4   6
ENDBRANCH   3   4
ENDBRANCH   2   3
ENDBRANCH   1   2
BRANCH   1  25
ATOM     25  O   UNL     1      -0.933  -6.120  12.797  1.00  0.00    -0.374 OA
BRANCH  25  26
ATOM     26  C   UNL     1      -0.192  -6.234  11.581  1.00  0.00     0.202 C 
BRANCH  26  27
ATOM     27  C   UNL     1       0.356  -7.628  11.252  1.00  0.00     0.261 C 
BRANCH  27  28
ATOM     28  O   UNL     1      -0.699  -8.559  10.951  1.00  0.00    -0.460 OA
BRANCH  28  29
ATOM     29  C   UNL     1      -0.888  -9.525  11.881  1.00  0.00     0.338 C 
ATOM     30  O   UNL     1      -0.215  -9.736  12.880  1.00  0.00    -0.246 OA
BRANCH  29  31
ATOM     31  C   UNL     1      -2.162 -10.223  11.629  1.00  0.00     0.060 A 
ATOM     32  C   UNL     1      -3.058 -10.337  12.699  1.00  0.00     0.016 A 
ATOM     33  C   UNL     1      -2.448 -10.814  10.396  1.00  0.00     0.016 A 
ATOM     34  C   UNL     1      -4.223 -11.087  12.557  1.00  0.00     0.010 A 
ATOM     35  C   UNL     1      -3.615 -11.574  10.258  1.00  0.00     0.010 A 
ATOM     36  C   UNL     1      -4.489 -11.742  11.347  1.00  0.00    -0.014 A 
BRANCH  36  37
ATOM     37  C   UNL     1      -5.608 -12.711  11.270  1.00  0.00     0.031 A 
ATOM     38  C   UNL     1      -5.314 -14.180  11.400  1.00  0.00     0.074 A 
ATOM     39  C   UNL     1      -6.876 -12.287  11.125  1.00  0.00     0.049 A 
ATOM     40  N   UNL     1      -6.132 -15.198  11.331  1.00  0.00    -0.248 NA
ATOM     41  C   UNL     1      -3.910 -14.550  11.643  1.00  0.00     0.031 C 
ATOM     42  C   UNL     1      -7.293 -10.889  11.039  1.00  0.00     0.029 A 
ATOM     43  N   UNL     1      -8.046 -12.996  11.024  1.00  0.00    -0.354 N 
ATOM     44  C   UNL     1      -5.345 -16.327  11.521  1.00  0.00     0.074 A 
ATOM     45  C   UNL     1      -3.981 -15.873  11.677  1.00  0.00     0.031 C 
ATOM     46  C   UNL     1      -8.628 -10.842  10.896  1.00  0.00     0.029 A 
ATOM     47  C   UNL     1      -9.155 -12.206  10.848  1.00  0.00     0.049 A 
ATOM     48  H   UNL     1      -8.087 -13.979  11.072  1.00  0.00     0.167 HD
ATOM     49  C   UNL     1      -5.729 -17.624  11.574  1.00  0.00     0.037 A 
ATOM     50  C   UNL     1     -10.444 -12.544  10.653  1.00  0.00     0.037 A 
ATOM     51  C   UNL     1      -7.087 -18.074  11.423  1.00  0.00     0.049 A 
ATOM     52  C   UNL     1     -10.835 -13.998  10.633  1.00  0.00     0.074 A 
ATOM     53  C   UNL     1      -7.573 -19.369  11.468  1.00  0.00     0.029 A 
ATOM     54  N   UNL     1      -8.174 -17.245  11.195  1.00  0.00    -0.354 N 
ATOM     55  N   UNL     1     -10.084 -15.057  10.815  1.00  0.00    -0.248 NA
ATOM     56  C   UNL     1     -12.250 -14.304  10.377  1.00  0.00     0.031 C 
ATOM     57  C   UNL     1      -8.949 -19.327  11.223  1.00  0.00     0.029 A 
ATOM     58  C   UNL     1      -9.326 -18.003  11.074  1.00  0.00     0.049 A 
ATOM     59  H   UNL     1      -8.132 -16.264  11.128  1.00  0.00     0.167 HD
ATOM     60  C   UNL     1     -10.936 -16.150  10.720  1.00  0.00     0.074 A 
ATOM     61  C   UNL     1     -12.263 -15.627  10.472  1.00  0.00     0.031 C 
ATOM     62  C   UNL     1     -10.643 -17.469  10.832  1.00  0.00     0.037 A 
BRANCH  49  63
ATOM     63  C   UNL     1      -4.665 -18.657  11.793  1.00  0.00     0.057 A 
ATOM     64  C   UNL     1      -4.289 -19.526  10.760  1.00  0.00     0.134 A 
ATOM     65  C   UNL     1      -4.056 -18.834  13.042  1.00  0.00     0.134 A 
ATOM     66  F   UNL     1      -4.838 -19.412   9.541  1.00  0.00    -0.206 F 
ATOM     67  C   UNL     1      -3.356 -20.543  10.966  1.00  0.00     0.040 A 
ATOM     68  C   UNL     1      -3.104 -19.832  13.253  1.00  0.00     0.040 A 
ATOM     69  F   UNL     1      -4.362 -18.026  14.068  1.00  0.00    -0.206 F 
ATOM     70  C   UNL     1      -2.759 -20.697  12.216  1.00  0.00     0.006 A 
ENDBRANCH  49  63
BRANCH  50  71
ATOM     71  C   UNL     1     -11.462 -11.482  10.463  1.00  0.00     0.057 A 
ATOM     72  C   UNL     1     -11.494 -10.702   9.299  1.00  0.00     0.134 A 
ATOM     73  C   UNL     1     -12.420 -11.212  11.446  1.00  0.00     0.134 A 
ATOM     74  F   UNL     1     -10.601 -10.911   8.320  1.00  0.00    -0.206 F 
ATOM     75  C   UNL     1     -12.429  -9.681   9.129  1.00  0.00     0.040 A 
ATOM     76  C   UNL     1     -13.375 -10.209  11.280  1.00  0.00     0.040 A 
ATOM     77  F   UNL     1     -12.454 -11.940  12.572  1.00  0.00    -0.206 F 
ATOM     78  C   UNL     1     -13.376  -9.434  10.121  1.00  0.00     0.006 A 
ENDBRANCH  50  71
BRANCH  62  79
ATOM     79  C   UNL     1     -11.773 -18.449  10.713  1.00  0.00     0.057 A 
ATOM     80  C   UNL     1     -12.221 -19.159  11.834  1.00  0.00     0.134 A 
ATOM     81  C   UNL     1     -12.356 -18.753   9.478  1.00  0.00     0.134 A 
ATOM     82  F   UNL     1     -11.695 -18.923  13.046  1.00  0.00    -0.206 F 
ATOM     83  C   UNL     1     -13.198 -20.150  11.728  1.00  0.00     0.040 A 
ATOM     84  C   UNL     1     -13.351 -19.726   9.362  1.00  0.00     0.040 A 
ATOM     85  F   UNL     1     -11.977 -18.102   8.368  1.00  0.00    -0.206 F 
ATOM     86  C   UNL     1     -13.767 -20.434  10.488  1.00  0.00     0.006 A 
ENDBRANCH  62  79
ENDBRANCH  36  37
ENDBRANCH  29  31
ENDBRANCH  28  29
ENDBRANCH  27  28
ENDBRANCH  26  27
ENDBRANCH  25  26
ENDBRANCH   1  25
TORSDOF 18
