REMARK SMILES C[C@@](CC(=O)Nc1ccc(NC(=O)c2ccco2)cc1)(C(=O)OCCOCCOC(=O)c1ccc(-c2c3nc(c(-c4c(F)cccc4F)c4ccc([nH]4)c(-c4c(F)cccc4F)c4nc(c(-c5c(F)cccc5F)c5ccc2[nH]5)C=C4)C=C3)cc1)c1ccccc1
REMARK SMILES IDX 24 1 23 2 21 3 22 4 2 5 1 6 3 7 4 8 5 9 6 10 7 12 8 13 20 14
REMARK SMILES IDX 9 15 19 16 10 17 11 18 12 19 13 21 14 22 15 23 18 24 16 25
REMARK SMILES IDX 17 26 86 27 87 28 91 29 88 30 90 31 89 32 25 33 26 34 27 35
REMARK SMILES IDX 28 36 29 37 30 38 31 39 32 40 33 41 85 42 34 43 84 44 35 45
REMARK SMILES IDX 36 46 37 47 78 48 38 49 83 50 77 51 79 52 39 53 82 54 76 55
REMARK SMILES IDX 75 56 40 58 66 59 49 60 65 61 50 62 53 63 64 64 80 65 51 66
REMARK SMILES IDX 52 67 63 69 81 70 54 71 41 72 42 73 47 74 43 75 44 76 46 77
REMARK SMILES IDX 48 78 45 79 67 80 68 81 73 82 69 83 70 84 72 85 74 86 71 87
REMARK SMILES IDX 55 88 56 89 61 90 57 91 58 92 60 93 62 94 59 95
REMARK H PARENT 6 11 11 20 79 57 53 68
REMARK Flexibility Score: inf
ROOT
ATOM      1  C   UNL     1      -3.180  -0.471   2.038  1.00  0.00     0.261 C 
ENDROOT
BRANCH   1   2
ATOM      2  O   UNL     1      -1.787  -0.394   1.694  1.00  0.00    -0.463 OA
BRANCH   2   3
ATOM      3  C   UNL     1      -0.927  -1.049   2.520  1.00  0.00     0.316 C 
ATOM      4  O   UNL     1      -1.242  -1.521   3.605  1.00  0.00    -0.251 OA
BRANCH   3   5
ATOM      5  C   UNL     1       0.486  -1.129   1.894  1.00  0.00     0.099 C 
ATOM      6  C   UNL     1       0.468  -1.183   0.352  1.00  0.00     0.029 C 
BRANCH   5   7
ATOM      7  C   UNL     1       1.256   0.154   2.315  1.00  0.00     0.123 C 
BRANCH   7   8
ATOM      8  C   UNL     1       0.467   1.473   2.275  1.00  0.00     0.225 C 
ATOM      9  O   UNL     1      -0.287   1.768   3.208  1.00  0.00    -0.275 OA
ATOM     10  N   UNL     1       0.638   2.408   1.285  1.00  0.00    -0.326 N 
ATOM     11  H   UNL     1       0.161   3.259   1.418  1.00  0.00     0.169 HD
BRANCH  10  12
ATOM     12  C   UNL     1       1.393   2.319   0.117  1.00  0.00     0.041 A 
ATOM     13  C   UNL     1       2.542   3.076  -0.025  1.00  0.00     0.028 A 
ATOM     14  C   UNL     1       0.960   1.565  -0.964  1.00  0.00     0.028 A 
ATOM     15  C   UNL     1       3.371   2.874  -1.136  1.00  0.00     0.028 A 
ATOM     16  C   UNL     1       1.815   1.307  -2.037  1.00  0.00     0.028 A 
ATOM     17  C   UNL     1       3.076   1.901  -2.091  1.00  0.00     0.041 A 
BRANCH  17  18
ATOM     18  N   UNL     1       3.954   1.411  -3.076  1.00  0.00    -0.319 N 
ATOM     19  C   UNL     1       5.277   1.656  -3.381  1.00  0.00     0.291 C 
ATOM     20  H   UNL     1       3.533   0.753  -3.677  1.00  0.00     0.170 HD
ATOM     21  O   UNL     1       5.811   0.912  -4.207  1.00  0.00    -0.265 OA
BRANCH  19  22
ATOM     22  C   UNL     1       5.976   2.745  -2.756  1.00  0.00     0.191 A 
ATOM     23  C   UNL     1       6.684   2.845  -1.573  1.00  0.00     0.056 A 
ATOM     24  O   UNL     1       5.959   3.958  -3.387  1.00  0.00    -0.459 OA
ATOM     25  C   UNL     1       7.067   4.205  -1.451  1.00  0.00     0.043 A 
ATOM     26  C   UNL     1       6.625   4.832  -2.593  1.00  0.00     0.196 A 
ENDBRANCH  19  22
ENDBRANCH  17  18
ENDBRANCH  10  12
ENDBRANCH   7   8
ENDBRANCH   5   7
BRANCH   5  27
ATOM     27  C   UNL     1       1.148  -2.492   2.222  1.00  0.00    -0.030 A 
ATOM     28  C   UNL     1       0.397  -3.675   2.003  1.00  0.00     0.005 A 
ATOM     29  C   UNL     1       2.511  -2.631   2.512  1.00  0.00     0.005 A 
ATOM     30  C   UNL     1       0.996  -4.932   1.990  1.00  0.00     0.000 A 
ATOM     31  C   UNL     1       3.106  -3.899   2.517  1.00  0.00     0.000 A 
ATOM     32  C   UNL     1       2.357  -5.042   2.234  1.00  0.00     0.000 A 
ENDBRANCH   5  27
ENDBRANCH   3   5
ENDBRANCH   2   3
ENDBRANCH   1   2
BRANCH   1  33
ATOM     33  C   UNL     1      -3.999  -0.375   0.748  1.00  0.00     0.202 C 
BRANCH  33  34
ATOM     34  O   UNL     1      -4.025  -1.553  -0.069  1.00  0.00    -0.374 OA
BRANCH  34  35
ATOM     35  C   UNL     1      -2.806  -1.938  -0.697  1.00  0.00     0.202 C 
BRANCH  35  36
ATOM     36  C   UNL     1      -2.446  -1.221  -2.009  1.00  0.00     0.261 C 
BRANCH  36  37
ATOM     37  O   UNL     1      -2.577   0.207  -1.935  1.00  0.00    -0.460 OA
BRANCH  37  38
ATOM     38  C   UNL     1      -3.728   0.676  -2.474  1.00  0.00     0.338 C 
ATOM     39  O   UNL     1      -4.573   0.035  -3.092  1.00  0.00    -0.246 OA
BRANCH  38  40
ATOM     40  C   UNL     1      -3.942   2.082  -2.099  1.00  0.00     0.060 A 
ATOM     41  C   UNL     1      -5.159   2.401  -1.483  1.00  0.00     0.016 A 
ATOM     42  C   UNL     1      -3.023   3.083  -2.421  1.00  0.00     0.016 A 
ATOM     43  C   UNL     1      -5.485   3.731  -1.231  1.00  0.00     0.010 A 
ATOM     44  C   UNL     1      -3.357   4.421  -2.176  1.00  0.00     0.010 A 
ATOM     45  C   UNL     1      -4.605   4.751  -1.615  1.00  0.00    -0.014 A 
BRANCH  45  46
ATOM     46  C   UNL     1      -5.069   6.159  -1.568  1.00  0.00     0.031 A 
ATOM     47  C   UNL     1      -5.600   6.794  -2.824  1.00  0.00     0.074 A 
ATOM     48  C   UNL     1      -5.067   6.847  -0.413  1.00  0.00     0.049 A 
ATOM     49  N   UNL     1      -6.060   8.005  -3.012  1.00  0.00    -0.248 NA
ATOM     50  C   UNL     1      -5.617   5.949  -4.029  1.00  0.00     0.031 C 
ATOM     51  C   UNL     1      -4.619   6.330   0.878  1.00  0.00     0.029 A 
ATOM     52  N   UNL     1      -5.460   8.134  -0.144  1.00  0.00    -0.354 N 
ATOM     53  C   UNL     1      -6.419   8.068  -4.353  1.00  0.00     0.074 A 
ATOM     54  C   UNL     1      -6.096   6.785  -4.939  1.00  0.00     0.031 C 
ATOM     55  C   UNL     1      -4.755   7.295   1.804  1.00  0.00     0.029 A 
ATOM     56  C   UNL     1      -5.276   8.502   1.165  1.00  0.00     0.049 A 
ATOM     57  H   UNL     1      -5.837   8.736  -0.826  1.00  0.00     0.167 HD
ATOM     58  C   UNL     1      -6.978   9.097  -5.032  1.00  0.00     0.037 A 
ATOM     59  C   UNL     1      -5.493   9.684   1.774  1.00  0.00     0.037 A 
ATOM     60  C   UNL     1      -7.303  10.372  -4.450  1.00  0.00     0.049 A 
ATOM     61  C   UNL     1      -6.054  10.835   0.982  1.00  0.00     0.074 A 
ATOM     62  C   UNL     1      -7.884  11.473  -5.055  1.00  0.00     0.029 A 
ATOM     63  N   UNL     1      -7.071  10.717  -3.128  1.00  0.00    -0.354 N 
ATOM     64  N   UNL     1      -6.409  10.877  -0.279  1.00  0.00    -0.248 NA
ATOM     65  C   UNL     1      -6.247  12.104   1.701  1.00  0.00     0.031 C 
ATOM     66  C   UNL     1      -7.965  12.500  -4.108  1.00  0.00     0.029 A 
ATOM     67  C   UNL     1      -7.475  12.022  -2.903  1.00  0.00     0.049 A 
ATOM     68  H   UNL     1      -6.676  10.123  -2.450  1.00  0.00     0.167 HD
ATOM     69  C   UNL     1      -6.893  12.161  -0.497  1.00  0.00     0.074 A 
ATOM     70  C   UNL     1      -6.794  12.866   0.763  1.00  0.00     0.031 C 
ATOM     71  C   UNL     1      -7.379  12.707  -1.639  1.00  0.00     0.037 A 
BRANCH  58  72
ATOM     72  C   UNL     1      -7.254   8.891  -6.491  1.00  0.00     0.057 A 
ATOM     73  C   UNL     1      -8.305   8.080  -6.937  1.00  0.00     0.134 A 
ATOM     74  C   UNL     1      -6.479   9.539  -7.462  1.00  0.00     0.134 A 
ATOM     75  F   UNL     1      -9.074   7.420  -6.058  1.00  0.00    -0.206 F 
ATOM     76  C   UNL     1      -8.563   7.904  -8.298  1.00  0.00     0.040 A 
ATOM     77  C   UNL     1      -6.742   9.389  -8.824  1.00  0.00     0.040 A 
ATOM     78  F   UNL     1      -5.460  10.333  -7.101  1.00  0.00    -0.206 F 
ATOM     79  C   UNL     1      -7.784   8.565  -9.245  1.00  0.00     0.006 A 
ENDBRANCH  58  72
BRANCH  59  80
ATOM     80  C   UNL     1      -5.169   9.848   3.213  1.00  0.00     0.057 A 
ATOM     81  C   UNL     1      -6.176  10.005   4.172  1.00  0.00     0.134 A 
ATOM     82  C   UNL     1      -3.842   9.874   3.660  1.00  0.00     0.134 A 
ATOM     83  F   UNL     1      -7.465  10.014   3.802  1.00  0.00    -0.206 F 
ATOM     84  C   UNL     1      -5.876  10.197   5.522  1.00  0.00     0.040 A 
ATOM     85  C   UNL     1      -3.528  10.042   5.009  1.00  0.00     0.040 A 
ATOM     86  F   UNL     1      -2.831   9.730   2.790  1.00  0.00    -0.206 F 
ATOM     87  C   UNL     1      -4.548  10.211   5.944  1.00  0.00     0.006 A 
ENDBRANCH  59  80
BRANCH  71  88
ATOM     88  C   UNL     1      -7.873  14.121  -1.572  1.00  0.00     0.057 A 
ATOM     89  C   UNL     1      -6.994  15.208  -1.488  1.00  0.00     0.134 A 
ATOM     90  C   UNL     1      -9.244  14.400  -1.638  1.00  0.00     0.134 A 
ATOM     91  F   UNL     1      -5.670  15.007  -1.410  1.00  0.00    -0.206 F 
ATOM     92  C   UNL     1      -7.463  16.523  -1.454  1.00  0.00     0.040 A 
ATOM     93  C   UNL     1      -9.724  15.711  -1.628  1.00  0.00     0.040 A 
ATOM     94  F   UNL     1     -10.139  13.404  -1.728  1.00  0.00    -0.206 F 
ATOM     95  C   UNL     1      -8.832  16.776  -1.531  1.00  0.00     0.006 A 
ENDBRANCH  71  88
ENDBRANCH  45  46
ENDBRANCH  38  40
ENDBRANCH  37  38
ENDBRANCH  36  37
ENDBRANCH  35  36
ENDBRANCH  34  35
ENDBRANCH  33  34
ENDBRANCH   1  33
TORSDOF 20
