REMARK SMILES CCS(=O)(=O)/N=c1/[nH]c(C)c(C(=O)OCCOCCOC(=O)c2ccc(-c3c4nc(c(-c5c(F)cccc5F)c5ccc([nH]5)c(-c5c(F)cccc5F)c5nc(c(-c6c(F)cccc6F)c6ccc3[nH]6)C=C5)C=C4)cc2)s1
REMARK SMILES IDX 17 1 16 2 15 3 14 4 12 5 13 6 11 7 6 8 7 9 8 10 77 11 9 12
REMARK SMILES IDX 10 14 3 15 4 16 5 17 2 18 1 19 18 20 19 21 20 22 21 23 22 24
REMARK SMILES IDX 23 25 24 26 76 27 25 28 75 29 26 30 27 31 28 32 69 33 29 34
REMARK SMILES IDX 74 35 68 36 70 37 30 38 73 39 67 40 66 41 31 43 57 44 40 45
REMARK SMILES IDX 56 46 41 47 44 48 55 49 71 50 42 51 43 52 54 54 72 55 45 56
REMARK SMILES IDX 32 57 33 58 38 59 34 60 35 61 37 62 39 63 36 64 58 65 59 66
REMARK SMILES IDX 64 67 60 68 61 69 63 70 65 71 62 72 46 73 47 74 52 75 48 76
REMARK SMILES IDX 49 77 51 78 53 79 50 80
REMARK H PARENT 8 13 70 42 44 53
REMARK Flexibility Score: inf
ROOT
ATOM      1  O   UNL     1       4.297   9.894  -0.941  1.00  0.00    -0.374 OA
ENDROOT
BRANCH   1   2
ATOM      2  C   UNL     1       5.553  10.105  -0.299  1.00  0.00     0.202 C 
BRANCH   2   3
ATOM      3  C   UNL     1       5.748   9.421   1.056  1.00  0.00     0.261 C 
BRANCH   3   4
ATOM      4  O   UNL     1       5.715   7.992   0.910  1.00  0.00    -0.459 OA
BRANCH   4   5
ATOM      5  C   UNL     1       4.723   7.371   1.597  1.00  0.00     0.350 C 
ATOM      6  O   UNL     1       4.021   7.889   2.453  1.00  0.00    -0.245 OA
BRANCH   5   7
ATOM      7  C   UNL     1       4.510   5.998   1.087  1.00  0.00     0.135 A 
ATOM      8  N   UNL     1       2.617   2.779   0.305  1.00  0.00    -0.135 NA
ATOM      9  C   UNL     1       3.344   3.825   0.494  1.00  0.00     0.199 A 
ATOM     10  N   UNL     1       4.713   3.853   0.357  1.00  0.00    -0.333 N 
ATOM     11  S   UNL     1       2.843   5.452   0.981  1.00  0.00    -0.089 S 
ATOM     12  C   UNL     1       5.364   5.041   0.672  1.00  0.00     0.039 A 
ATOM     13  H   UNL     1       5.213   3.062   0.050  1.00  0.00     0.169 HD
ATOM     14  C   UNL     1       6.851   5.108   0.542  1.00  0.00     0.066 C 
BRANCH   8  15
ATOM     15  S   UNL     1       1.000   2.817   0.366  1.00  0.00     0.255 S 
ATOM     16  O   UNL     1       0.492   3.007  -0.974  1.00  0.00    -0.205 OA
ATOM     17  O   UNL     1       0.525   3.645   1.462  1.00  0.00    -0.205 OA
BRANCH  15  18
ATOM     18  C   UNL     1       0.622   1.153   0.864  1.00  0.00     0.159 C 
ATOM     19  C   UNL     1       1.134   0.090  -0.080  1.00  0.00     0.023 C 
ENDBRANCH  15  18
ENDBRANCH   8  15
ENDBRANCH   5   7
ENDBRANCH   4   5
ENDBRANCH   3   4
ENDBRANCH   2   3
ENDBRANCH   1   2
BRANCH   1  20
ATOM     20  C   UNL     1       4.091   8.647  -1.605  1.00  0.00     0.202 C 
BRANCH  20  21
ATOM     21  C   UNL     1       4.761   8.474  -2.975  1.00  0.00     0.261 C 
BRANCH  21  22
ATOM     22  O   UNL     1       6.198   8.480  -2.890  1.00  0.00    -0.460 OA
BRANCH  22  23
ATOM     23  C   UNL     1       6.790   9.588  -3.398  1.00  0.00     0.338 C 
ATOM     24  O   UNL     1       6.250  10.524  -3.965  1.00  0.00    -0.246 OA
BRANCH  23  25
ATOM     25  C   UNL     1       8.213   9.617  -3.016  1.00  0.00     0.060 A 
ATOM     26  C   UNL     1       8.685  10.758  -2.354  1.00  0.00     0.016 A 
ATOM     27  C   UNL     1       9.088   8.587  -3.367  1.00  0.00     0.016 A 
ATOM     28  C   UNL     1      10.044  10.894  -2.079  1.00  0.00     0.010 A 
ATOM     29  C   UNL     1      10.453   8.729  -3.098  1.00  0.00     0.010 A 
ATOM     30  C   UNL     1      10.941   9.897  -2.483  1.00  0.00    -0.014 A 
BRANCH  30  31
ATOM     31  C   UNL     1      12.401  10.139  -2.384  1.00  0.00     0.031 A 
ATOM     32  C   UNL     1      13.164  10.535  -3.618  1.00  0.00     0.074 A 
ATOM     33  C   UNL     1      13.037  10.030  -1.204  1.00  0.00     0.049 A 
ATOM     34  N   UNL     1      14.446  10.749  -3.769  1.00  0.00    -0.248 NA
ATOM     35  C   UNL     1      12.375  10.709  -4.848  1.00  0.00     0.031 C 
ATOM     36  C   UNL     1      12.403   9.693   0.069  1.00  0.00     0.029 A 
ATOM     37  N   UNL     1      14.364  10.186  -0.890  1.00  0.00    -0.354 N 
ATOM     38  C   UNL     1      14.618  11.075  -5.109  1.00  0.00     0.074 A 
ATOM     39  C   UNL     1      13.316  11.000  -5.734  1.00  0.00     0.031 C 
ATOM     40  C   UNL     1      13.345   9.656   1.028  1.00  0.00     0.029 A 
ATOM     41  C   UNL     1      14.649   9.934   0.429  1.00  0.00     0.049 A 
ATOM     42  H   UNL     1      15.046  10.452  -1.548  1.00  0.00     0.167 HD
ATOM     43  C   UNL     1      15.758  11.417  -5.756  1.00  0.00     0.037 A 
ATOM     44  C   UNL     1      15.831   9.910   1.074  1.00  0.00     0.037 A 
ATOM     45  C   UNL     1      17.053  11.495  -5.131  1.00  0.00     0.049 A 
ATOM     46  C   UNL     1      17.094  10.223   0.317  1.00  0.00     0.074 A 
ATOM     47  C   UNL     1      18.264  11.852  -5.699  1.00  0.00     0.029 A 
ATOM     48  N   UNL     1      17.306  11.204  -3.800  1.00  0.00    -0.354 N 
ATOM     49  N   UNL     1      17.244  10.553  -0.944  1.00  0.00    -0.248 NA
ATOM     50  C   UNL     1      18.354  10.163   1.073  1.00  0.00     0.031 C 
ATOM     51  C   UNL     1      19.258  11.727  -4.723  1.00  0.00     0.029 A 
ATOM     52  C   UNL     1      18.658  11.347  -3.533  1.00  0.00     0.049 A 
ATOM     53  H   UNL     1      16.625  10.936  -3.141  1.00  0.00     0.167 HD
ATOM     54  C   UNL     1      18.605  10.770  -1.123  1.00  0.00     0.074 A 
ATOM     55  C   UNL     1      19.236  10.544   0.160  1.00  0.00     0.031 C 
ATOM     56  C   UNL     1      19.272  11.125  -2.249  1.00  0.00     0.037 A 
BRANCH  43  57
ATOM     57  C   UNL     1      15.658  11.709  -7.225  1.00  0.00     0.057 A 
ATOM     58  C   UNL     1      15.041  12.869  -7.712  1.00  0.00     0.134 A 
ATOM     59  C   UNL     1      16.217  10.833  -8.165  1.00  0.00     0.134 A 
ATOM     60  F   UNL     1      14.474  13.743  -6.866  1.00  0.00    -0.206 F 
ATOM     61  C   UNL     1      14.963  13.136  -9.080  1.00  0.00     0.040 A 
ATOM     62  C   UNL     1      16.169  11.102  -9.534  1.00  0.00     0.040 A 
ATOM     63  F   UNL     1      16.827   9.706  -7.768  1.00  0.00    -0.206 F 
ATOM     64  C   UNL     1      15.535  12.254  -9.995  1.00  0.00     0.006 A 
ENDBRANCH  43  57
BRANCH  44  65
ATOM     65  C   UNL     1      15.884   9.563   2.517  1.00  0.00     0.057 A 
ATOM     66  C   UNL     1      16.235  10.515   3.481  1.00  0.00     0.134 A 
ATOM     67  C   UNL     1      15.605   8.265   2.964  1.00  0.00     0.134 A 
ATOM     68  F   UNL     1      16.536  11.769   3.112  1.00  0.00    -0.206 F 
ATOM     69  C   UNL     1      16.326  10.186   4.834  1.00  0.00     0.040 A 
ATOM     70  C   UNL     1      15.666   7.929   4.317  1.00  0.00     0.040 A 
ATOM     71  F   UNL     1      15.260   7.307   2.092  1.00  0.00    -0.206 F 
ATOM     72  C   UNL     1      16.036   8.890   5.256  1.00  0.00     0.006 A 
ENDBRANCH  44  65
BRANCH  56  73
ATOM     73  C   UNL     1      20.756  11.332  -2.136  1.00  0.00     0.057 A 
ATOM     74  C   UNL     1      21.644  10.262  -1.970  1.00  0.00     0.134 A 
ATOM     75  C   UNL     1      21.305  12.617  -2.237  1.00  0.00     0.134 A 
ATOM     76  F   UNL     1      21.183   9.007  -1.854  1.00  0.00    -0.206 F 
ATOM     77  C   UNL     1      23.023  10.465  -1.884  1.00  0.00     0.040 A 
ATOM     78  C   UNL     1      22.683  12.830  -2.180  1.00  0.00     0.040 A 
ATOM     79  F   UNL     1      20.511  13.686  -2.407  1.00  0.00    -0.206 F 
ATOM     80  C   UNL     1      23.546  11.752  -1.997  1.00  0.00     0.006 A 
ENDBRANCH  56  73
ENDBRANCH  30  31
ENDBRANCH  23  25
ENDBRANCH  22  23
ENDBRANCH  21  22
ENDBRANCH  20  21
ENDBRANCH   1  20
TORSDOF 16
