REMARK SMILES CNC(=O)c1ccc(N(CCC(=O)OCCOCCOC(=O)c2ccc(-c3c4nc(c(-c5c(F)cccc5F)c5ccc([nH]5)c(-c5c(F)cccc5F)c5nc(c(-c6c(F)cccc6F)c6ccc3[nH]6)C=C5)C=C4)cc2)C2CC2)nn1
REMARK SMILES IDX 16 1 15 2 14 3 12 4 13 5 11 6 10 7 9 8 8 9 5 10 6 11 81 12
REMARK SMILES IDX 7 13 80 14 3 15 1 16 2 17 4 19 77 20 78 21 79 22 17 23 18 24
REMARK SMILES IDX 19 25 20 26 21 27 22 28 23 29 24 30 76 31 25 32 75 33 26 34
REMARK SMILES IDX 27 35 28 36 69 37 29 38 74 39 68 40 70 41 30 42 73 43 67 44
REMARK SMILES IDX 66 45 31 47 57 48 40 49 56 50 41 51 44 52 55 53 71 54 42 55
REMARK SMILES IDX 43 56 54 58 72 59 45 60 32 61 33 62 38 63 34 64 35 65 37 66
REMARK SMILES IDX 39 67 36 68 58 69 59 70 64 71 60 72 61 73 63 74 65 75 62 76
REMARK SMILES IDX 46 77 47 78 52 79 48 80 49 81 51 82 53 83 50 84
REMARK H PARENT 2 18 70 46 44 57
REMARK Flexibility Score: inf
ROOT
ATOM      1  C   UNL     1      -1.575  -2.724   8.977  1.00  0.00     0.202 C 
ENDROOT
BRANCH   1   2
ATOM      2  C   UNL     1      -0.079  -2.814   8.659  1.00  0.00     0.261 C 
BRANCH   2   3
ATOM      3  O   UNL     1       0.159  -3.121   7.269  1.00  0.00    -0.463 OA
BRANCH   3   4
ATOM      4  C   UNL     1       0.503  -4.397   6.957  1.00  0.00     0.307 C 
ATOM      5  O   UNL     1       0.578  -5.319   7.758  1.00  0.00    -0.252 OA
BRANCH   4   6
ATOM      6  C   UNL     1       0.781  -4.553   5.482  1.00  0.00     0.144 C 
BRANCH   6   7
ATOM      7  C   UNL     1      -0.490  -4.652   4.648  1.00  0.00     0.130 C 
BRANCH   7   8
ATOM      8  N   UNL     1      -0.956  -3.331   4.163  1.00  0.00    -0.352 N 
BRANCH   8   9
ATOM      9  C   UNL     1      -0.711  -3.032   2.805  1.00  0.00     0.151 A 
ATOM     10  C   UNL     1      -0.277  -2.530   0.116  1.00  0.00     0.150 A 
ATOM     11  C   UNL     1      -0.954  -1.593   0.859  1.00  0.00     0.040 A 
ATOM     12  N   UNL     1       0.161  -3.679   0.657  1.00  0.00    -0.143 NA
ATOM     13  C   UNL     1      -1.119  -1.838   2.215  1.00  0.00     0.051 A 
ATOM     14  N   UNL     1      -0.071  -3.920   2.008  1.00  0.00    -0.132 NA
BRANCH  10  15
ATOM     15  C   UNL     1       0.102  -2.222  -1.279  1.00  0.00     0.271 C 
ATOM     16  C   UNL     1       1.403  -0.158  -0.561  1.00  0.00     0.143 C 
ATOM     17  N   UNL     1       0.815  -1.065  -1.526  1.00  0.00    -0.354 N 
ATOM     18  H   UNL     1       0.938  -0.827  -2.473  1.00  0.00     0.163 HD
ATOM     19  O   UNL     1      -0.239  -2.952  -2.203  1.00  0.00    -0.267 OA
ENDBRANCH  10  15
ENDBRANCH   8   9
BRANCH   8  20
ATOM     20  C   UNL     1      -1.844  -2.601   5.079  1.00  0.00     0.084 C 
ATOM     21  C   UNL     1      -1.879  -1.124   5.314  1.00  0.00     0.027 C 
ATOM     22  C   UNL     1      -3.053  -1.831   4.671  1.00  0.00     0.027 C 
ENDBRANCH   8  20
ENDBRANCH   7   8
ENDBRANCH   6   7
ENDBRANCH   4   6
ENDBRANCH   3   4
ENDBRANCH   2   3
ENDBRANCH   1   2
BRANCH   1  23
ATOM     23  O   UNL     1      -2.154  -3.970   9.367  1.00  0.00    -0.374 OA
BRANCH  23  24
ATOM     24  C   UNL     1      -2.736  -4.739   8.317  1.00  0.00     0.202 C 
BRANCH  24  25
ATOM     25  C   UNL     1      -4.212  -4.409   8.052  1.00  0.00     0.261 C 
BRANCH  25  26
ATOM     26  O   UNL     1      -4.388  -3.061   7.572  1.00  0.00    -0.460 OA
BRANCH  26  27
ATOM     27  C   UNL     1      -4.895  -2.171   8.462  1.00  0.00     0.338 C 
ATOM     28  O   UNL     1      -5.276  -2.391   9.599  1.00  0.00    -0.246 OA
BRANCH  27  29
ATOM     29  C   UNL     1      -4.766  -0.807   7.903  1.00  0.00     0.060 A 
ATOM     30  C   UNL     1      -4.113   0.166   8.664  1.00  0.00     0.016 A 
ATOM     31  C   UNL     1      -5.260  -0.486   6.638  1.00  0.00     0.016 A 
ATOM     32  C   UNL     1      -3.945   1.458   8.155  1.00  0.00     0.010 A 
ATOM     33  C   UNL     1      -5.031   0.787   6.102  1.00  0.00     0.010 A 
ATOM     34  C   UNL     1      -4.405   1.785   6.870  1.00  0.00    -0.014 A 
BRANCH  34  35
ATOM     35  C   UNL     1      -4.373   3.195   6.386  1.00  0.00     0.031 A 
ATOM     36  C   UNL     1      -5.677   3.928   6.185  1.00  0.00     0.074 A 
ATOM     37  C   UNL     1      -3.214   3.836   6.137  1.00  0.00     0.049 A 
ATOM     38  N   UNL     1      -5.891   5.143   5.743  1.00  0.00    -0.248 NA
ATOM     39  C   UNL     1      -6.906   3.184   6.505  1.00  0.00     0.031 C 
ATOM     40  C   UNL     1      -1.875   3.263   6.276  1.00  0.00     0.029 A 
ATOM     41  N   UNL     1      -2.981   5.125   5.714  1.00  0.00    -0.354 N 
ATOM     42  C   UNL     1      -7.272   5.294   5.712  1.00  0.00     0.074 A 
ATOM     43  C   UNL     1      -7.846   4.033   6.123  1.00  0.00     0.031 C 
ATOM     44  C   UNL     1      -0.962   4.202   5.966  1.00  0.00     0.029 A 
ATOM     45  C   UNL     1      -1.648   5.434   5.580  1.00  0.00     0.049 A 
ATOM     46  H   UNL     1      -3.703   5.767   5.526  1.00  0.00     0.167 HD
ATOM     47  C   UNL     1      -8.005   6.390   5.403  1.00  0.00     0.037 A 
ATOM     48  C   UNL     1      -1.049   6.577   5.188  1.00  0.00     0.037 A 
ATOM     49  C   UNL     1      -7.452   7.666   5.042  1.00  0.00     0.049 A 
ATOM     50  C   UNL     1      -1.886   7.779   4.829  1.00  0.00     0.074 A 
ATOM     51  C   UNL     1      -8.120   8.847   4.770  1.00  0.00     0.029 A 
ATOM     52  N   UNL     1      -6.099   7.930   4.910  1.00  0.00    -0.354 N 
ATOM     53  N   UNL     1      -3.189   7.918   4.851  1.00  0.00    -0.248 NA
ATOM     54  C   UNL     1      -1.164   8.985   4.390  1.00  0.00     0.031 C 
ATOM     55  C   UNL     1      -7.171   9.818   4.434  1.00  0.00     0.029 A 
ATOM     56  C   UNL     1      -5.912   9.251   4.537  1.00  0.00     0.049 A 
ATOM     57  H   UNL     1      -5.378   7.276   5.058  1.00  0.00     0.167 HD
ATOM     58  C   UNL     1      -3.439   9.229   4.457  1.00  0.00     0.074 A 
ATOM     59  C   UNL     1      -2.155   9.848   4.215  1.00  0.00     0.031 C 
ATOM     60  C   UNL     1      -4.629   9.861   4.308  1.00  0.00     0.037 A 
BRANCH  47  61
ATOM     61  C   UNL     1      -9.498   6.249   5.449  1.00  0.00     0.057 A 
ATOM     62  C   UNL     1     -10.191   6.124   6.660  1.00  0.00     0.134 A 
ATOM     63  C   UNL     1     -10.251   6.252   4.269  1.00  0.00     0.134 A 
ATOM     64  F   UNL     1      -9.525   6.096   7.825  1.00  0.00    -0.206 F 
ATOM     65  C   UNL     1     -11.578   5.974   6.694  1.00  0.00     0.040 A 
ATOM     66  C   UNL     1     -11.641   6.131   4.292  1.00  0.00     0.040 A 
ATOM     67  F   UNL     1      -9.648   6.373   3.076  1.00  0.00    -0.206 F 
ATOM     68  C   UNL     1     -12.307   5.984   5.507  1.00  0.00     0.006 A 
ENDBRANCH  47  61
BRANCH  48  69
ATOM     69  C   UNL     1       0.433   6.661   5.116  1.00  0.00     0.057 A 
ATOM     70  C   UNL     1       1.156   7.457   6.013  1.00  0.00     0.134 A 
ATOM     71  C   UNL     1       1.155   5.992   4.121  1.00  0.00     0.134 A 
ATOM     72  F   UNL     1       0.517   8.145   6.970  1.00  0.00    -0.206 F 
ATOM     73  C   UNL     1       2.541   7.602   5.910  1.00  0.00     0.040 A 
ATOM     74  C   UNL     1       2.543   6.110   4.021  1.00  0.00     0.040 A 
ATOM     75  F   UNL     1       0.522   5.215   3.230  1.00  0.00    -0.206 F 
ATOM     76  C   UNL     1       3.239   6.924   4.913  1.00  0.00     0.006 A 
ENDBRANCH  48  69
BRANCH  60  77
ATOM     77  C   UNL     1      -4.604  11.303   3.891  1.00  0.00     0.057 A 
ATOM     78  C   UNL     1      -4.286  11.687   2.583  1.00  0.00     0.134 A 
ATOM     79  C   UNL     1      -4.958  12.314   4.794  1.00  0.00     0.134 A 
ATOM     80  F   UNL     1      -3.928  10.768   1.673  1.00  0.00    -0.206 F 
ATOM     81  C   UNL     1      -4.304  13.027   2.191  1.00  0.00     0.040 A 
ATOM     82  C   UNL     1      -5.003  13.655   4.408  1.00  0.00     0.040 A 
ATOM     83  F   UNL     1      -5.284  12.014   6.060  1.00  0.00    -0.206 F 
ATOM     84  C   UNL     1      -4.671  14.015   3.104  1.00  0.00     0.006 A 
ENDBRANCH  60  77
ENDBRANCH  34  35
ENDBRANCH  27  29
ENDBRANCH  26  27
ENDBRANCH  25  26
ENDBRANCH  24  25
ENDBRANCH  23  24
ENDBRANCH   1  23
TORSDOF 19
