REMARK SMILES [NH3+][C@@](C(=O)OCCOCCOC(=O)c1ccc(-c2c3nc(c(-c4c(F)cccc4F)c4ccc([nH]4)c(-c4c(F)cccc4F)c4nc(c(-c5c(F)cccc5F)c5ccc2[nH]5)C=C4)C=C3)cc1)(c1ccc([P@TB4](=O)([O-])[O-])cc1)C1CC1
REMARK SMILES IDX 8 1 7 2 6 3 5 4 3 5 4 6 2 7 1 8 68 12 69 13 77 14 70 15
REMARK SMILES IDX 76 16 71 17 72 18 73 19 74 20 75 21 78 22 79 23 80 24 9 25
REMARK SMILES IDX 10 26 11 27 12 28 13 29 14 30 15 31 67 32 16 33 66 34 17 35
REMARK SMILES IDX 18 36 19 37 60 38 20 39 65 40 59 41 61 42 21 43 64 44 58 45
REMARK SMILES IDX 57 46 22 48 48 49 31 50 47 51 32 52 35 53 46 54 62 55 33 56
REMARK SMILES IDX 34 57 45 59 63 60 36 61 23 62 24 63 29 64 25 65 26 66 28 67
REMARK SMILES IDX 30 68 27 69 49 70 50 71 55 72 51 73 52 74 54 75 56 76 53 77
REMARK SMILES IDX 37 78 38 79 43 80 39 81 40 82 42 83 44 84 41 85
REMARK H PARENT 1 9 1 10 1 11 61 47 35 58
REMARK Flexibility Score: inf
ROOT
ATOM      1  O   UNL     1       0.598   4.557  -1.374  1.00  0.00       nan OA
ENDROOT
BRANCH   1   2
ATOM      2  C   UNL     1       1.912   4.761  -0.861  1.00  0.00       nan C 
BRANCH   2   3
ATOM      3  C   UNL     1       2.199   4.208   0.539  1.00  0.00       nan C 
BRANCH   3   4
ATOM      4  O   UNL     1       1.882   2.811   0.636  1.00  0.00       nan OA
BRANCH   4   5
ATOM      5  C   UNL     1       1.145   2.459   1.736  1.00  0.00       nan C 
ATOM      6  O   UNL     1       0.943   3.206   2.690  1.00  0.00       nan OA
BRANCH   5   7
ATOM      7  C   UNL     1       0.562   0.991   1.622  1.00  0.00       nan C 
BRANCH   7   8
ATOM      8  N   UNL     1       1.148   0.269   0.459  1.00  0.00       nan N 
ATOM      9  H   UNL     1       0.888   0.748  -0.404  1.00  0.00       nan HD
ATOM     10  H   UNL     1       0.792  -0.686   0.438  1.00  0.00       nan HD
ATOM     11  H   UNL     1       2.164   0.253   0.545  1.00  0.00       nan HD
ENDBRANCH   7   8
BRANCH   7  12
ATOM     12  C   UNL     1      -0.982   0.989   1.478  1.00  0.00       nan A 
ATOM     13  C   UNL     1      -1.731   2.175   1.385  1.00  0.00       nan A 
ATOM     14  C   UNL     1      -1.700  -0.222   1.410  1.00  0.00       nan A 
ATOM     15  C   UNL     1      -3.127   2.152   1.265  1.00  0.00       nan A 
ATOM     16  C   UNL     1      -3.103  -0.243   1.285  1.00  0.00       nan A 
ATOM     17  C   UNL     1      -3.843   0.946   1.208  1.00  0.00       nan A 
BRANCH  17  18
ATOM     18  P   UNL     1      -5.673   0.932   1.199  1.00  0.00       nan P 
ATOM     19  O   UNL     1      -5.790   2.292   0.492  1.00  0.00       nan OA
ATOM     20  O   UNL     1      -5.722  -0.130  -0.051  1.00  0.00       nan OA
ATOM     21  O   UNL     1      -7.403   0.919   1.190  1.00  0.00       nan OA
ENDBRANCH  17  18
ENDBRANCH   7  12
BRANCH   7  22
ATOM     22  C   UNL     1       0.959   0.265   2.909  1.00  0.00       nan C 
ATOM     23  C   UNL     1       1.555  -1.127   2.979  1.00  0.00       nan C 
ATOM     24  C   UNL     1       2.425   0.066   3.253  1.00  0.00       nan C 
ENDBRANCH   7  22
ENDBRANCH   5   7
ENDBRANCH   4   5
ENDBRANCH   3   4
ENDBRANCH   2   3
ENDBRANCH   1   2
BRANCH   1  25
ATOM     25  C   UNL     1       0.225   3.233  -1.758  1.00  0.00       nan C 
BRANCH  25  26
ATOM     26  C   UNL     1       0.975   2.599  -2.938  1.00  0.00       inf C 
BRANCH  26  27
ATOM     27  O   UNL     1       2.372   2.373  -2.660  1.00  0.00    -0.460 OA
BRANCH  27  28
ATOM     28  C   UNL     1       3.223   2.953  -3.540  1.00  0.00     0.338 C 
ATOM     29  O   UNL     1       2.931   3.576  -4.555  1.00  0.00    -0.246 OA
BRANCH  28  30
ATOM     30  C   UNL     1       4.607   2.898  -3.044  1.00  0.00     0.060 A 
ATOM     31  C   UNL     1       5.253   4.112  -2.777  1.00  0.00     0.016 A 
ATOM     32  C   UNL     1       5.307   1.692  -2.979  1.00  0.00     0.016 A 
ATOM     33  C   UNL     1       6.615   4.129  -2.483  1.00  0.00     0.010 A 
ATOM     34  C   UNL     1       6.678   1.712  -2.695  1.00  0.00     0.010 A 
ATOM     35  C   UNL     1       7.345   2.933  -2.482  1.00  0.00    -0.014 A 
BRANCH  35  36
ATOM     36  C   UNL     1       8.826   2.983  -2.403  1.00  0.00     0.031 A 
ATOM     37  C   UNL     1       9.630   2.908  -3.672  1.00  0.00     0.074 A 
ATOM     38  C   UNL     1       9.447   3.135  -1.221  1.00  0.00     0.049 A 
ATOM     39  N   UNL     1      10.929   2.917  -3.834  1.00  0.00    -0.248 NA
ATOM     40  C   UNL     1       8.868   2.812  -4.928  1.00  0.00     0.031 C 
ATOM     41  C   UNL     1       8.780   3.262   0.073  1.00  0.00     0.029 A 
ATOM     42  N   UNL     1      10.784   3.204  -0.920  1.00  0.00    -0.354 N 
ATOM     43  C   UNL     1      11.140   2.827  -5.204  1.00  0.00     0.074 A 
ATOM     44  C   UNL     1       9.837   2.736  -5.828  1.00  0.00     0.031 C 
ATOM     45  C   UNL     1       9.713   3.382   1.034  1.00  0.00     0.029 A 
ATOM     46  C   UNL     1      11.040   3.314   0.424  1.00  0.00     0.049 A 
ATOM     47  H   UNL     1      11.493   3.177  -1.603  1.00  0.00     0.167 HD
ATOM     48  C   UNL     1      12.312   2.829  -5.883  1.00  0.00     0.037 A 
ATOM     49  C   UNL     1      12.212   3.337   1.087  1.00  0.00     0.037 A 
ATOM     50  C   UNL     1      13.609   2.918  -5.264  1.00  0.00     0.049 A 
ATOM     51  C   UNL     1      13.503   3.267   0.316  1.00  0.00     0.074 A 
ATOM     52  C   UNL     1      14.854   2.941  -5.870  1.00  0.00     0.029 A 
ATOM     53  N   UNL     1      13.827   2.995  -3.898  1.00  0.00    -0.354 N 
ATOM     54  N   UNL     1      13.690   3.202  -0.980  1.00  0.00    -0.248 NA
ATOM     55  C   UNL     1      14.747   3.275   1.101  1.00  0.00     0.031 C 
ATOM     56  C   UNL     1      15.827   2.989  -4.866  1.00  0.00     0.029 A 
ATOM     57  C   UNL     1      15.187   3.041  -3.638  1.00  0.00     0.049 A 
ATOM     58  H   UNL     1      13.120   3.014  -3.213  1.00  0.00     0.167 HD
ATOM     59  C   UNL     1      15.067   3.188  -1.167  1.00  0.00     0.074 A 
ATOM     60  C   UNL     1      15.668   3.262   0.148  1.00  0.00     0.031 C 
ATOM     61  C   UNL     1      15.770   3.122  -2.324  1.00  0.00     0.037 A 
BRANCH  48  62
ATOM     62  C   UNL     1      12.245   2.709  -7.376  1.00  0.00     0.057 A 
ATOM     63  C   UNL     1      11.825   3.773  -8.184  1.00  0.00     0.134 A 
ATOM     64  C   UNL     1      12.638   1.526  -8.015  1.00  0.00     0.134 A 
ATOM     65  F   UNL     1      11.423   4.928  -7.632  1.00  0.00    -0.206 F 
ATOM     66  C   UNL     1      11.780   3.659  -9.574  1.00  0.00     0.040 A 
ATOM     67  C   UNL     1      12.618   1.408  -9.406  1.00  0.00     0.040 A 
ATOM     68  F   UNL     1      13.054   0.471  -7.300  1.00  0.00    -0.206 F 
ATOM     69  C   UNL     1      12.183   2.475 -10.189  1.00  0.00     0.006 A 
ENDBRANCH  48  62
BRANCH  49  70
ATOM     70  C   UNL     1      12.225   3.415   2.569  1.00  0.00     0.057 A 
ATOM     71  C   UNL     1      12.668   4.564   3.233  1.00  0.00     0.134 A 
ATOM     72  C   UNL     1      11.815   2.332   3.356  1.00  0.00     0.134 A 
ATOM     73  F   UNL     1      13.096   5.625   2.533  1.00  0.00    -0.206 F 
ATOM     74  C   UNL     1      12.718   4.629   4.627  1.00  0.00     0.040 A 
ATOM     75  C   UNL     1      11.838   2.391   4.750  1.00  0.00     0.040 A 
ATOM     76  F   UNL     1      11.381   1.201   2.779  1.00  0.00    -0.206 F 
ATOM     77  C   UNL     1      12.297   3.541   5.389  1.00  0.00     0.006 A 
ENDBRANCH  49  70
BRANCH  61  78
ATOM     78  C   UNL     1      17.266   3.159  -2.223  1.00  0.00     0.057 A 
ATOM     79  C   UNL     1      18.003   2.058  -1.769  1.00  0.00     0.134 A 
ATOM     80  C   UNL     1      17.980   4.295  -2.624  1.00  0.00     0.134 A 
ATOM     81  F   UNL     1      17.378   0.944  -1.359  1.00  0.00    -0.206 F 
ATOM     82  C   UNL     1      19.397   2.093  -1.700  1.00  0.00     0.040 A 
ATOM     83  C   UNL     1      19.374   4.334  -2.581  1.00  0.00     0.040 A 
ATOM     84  F   UNL     1      17.334   5.380  -3.077  1.00  0.00    -0.206 F 
ATOM     85  C   UNL     1      20.086   3.232  -2.113  1.00  0.00     0.006 A 
ENDBRANCH  61  78
ENDBRANCH  35  36
ENDBRANCH  28  30
ENDBRANCH  27  28
ENDBRANCH  26  27
ENDBRANCH  25  26
ENDBRANCH   1  25
TORSDOF 18
