REMARK SMILES COc1cc(/C=C/C(=O)c2ccc(OCC(=O)OCCOCCOC(=O)c3ccc(-c4c5nc(c(-c6c(F)cccc6F)c6ccc([nH]6)c(-c6c(F)cccc6F)c6nc(c(-c7c(F)cccc7F)c7ccc4[nH]7)C=C6)C=C5)cc3)cc2)cc2c1OCCO2
REMARK SMILES IDX 19 1 18 2 16 3 17 4 15 5 14 6 13 7 10 8 11 9 82 10 12 11
REMARK SMILES IDX 81 12 8 13 9 14 7 15 6 16 5 17 3 18 4 19 85 20 84 21 86 22
REMARK SMILES IDX 83 23 89 24 87 25 88 26 2 27 1 28 20 29 21 30 22 31 23 32
REMARK SMILES IDX 24 33 25 34 26 35 27 36 28 37 80 38 29 39 79 40 30 41 31 42
REMARK SMILES IDX 32 43 73 44 33 45 78 46 72 47 74 48 34 49 77 50 71 51 70 52
REMARK SMILES IDX 35 54 61 55 44 56 60 57 45 58 48 59 59 60 75 61 46 62 47 63
REMARK SMILES IDX 58 65 76 66 49 67 36 68 37 69 42 70 38 71 39 72 41 73 43 74
REMARK SMILES IDX 40 75 62 76 63 77 68 78 64 79 65 80 67 81 69 82 66 83 50 84
REMARK SMILES IDX 51 85 56 86 52 87 53 88 55 89 57 90 54 91
REMARK H PARENT 74 53 48 64
REMARK Flexibility Score: inf
ROOT
ATOM      1  C   UNL     1      -6.949  -2.829   2.200  1.00  0.00     0.261 C 
ENDROOT
BRANCH   1   2
ATOM      2  O   UNL     1      -7.115  -4.161   1.659  1.00  0.00    -0.461 OA
BRANCH   2   3
ATOM      3  C   UNL     1      -7.799  -4.242   0.483  1.00  0.00     0.344 C 
ATOM      4  O   UNL     1      -8.212  -3.269  -0.142  1.00  0.00    -0.248 OA
BRANCH   3   5
ATOM      5  C   UNL     1      -8.091  -5.678   0.008  1.00  0.00     0.351 C 
BRANCH   5   6
ATOM      6  O   UNL     1      -7.397  -6.818   0.474  1.00  0.00    -0.482 OA
BRANCH   6   7
ATOM      7  C   UNL     1      -6.199  -7.185  -0.072  1.00  0.00     0.120 A 
ATOM      8  C   UNL     1      -3.505  -7.816  -0.612  1.00  0.00     0.022 A 
ATOM      9  C   UNL     1      -4.214  -8.523   0.366  1.00  0.00     0.016 A 
ATOM     10  C   UNL     1      -4.184  -6.885  -1.407  1.00  0.00     0.016 A 
ATOM     11  C   UNL     1      -5.551  -8.207   0.632  1.00  0.00     0.047 A 
ATOM     12  C   UNL     1      -5.535  -6.575  -1.140  1.00  0.00     0.047 A 
BRANCH   8  13
ATOM     13  C   UNL     1      -2.065  -8.133  -0.773  1.00  0.00     0.185 C 
ATOM     14  O   UNL     1      -1.744  -9.313  -0.909  1.00  0.00    -0.289 OA
BRANCH  13  15
ATOM     15  C   UNL     1      -0.982  -7.105  -0.649  1.00  0.00     0.053 C 
ATOM     16  C   UNL     1      -1.078  -5.773  -0.508  1.00  0.00     0.012 C 
BRANCH  16  17
ATOM     17  C   UNL     1       0.048  -4.824  -0.312  1.00  0.00    -0.018 A 
ATOM     18  C   UNL     1       0.776  -2.561   0.311  1.00  0.00     0.165 A 
ATOM     19  C   UNL     1      -0.228  -3.533   0.174  1.00  0.00     0.058 A 
ATOM     20  C   UNL     1       2.099  -2.882  -0.001  1.00  0.00     0.203 A 
ATOM     21  C   UNL     1       2.395  -4.180  -0.441  1.00  0.00     0.165 A 
ATOM     22  O   UNL     1       3.074  -1.929   0.163  1.00  0.00    -0.483 OA
ATOM     23  C   UNL     1       1.379  -5.131  -0.617  1.00  0.00     0.058 A 
ATOM     24  O   UNL     1       3.670  -4.605  -0.735  1.00  0.00    -0.486 OA
ATOM     25  C   UNL     1       4.274  -2.269  -0.535  1.00  0.00     0.271 C 
ATOM     26  C   UNL     1       4.661  -3.703  -0.230  1.00  0.00     0.271 C 
BRANCH  18  27
ATOM     27  O   UNL     1       0.363  -1.355   0.820  1.00  0.00    -0.493 OA
ATOM     28  C   UNL     1       0.764  -0.231   0.040  1.00  0.00     0.278 C 
ENDBRANCH  18  27
ENDBRANCH  16  17
ENDBRANCH  13  15
ENDBRANCH   8  13
ENDBRANCH   6   7
ENDBRANCH   5   6
ENDBRANCH   3   5
ENDBRANCH   2   3
ENDBRANCH   1   2
BRANCH   1  29
ATOM     29  C   UNL     1      -5.503  -2.325   2.320  1.00  0.00     0.202 C 
BRANCH  29  30
ATOM     30  O   UNL     1      -4.650  -2.411   1.191  1.00  0.00    -0.374 OA
BRANCH  30  31
ATOM     31  C   UNL     1      -4.441  -3.669   0.575  1.00  0.00     0.202 C 
BRANCH  31  32
ATOM     32  C   UNL     1      -4.251  -4.923   1.431  1.00  0.00     0.261 C 
BRANCH  32  33
ATOM     33  O   UNL     1      -4.180  -4.749   2.825  1.00  0.00    -0.460 OA
BRANCH  33  34
ATOM     34  C   UNL     1      -2.948  -4.725   3.350  1.00  0.00     0.338 C 
ATOM     35  O   UNL     1      -1.869  -4.723   2.798  1.00  0.00    -0.246 OA
BRANCH  34  36
ATOM     36  C   UNL     1      -3.210  -4.747   4.782  1.00  0.00     0.060 A 
ATOM     37  C   UNL     1      -3.165  -3.548   5.490  1.00  0.00     0.016 A 
ATOM     38  C   UNL     1      -3.615  -5.951   5.367  1.00  0.00     0.016 A 
ATOM     39  C   UNL     1      -3.471  -3.567   6.841  1.00  0.00     0.010 A 
ATOM     40  C   UNL     1      -3.939  -5.963   6.714  1.00  0.00     0.010 A 
ATOM     41  C   UNL     1      -3.825  -4.778   7.457  1.00  0.00    -0.014 A 
BRANCH  41  42
ATOM     42  C   UNL     1      -3.920  -4.831   8.924  1.00  0.00     0.031 A 
ATOM     43  C   UNL     1      -2.762  -5.399   9.687  1.00  0.00     0.074 A 
ATOM     44  C   UNL     1      -5.009  -4.345   9.540  1.00  0.00     0.049 A 
ATOM     45  N   UNL     1      -2.606  -5.527  10.976  1.00  0.00    -0.248 NA
ATOM     46  C   UNL     1      -1.627  -5.896   8.888  1.00  0.00     0.031 C 
ATOM     47  C   UNL     1      -6.173  -3.769   8.867  1.00  0.00     0.029 A 
ATOM     48  N   UNL     1      -5.308  -4.256  10.871  1.00  0.00    -0.354 N 
ATOM     49  C   UNL     1      -1.359  -6.116  11.143  1.00  0.00     0.074 A 
ATOM     50  C   UNL     1      -0.820  -6.365   9.825  1.00  0.00     0.031 C 
ATOM     51  C   UNL     1      -7.061  -3.376   9.796  1.00  0.00     0.029 A 
ATOM     52  C   UNL     1      -6.537  -3.700  11.119  1.00  0.00     0.049 A 
ATOM     53  H   UNL     1      -4.699  -4.562  11.583  1.00  0.00     0.167 HD
ATOM     54  C   UNL     1      -0.720  -6.405  12.298  1.00  0.00     0.037 A 
ATOM     55  C   UNL     1      -7.162  -3.492  12.292  1.00  0.00     0.037 A 
ATOM     56  C   UNL     1      -1.280  -6.149  13.597  1.00  0.00     0.049 A 
ATOM     57  C   UNL     1      -6.448  -3.867  13.561  1.00  0.00     0.074 A 
ATOM     58  C   UNL     1      -0.722  -6.381  14.839  1.00  0.00     0.029 A 
ATOM     59  N   UNL     1      -2.539  -5.606  13.814  1.00  0.00    -0.354 N 
ATOM     60  N   UNL     1      -5.252  -4.386  13.715  1.00  0.00    -0.248 NA
ATOM     61  C   UNL     1      -7.164  -3.623  14.819  1.00  0.00     0.031 C 
ATOM     62  C   UNL     1      -1.665  -6.026  15.809  1.00  0.00     0.029 A 
ATOM     63  C   UNL     1      -2.788  -5.519  15.172  1.00  0.00     0.049 A 
ATOM     64  H   UNL     1      -3.163  -5.325  13.106  1.00  0.00     0.167 HD
ATOM     65  C   UNL     1      -5.061  -4.506  15.085  1.00  0.00     0.074 A 
ATOM     66  C   UNL     1      -6.260  -3.990  15.716  1.00  0.00     0.031 C 
ATOM     67  C   UNL     1      -3.994  -4.997  15.764  1.00  0.00     0.037 A 
BRANCH  54  68
ATOM     68  C   UNL     1       0.632  -7.048  12.198  1.00  0.00     0.057 A 
ATOM     69  C   UNL     1       1.754  -6.350  11.728  1.00  0.00     0.134 A 
ATOM     70  C   UNL     1       0.818  -8.380  12.584  1.00  0.00     0.134 A 
ATOM     71  F   UNL     1       1.642  -5.077  11.321  1.00  0.00    -0.206 F 
ATOM     72  C   UNL     1       3.004  -6.963  11.623  1.00  0.00     0.040 A 
ATOM     73  C   UNL     1       2.069  -8.995  12.511  1.00  0.00     0.040 A 
ATOM     74  F   UNL     1      -0.213  -9.108  13.040  1.00  0.00    -0.206 F 
ATOM     75  C   UNL     1       3.166  -8.287  12.023  1.00  0.00     0.006 A 
ENDBRANCH  54  68
BRANCH  55  76
ATOM     76  C   UNL     1      -8.523  -2.900  12.313  1.00  0.00     0.057 A 
ATOM     77  C   UNL     1      -8.751  -1.617  12.824  1.00  0.00     0.134 A 
ATOM     78  C   UNL     1      -9.630  -3.602  11.820  1.00  0.00     0.134 A 
ATOM     79  F   UNL     1      -7.734  -0.899  13.324  1.00  0.00    -0.206 F 
ATOM     80  C   UNL     1     -10.031  -1.062  12.862  1.00  0.00     0.040 A 
ATOM     81  C   UNL     1     -10.911  -3.049  11.827  1.00  0.00     0.040 A 
ATOM     82  F   UNL     1      -9.478  -4.832  11.307  1.00  0.00    -0.206 F 
ATOM     83  C   UNL     1     -11.115  -1.777  12.357  1.00  0.00     0.006 A 
ENDBRANCH  55  76
BRANCH  67  84
ATOM     84  C   UNL     1      -4.069  -4.965  17.262  1.00  0.00     0.057 A 
ATOM     85  C   UNL     1      -4.907  -5.827  17.979  1.00  0.00     0.134 A 
ATOM     86  C   UNL     1      -3.258  -4.089  17.994  1.00  0.00     0.134 A 
ATOM     87  F   UNL     1      -5.716  -6.682  17.334  1.00  0.00    -0.206 F 
ATOM     88  C   UNL     1      -4.954  -5.802  19.373  1.00  0.00     0.040 A 
ATOM     89  C   UNL     1      -3.274  -4.075  19.389  1.00  0.00     0.040 A 
ATOM     90  F   UNL     1      -2.424  -3.245  17.367  1.00  0.00    -0.206 F 
ATOM     91  C   UNL     1      -4.130  -4.929  20.081  1.00  0.00     0.006 A 
ENDBRANCH  67  84
ENDBRANCH  41  42
ENDBRANCH  34  36
ENDBRANCH  33  34
ENDBRANCH  32  33
ENDBRANCH  31  32
ENDBRANCH  30  31
ENDBRANCH  29  30
ENDBRANCH   1  29
TORSDOF 20
