REMARK SMILES C[NH2+]C[C@@H](C)C(=O)Nc1ccc(Cl)cc1C(=O)OCCOCCOC(=O)c1ccc(-c2c3nc(c(-c4c(F)cccc4F)c4ccc([nH]4)c(-c4c(F)cccc4F)c4nc(c(-c5c(F)cccc5F)c5ccc2[nH]5)C=C4)C=C3)cc1
REMARK SMILES IDX 20 1 19 2 18 3 16 4 17 5 15 6 9 7 10 8 11 9 14 10 12 11
REMARK SMILES IDX 13 12 8 13 6 14 7 15 4 17 5 18 3 19 2 20 1 21 21 24 22 25
REMARK SMILES IDX 23 26 24 27 25 28 26 29 27 30 28 31 80 32 29 33 79 34 30 35
REMARK SMILES IDX 31 36 32 37 73 38 33 39 78 40 72 41 74 42 34 43 77 44 71 45
REMARK SMILES IDX 70 46 35 48 61 49 44 50 60 51 45 52 48 53 59 54 75 55 46 56
REMARK SMILES IDX 47 57 58 59 76 60 49 61 36 62 37 63 42 64 38 65 39 66 41 67
REMARK SMILES IDX 43 68 40 69 62 70 63 71 68 72 64 73 65 74 67 75 69 76 66 77
REMARK SMILES IDX 50 78 51 79 56 80 52 81 53 82 55 83 57 84 54 85
REMARK H PARENT 8 16 2 22 2 23 74 47 48 58
REMARK Flexibility Score: inf
ROOT
ATOM      1  C   UNL     1      -6.199  -5.568   2.100  1.00  0.00     0.202 C 
ENDROOT
BRANCH   1   2
ATOM      2  C   UNL     1      -6.592  -4.193   2.647  1.00  0.00     0.261 C 
BRANCH   2   3
ATOM      3  O   UNL     1      -5.448  -3.333   2.796  1.00  0.00    -0.460 OA
BRANCH   3   4
ATOM      4  C   UNL     1      -5.029  -3.212   4.077  1.00  0.00     0.340 C 
ATOM      5  O   UNL     1      -5.614  -3.634   5.064  1.00  0.00    -0.246 OA
BRANCH   4   6
ATOM      6  C   UNL     1      -3.696  -2.572   4.195  1.00  0.00     0.085 A 
ATOM      7  C   UNL     1      -3.129  -1.646   3.306  1.00  0.00     0.055 A 
ATOM      8  C   UNL     1      -2.090  -0.860   3.793  1.00  0.00     0.028 A 
ATOM      9  C   UNL     1      -1.384  -1.209   4.945  1.00  0.00     0.023 A 
ATOM     10  C   UNL     1      -2.974  -2.950   5.346  1.00  0.00     0.038 A 
ATOM     11  C   UNL     1      -1.789  -2.311   5.678  1.00  0.00     0.042 A 
ATOM     12  Cl  UNL     1      -0.863  -2.844   7.020  1.00  0.00    -0.084 Cl
BRANCH   7  13
ATOM     13  N   UNL     1      -3.590  -1.454   1.992  1.00  0.00    -0.325 N 
ATOM     14  C   UNL     1      -2.928  -1.184   0.817  1.00  0.00     0.232 C 
ATOM     15  O   UNL     1      -3.639  -0.879  -0.151  1.00  0.00    -0.274 OA
ATOM     16  H   UNL     1      -4.567  -1.524   1.894  1.00  0.00     0.169 HD
BRANCH  14  17
ATOM     17  C   UNL     1      -1.409  -1.409   0.569  1.00  0.00     0.130 C 
ATOM     18  C   UNL     1      -1.004  -2.846   0.895  1.00  0.00     0.024 C 
BRANCH  17  19
ATOM     19  C   UNL     1      -0.452  -0.351   1.141  1.00  0.00     0.273 C 
BRANCH  19  20
ATOM     20  N   UNL     1       0.962  -0.403   0.761  1.00  0.00    -0.348 N 
ATOM     21  C   UNL     1       1.233   0.019  -0.598  1.00  0.00     0.330 C 
ATOM     22  H   UNL     1       1.485   0.203   1.393  1.00  0.00     0.346 HD
ATOM     23  H   UNL     1       1.244  -1.381   0.823  1.00  0.00     0.346 HD
ENDBRANCH  19  20
ENDBRANCH  17  19
ENDBRANCH  14  17
ENDBRANCH   7  13
ENDBRANCH   4   6
ENDBRANCH   3   4
ENDBRANCH   2   3
ENDBRANCH   1   2
BRANCH   1  24
ATOM     24  O   UNL     1      -5.261  -6.324   2.862  1.00  0.00    -0.374 OA
BRANCH  24  25
ATOM     25  C   UNL     1      -3.877  -6.008   2.714  1.00  0.00     0.202 C 
BRANCH  25  26
ATOM     26  C   UNL     1      -3.182  -6.476   1.429  1.00  0.00     0.261 C 
BRANCH  26  27
ATOM     27  O   UNL     1      -3.663  -5.774   0.268  1.00  0.00    -0.460 OA
BRANCH  27  28
ATOM     28  C   UNL     1      -4.406  -6.519  -0.585  1.00  0.00     0.338 C 
ATOM     29  O   UNL     1      -4.645  -7.718  -0.508  1.00  0.00    -0.246 OA
BRANCH  28  30
ATOM     30  C   UNL     1      -5.082  -5.638  -1.552  1.00  0.00     0.060 A 
ATOM     31  C   UNL     1      -6.480  -5.706  -1.636  1.00  0.00     0.016 A 
ATOM     32  C   UNL     1      -4.361  -4.793  -2.395  1.00  0.00     0.016 A 
ATOM     33  C   UNL     1      -7.162  -4.944  -2.583  1.00  0.00     0.010 A 
ATOM     34  C   UNL     1      -5.045  -4.041  -3.355  1.00  0.00     0.010 A 
ATOM     35  C   UNL     1      -6.445  -4.128  -3.467  1.00  0.00    -0.014 A 
BRANCH  35  36
ATOM     36  C   UNL     1      -7.141  -3.436  -4.578  1.00  0.00     0.031 A 
ATOM     37  C   UNL     1      -7.069  -4.015  -5.963  1.00  0.00     0.074 A 
ATOM     38  C   UNL     1      -7.827  -2.301  -4.353  1.00  0.00     0.049 A 
ATOM     39  N   UNL     1      -7.493  -3.515  -7.094  1.00  0.00    -0.248 NA
ATOM     40  C   UNL     1      -6.432  -5.337  -6.088  1.00  0.00     0.031 C 
ATOM     41  C   UNL     1      -8.010  -1.669  -3.047  1.00  0.00     0.029 A 
ATOM     42  N   UNL     1      -8.480  -1.467  -5.226  1.00  0.00    -0.354 N 
ATOM     43  C   UNL     1      -7.178  -4.457  -8.065  1.00  0.00     0.074 A 
ATOM     44  C   UNL     1      -6.499  -5.546  -7.396  1.00  0.00     0.031 C 
ATOM     45  C   UNL     1      -8.707  -0.531  -3.208  1.00  0.00     0.029 A 
ATOM     46  C   UNL     1      -8.979  -0.333  -4.630  1.00  0.00     0.049 A 
ATOM     47  H   UNL     1      -8.582  -1.662  -6.185  1.00  0.00     0.167 HD
ATOM     48  C   UNL     1      -7.442  -4.421  -9.392  1.00  0.00     0.037 A 
ATOM     49  C   UNL     1      -9.547   0.758  -5.179  1.00  0.00     0.037 A 
ATOM     50  C   UNL     1      -8.109  -3.331 -10.055  1.00  0.00     0.049 A 
ATOM     51  C   UNL     1      -9.719   0.826  -6.675  1.00  0.00     0.074 A 
ATOM     52  C   UNL     1      -8.417  -3.197 -11.398  1.00  0.00     0.029 A 
ATOM     53  N   UNL     1      -8.568  -2.186  -9.423  1.00  0.00    -0.354 N 
ATOM     54  N   UNL     1      -9.431  -0.074  -7.584  1.00  0.00    -0.248 NA
ATOM     55  C   UNL     1     -10.287   2.068  -7.223  1.00  0.00     0.031 C 
ATOM     56  C   UNL     1      -9.021  -1.951 -11.586  1.00  0.00     0.029 A 
ATOM     57  C   UNL     1      -9.133  -1.329 -10.353  1.00  0.00     0.049 A 
ATOM     58  H   UNL     1      -8.501  -2.008  -8.457  1.00  0.00     0.167 HD
ATOM     59  C   UNL     1      -9.808   0.480  -8.802  1.00  0.00     0.074 A 
ATOM     60  C   UNL     1     -10.362   1.786  -8.515  1.00  0.00     0.031 C 
ATOM     61  C   UNL     1      -9.699  -0.041 -10.048  1.00  0.00     0.037 A 
BRANCH  48  62
ATOM     62  C   UNL     1      -7.006  -5.590 -10.225  1.00  0.00     0.057 A 
ATOM     63  C   UNL     1      -7.669  -6.822 -10.163  1.00  0.00     0.134 A 
ATOM     64  C   UNL     1      -5.960  -5.463 -11.148  1.00  0.00     0.134 A 
ATOM     65  F   UNL     1      -8.671  -7.011  -9.292  1.00  0.00    -0.206 F 
ATOM     66  C   UNL     1      -7.302  -7.889 -10.984  1.00  0.00     0.040 A 
ATOM     67  C   UNL     1      -5.600  -6.515 -11.991  1.00  0.00     0.040 A 
ATOM     68  F   UNL     1      -5.288  -4.307 -11.261  1.00  0.00    -0.206 F 
ATOM     69  C   UNL     1      -6.270  -7.734 -11.908  1.00  0.00     0.006 A 
ENDBRANCH  48  62
BRANCH  49  70
ATOM     70  C   UNL     1      -9.952   1.909  -4.328  1.00  0.00     0.057 A 
ATOM     71  C   UNL     1     -11.294   2.284  -4.205  1.00  0.00     0.134 A 
ATOM     72  C   UNL     1      -9.000   2.700  -3.672  1.00  0.00     0.134 A 
ATOM     73  F   UNL     1     -12.251   1.583  -4.831  1.00  0.00    -0.206 F 
ATOM     74  C   UNL     1     -11.674   3.421  -3.490  1.00  0.00     0.040 A 
ATOM     75  C   UNL     1      -9.368   3.822  -2.927  1.00  0.00     0.040 A 
ATOM     76  F   UNL     1      -7.696   2.399  -3.751  1.00  0.00    -0.206 F 
ATOM     77  C   UNL     1     -10.709   4.193  -2.846  1.00  0.00     0.006 A 
ENDBRANCH  49  70
BRANCH  61  78
ATOM     78  C   UNL     1     -10.220   0.779 -11.191  1.00  0.00     0.057 A 
ATOM     79  C   UNL     1      -9.546   1.918 -11.649  1.00  0.00     0.134 A 
ATOM     80  C   UNL     1     -11.378   0.392 -11.878  1.00  0.00     0.134 A 
ATOM     81  F   UNL     1      -8.439   2.349 -11.026  1.00  0.00    -0.206 F 
ATOM     82  C   UNL     1     -10.014   2.650 -12.741  1.00  0.00     0.040 A 
ATOM     83  C   UNL     1     -11.840   1.100 -12.988  1.00  0.00     0.040 A 
ATOM     84  F   UNL     1     -12.066  -0.695 -11.496  1.00  0.00    -0.206 F 
ATOM     85  C   UNL     1     -11.159   2.236 -13.420  1.00  0.00     0.006 A 
ENDBRANCH  61  78
ENDBRANCH  35  36
ENDBRANCH  28  30
ENDBRANCH  27  28
ENDBRANCH  26  27
ENDBRANCH  25  26
ENDBRANCH  24  25
ENDBRANCH   1  24
TORSDOF 18
