REMARK SMILES COC(=O)c1ccc([C@H]2Nc3c(C(=O)OCCOCCOC(=O)c4ccc(-c5c6nc(c(-c7c(F)cccc7F)c7ccc([nH]7)c(-c7c(F)cccc7F)c7nc(c(-c8c(F)cccc8F)c8ccc5[nH]8)C=C7)C=C6)cc4)cccc3[C@H]3[C@H]4CC[C@H](C4)[C@H]32)cc1
REMARK SMILES IDX 17 1 16 2 15 3 13 4 14 5 12 6 9 7 10 8 88 9 11 10 82 12
REMARK SMILES IDX 86 13 81 14 83 15 85 16 87 17 78 18 80 19 84 20 79 21 8 22
REMARK SMILES IDX 5 23 6 24 90 25 7 26 89 27 3 28 4 29 2 30 1 31 18 32 19 33
REMARK SMILES IDX 20 34 21 35 22 36 23 37 24 38 25 39 77 40 26 41 76 42 27 43
REMARK SMILES IDX 28 44 29 45 70 46 30 47 75 48 69 49 71 50 31 51 74 52 68 53
REMARK SMILES IDX 67 54 32 56 58 57 41 58 57 59 42 60 45 61 56 62 72 63 43 64
REMARK SMILES IDX 44 65 55 67 73 68 46 69 33 70 34 71 39 72 35 73 36 74 38 75
REMARK SMILES IDX 40 76 37 77 59 78 60 79 65 80 61 81 62 82 64 83 66 84 63 85
REMARK SMILES IDX 47 86 48 87 53 88 49 89 50 90 52 91 54 92 51 93
REMARK H PARENT 10 11 71 55 45 66
REMARK Flexibility Score: inf
ROOT
ATOM      1  C   UNL     1      -0.043  -5.666  10.827  1.00  0.00     0.202 C 
ENDROOT
BRANCH   1   2
ATOM      2  C   UNL     1      -1.304  -4.872  10.470  1.00  0.00     0.261 C 
BRANCH   2   3
ATOM      3  O   UNL     1      -2.186  -5.650   9.643  1.00  0.00    -0.460 OA
BRANCH   3   4
ATOM      4  C   UNL     1      -2.343  -5.221   8.362  1.00  0.00     0.340 C 
ATOM      5  O   UNL     1      -1.889  -4.191   7.890  1.00  0.00    -0.246 OA
BRANCH   4   6
ATOM      6  C   UNL     1      -3.026  -6.307   7.617  1.00  0.00     0.083 A 
ATOM      7  C   UNL     1      -1.567  -6.264   4.251  1.00  0.00     0.113 C 
ATOM      8  N   UNL     1      -1.413  -6.324   5.725  1.00  0.00    -0.377 N 
ATOM      9  C   UNL     1      -1.589  -7.767   3.815  1.00  0.00     0.027 C 
ATOM     10  C   UNL     1      -2.482  -6.868   6.446  1.00  0.00     0.053 A 
ATOM     11  H   UNL     1      -0.599  -5.998   6.174  1.00  0.00     0.161 HD
ATOM     12  C   UNL     1      -2.306  -8.719   4.820  1.00  0.00     0.030 C 
ATOM     13  C   UNL     1      -1.945  -8.397   2.432  1.00  0.00    -0.005 C 
ATOM     14  C   UNL     1      -3.100  -8.009   5.886  1.00  0.00    -0.020 A 
ATOM     15  C   UNL     1      -2.922  -9.796   3.904  1.00  0.00    -0.003 C 
ATOM     16  C   UNL     1      -3.421  -8.457   1.996  1.00  0.00     0.004 C 
ATOM     17  C   UNL     1      -1.829  -9.895   2.823  1.00  0.00     0.008 C 
ATOM     18  C   UNL     1      -4.235  -6.797   8.134  1.00  0.00     0.018 A 
ATOM     19  C   UNL     1      -4.286  -8.508   6.431  1.00  0.00     0.006 A 
ATOM     20  C   UNL     1      -4.107  -9.241   3.107  1.00  0.00     0.004 C 
ATOM     21  C   UNL     1      -4.875  -7.874   7.523  1.00  0.00     0.001 A 
BRANCH   7  22
ATOM     22  C   UNL     1      -2.695  -5.287   3.906  1.00  0.00    -0.025 A 
ATOM     23  C   UNL     1      -5.100  -3.858   3.572  1.00  0.00     0.060 A 
ATOM     24  C   UNL     1      -4.269  -3.551   4.641  1.00  0.00     0.016 A 
ATOM     25  C   UNL     1      -4.632  -4.708   2.569  1.00  0.00     0.016 A 
ATOM     26  C   UNL     1      -3.069  -4.251   4.787  1.00  0.00     0.007 A 
ATOM     27  C   UNL     1      -3.394  -5.343   2.710  1.00  0.00     0.007 A 
BRANCH  23  28
ATOM     28  C   UNL     1      -6.446  -3.256   3.498  1.00  0.00     0.337 C 
ATOM     29  O   UNL     1      -6.716  -2.124   3.861  1.00  0.00    -0.246 OA
BRANCH  28  30
ATOM     30  O   UNL     1      -7.307  -4.189   3.019  1.00  0.00    -0.465 OA
ATOM     31  C   UNL     1      -8.657  -3.749   2.872  1.00  0.00     0.282 C 
ENDBRANCH  28  30
ENDBRANCH  23  28
ENDBRANCH   7  22
ENDBRANCH   4   6
ENDBRANCH   3   4
ENDBRANCH   2   3
ENDBRANCH   1   2
BRANCH   1  32
ATOM     32  O   UNL     1       0.905  -5.868   9.776  1.00  0.00    -0.374 OA
BRANCH  32  33
ATOM     33  C   UNL     1       0.588  -6.855   8.798  1.00  0.00     0.202 C 
BRANCH  33  34
ATOM     34  C   UNL     1       0.922  -8.310   9.141  1.00  0.00     0.261 C 
BRANCH  34  35
ATOM     35  O   UNL     1       0.274  -8.753  10.342  1.00  0.00    -0.460 OA
BRANCH  35  36
ATOM     36  C   UNL     1       1.082  -8.756  11.428  1.00  0.00     0.338 C 
ATOM     37  O   UNL     1       2.277  -8.513  11.464  1.00  0.00    -0.246 OA
BRANCH  36  38
ATOM     38  C   UNL     1       0.289  -8.962  12.652  1.00  0.00     0.060 A 
ATOM     39  C   UNL     1       0.525  -8.086  13.718  1.00  0.00     0.016 A 
ATOM     40  C   UNL     1      -0.582 -10.044  12.798  1.00  0.00     0.016 A 
ATOM     41  C   UNL     1      -0.038  -8.341  14.963  1.00  0.00     0.010 A 
ATOM     42  C   UNL     1      -1.151 -10.297  14.050  1.00  0.00     0.010 A 
ATOM     43  C   UNL     1      -0.833  -9.480  15.150  1.00  0.00    -0.014 A 
BRANCH  43  44
ATOM     44  C   UNL     1      -1.164  -9.902  16.533  1.00  0.00     0.031 A 
ATOM     45  C   UNL     1      -0.382 -11.026  17.159  1.00  0.00     0.074 A 
ATOM     46  C   UNL     1      -2.097  -9.249  17.248  1.00  0.00     0.049 A 
ATOM     47  N   UNL     1      -0.468 -11.531  18.363  1.00  0.00    -0.248 NA
ATOM     48  C   UNL     1       0.633 -11.669  16.309  1.00  0.00     0.031 C 
ATOM     49  C   UNL     1      -2.893  -8.122  16.768  1.00  0.00     0.029 A 
ATOM     50  N   UNL     1      -2.522  -9.440  18.538  1.00  0.00    -0.354 N 
ATOM     51  C   UNL     1       0.470 -12.556  18.411  1.00  0.00     0.074 A 
ATOM     52  C   UNL     1       1.085 -12.627  17.104  1.00  0.00     0.031 C 
ATOM     53  C   UNL     1      -3.704  -7.711  17.757  1.00  0.00     0.029 A 
ATOM     54  C   UNL     1      -3.505  -8.564  18.927  1.00  0.00     0.049 A 
ATOM     55  H   UNL     1      -2.158 -10.139  19.128  1.00  0.00     0.167 HD
ATOM     56  C   UNL     1       0.799 -13.357  19.453  1.00  0.00     0.037 A 
ATOM     57  C   UNL     1      -4.168  -8.467  20.095  1.00  0.00     0.037 A 
ATOM     58  C   UNL     1       0.190 -13.279  20.755  1.00  0.00     0.049 A 
ATOM     59  C   UNL     1      -3.825  -9.406  21.220  1.00  0.00     0.074 A 
ATOM     60  C   UNL     1       0.470 -14.026  21.886  1.00  0.00     0.029 A 
ATOM     61  N   UNL     1      -0.832 -12.405  21.098  1.00  0.00    -0.354 N 
ATOM     62  N   UNL     1      -2.915 -10.349  21.267  1.00  0.00    -0.248 NA
ATOM     63  C   UNL     1      -4.597  -9.257  22.461  1.00  0.00     0.031 C 
ATOM     64  C   UNL     1      -0.422 -13.647  22.894  1.00  0.00     0.029 A 
ATOM     65  C   UNL     1      -1.213 -12.614  22.414  1.00  0.00     0.049 A 
ATOM     66  H   UNL     1      -1.228 -11.735  20.495  1.00  0.00     0.167 HD
ATOM     67  C   UNL     1      -2.975 -10.876  22.552  1.00  0.00     0.074 A 
ATOM     68  C   UNL     1      -4.008 -10.141  23.253  1.00  0.00     0.031 C 
ATOM     69  C   UNL     1      -2.237 -11.870  23.105  1.00  0.00     0.037 A 
BRANCH  56  70
ATOM     70  C   UNL     1       1.841 -14.413  19.208  1.00  0.00     0.057 A 
ATOM     71  C   UNL     1       3.188 -14.098  18.985  1.00  0.00     0.134 A 
ATOM     72  C   UNL     1       1.488 -15.769  19.202  1.00  0.00     0.134 A 
ATOM     73  F   UNL     1       3.593 -12.819  18.962  1.00  0.00    -0.206 F 
ATOM     74  C   UNL     1       4.138 -15.089  18.728  1.00  0.00     0.040 A 
ATOM     75  C   UNL     1       2.435 -16.770  18.980  1.00  0.00     0.040 A 
ATOM     76  F   UNL     1       0.218 -16.144  19.415  1.00  0.00    -0.206 F 
ATOM     77  C   UNL     1       3.762 -16.430  18.731  1.00  0.00     0.006 A 
ENDBRANCH  56  70
BRANCH  57  78
ATOM     78  C   UNL     1      -5.212  -7.426  20.270  1.00  0.00     0.057 A 
ATOM     79  C   UNL     1      -5.021  -6.349  21.144  1.00  0.00     0.134 A 
ATOM     80  C   UNL     1      -6.429  -7.489  19.581  1.00  0.00     0.134 A 
ATOM     81  F   UNL     1      -3.885  -6.245  21.849  1.00  0.00    -0.206 F 
ATOM     82  C   UNL     1      -6.009  -5.383  21.341  1.00  0.00     0.040 A 
ATOM     83  C   UNL     1      -7.415  -6.516  19.747  1.00  0.00     0.040 A 
ATOM     84  F   UNL     1      -6.672  -8.494  18.726  1.00  0.00    -0.206 F 
ATOM     85  C   UNL     1      -7.209  -5.462  20.636  1.00  0.00     0.006 A 
ENDBRANCH  57  78
BRANCH  69  86
ATOM     86  C   UNL     1      -2.476 -12.182  24.556  1.00  0.00     0.057 A 
ATOM     87  C   UNL     1      -3.658 -12.783  25.009  1.00  0.00     0.134 A 
ATOM     88  C   UNL     1      -1.494 -11.890  25.513  1.00  0.00     0.134 A 
ATOM     89  F   UNL     1      -4.643 -13.080  24.149  1.00  0.00    -0.206 F 
ATOM     90  C   UNL     1      -3.869 -13.047  26.364  1.00  0.00     0.040 A 
ATOM     91  C   UNL     1      -1.681 -12.180  26.865  1.00  0.00     0.040 A 
ATOM     92  F   UNL     1      -0.333 -11.326  25.149  1.00  0.00    -0.206 F 
ATOM     93  C   UNL     1      -2.876 -12.750  27.296  1.00  0.00     0.006 A 
ENDBRANCH  69  86
ENDBRANCH  43  44
ENDBRANCH  36  38
ENDBRANCH  35  36
ENDBRANCH  34  35
ENDBRANCH  33  34
ENDBRANCH  32  33
ENDBRANCH   1  32
TORSDOF 17
