REMARK SMILES Cc1ccc(C)c(N2C(=O)S[C@H](CC(=O)Nc3ccc(C(=O)OCCOCCOC(=O)c4ccc(-c5c6nc(c(-c7c(F)cccc7F)c7ccc([nH]7)c(-c7c(F)cccc7F)c7nc(c(-c8c(F)cccc8F)c8ccc5[nH]8)C=C7)C=C6)cc4)c(O)c3)C2=O)c1
REMARK SMILES IDX 25 1 24 2 23 3 21 4 22 5 20 6 17 7 18 8 88 9 19 10 86 11
REMARK SMILES IDX 16 12 14 13 15 14 13 16 12 17 8 18 9 19 89 20 10 21 11 22
REMARK SMILES IDX 90 23 7 24 1 25 2 26 3 27 91 28 4 29 5 30 6 31 87 32 26 34
REMARK SMILES IDX 27 35 28 36 29 37 30 38 31 39 32 40 33 41 85 42 34 43 84 44
REMARK SMILES IDX 35 45 36 46 37 47 78 48 38 49 83 50 77 51 79 52 39 53 82 54
REMARK SMILES IDX 76 55 75 56 40 58 66 59 49 60 65 61 50 62 53 63 64 64 80 65
REMARK SMILES IDX 51 66 52 67 63 69 81 70 54 71 41 72 42 73 47 74 43 75 44 76
REMARK SMILES IDX 46 77 48 78 45 79 67 80 68 81 73 82 69 83 70 84 72 85 74 86
REMARK SMILES IDX 71 87 55 88 56 89 61 90 57 91 58 92 60 93 62 94 59 95
REMARK H PARENT 16 15 87 33 79 57 53 68
REMARK Flexibility Score: inf
ROOT
ATOM      1  C   UNL     1       3.634   6.375  -2.788  1.00  0.00     0.202 C 
ENDROOT
BRANCH   1   2
ATOM      2  C   UNL     1       2.919   7.344  -3.747  1.00  0.00     0.261 C 
BRANCH   2   3
ATOM      3  O   UNL     1       1.843   7.942  -2.992  1.00  0.00    -0.460 OA
BRANCH   3   4
ATOM      4  C   UNL     1       0.844   7.050  -2.853  1.00  0.00     0.341 C 
ATOM      5  O   UNL     1       0.660   6.111  -3.614  1.00  0.00    -0.246 OA
BRANCH   4   6
ATOM      6  C   UNL     1       0.033   7.214  -1.647  1.00  0.00     0.101 A 
ATOM      7  C   UNL     1      -1.829   7.383   0.428  1.00  0.00     0.044 A 
ATOM      8  C   UNL     1      -1.819   6.332  -0.460  1.00  0.00     0.027 A 
ATOM      9  C   UNL     1      -0.950   8.441   0.206  1.00  0.00     0.073 A 
ATOM     10  C   UNL     1      -0.809   6.150  -1.365  1.00  0.00     0.022 A 
ATOM     11  C   UNL     1      -0.033   8.361  -0.859  1.00  0.00     0.132 A 
BRANCH   7  12
ATOM     12  N   UNL     1      -2.777   7.318   1.464  1.00  0.00    -0.326 N 
ATOM     13  C   UNL     1      -3.357   6.144   1.946  1.00  0.00     0.226 C 
ATOM     14  O   UNL     1      -4.467   6.175   2.478  1.00  0.00    -0.275 OA
ATOM     15  H   UNL     1      -3.052   8.166   1.881  1.00  0.00     0.169 HD
BRANCH  13  16
ATOM     16  C   UNL     1      -2.495   4.857   1.984  1.00  0.00     0.125 C 
BRANCH  16  17
ATOM     17  C   UNL     1      -3.094   3.530   1.478  1.00  0.00     0.156 C 
ATOM     18  N   UNL     1      -1.406   1.992   0.691  1.00  0.00    -0.240 N 
ATOM     19  C   UNL     1      -1.765   2.531  -0.509  1.00  0.00     0.293 C 
ATOM     20  C   UNL     1      -2.143   2.375   1.806  1.00  0.00     0.248 C 
ATOM     21  O   UNL     1      -1.202   2.446  -1.586  1.00  0.00    -0.261 OA
ATOM     22  S   UNL     1      -3.299   3.294  -0.311  1.00  0.00    -0.050 SA
ATOM     23  O   UNL     1      -2.069   1.884   2.927  1.00  0.00    -0.273 OA
BRANCH  18  24
ATOM     24  C   UNL     1      -0.652   0.803   0.634  1.00  0.00     0.056 A 
ATOM     25  C   UNL     1       2.998  -0.158   0.093  1.00  0.00     0.044 C 
ATOM     26  C   UNL     1       1.509  -0.239   0.244  1.00  0.00    -0.049 A 
ATOM     27  C   UNL     1       0.865  -1.470   0.077  1.00  0.00     0.004 A 
ATOM     28  C   UNL     1       0.744   0.895   0.538  1.00  0.00     0.030 A 
ATOM     29  C   UNL     1      -0.525  -1.560   0.145  1.00  0.00     0.006 A 
ATOM     30  C   UNL     1      -1.305  -0.423   0.387  1.00  0.00    -0.027 A 
ATOM     31  C   UNL     1      -2.801  -0.576   0.295  1.00  0.00     0.046 C 
ENDBRANCH  18  24
ENDBRANCH  16  17
ENDBRANCH  13  16
ENDBRANCH   7  12
BRANCH  11  32
ATOM     32  O   UNL     1       0.777   9.438  -1.084  1.00  0.00    -0.507 OA
ATOM     33  H   UNL     1       1.399   9.419  -1.785  1.00  0.00     0.293 HD
ENDBRANCH  11  32
ENDBRANCH   4   6
ENDBRANCH   3   4
ENDBRANCH   2   3
ENDBRANCH   1   2
BRANCH   1  34
ATOM     34  O   UNL     1       2.819   5.219  -2.658  1.00  0.00    -0.374 OA
BRANCH  34  35
ATOM     35  C   UNL     1       2.868   4.455  -1.474  1.00  0.00     0.202 C 
BRANCH  35  36
ATOM     36  C   UNL     1       4.202   3.735  -1.305  1.00  0.00     0.261 C 
BRANCH  36  37
ATOM     37  O   UNL     1       4.535   2.782  -2.352  1.00  0.00    -0.460 OA
BRANCH  37  38
ATOM     38  C   UNL     1       4.658   3.248  -3.632  1.00  0.00     0.338 C 
ATOM     39  O   UNL     1       5.672   3.757  -4.079  1.00  0.00    -0.246 OA
BRANCH  38  40
ATOM     40  C   UNL     1       3.357   3.132  -4.364  1.00  0.00     0.060 A 
ATOM     41  C   UNL     1       3.046   4.012  -5.410  1.00  0.00     0.016 A 
ATOM     42  C   UNL     1       2.338   2.396  -3.767  1.00  0.00     0.016 A 
ATOM     43  C   UNL     1       1.693   4.300  -5.699  1.00  0.00     0.010 A 
ATOM     44  C   UNL     1       1.019   2.790  -3.962  1.00  0.00     0.010 A 
ATOM     45  C   UNL     1       0.659   3.784  -4.889  1.00  0.00    -0.014 A 
BRANCH  45  46
ATOM     46  C   UNL     1      -0.802   3.822  -5.243  1.00  0.00     0.031 A 
ATOM     47  C   UNL     1      -0.933   2.810  -6.305  1.00  0.00     0.074 A 
ATOM     48  C   UNL     1      -1.912   4.502  -4.807  1.00  0.00     0.049 A 
ATOM     49  N   UNL     1      -0.940   3.130  -7.559  1.00  0.00    -0.248 NA
ATOM     50  C   UNL     1      -0.650   1.386  -6.057  1.00  0.00     0.031 C 
ATOM     51  C   UNL     1      -2.010   5.716  -4.020  1.00  0.00     0.029 A 
ATOM     52  N   UNL     1      -3.278   4.223  -4.952  1.00  0.00    -0.354 N 
ATOM     53  C   UNL     1      -1.053   1.919  -8.204  1.00  0.00     0.074 A 
ATOM     54  C   UNL     1      -0.520   0.933  -7.307  1.00  0.00     0.031 C 
ATOM     55  C   UNL     1      -3.224   5.887  -3.452  1.00  0.00     0.029 A 
ATOM     56  C   UNL     1      -4.119   4.894  -4.005  1.00  0.00     0.049 A 
ATOM     57  H   UNL     1      -3.630   3.618  -5.645  1.00  0.00     0.167 HD
ATOM     58  C   UNL     1      -2.046   1.797  -9.121  1.00  0.00     0.037 A 
ATOM     59  C   UNL     1      -5.482   5.040  -3.936  1.00  0.00     0.037 A 
ATOM     60  C   UNL     1      -2.499   3.099  -9.562  1.00  0.00     0.049 A 
ATOM     61  C   UNL     1      -5.963   4.916  -5.313  1.00  0.00     0.074 A 
ATOM     62  C   UNL     1      -1.957   4.143 -10.284  1.00  0.00     0.029 A 
ATOM     63  N   UNL     1      -3.508   3.626  -8.796  1.00  0.00    -0.354 N 
ATOM     64  N   UNL     1      -5.836   5.879  -6.178  1.00  0.00    -0.248 NA
ATOM     65  C   UNL     1      -6.196   3.586  -5.854  1.00  0.00     0.031 C 
ATOM     66  C   UNL     1      -2.647   5.324  -9.883  1.00  0.00     0.029 A 
ATOM     67  C   UNL     1      -3.647   4.976  -8.982  1.00  0.00     0.049 A 
ATOM     68  H   UNL     1      -4.067   3.096  -8.184  1.00  0.00     0.167 HD
ATOM     69  C   UNL     1      -5.462   5.212  -7.323  1.00  0.00     0.074 A 
ATOM     70  C   UNL     1      -5.877   3.825  -7.128  1.00  0.00     0.031 C 
ATOM     71  C   UNL     1      -4.530   5.757  -8.153  1.00  0.00     0.037 A 
BRANCH  58  72
ATOM     72  C   UNL     1      -2.942   0.586  -9.172  1.00  0.00     0.057 A 
ATOM     73  C   UNL     1      -3.757   0.405 -10.294  1.00  0.00     0.134 A 
ATOM     74  C   UNL     1      -3.232  -0.263  -8.078  1.00  0.00     0.134 A 
ATOM     75  F   UNL     1      -3.617   1.189 -11.373  1.00  0.00    -0.206 F 
ATOM     76  C   UNL     1      -4.789  -0.541 -10.319  1.00  0.00     0.040 A 
ATOM     77  C   UNL     1      -4.215  -1.248  -8.113  1.00  0.00     0.040 A 
ATOM     78  F   UNL     1      -2.666  -0.125  -6.875  1.00  0.00    -0.206 F 
ATOM     79  C   UNL     1      -5.014  -1.377  -9.231  1.00  0.00     0.006 A 
ENDBRANCH  58  72
BRANCH  59  80
ATOM     80  C   UNL     1      -6.458   5.136  -2.798  1.00  0.00     0.057 A 
ATOM     81  C   UNL     1      -7.849   5.167  -2.993  1.00  0.00     0.134 A 
ATOM     82  C   UNL     1      -6.079   4.889  -1.484  1.00  0.00     0.134 A 
ATOM     83  F   UNL     1      -8.364   5.557  -4.167  1.00  0.00    -0.206 F 
ATOM     84  C   UNL     1      -8.765   4.772  -2.000  1.00  0.00     0.040 A 
ATOM     85  C   UNL     1      -6.954   4.382  -0.508  1.00  0.00     0.040 A 
ATOM     86  F   UNL     1      -4.853   5.235  -1.096  1.00  0.00    -0.206 F 
ATOM     87  C   UNL     1      -8.310   4.290  -0.779  1.00  0.00     0.006 A 
ENDBRANCH  59  80
BRANCH  71  88
ATOM     88  C   UNL     1      -4.372   7.247  -8.127  1.00  0.00     0.057 A 
ATOM     89  C   UNL     1      -3.803   7.987  -7.083  1.00  0.00     0.134 A 
ATOM     90  C   UNL     1      -4.771   7.959  -9.262  1.00  0.00     0.134 A 
ATOM     91  F   UNL     1      -3.351   7.390  -5.975  1.00  0.00    -0.206 F 
ATOM     92  C   UNL     1      -3.651   9.377  -7.162  1.00  0.00     0.040 A 
ATOM     93  C   UNL     1      -4.603   9.339  -9.366  1.00  0.00     0.040 A 
ATOM     94  F   UNL     1      -5.307   7.311 -10.308  1.00  0.00    -0.206 F 
ATOM     95  C   UNL     1      -4.046  10.056  -8.312  1.00  0.00     0.006 A 
ENDBRANCH  71  88
ENDBRANCH  45  46
ENDBRANCH  38  40
ENDBRANCH  37  38
ENDBRANCH  36  37
ENDBRANCH  35  36
ENDBRANCH  34  35
ENDBRANCH   1  34
TORSDOF 19
