REMARK SMILES O=C(CCC(=O)N1N=C(c2ccc(F)cc2)C[C@@H]1c1ccc2nccnc2c1)OCCOCCOC(=O)c1ccc(-c2c3nc(c(-c4c(F)cccc4F)c4ccc([nH]4)c(-c4c(F)cccc4F)c4nc(c(-c5c(F)cccc5F)c5ccc2[nH]5)C=C4)C=C3)cc1
REMARK SMILES IDX 31 1 30 2 29 3 2 4 1 5 3 6 4 7 5 8 6 9 7 10 8 11 18 12 9 13
REMARK SMILES IDX 17 14 19 15 20 16 28 17 21 18 27 19 22 20 26 21 23 22 25 23
REMARK SMILES IDX 24 24 10 25 11 26 16 27 12 28 15 29 13 30 14 31 32 32 33 33
REMARK SMILES IDX 34 34 35 35 36 36 37 37 38 38 39 39 91 40 40 41 90 42 41 43
REMARK SMILES IDX 42 44 43 45 84 46 44 47 89 48 83 49 85 50 45 51 88 52 82 53
REMARK SMILES IDX 81 54 46 56 72 57 55 58 71 59 56 60 59 61 70 62 86 63 57 64
REMARK SMILES IDX 58 65 69 67 87 68 60 69 47 70 48 71 53 72 49 73 50 74 52 75
REMARK SMILES IDX 54 76 51 77 73 78 74 79 79 80 75 81 76 82 78 83 80 84 77 85
REMARK SMILES IDX 61 86 62 87 67 88 63 89 64 90 66 91 68 92 65 93
REMARK H PARENT 85 55 59 66
REMARK Flexibility Score: inf
ROOT
ATOM      1  C   UNL     1       5.618  -1.962  -1.454  1.00  0.00     0.202 C 
ENDROOT
BRANCH   1   2
ATOM      2  C   UNL     1       5.070  -0.530  -1.452  1.00  0.00     0.261 C 
BRANCH   2   3
ATOM      3  O   UNL     1       3.768  -0.474  -0.834  1.00  0.00    -0.463 OA
BRANCH   3   4
ATOM      4  C   UNL     1       2.627   0.026  -1.332  1.00  0.00     0.306 C 
ATOM      5  O   UNL     1       1.535  -0.220  -0.831  1.00  0.00    -0.252 OA
BRANCH   4   6
ATOM      6  C   UNL     1       2.770   1.042  -2.383  1.00  0.00     0.132 C 
BRANCH   6   7
ATOM      7  C   UNL     1       3.133   2.337  -1.697  1.00  0.00     0.114 C 
BRANCH   7   8
ATOM      8  C   UNL     1       4.308   2.324  -0.716  1.00  0.00     0.243 C 
ATOM      9  O   UNL     1       5.381   2.740  -1.190  1.00  0.00    -0.273 OA
BRANCH   8  10
ATOM     10  N   UNL     1       4.203   2.011   0.645  1.00  0.00    -0.225 N 
ATOM     11  N   UNL     1       4.964   2.895   1.380  1.00  0.00    -0.174 NA
ATOM     12  C   UNL     1       3.224   1.295   1.569  1.00  0.00     0.147 C 
ATOM     13  C   UNL     1       4.403   3.063   2.527  1.00  0.00     0.071 C 
ATOM     14  C   UNL     1       3.221   2.196   2.826  1.00  0.00     0.091 C 
BRANCH  12  15
ATOM     15  C   UNL     1       3.462  -0.210   1.996  1.00  0.00    -0.021 A 
ATOM     16  C   UNL     1       2.030  -1.036   2.728  1.00  0.00     0.008 A 
ATOM     17  C   UNL     1       4.923  -1.228   1.619  1.00  0.00     0.036 A 
ATOM     18  C   UNL     1       2.014  -2.831   2.979  1.00  0.00     0.031 A 
ATOM     19  C   UNL     1       4.941  -3.061   1.856  1.00  0.00     0.089 A 
ATOM     20  C   UNL     1       3.433  -3.887   2.503  1.00  0.00     0.089 A 
ATOM     21  N   UNL     1       5.991  -3.852   1.609  1.00  0.00    -0.253 NA
ATOM     22  N   UNL     1       3.427  -5.221   2.625  1.00  0.00    -0.253 NA
ATOM     23  C   UNL     1       5.775  -5.182   1.826  1.00  0.00     0.132 A 
ATOM     24  C   UNL     1       4.600  -5.811   2.293  1.00  0.00     0.132 A 
ENDBRANCH  12  15
BRANCH  13  25
ATOM     25  C   UNL     1       4.906   4.116   3.413  1.00  0.00    -0.002 A 
ATOM     26  C   UNL     1       5.951   3.795   4.274  1.00  0.00     0.013 A 
ATOM     27  C   UNL     1       4.582   5.455   3.150  1.00  0.00     0.013 A 
ATOM     28  C   UNL     1       6.670   4.819   4.891  1.00  0.00     0.040 A 
ATOM     29  C   UNL     1       5.296   6.475   3.785  1.00  0.00     0.040 A 
ATOM     30  C   UNL     1       6.334   6.146   4.651  1.00  0.00     0.123 A 
ATOM     31  F   UNL     1       7.045   7.120   5.233  1.00  0.00    -0.207 F 
ENDBRANCH  13  25
ENDBRANCH   8  10
ENDBRANCH   7   8
ENDBRANCH   6   7
ENDBRANCH   4   6
ENDBRANCH   3   4
ENDBRANCH   2   3
ENDBRANCH   1   2
BRANCH   1  32
ATOM     32  O   UNL     1       4.876  -2.998  -0.825  1.00  0.00    -0.374 OA
BRANCH  32  33
ATOM     33  C   UNL     1       3.472  -3.041  -0.944  1.00  0.00     0.202 C 
BRANCH  33  34
ATOM     34  C   UNL     1       2.647  -2.924   0.377  1.00  0.00     0.261 C 
BRANCH  34  35
ATOM     35  O   UNL     1       3.283  -2.113   1.750  1.00  0.00    -0.460 OA
BRANCH  35  36
ATOM     36  C   UNL     1       3.971  -1.994   3.493  1.00  0.00     0.338 C 
ATOM     37  O   UNL     1       4.295  -2.969   4.228  1.00  0.00    -0.246 OA
BRANCH  36  38
ATOM     38  C   UNL     1       4.348  -0.832   4.396  1.00  0.00     0.060 A 
ATOM     39  C   UNL     1       5.672  -0.359   4.334  1.00  0.00     0.016 A 
ATOM     40  C   UNL     1       3.699  -0.884   5.653  1.00  0.00     0.016 A 
ATOM     41  C   UNL     1       6.364  -0.057   5.496  1.00  0.00     0.010 A 
ATOM     42  C   UNL     1       4.400  -0.596   6.819  1.00  0.00     0.010 A 
ATOM     43  C   UNL     1       5.744  -0.225   6.737  1.00  0.00    -0.014 A 
BRANCH  43  44
ATOM     44  C   UNL     1       6.500   0.079   7.956  1.00  0.00     0.031 A 
ATOM     45  C   UNL     1       7.100  -1.001   8.788  1.00  0.00     0.074 A 
ATOM     46  C   UNL     1       6.601   1.377   8.272  1.00  0.00     0.049 A 
ATOM     47  N   UNL     1       7.731  -0.886   9.925  1.00  0.00    -0.248 NA
ATOM     48  C   UNL     1       6.935  -2.385   8.318  1.00  0.00     0.031 C 
ATOM     49  C   UNL     1       5.966   2.447   7.507  1.00  0.00     0.029 A 
ATOM     50  N   UNL     1       7.261   2.022   9.274  1.00  0.00    -0.354 N 
ATOM     51  C   UNL     1       7.988  -2.183  10.345  1.00  0.00     0.074 A 
ATOM     52  C   UNL     1       7.461  -3.070   9.327  1.00  0.00     0.031 C 
ATOM     53  C   UNL     1       6.331   3.625   8.022  1.00  0.00     0.029 A 
ATOM     54  C   UNL     1       7.181   3.388   9.175  1.00  0.00     0.049 A 
ATOM     55  H   UNL     1       7.744   1.556   9.993  1.00  0.00     0.167 HD
ATOM     56  C   UNL     1       8.582  -2.568  11.499  1.00  0.00     0.037 A 
ATOM     57  C   UNL     1       7.736   4.341   9.939  1.00  0.00     0.037 A 
ATOM     58  C   UNL     1       9.077  -1.628  12.477  1.00  0.00     0.049 A 
ATOM     59  C   UNL     1       8.486   3.885  11.149  1.00  0.00     0.074 A 
ATOM     60  C   UNL     1       9.681  -1.879  13.695  1.00  0.00     0.029 A 
ATOM     61  N   UNL     1       9.025  -0.244  12.336  1.00  0.00    -0.354 N 
ATOM     62  N   UNL     1       8.697   2.656  11.562  1.00  0.00    -0.248 NA
ATOM     63  C   UNL     1       9.031   4.925  12.022  1.00  0.00     0.031 C 
ATOM     64  C   UNL     1       9.963  -0.650  14.303  1.00  0.00     0.029 A 
ATOM     65  C   UNL     1       9.586   0.372  13.442  1.00  0.00     0.049 A 
ATOM     66  H   UNL     1       8.645   0.229  11.561  1.00  0.00     0.167 HD
ATOM     67  C   UNL     1       9.369   2.770  12.764  1.00  0.00     0.074 A 
ATOM     68  C   UNL     1       9.580   4.192  12.982  1.00  0.00     0.031 C 
ATOM     69  C   UNL     1       9.750   1.795  13.626  1.00  0.00     0.037 A 
BRANCH  56  70
ATOM     70  C   UNL     1       8.675  -4.041  11.781  1.00  0.00     0.057 A 
ATOM     71  C   UNL     1       7.928  -4.620  12.817  1.00  0.00     0.134 A 
ATOM     72  C   UNL     1       9.511  -4.892  11.046  1.00  0.00     0.134 A 
ATOM     73  F   UNL     1       7.105  -3.869  13.566  1.00  0.00    -0.206 F 
ATOM     74  C   UNL     1       8.012  -5.983  13.113  1.00  0.00     0.040 A 
ATOM     75  C   UNL     1       9.583  -6.262  11.314  1.00  0.00     0.040 A 
ATOM     76  F   UNL     1      10.245  -4.412  10.031  1.00  0.00    -0.206 F 
ATOM     77  C   UNL     1       8.837  -6.810  12.355  1.00  0.00     0.006 A 
ENDBRANCH  56  70
BRANCH  57  78
ATOM     78  C   UNL     1       7.625   5.762   9.530  1.00  0.00     0.057 A 
ATOM     79  C   UNL     1       6.393   6.428   9.473  1.00  0.00     0.134 A 
ATOM     80  C   UNL     1       8.746   6.446   9.048  1.00  0.00     0.134 A 
ATOM     81  F   UNL     1       5.274   5.818   9.893  1.00  0.00    -0.206 F 
ATOM     82  C   UNL     1       6.272   7.698   8.908  1.00  0.00     0.040 A 
ATOM     83  C   UNL     1       8.645   7.731   8.511  1.00  0.00     0.040 A 
ATOM     84  F   UNL     1       9.954   5.865   9.076  1.00  0.00    -0.206 F 
ATOM     85  C   UNL     1       7.402   8.353   8.424  1.00  0.00     0.006 A 
ENDBRANCH  57  78
BRANCH  69  86
ATOM     86  C   UNL     1      10.414   2.256  14.886  1.00  0.00     0.057 A 
ATOM     87  C   UNL     1      11.785   2.062  15.081  1.00  0.00     0.134 A 
ATOM     88  C   UNL     1       9.684   2.864  15.915  1.00  0.00     0.134 A 
ATOM     89  F   UNL     1      12.533   1.480  14.132  1.00  0.00    -0.206 F 
ATOM     90  C   UNL     1      12.410   2.454  16.263  1.00  0.00     0.040 A 
ATOM     91  C   UNL     1      10.304   3.285  17.091  1.00  0.00     0.040 A 
ATOM     92  F   UNL     1       8.369   3.091  15.777  1.00  0.00    -0.206 F 
ATOM     93  C   UNL     1      11.670   3.073  17.270  1.00  0.00     0.006 A 
ENDBRANCH  69  86
ENDBRANCH  43  44
ENDBRANCH  36  38
ENDBRANCH  35  36
ENDBRANCH  34  35
ENDBRANCH  33  34
ENDBRANCH  32  33
ENDBRANCH   1  32
TORSDOF 19
