REMARK SMILES Cc1ccc(NC(=O)NC2(C(=O)OCCOCCOC(=O)c3ccc(-c4c5nc(c(-c6c(F)cccc6F)c6ccc([nH]6)c(-c6c(F)cccc6F)c6nc(c(-c7c(F)cccc7F)c7ccc4[nH]7)C=C6)C=C5)cc3)CC2)c(C)n1
REMARK SMILES IDX 16 1 15 2 14 3 13 4 11 5 12 6 10 7 76 8 77 9 9 10 6 11 7 12
REMARK SMILES IDX 8 14 5 16 1 17 2 18 3 19 80 20 4 21 78 22 79 23 17 24 18 25
REMARK SMILES IDX 19 26 20 27 21 28 22 29 23 30 75 31 24 32 74 33 25 34 26 35
REMARK SMILES IDX 27 36 68 37 28 38 73 39 67 40 69 41 29 42 72 43 66 44 65 45
REMARK SMILES IDX 30 47 56 48 39 49 55 50 40 51 43 52 54 53 70 54 41 55 42 56
REMARK SMILES IDX 53 58 71 59 44 60 31 61 32 62 37 63 33 64 34 65 36 66 38 67
REMARK SMILES IDX 35 68 57 69 58 70 63 71 59 72 60 73 62 74 64 75 61 76 45 77
REMARK SMILES IDX 46 78 51 79 47 80 48 81 50 82 52 83 49 84
REMARK H PARENT 6 13 9 15 69 46 43 57
REMARK Flexibility Score: inf
ROOT
ATOM      1  O   UNL     1       2.897  -0.758   3.866  1.00  0.00    -0.374 OA
ENDROOT
BRANCH   1   2
ATOM      2  C   UNL     1       2.208   0.489   4.005  1.00  0.00     0.202 C 
BRANCH   2   3
ATOM      3  C   UNL     1       2.990   1.710   3.480  1.00  0.00     0.261 C 
BRANCH   3   4
ATOM      4  O   UNL     1       2.780   1.906   2.064  1.00  0.00    -0.461 OA
BRANCH   4   5
ATOM      5  C   UNL     1       3.823   1.706   1.228  1.00  0.00     0.331 C 
ATOM      6  O   UNL     1       4.992   1.576   1.576  1.00  0.00    -0.249 OA
BRANCH   5   7
ATOM      7  C   UNL     1       3.434   1.483  -0.242  1.00  0.00     0.139 C 
ATOM      8  C   UNL     1       3.998   2.656  -1.080  1.00  0.00     0.043 C 
ATOM      9  C   UNL     1       2.563   2.314  -1.169  1.00  0.00     0.043 C 
BRANCH   7  10
ATOM     10  N   UNL     1       3.744   0.153  -0.681  1.00  0.00    -0.322 N 
ATOM     11  N   UNL     1       1.789  -1.275  -0.797  1.00  0.00    -0.306 N 
ATOM     12  C   UNL     1       3.092  -0.998  -0.797  1.00  0.00     0.320 C 
ATOM     13  H   UNL     1       1.703  -2.253  -0.870  1.00  0.00     0.171 HD
ATOM     14  O   UNL     1       3.818  -1.994  -0.955  1.00  0.00    -0.248 OA
ATOM     15  H   UNL     1       4.681   0.073  -0.972  1.00  0.00     0.166 HD
BRANCH  11  16
ATOM     16  C   UNL     1       0.477  -0.750  -0.736  1.00  0.00     0.064 A 
ATOM     17  C   UNL     1      -3.631   0.436  -0.570  1.00  0.00     0.067 C 
ATOM     18  C   UNL     1      -2.226  -0.026  -0.770  1.00  0.00     0.038 A 
ATOM     19  C   UNL     1      -1.886  -1.342  -1.011  1.00  0.00     0.025 A 
ATOM     20  N   UNL     1      -1.293   0.901  -0.526  1.00  0.00    -0.256 NA
ATOM     21  C   UNL     1      -0.529  -1.681  -1.050  1.00  0.00     0.030 A 
ATOM     22  C   UNL     1      -0.014   0.487  -0.330  1.00  0.00     0.061 A 
ATOM     23  C   UNL     1       0.487   1.164   0.892  1.00  0.00     0.069 C 
ENDBRANCH  11  16
ENDBRANCH   7  10
ENDBRANCH   5   7
ENDBRANCH   4   5
ENDBRANCH   3   4
ENDBRANCH   2   3
ENDBRANCH   1   2
BRANCH   1  24
ATOM     24  C   UNL     1       2.727  -1.434   2.620  1.00  0.00     0.202 C 
BRANCH  24  25
ATOM     25  C   UNL     1       1.504  -2.360   2.566  1.00  0.00     0.261 C 
BRANCH  25  26
ATOM     26  O   UNL     1       0.276  -1.629   2.748  1.00  0.00    -0.460 OA
BRANCH  26  27
ATOM     27  C   UNL     1      -0.490  -2.067   3.773  1.00  0.00     0.338 C 
ATOM     28  O   UNL     1      -0.313  -3.060   4.460  1.00  0.00    -0.246 OA
BRANCH  27  29
ATOM     29  C   UNL     1      -1.560  -1.104   4.080  1.00  0.00     0.060 A 
ATOM     30  C   UNL     1      -1.548  -0.532   5.355  1.00  0.00     0.016 A 
ATOM     31  C   UNL     1      -2.640  -0.896   3.218  1.00  0.00     0.016 A 
ATOM     32  C   UNL     1      -2.651   0.193   5.800  1.00  0.00     0.010 A 
ATOM     33  C   UNL     1      -3.742  -0.151   3.665  1.00  0.00     0.010 A 
ATOM     34  C   UNL     1      -3.774   0.360   4.975  1.00  0.00    -0.014 A 
BRANCH  34  35
ATOM     35  C   UNL     1      -5.001   0.981   5.546  1.00  0.00     0.031 A 
ATOM     36  C   UNL     1      -6.193   0.124   5.889  1.00  0.00     0.074 A 
ATOM     37  C   UNL     1      -5.022   2.295   5.838  1.00  0.00     0.049 A 
ATOM     38  N   UNL     1      -7.327   0.466   6.450  1.00  0.00    -0.248 NA
ATOM     39  C   UNL     1      -6.095  -1.306   5.559  1.00  0.00     0.031 C 
ATOM     40  C   UNL     1      -3.928   3.231   5.584  1.00  0.00     0.029 A 
ATOM     41  N   UNL     1      -5.995   3.067   6.425  1.00  0.00    -0.354 N 
ATOM     42  C   UNL     1      -8.075  -0.703   6.540  1.00  0.00     0.074 A 
ATOM     43  C   UNL     1      -7.284  -1.754   5.938  1.00  0.00     0.031 C 
ATOM     44  C   UNL     1      -4.282   4.448   6.029  1.00  0.00     0.029 A 
ATOM     45  C   UNL     1      -5.640   4.386   6.566  1.00  0.00     0.049 A 
ATOM     46  H   UNL     1      -6.864   2.708   6.716  1.00  0.00     0.167 HD
ATOM     47  C   UNL     1      -9.302  -0.888   7.088  1.00  0.00     0.037 A 
ATOM     48  C   UNL     1      -6.331   5.430   7.064  1.00  0.00     0.037 A 
ATOM     49  C   UNL     1     -10.090   0.155   7.694  1.00  0.00     0.049 A 
ATOM     50  C   UNL     1      -7.717   5.210   7.607  1.00  0.00     0.074 A 
ATOM     51  C   UNL     1     -11.334   0.058   8.295  1.00  0.00     0.029 A 
ATOM     52  N   UNL     1      -9.715   1.488   7.771  1.00  0.00    -0.354 N 
ATOM     53  N   UNL     1      -8.398   4.095   7.714  1.00  0.00    -0.248 NA
ATOM     54  C   UNL     1      -8.429   6.396   8.105  1.00  0.00     0.031 C 
ATOM     55  C   UNL     1     -11.735   1.340   8.685  1.00  0.00     0.029 A 
ATOM     56  C   UNL     1     -10.716   2.228   8.382  1.00  0.00     0.049 A 
ATOM     57  H   UNL     1      -8.863   1.855   7.441  1.00  0.00     0.167 HD
ATOM     58  C   UNL     1      -9.604   4.439   8.314  1.00  0.00     0.074 A 
ATOM     59  C   UNL     1      -9.553   5.865   8.565  1.00  0.00     0.031 C 
ATOM     60  C   UNL     1     -10.658   3.646   8.628  1.00  0.00     0.037 A 
BRANCH  47  61
ATOM     61  C   UNL     1      -9.882  -2.274   7.041  1.00  0.00     0.057 A 
ATOM     62  C   UNL     1      -9.374  -3.319   7.825  1.00  0.00     0.134 A 
ATOM     63  C   UNL     1     -10.993  -2.556   6.235  1.00  0.00     0.134 A 
ATOM     64  F   UNL     1      -8.307  -3.120   8.613  1.00  0.00    -0.206 F 
ATOM     65  C   UNL     1      -9.934  -4.598   7.790  1.00  0.00     0.040 A 
ATOM     66  C   UNL     1     -11.579  -3.824   6.213  1.00  0.00     0.040 A 
ATOM     67  F   UNL     1     -11.537  -1.601   5.466  1.00  0.00    -0.206 F 
ATOM     68  C   UNL     1     -11.044  -4.851   6.987  1.00  0.00     0.006 A 
ENDBRANCH  47  61
BRANCH  48  69
ATOM     69  C   UNL     1      -5.727   6.787   7.067  1.00  0.00     0.057 A 
ATOM     70  C   UNL     1      -5.388   7.432   8.262  1.00  0.00     0.134 A 
ATOM     71  C   UNL     1      -5.493   7.480   5.872  1.00  0.00     0.134 A 
ATOM     72  F   UNL     1      -5.610   6.830   9.440  1.00  0.00    -0.206 F 
ATOM     73  C   UNL     1      -4.856   8.723   8.271  1.00  0.00     0.040 A 
ATOM     74  C   UNL     1      -4.935   8.759   5.865  1.00  0.00     0.040 A 
ATOM     75  F   UNL     1      -5.795   6.918   4.693  1.00  0.00    -0.206 F 
ATOM     76  C   UNL     1      -4.623   9.387   7.069  1.00  0.00     0.006 A 
ENDBRANCH  48  69
BRANCH  60  77
ATOM     77  C   UNL     1     -11.830   4.296   9.308  1.00  0.00     0.057 A 
ATOM     78  C   UNL     1     -12.685   5.177   8.633  1.00  0.00     0.134 A 
ATOM     79  C   UNL     1     -12.122   4.016  10.650  1.00  0.00     0.134 A 
ATOM     80  F   UNL     1     -12.457   5.498   7.351  1.00  0.00    -0.206 F 
ATOM     81  C   UNL     1     -13.769   5.779   9.276  1.00  0.00     0.040 A 
ATOM     82  C   UNL     1     -13.220   4.588  11.295  1.00  0.00     0.040 A 
ATOM     83  F   UNL     1     -11.351   3.174  11.354  1.00  0.00    -0.206 F 
ATOM     84  C   UNL     1     -14.042   5.480  10.609  1.00  0.00     0.006 A 
ENDBRANCH  60  77
ENDBRANCH  34  35
ENDBRANCH  27  29
ENDBRANCH  26  27
ENDBRANCH  25  26
ENDBRANCH  24  25
ENDBRANCH   1  24
TORSDOF 16
