REMARK SMILES Cc1ccc(Cl)c(NC(=O)C[N@@H+]2CCC[C@H]2C(=O)OCCOCCOC(=O)c2ccc(-c3c4nc(c(-c5c(F)cccc5F)c5ccc([nH]5)c(-c5c(F)cccc5F)c5nc(c(-c6c(F)cccc6F)c6ccc3[nH]6)C=C5)C=C4)cc2)c1Cl
REMARK SMILES IDX 21 1 20 2 19 3 17 4 18 5 16 6 12 7 13 8 14 10 15 11 11 12
REMARK SMILES IDX 9 13 8 14 10 16 7 17 1 18 2 19 3 20 82 21 4 22 83 23 5 24
REMARK SMILES IDX 6 25 22 26 23 27 24 28 25 29 26 30 27 31 28 32 29 33 81 34
REMARK SMILES IDX 30 35 80 36 31 37 32 38 33 39 74 40 34 41 79 42 73 43 75 44
REMARK SMILES IDX 35 45 78 46 72 47 71 48 36 50 62 51 45 52 61 53 46 54 49 55
REMARK SMILES IDX 60 56 76 57 47 58 48 59 59 61 77 62 50 63 37 64 38 65 43 66
REMARK SMILES IDX 39 67 40 68 42 69 44 70 41 71 63 72 64 73 69 74 65 75 66 76
REMARK SMILES IDX 68 77 70 78 67 79 51 80 52 81 57 82 53 83 54 84 56 85 58 86
REMARK SMILES IDX 55 87
REMARK H PARENT 12 9 8 15 75 49 49 60
REMARK Flexibility Score: inf
ROOT
ATOM      1  C   UNL     1      -0.684   1.289  -4.825  1.00  0.00     0.202 C 
ENDROOT
BRANCH   1   2
ATOM      2  C   UNL     1      -0.024  -0.094  -4.802  1.00  0.00     0.261 C 
BRANCH   2   3
ATOM      3  O   UNL     1       0.379  -0.474  -3.478  1.00  0.00    -0.459 OA
BRANCH   3   4
ATOM      4  C   UNL     1       1.698  -0.805  -3.336  1.00  0.00     0.365 C 
ATOM      5  O   UNL     1       2.504  -0.883  -4.255  1.00  0.00    -0.245 OA
BRANCH   4   6
ATOM      6  C   UNL     1       2.054  -0.958  -1.842  1.00  0.00     0.295 C 
ATOM      7  N   UNL     1       2.448  -2.358  -1.559  1.00  0.00    -0.315 N 
ATOM      8  C   UNL     1       3.897  -2.382  -1.861  1.00  0.00     0.263 C 
ATOM      9  H   UNL     1       1.883  -3.006  -2.108  1.00  0.00     0.349 HD
ATOM     10  C   UNL     1       4.435  -1.051  -1.356  1.00  0.00     0.068 C 
ATOM     11  C   UNL     1       3.274  -0.082  -1.525  1.00  0.00     0.083 C 
BRANCH   7  12
ATOM     12  C   UNL     1       2.244  -2.758  -0.146  1.00  0.00     0.364 C 
BRANCH  12  13
ATOM     13  C   UNL     1       0.788  -2.955   0.251  1.00  0.00     0.279 C 
ATOM     14  N   UNL     1      -0.018  -2.049   0.863  1.00  0.00    -0.319 N 
ATOM     15  H   UNL     1      -0.885  -2.460   1.084  1.00  0.00     0.170 HD
ATOM     16  O   UNL     1       0.232  -4.031  -0.027  1.00  0.00    -0.268 OA
BRANCH  14  17
ATOM     17  C   UNL     1       0.003  -0.694   1.283  1.00  0.00     0.079 A 
ATOM     18  C   UNL     1       2.155   2.455   1.756  1.00  0.00     0.046 C 
ATOM     19  C   UNL     1       0.970   1.524   1.702  1.00  0.00    -0.030 A 
ATOM     20  C   UNL     1      -0.306   2.098   1.651  1.00  0.00     0.006 A 
ATOM     21  C   UNL     1       1.104   0.114   1.611  1.00  0.00     0.069 A 
ATOM     22  C   UNL     1      -1.429   1.293   1.529  1.00  0.00     0.023 A 
ATOM     23  Cl  UNL     1       2.549  -0.569   2.280  1.00  0.00    -0.082 Cl
ATOM     24  C   UNL     1      -1.272  -0.080   1.340  1.00  0.00     0.066 A 
ATOM     25  Cl  UNL     1      -2.719  -1.025   1.166  1.00  0.00    -0.082 Cl
ENDBRANCH  14  17
ENDBRANCH  12  13
ENDBRANCH   7  12
ENDBRANCH   4   6
ENDBRANCH   3   4
ENDBRANCH   2   3
ENDBRANCH   1   2
BRANCH   1  26
ATOM     26  O   UNL     1       0.123   2.388  -4.400  1.00  0.00    -0.374 OA
BRANCH  26  27
ATOM     27  C   UNL     1       0.436   2.484  -3.012  1.00  0.00     0.202 C 
BRANCH  27  28
ATOM     28  C   UNL     1      -0.724   2.833  -2.076  1.00  0.00     0.261 C 
BRANCH  28  29
ATOM     29  O   UNL     1      -1.781   1.860  -2.124  1.00  0.00    -0.460 OA
BRANCH  29  30
ATOM     30  C   UNL     1      -3.027   2.392  -2.079  1.00  0.00     0.338 C 
ATOM     31  O   UNL     1      -3.331   3.548  -1.848  1.00  0.00    -0.246 OA
BRANCH  30  32
ATOM     32  C   UNL     1      -4.028   1.362  -2.397  1.00  0.00     0.060 A 
ATOM     33  C   UNL     1      -4.471   1.211  -3.714  1.00  0.00     0.016 A 
ATOM     34  C   UNL     1      -4.637   0.656  -1.360  1.00  0.00     0.016 A 
ATOM     35  C   UNL     1      -5.547   0.363  -3.988  1.00  0.00     0.010 A 
ATOM     36  C   UNL     1      -5.692  -0.217  -1.640  1.00  0.00     0.010 A 
ATOM     37  C   UNL     1      -6.181  -0.339  -2.950  1.00  0.00    -0.014 A 
BRANCH  37  38
ATOM     38  C   UNL     1      -7.420  -1.111  -3.225  1.00  0.00     0.031 A 
ATOM     39  C   UNL     1      -8.756  -0.564  -2.798  1.00  0.00     0.074 A 
ATOM     40  C   UNL     1      -7.358  -2.289  -3.873  1.00  0.00     0.049 A 
ATOM     41  N   UNL     1      -9.955  -1.057  -2.987  1.00  0.00    -0.248 NA
ATOM     42  C   UNL     1      -8.740   0.702  -2.048  1.00  0.00     0.031 C 
ATOM     43  C   UNL     1      -6.129  -2.944  -4.315  1.00  0.00     0.029 A 
ATOM     44  N   UNL     1      -8.357  -3.143  -4.269  1.00  0.00    -0.354 N 
ATOM     45  C   UNL     1     -10.832  -0.166  -2.383  1.00  0.00     0.074 A 
ATOM     46  C   UNL     1     -10.026   0.875  -1.781  1.00  0.00     0.031 C 
ATOM     47  C   UNL     1      -6.446  -4.096  -4.931  1.00  0.00     0.029 A 
ATOM     48  C   UNL     1      -7.898  -4.264  -4.914  1.00  0.00     0.049 A 
ATOM     49  H   UNL     1      -9.312  -2.967  -4.106  1.00  0.00     0.167 HD
ATOM     50  C   UNL     1     -12.186  -0.197  -2.347  1.00  0.00     0.037 A 
ATOM     51  C   UNL     1      -8.571  -5.308  -5.434  1.00  0.00     0.037 A 
ATOM     52  C   UNL     1     -12.993  -1.226  -2.948  1.00  0.00     0.049 A 
ATOM     53  C   UNL     1     -10.074  -5.322  -5.386  1.00  0.00     0.074 A 
ATOM     54  C   UNL     1     -14.373  -1.326  -2.995  1.00  0.00     0.029 A 
ATOM     55  N   UNL     1     -12.490  -2.341  -3.601  1.00  0.00    -0.354 N 
ATOM     56  N   UNL     1     -10.893  -4.440  -4.867  1.00  0.00    -0.248 NA
ATOM     57  C   UNL     1     -10.746  -6.471  -6.010  1.00  0.00     0.031 C 
ATOM     58  C   UNL     1     -14.705  -2.519  -3.649  1.00  0.00     0.029 A 
ATOM     59  C   UNL     1     -13.531  -3.142  -4.042  1.00  0.00     0.049 A 
ATOM     60  H   UNL     1     -11.534  -2.534  -3.733  1.00  0.00     0.167 HD
ATOM     61  C   UNL     1     -12.174  -4.916  -5.116  1.00  0.00     0.074 A 
ATOM     62  C   UNL     1     -12.024  -6.156  -5.850  1.00  0.00     0.031 C 
ATOM     63  C   UNL     1     -13.367  -4.376  -4.766  1.00  0.00     0.037 A 
BRANCH  50  64
ATOM     64  C   UNL     1     -12.877   0.922  -1.624  1.00  0.00     0.057 A 
ATOM     65  C   UNL     1     -12.926   2.220  -2.151  1.00  0.00     0.134 A 
ATOM     66  C   UNL     1     -13.510   0.700  -0.395  1.00  0.00     0.134 A 
ATOM     67  F   UNL     1     -12.328   2.502  -3.318  1.00  0.00    -0.206 F 
ATOM     68  C   UNL     1     -13.552   3.263  -1.466  1.00  0.00     0.040 A 
ATOM     69  C   UNL     1     -14.160   1.730   0.288  1.00  0.00     0.040 A 
ATOM     70  F   UNL     1     -13.506  -0.520   0.163  1.00  0.00    -0.206 F 
ATOM     71  C   UNL     1     -14.176   3.018  -0.244  1.00  0.00     0.006 A 
ENDBRANCH  50  64
BRANCH  51  72
ATOM     72  C   UNL     1      -7.823  -6.421  -6.068  1.00  0.00     0.057 A 
ATOM     73  C   UNL     1      -7.822  -6.598  -7.456  1.00  0.00     0.134 A 
ATOM     74  C   UNL     1      -7.087  -7.330  -5.299  1.00  0.00     0.134 A 
ATOM     75  F   UNL     1      -8.527  -5.770  -8.242  1.00  0.00    -0.206 F 
ATOM     76  C   UNL     1      -7.125  -7.646  -8.058  1.00  0.00     0.040 A 
ATOM     77  C   UNL     1      -6.367  -8.370  -5.889  1.00  0.00     0.040 A 
ATOM     78  F   UNL     1      -7.048  -7.211  -3.964  1.00  0.00    -0.206 F 
ATOM     79  C   UNL     1      -6.389  -8.533  -7.273  1.00  0.00     0.006 A 
ENDBRANCH  51  72
BRANCH  63  80
ATOM     80  C   UNL     1     -14.602  -5.117  -5.188  1.00  0.00     0.057 A 
ATOM     81  C   UNL     1     -14.997  -6.307  -4.563  1.00  0.00     0.134 A 
ATOM     82  C   UNL     1     -15.418  -4.623  -6.213  1.00  0.00     0.134 A 
ATOM     83  F   UNL     1     -14.252  -6.839  -3.582  1.00  0.00    -0.206 F 
ATOM     84  C   UNL     1     -16.146  -6.992  -4.960  1.00  0.00     0.040 A 
ATOM     85  C   UNL     1     -16.581  -5.287  -6.604  1.00  0.00     0.040 A 
ATOM     86  F   UNL     1     -15.101  -3.484  -6.848  1.00  0.00    -0.206 F 
ATOM     87  C   UNL     1     -16.945  -6.479  -5.981  1.00  0.00     0.006 A 
ENDBRANCH  63  80
ENDBRANCH  37  38
ENDBRANCH  30  32
ENDBRANCH  29  30
ENDBRANCH  28  29
ENDBRANCH  27  28
ENDBRANCH  26  27
ENDBRANCH   1  26
TORSDOF 17
