REMARK SMILES COc1nc(Cl)nc(N(CC(=O)OCCOCCOC(=O)c2ccc(-c3c4nc(c(-c5c(F)cccc5F)c5ccc([nH]5)c(-c5c(F)cccc5F)c5nc(c(-c6c(F)cccc6F)c6ccc3[nH]6)C=C5)C=C4)cc2)C(C)(C)C)n1
REMARK SMILES IDX 15 1 14 2 13 3 11 4 12 5 10 6 9 7 8 8 3 9 4 10 80 11 5 12
REMARK SMILES IDX 6 13 7 14 2 15 1 16 76 17 77 18 78 19 79 20 16 21 17 22
REMARK SMILES IDX 18 23 19 24 20 25 21 26 22 27 23 28 75 29 24 30 74 31 25 32
REMARK SMILES IDX 26 33 27 34 68 35 28 36 73 37 67 38 69 39 29 40 72 41 66 42
REMARK SMILES IDX 65 43 30 45 56 46 39 47 55 48 40 49 43 50 54 51 70 52 41 53
REMARK SMILES IDX 42 54 53 56 71 57 44 58 31 59 32 60 37 61 33 62 34 63 36 64
REMARK SMILES IDX 38 65 35 66 57 67 58 68 63 69 59 70 60 71 62 72 64 73 61 74
REMARK SMILES IDX 45 75 46 76 51 77 47 78 48 79 50 80 52 81 49 82
REMARK H PARENT 69 44 43 55
REMARK Flexibility Score: inf
ROOT
ATOM      1  C   UNL     1      -1.078   4.639  -8.652  1.00  0.00     0.202 C 
ENDROOT
BRANCH   1   2
ATOM      2  C   UNL     1       0.025   5.101  -7.688  1.00  0.00     0.261 C 
BRANCH   2   3
ATOM      3  O   UNL     1      -0.209   4.747  -6.300  1.00  0.00    -0.462 OA
BRANCH   3   4
ATOM      4  C   UNL     1       0.015   5.752  -5.407  1.00  0.00     0.325 C 
ATOM      5  O   UNL     1       0.315   6.899  -5.739  1.00  0.00    -0.250 OA
BRANCH   4   6
ATOM      6  C   UNL     1      -0.145   5.408  -3.925  1.00  0.00     0.242 C 
BRANCH   6   7
ATOM      7  N   UNL     1      -0.568   4.040  -3.559  1.00  0.00    -0.325 N 
BRANCH   7   8
ATOM      8  C   UNL     1       0.460   3.171  -3.194  1.00  0.00     0.233 A 
ATOM      9  C   UNL     1       1.150   1.288  -2.135  1.00  0.00     0.322 A 
ATOM     10  N   UNL     1       2.428   1.604  -2.155  1.00  0.00    -0.164 NA
ATOM     11  N   UNL     1       0.156   1.999  -2.652  1.00  0.00    -0.158 NA
ATOM     12  C   UNL     1       2.625   2.746  -2.787  1.00  0.00     0.230 A 
ATOM     13  Cl  UNL     1       4.247   3.285  -2.859  1.00  0.00    -0.041 Cl
ATOM     14  N   UNL     1       1.720   3.566  -3.314  1.00  0.00    -0.182 NA
BRANCH   9  15
ATOM     15  O   UNL     1       0.778   0.104  -1.540  1.00  0.00    -0.467 OA
ATOM     16  C   UNL     1       1.152   0.119  -0.167  1.00  0.00     0.282 C 
ENDBRANCH   9  15
ENDBRANCH   7   8
BRANCH   7  17
ATOM     17  C   UNL     1      -1.992   3.704  -3.247  1.00  0.00     0.035 C 
ATOM     18  C   UNL     1      -2.424   2.459  -4.049  1.00  0.00     0.034 C 
ATOM     19  C   UNL     1      -2.210   3.483  -1.732  1.00  0.00     0.034 C 
ATOM     20  C   UNL     1      -2.964   4.849  -3.613  1.00  0.00     0.034 C 
ENDBRANCH   7  17
ENDBRANCH   6   7
ENDBRANCH   4   6
ENDBRANCH   3   4
ENDBRANCH   2   3
ENDBRANCH   1   2
BRANCH   1  21
ATOM     21  O   UNL     1      -2.331   5.325  -8.579  1.00  0.00    -0.374 OA
BRANCH  21  22
ATOM     22  C   UNL     1      -3.088   5.122  -7.391  1.00  0.00     0.202 C 
BRANCH  22  23
ATOM     23  C   UNL     1      -3.870   3.805  -7.314  1.00  0.00     0.261 C 
BRANCH  23  24
ATOM     24  O   UNL     1      -3.011   2.666  -7.483  1.00  0.00    -0.460 OA
BRANCH  24  25
ATOM     25  C   UNL     1      -3.373   1.821  -8.473  1.00  0.00     0.338 C 
ATOM     26  O   UNL     1      -4.433   1.803  -9.085  1.00  0.00    -0.246 OA
BRANCH  25  27
ATOM     27  C   UNL     1      -2.217   1.004  -8.875  1.00  0.00     0.060 A 
ATOM     28  C   UNL     1      -1.742   1.166 -10.182  1.00  0.00     0.016 A 
ATOM     29  C   UNL     1      -1.644   0.059  -8.021  1.00  0.00     0.016 A 
ATOM     30  C   UNL     1      -0.717   0.351 -10.656  1.00  0.00     0.010 A 
ATOM     31  C   UNL     1      -0.621  -0.767  -8.503  1.00  0.00     0.010 A 
ATOM     32  C   UNL     1      -0.173  -0.644  -9.831  1.00  0.00    -0.014 A 
BRANCH  32  33
ATOM     33  C   UNL     1       0.785  -1.617 -10.412  1.00  0.00     0.031 A 
ATOM     34  C   UNL     1       0.281  -2.946 -10.901  1.00  0.00     0.074 A 
ATOM     35  C   UNL     1       2.083  -1.294 -10.552  1.00  0.00     0.049 A 
ATOM     36  N   UNL     1       0.937  -3.918 -11.481  1.00  0.00    -0.248 NA
ATOM     37  C   UNL     1      -1.154  -3.212 -10.716  1.00  0.00     0.031 C 
ATOM     38  C   UNL     1       2.684  -0.026 -10.144  1.00  0.00     0.029 A 
ATOM     39  N   UNL     1       3.127  -2.009 -11.082  1.00  0.00    -0.354 N 
ATOM     40  C   UNL     1      -0.004  -4.907 -11.739  1.00  0.00     0.074 A 
ATOM     41  C   UNL     1      -1.270  -4.432 -11.222  1.00  0.00     0.031 C 
ATOM     42  C   UNL     1       3.996  -0.053 -10.435  1.00  0.00     0.029 A 
ATOM     43  C   UNL     1       4.329  -1.347 -11.030  1.00  0.00     0.049 A 
ATOM     44  H   UNL     1       3.025  -2.910 -11.463  1.00  0.00     0.167 HD
ATOM     45  C   UNL     1       0.170  -6.098 -12.360  1.00  0.00     0.037 A 
ATOM     46  C   UNL     1       5.559  -1.745 -11.406  1.00  0.00     0.037 A 
ATOM     47  C   UNL     1       1.430  -6.574 -12.867  1.00  0.00     0.049 A 
ATOM     48  C   UNL     1       5.739  -3.106 -12.024  1.00  0.00     0.074 A 
ATOM     49  C   UNL     1       1.700  -7.755 -13.537  1.00  0.00     0.029 A 
ATOM     50  N   UNL     1       2.634  -5.898 -12.745  1.00  0.00    -0.354 N 
ATOM     51  N   UNL     1       4.835  -4.013 -12.303  1.00  0.00    -0.248 NA
ATOM     52  C   UNL     1       7.111  -3.498 -12.379  1.00  0.00     0.031 C 
ATOM     53  C   UNL     1       3.078  -7.815 -13.778  1.00  0.00     0.029 A 
ATOM     54  C   UNL     1       3.657  -6.652 -13.296  1.00  0.00     0.049 A 
ATOM     55  H   UNL     1       2.746  -5.013 -12.329  1.00  0.00     0.167 HD
ATOM     56  C   UNL     1       5.523  -5.074 -12.879  1.00  0.00     0.074 A 
ATOM     57  C   UNL     1       6.919  -4.690 -12.926  1.00  0.00     0.031 C 
ATOM     58  C   UNL     1       5.043  -6.260 -13.327  1.00  0.00     0.037 A 
BRANCH  45  59
ATOM     59  C   UNL     1      -1.034  -6.981 -12.509  1.00  0.00     0.057 A 
ATOM     60  C   UNL     1      -2.052  -6.693 -13.427  1.00  0.00     0.134 A 
ATOM     61  C   UNL     1      -1.160  -8.150 -11.749  1.00  0.00     0.134 A 
ATOM     62  F   UNL     1      -1.997  -5.581 -14.177  1.00  0.00    -0.206 F 
ATOM     63  C   UNL     1      -3.163  -7.527 -13.570  1.00  0.00     0.040 A 
ATOM     64  C   UNL     1      -2.255  -9.003 -11.899  1.00  0.00     0.040 A 
ATOM     65  F   UNL     1      -0.218  -8.487 -10.855  1.00  0.00    -0.206 F 
ATOM     66  C   UNL     1      -3.263  -8.689 -12.808  1.00  0.00     0.006 A 
ENDBRANCH  45  59
BRANCH  46  67
ATOM     67  C   UNL     1       6.724  -0.850 -11.197  1.00  0.00     0.057 A 
ATOM     68  C   UNL     1       7.389  -0.256 -12.274  1.00  0.00     0.134 A 
ATOM     69  C   UNL     1       7.208  -0.580  -9.911  1.00  0.00     0.134 A 
ATOM     70  F   UNL     1       6.989  -0.497 -13.531  1.00  0.00    -0.206 F 
ATOM     71  C   UNL     1       8.501   0.568 -12.082  1.00  0.00     0.040 A 
ATOM     72  C   UNL     1       8.303   0.260  -9.702  1.00  0.00     0.040 A 
ATOM     73  F   UNL     1       6.615  -1.122  -8.836  1.00  0.00    -0.206 F 
ATOM     74  C   UNL     1       8.957   0.832 -10.792  1.00  0.00     0.006 A 
ENDBRANCH  46  67
BRANCH  58  75
ATOM     75  C   UNL     1       6.033  -7.224 -13.911  1.00  0.00     0.057 A 
ATOM     76  C   UNL     1       6.927  -7.938 -13.104  1.00  0.00     0.134 A 
ATOM     77  C   UNL     1       6.066  -7.471 -15.289  1.00  0.00     0.134 A 
ATOM     78  F   UNL     1       6.955  -7.737 -11.777  1.00  0.00    -0.206 F 
ATOM     79  C   UNL     1       7.832  -8.851 -13.649  1.00  0.00     0.040 A 
ATOM     80  C   UNL     1       6.949  -8.398 -15.843  1.00  0.00     0.040 A 
ATOM     81  F   UNL     1       5.230  -6.826 -16.117  1.00  0.00    -0.206 F 
ATOM     82  C   UNL     1       7.839  -9.088 -15.022  1.00  0.00     0.006 A 
ENDBRANCH  58  75
ENDBRANCH  32  33
ENDBRANCH  25  27
ENDBRANCH  24  25
ENDBRANCH  23  24
ENDBRANCH  22  23
ENDBRANCH  21  22
ENDBRANCH   1  21
TORSDOF 18
