REMARK SMILES CCC[C@H]1CC[C@H](C(=O)OCCOCCOC(=O)c2ccc(-c3c4nc(c(-c5c(F)cccc5F)c5ccc([nH]5)c(-c5c(F)cccc5F)c5nc(c(-c6c(F)cccc6F)c6ccc3[nH]6)C=C5)C=C4)cc2)[C@H](Sc2ccncc2)C1
REMARK SMILES IDX 13 1 12 2 11 3 10 4 8 5 9 6 7 7 4 8 5 9 81 10 6 11 73 12
REMARK SMILES IDX 3 13 2 14 1 15 74 16 75 17 76 18 80 19 77 20 79 21 78 22
REMARK SMILES IDX 14 23 15 24 16 25 17 26 18 27 19 28 20 29 72 30 21 31 71 32
REMARK SMILES IDX 22 33 23 34 24 35 65 36 25 37 70 38 64 39 66 40 26 41 69 42
REMARK SMILES IDX 63 43 62 44 27 46 53 47 36 48 52 49 37 50 40 51 51 52 67 53
REMARK SMILES IDX 38 54 39 55 50 57 68 58 41 59 28 60 29 61 34 62 30 63 31 64
REMARK SMILES IDX 33 65 35 66 32 67 54 68 55 69 60 70 56 71 57 72 59 73 61 74
REMARK SMILES IDX 58 75 42 76 43 77 48 78 44 79 45 80 47 81 49 82 46 83
REMARK H PARENT 66 45 40 56
REMARK Flexibility Score: inf
ROOT
ATOM      1  O   UNL     1      -5.123  -1.476  -2.069  1.00  0.00    -0.374 OA
ENDROOT
BRANCH   1   2
ATOM      2  C   UNL     1      -4.493  -1.342  -0.805  1.00  0.00     0.202 C 
BRANCH   2   3
ATOM      3  C   UNL     1      -2.963  -1.406  -0.706  1.00  0.00     0.261 C 
BRANCH   3   4
ATOM      4  O   UNL     1      -2.198  -0.758  -1.725  1.00  0.00    -0.463 OA
BRANCH   4   5
ATOM      5  C   UNL     1      -1.966  -1.504  -2.838  1.00  0.00     0.310 C 
ATOM      6  O   UNL     1      -2.538  -2.553  -3.109  1.00  0.00    -0.252 OA
BRANCH   5   7
ATOM      7  C   UNL     1      -0.923  -0.893  -3.748  1.00  0.00     0.112 C 
ATOM      8  C   UNL     1       0.824   1.289  -2.605  1.00  0.00    -0.010 C 
ATOM      9  C   UNL     1      -0.651   1.557  -2.957  1.00  0.00     0.004 C 
ATOM     10  C   UNL     1       0.995  -0.189  -2.198  1.00  0.00     0.019 C 
ATOM     11  C   UNL     1      -1.198   0.600  -4.023  1.00  0.00     0.017 C 
ATOM     12  C   UNL     1       0.528  -1.142  -3.303  1.00  0.00     0.066 C 
BRANCH   8  13
ATOM     13  C   UNL     1       1.723   1.788  -3.763  1.00  0.00     0.003 C 
BRANCH  13  14
ATOM     14  C   UNL     1       3.232   1.594  -3.599  1.00  0.00    -0.003 C 
ATOM     15  C   UNL     1       3.749   0.290  -4.192  1.00  0.00     0.004 C 
ENDBRANCH  13  14
ENDBRANCH   8  13
BRANCH  12  16
ATOM     16  S   UNL     1       1.077  -2.901  -3.074  1.00  0.00    -0.122 SA
BRANCH  16  17
ATOM     17  C   UNL     1       0.242  -3.490  -1.616  1.00  0.00     0.011 A 
ATOM     18  C   UNL     1      -0.810  -4.397  -1.750  1.00  0.00     0.035 A 
ATOM     19  C   UNL     1       0.688  -3.175  -0.336  1.00  0.00     0.035 A 
ATOM     20  C   UNL     1      -1.435  -4.871  -0.610  1.00  0.00     0.112 A 
ATOM     21  C   UNL     1       0.019  -3.724   0.748  1.00  0.00     0.112 A 
ATOM     22  N   UNL     1      -1.049  -4.544   0.641  1.00  0.00    -0.265 NA
ENDBRANCH  16  17
ENDBRANCH  12  16
ENDBRANCH   5   7
ENDBRANCH   4   5
ENDBRANCH   3   4
ENDBRANCH   2   3
ENDBRANCH   1   2
BRANCH   1  23
ATOM     23  C   UNL     1      -5.007  -0.414  -3.013  1.00  0.00     0.202 C 
BRANCH  23  24
ATOM     24  C   UNL     1      -5.574   0.950  -2.622  1.00  0.00     0.261 C 
BRANCH  24  25
ATOM     25  O   UNL     1      -4.799   1.573  -1.579  1.00  0.00    -0.460 OA
BRANCH  25  26
ATOM     26  C   UNL     1      -5.507   1.867  -0.467  1.00  0.00     0.338 C 
ATOM     27  O   UNL     1      -6.710   1.715  -0.293  1.00  0.00    -0.246 OA
BRANCH  26  28
ATOM     28  C   UNL     1      -4.622   2.270   0.636  1.00  0.00     0.060 A 
ATOM     29  C   UNL     1      -4.794   1.613   1.860  1.00  0.00     0.016 A 
ATOM     30  C   UNL     1      -3.786   3.384   0.531  1.00  0.00     0.016 A 
ATOM     31  C   UNL     1      -4.222   2.137   3.012  1.00  0.00     0.010 A 
ATOM     32  C   UNL     1      -3.212   3.912   1.693  1.00  0.00     0.010 A 
ATOM     33  C   UNL     1      -3.490   3.330   2.942  1.00  0.00    -0.014 A 
BRANCH  33  34
ATOM     34  C   UNL     1      -3.241   4.066   4.205  1.00  0.00     0.031 A 
ATOM     35  C   UNL     1      -4.193   5.167   4.596  1.00  0.00     0.074 A 
ATOM     36  C   UNL     1      -2.260   3.687   5.040  1.00  0.00     0.049 A 
ATOM     37  N   UNL     1      -4.231   5.884   5.690  1.00  0.00    -0.248 NA
ATOM     38  C   UNL     1      -5.250   5.499   3.625  1.00  0.00     0.031 C 
ATOM     39  C   UNL     1      -1.310   2.605   4.791  1.00  0.00     0.029 A 
ATOM     40  N   UNL     1      -1.917   4.162   6.280  1.00  0.00    -0.354 N 
ATOM     41  C   UNL     1      -5.313   6.743   5.541  1.00  0.00     0.074 A 
ATOM     42  C   UNL     1      -5.882   6.489   4.236  1.00  0.00     0.031 C 
ATOM     43  C   UNL     1      -0.493   2.492   5.852  1.00  0.00     0.029 A 
ATOM     44  C   UNL     1      -0.853   3.504   6.844  1.00  0.00     0.049 A 
ATOM     45  H   UNL     1      -2.388   4.904   6.722  1.00  0.00     0.167 HD
ATOM     46  C   UNL     1      -5.801   7.651   6.419  1.00  0.00     0.037 A 
ATOM     47  C   UNL     1      -0.243   3.700   8.027  1.00  0.00     0.037 A 
ATOM     48  C   UNL     1      -5.240   7.899   7.720  1.00  0.00     0.049 A 
ATOM     49  C   UNL     1      -0.766   4.758   8.961  1.00  0.00     0.074 A 
ATOM     50  C   UNL     1      -5.664   8.792   8.688  1.00  0.00     0.029 A 
ATOM     51  N   UNL     1      -4.127   7.250   8.231  1.00  0.00    -0.354 N 
ATOM     52  N   UNL     1      -1.801   5.551   8.817  1.00  0.00    -0.248 NA
ATOM     53  C   UNL     1      -0.040   4.942  10.225  1.00  0.00     0.031 C 
ATOM     54  C   UNL     1      -4.781   8.711   9.771  1.00  0.00     0.029 A 
ATOM     55  C   UNL     1      -3.834   7.738   9.493  1.00  0.00     0.049 A 
ATOM     56  H   UNL     1      -3.620   6.545   7.766  1.00  0.00     0.167 HD
ATOM     57  C   UNL     1      -1.863   6.311   9.978  1.00  0.00     0.074 A 
ATOM     58  C   UNL     1      -0.772   5.871  10.823  1.00  0.00     0.031 C 
ATOM     59  C   UNL     1      -2.742   7.287  10.316  1.00  0.00     0.037 A 
BRANCH  46  60
ATOM     60  C   UNL     1      -6.993   8.454   5.988  1.00  0.00     0.057 A 
ATOM     61  C   UNL     1      -8.274   7.891   5.904  1.00  0.00     0.134 A 
ATOM     62  C   UNL     1      -6.862   9.811   5.670  1.00  0.00     0.134 A 
ATOM     63  F   UNL     1      -8.464   6.591   6.178  1.00  0.00    -0.206 F 
ATOM     64  C   UNL     1      -9.377   8.645   5.499  1.00  0.00     0.040 A 
ATOM     65  C   UNL     1      -7.962  10.581   5.286  1.00  0.00     0.040 A 
ATOM     66  F   UNL     1      -5.664  10.412   5.731  1.00  0.00    -0.206 F 
ATOM     67  C   UNL     1      -9.223   9.996   5.194  1.00  0.00     0.006 A 
ENDBRANCH  46  60
BRANCH  47  68
ATOM     68  C   UNL     1       0.933   2.875   8.400  1.00  0.00     0.057 A 
ATOM     69  C   UNL     1       0.863   1.930   9.430  1.00  0.00     0.134 A 
ATOM     70  C   UNL     1       2.162   3.028   7.746  1.00  0.00     0.134 A 
ATOM     71  F   UNL     1      -0.280   1.754  10.108  1.00  0.00    -0.206 F 
ATOM     72  C   UNL     1       1.977   1.178   9.807  1.00  0.00     0.040 A 
ATOM     73  C   UNL     1       3.277   2.266   8.097  1.00  0.00     0.040 A 
ATOM     74  F   UNL     1       2.292   3.916   6.750  1.00  0.00    -0.206 F 
ATOM     75  C   UNL     1       3.187   1.342   9.136  1.00  0.00     0.006 A 
ENDBRANCH  47  68
BRANCH  59  76
ATOM     76  C   UNL     1      -2.568   7.926  11.662  1.00  0.00     0.057 A 
ATOM     77  C   UNL     1      -1.520   8.817  11.923  1.00  0.00     0.134 A 
ATOM     78  C   UNL     1      -3.474   7.669  12.698  1.00  0.00     0.134 A 
ATOM     79  F   UNL     1      -0.612   9.095  10.976  1.00  0.00    -0.206 F 
ATOM     80  C   UNL     1      -1.364   9.411  13.177  1.00  0.00     0.040 A 
ATOM     81  C   UNL     1      -3.343   8.275  13.948  1.00  0.00     0.040 A 
ATOM     82  F   UNL     1      -4.506   6.832  12.510  1.00  0.00    -0.206 F 
ATOM     83  C   UNL     1      -2.281   9.144  14.192  1.00  0.00     0.006 A 
ENDBRANCH  59  76
ENDBRANCH  33  34
ENDBRANCH  26  28
ENDBRANCH  25  26
ENDBRANCH  24  25
ENDBRANCH  23  24
ENDBRANCH   1  23
TORSDOF 18
