REMARK SMILES COCCN(CC(=O)OCCOCCOC(=O)c1ccc(-c2c3nc(c(-c4c(F)cccc4F)c4ccc([nH]4)c(-c4c(F)cccc4F)c4nc(c(-c5c(F)cccc5F)c5ccc2[nH]5)C=C4)C=C3)cc1)C(=O)N[C@H]1CC[N@H+]2CCC[C@H]12
REMARK SMILES IDX 11 1 10 2 9 3 7 4 8 5 6 6 5 7 4 8 3 9 2 10 1 11 72 12 73 13
REMARK SMILES IDX 74 14 75 16 76 17 82 18 77 19 78 20 81 21 79 22 80 24 12 25
REMARK SMILES IDX 13 26 14 27 15 28 16 29 17 30 18 31 19 32 71 33 20 34 70 35
REMARK SMILES IDX 21 36 22 37 23 38 64 39 24 40 69 41 63 42 65 43 25 44 68 45
REMARK SMILES IDX 62 46 61 47 26 49 52 50 35 51 51 52 36 53 39 54 50 55 66 56
REMARK SMILES IDX 37 57 38 58 49 60 67 61 40 62 27 63 28 64 33 65 29 66 30 67
REMARK SMILES IDX 32 68 34 69 31 70 53 71 54 72 59 73 55 74 56 75 58 76 60 77
REMARK SMILES IDX 57 78 41 79 42 80 47 81 43 82 44 83 46 84 48 85 45 86
REMARK H PARENT 74 15 78 23 65 48 39 59
REMARK Flexibility Score: inf
ROOT
ATOM      1  C   UNL     1       3.384   0.395   0.451  1.00  0.00     0.202 C 
ENDROOT
BRANCH   1   2
ATOM      2  C   UNL     1       3.886  -0.574   1.531  1.00  0.00     0.261 C 
BRANCH   2   3
ATOM      3  O   UNL     1       4.434  -1.773   0.942  1.00  0.00    -0.462 OA
BRANCH   3   4
ATOM      4  C   UNL     1       4.815  -2.726   1.838  1.00  0.00     0.325 C 
ATOM      5  O   UNL     1       4.870  -2.538   3.050  1.00  0.00    -0.250 OA
BRANCH   4   6
ATOM      6  C   UNL     1       4.980  -4.127   1.213  1.00  0.00     0.244 C 
BRANCH   6   7
ATOM      7  N   UNL     1       5.115  -4.225  -0.241  1.00  0.00    -0.311 N 
BRANCH   7   8
ATOM      8  C   UNL     1       6.499  -4.493  -0.695  1.00  0.00     0.150 C 
BRANCH   8   9
ATOM      9  C   UNL     1       6.758  -5.992  -0.955  1.00  0.00     0.181 C 
BRANCH   9  10
ATOM     10  O   UNL     1       6.627  -6.316  -2.339  1.00  0.00    -0.383 OA
ATOM     11  C   UNL     1       5.376  -6.890  -2.687  1.00  0.00     0.194 C 
ENDBRANCH   9  10
ENDBRANCH   8   9
ENDBRANCH   7   8
BRANCH   7  12
ATOM     12  C   UNL     1       4.181  -4.094  -1.216  1.00  0.00     0.318 C 
ATOM     13  O   UNL     1       4.525  -3.941  -2.397  1.00  0.00    -0.249 OA
ATOM     14  N   UNL     1       2.853  -4.124  -1.095  1.00  0.00    -0.329 N 
ATOM     15  H   UNL     1       2.491  -3.847  -1.968  1.00  0.00     0.165 HD
BRANCH  14  16
ATOM     16  C   UNL     1       1.683  -4.391  -0.228  1.00  0.00     0.147 C 
ATOM     17  C   UNL     1       1.450  -5.901  -0.054  1.00  0.00     0.092 C 
ATOM     18  C   UNL     1       1.681  -3.841   1.180  1.00  0.00     0.207 C 
ATOM     19  C   UNL     1       1.671  -6.174   1.435  1.00  0.00     0.264 C 
ATOM     20  N   UNL     1       1.170  -4.943   1.984  1.00  0.00    -0.331 N 
ATOM     21  C   UNL     1       0.781  -2.772   1.749  1.00  0.00     0.073 C 
ATOM     22  C   UNL     1       1.371  -4.540   3.355  1.00  0.00     0.262 C 
ATOM     23  H   UNL     1       0.172  -5.156   1.964  1.00  0.00     0.348 HD
ATOM     24  C   UNL     1       0.948  -3.057   3.264  1.00  0.00     0.068 C 
ENDBRANCH  14  16
ENDBRANCH   7  12
ENDBRANCH   6   7
ENDBRANCH   4   6
ENDBRANCH   3   4
ENDBRANCH   2   3
ENDBRANCH   1   2
BRANCH   1  25
ATOM     25  O   UNL     1       2.135   0.089  -0.185  1.00  0.00    -0.374 OA
BRANCH  25  26
ATOM     26  C   UNL     1       2.117  -1.075  -1.007  1.00  0.00     0.202 C 
BRANCH  26  27
ATOM     27  C   UNL     1       2.534  -0.909  -2.470  1.00  0.00     0.261 C 
BRANCH  27  28
ATOM     28  O   UNL     1       3.841  -0.344  -2.558  1.00  0.00    -0.460 OA
BRANCH  28  29
ATOM     29  C   UNL     1       3.847   0.951  -2.939  1.00  0.00     0.338 C 
ATOM     30  O   UNL     1       2.933   1.595  -3.426  1.00  0.00    -0.246 OA
BRANCH  29  31
ATOM     31  C   UNL     1       5.083   1.566  -2.439  1.00  0.00     0.060 A 
ATOM     32  C   UNL     1       4.931   2.748  -1.704  1.00  0.00     0.016 A 
ATOM     33  C   UNL     1       6.343   0.997  -2.648  1.00  0.00     0.016 A 
ATOM     34  C   UNL     1       6.052   3.414  -1.239  1.00  0.00     0.010 A 
ATOM     35  C   UNL     1       7.472   1.677  -2.196  1.00  0.00     0.010 A 
ATOM     36  C   UNL     1       7.324   2.912  -1.540  1.00  0.00    -0.014 A 
BRANCH  36  37
ATOM     37  C   UNL     1       8.469   3.830  -1.395  1.00  0.00     0.031 A 
ATOM     38  C   UNL     1       8.870   4.631  -2.601  1.00  0.00     0.074 A 
ATOM     39  C   UNL     1       9.045   4.021  -0.198  1.00  0.00     0.049 A 
ATOM     40  N   UNL     1       9.793   5.548  -2.719  1.00  0.00    -0.248 NA
ATOM     41  C   UNL     1       8.119   4.370  -3.843  1.00  0.00     0.031 C 
ATOM     42  C   UNL     1       8.674   3.333   1.038  1.00  0.00     0.029 A 
ATOM     43  N   UNL     1      10.056   4.865   0.174  1.00  0.00    -0.354 N 
ATOM     44  C   UNL     1       9.727   5.975  -4.040  1.00  0.00     0.074 A 
ATOM     45  C   UNL     1       8.704   5.196  -4.696  1.00  0.00     0.031 C 
ATOM     46  C   UNL     1       9.453   3.785   2.037  1.00  0.00     0.029 A 
ATOM     47  C   UNL     1      10.388   4.771   1.502  1.00  0.00     0.049 A 
ATOM     48  H   UNL     1      10.502   5.481  -0.452  1.00  0.00     0.167 HD
ATOM     49  C   UNL     1      10.451   6.943  -4.645  1.00  0.00     0.037 A 
ATOM     50  C   UNL     1      11.353   5.407   2.192  1.00  0.00     0.037 A 
ATOM     51  C   UNL     1      11.472   7.702  -3.977  1.00  0.00     0.049 A 
ATOM     52  C   UNL     1      12.204   6.420   1.472  1.00  0.00     0.074 A 
ATOM     53  C   UNL     1      12.284   8.696  -4.489  1.00  0.00     0.029 A 
ATOM     54  N   UNL     1      11.821   7.540  -2.643  1.00  0.00    -0.354 N 
ATOM     55  N   UNL     1      12.132   6.825   0.225  1.00  0.00    -0.248 NA
ATOM     56  C   UNL     1      13.265   7.068   2.252  1.00  0.00     0.031 C 
ATOM     57  C   UNL     1      13.159   9.102  -3.476  1.00  0.00     0.029 A 
ATOM     58  C   UNL     1      12.854   8.400  -2.319  1.00  0.00     0.049 A 
ATOM     59  H   UNL     1      11.396   6.906  -2.021  1.00  0.00     0.167 HD
ATOM     60  C   UNL     1      13.117   7.793   0.079  1.00  0.00     0.074 A 
ATOM     61  C   UNL     1      13.762   7.925   1.371  1.00  0.00     0.031 C 
ATOM     62  C   UNL     1      13.464   8.510  -1.018  1.00  0.00     0.037 A 
BRANCH  49  63
ATOM     63  C   UNL     1      10.184   7.203  -6.098  1.00  0.00     0.057 A 
ATOM     64  C   UNL     1       9.007   7.824  -6.536  1.00  0.00     0.134 A 
ATOM     65  C   UNL     1      11.123   6.839  -7.071  1.00  0.00     0.134 A 
ATOM     66  F   UNL     1       8.056   8.177  -5.658  1.00  0.00    -0.206 F 
ATOM     67  C   UNL     1       8.767   8.060  -7.892  1.00  0.00     0.040 A 
ATOM     68  C   UNL     1      10.905   7.092  -8.426  1.00  0.00     0.040 A 
ATOM     69  F   UNL     1      12.268   6.235  -6.720  1.00  0.00    -0.206 F 
ATOM     70  C   UNL     1       9.722   7.699  -8.841  1.00  0.00     0.006 A 
ENDBRANCH  49  63
BRANCH  50  71
ATOM     71  C   UNL     1      11.578   5.097   3.627  1.00  0.00     0.057 A 
ATOM     72  C   UNL     1      11.344   6.047   4.628  1.00  0.00     0.134 A 
ATOM     73  C   UNL     1      12.059   3.844   4.031  1.00  0.00     0.134 A 
ATOM     74  F   UNL     1      10.902   7.271   4.306  1.00  0.00    -0.206 F 
ATOM     75  C   UNL     1      11.601   5.772   5.973  1.00  0.00     0.040 A 
ATOM     76  C   UNL     1      12.294   3.547   5.374  1.00  0.00     0.040 A 
ATOM     77  F   UNL     1      12.301   2.887   3.124  1.00  0.00    -0.206 F 
ATOM     78  C   UNL     1      12.074   4.516   6.349  1.00  0.00     0.006 A 
ENDBRANCH  50  71
BRANCH  62  79
ATOM     79  C   UNL     1      14.559   9.521  -0.855  1.00  0.00     0.057 A 
ATOM     80  C   UNL     1      15.898   9.143  -0.704  1.00  0.00     0.134 A 
ATOM     81  C   UNL     1      14.271  10.892  -0.896  1.00  0.00     0.134 A 
ATOM     82  F   UNL     1      16.236   7.846  -0.646  1.00  0.00    -0.206 F 
ATOM     83  C   UNL     1      16.911  10.093  -0.573  1.00  0.00     0.040 A 
ATOM     84  C   UNL     1      15.279  11.850  -0.797  1.00  0.00     0.040 A 
ATOM     85  F   UNL     1      13.009  11.319  -1.053  1.00  0.00    -0.206 F 
ATOM     86  C   UNL     1      16.603  11.451  -0.627  1.00  0.00     0.006 A 
ENDBRANCH  62  79
ENDBRANCH  36  37
ENDBRANCH  29  31
ENDBRANCH  28  29
ENDBRANCH  27  28
ENDBRANCH  26  27
ENDBRANCH  25  26
ENDBRANCH   1  25
TORSDOF 20
