REMARK SMILES CCn1ccc([C@@H](C)NC(=O)c2cnn([C@H](C)C(=O)OCCOCCOC(=O)c3ccc(-c4c5nc(c(-c6c(F)cccc6F)c6ccc([nH]6)c(-c6c(F)cccc6F)c6nc(c(-c7c(F)cccc7F)c7ccc4[nH]7)C=C6)C=C5)cc3)c2)n1
REMARK SMILES IDX 21 1 20 2 18 3 19 4 16 5 17 6 15 7 12 8 13 9 83 10 14 11
REMARK SMILES IDX 10 12 9 13 11 15 7 16 8 17 6 18 3 19 4 20 84 21 5 22 2 23
REMARK SMILES IDX 1 24 22 25 23 26 24 27 25 28 26 29 27 30 28 31 29 32 30 33
REMARK SMILES IDX 82 34 31 35 81 36 32 37 33 38 34 39 75 40 35 41 80 42 74 43
REMARK SMILES IDX 76 44 36 45 79 46 73 47 72 48 37 50 63 51 46 52 62 53 47 54
REMARK SMILES IDX 50 55 61 56 77 57 48 58 49 59 60 61 78 62 51 63 38 64 39 65
REMARK SMILES IDX 44 66 40 67 41 68 43 69 45 70 42 71 64 72 65 73 70 74 66 75
REMARK SMILES IDX 67 76 69 77 71 78 68 79 52 80 53 81 58 82 54 83 55 84 57 85
REMARK SMILES IDX 59 86 56 87
REMARK H PARENT 9 14 76 49 50 60
REMARK Flexibility Score: inf
ROOT
ATOM      1  C   UNL     1       9.443   0.330  -5.623  1.00  0.00     0.261 C 
ENDROOT
BRANCH   1   2
ATOM      2  O   UNL     1       8.332   0.716  -4.801  1.00  0.00    -0.462 OA
BRANCH   2   3
ATOM      3  C   UNL     1       8.344   0.228  -3.530  1.00  0.00     0.330 C 
ATOM      4  O   UNL     1       9.219  -0.503  -3.076  1.00  0.00    -0.250 OA
BRANCH   3   5
ATOM      5  C   UNL     1       7.195   0.740  -2.685  1.00  0.00     0.213 C 
ATOM      6  C   UNL     1       6.546   2.061  -3.093  1.00  0.00     0.046 C 
BRANCH   5   7
ATOM      7  N   UNL     1       6.223  -0.324  -2.531  1.00  0.00    -0.258 N 
ATOM      8  C   UNL     1       5.088  -1.978  -1.665  1.00  0.00     0.077 A 
ATOM      9  C   UNL     1       5.038  -1.973  -3.076  1.00  0.00     0.149 A 
ATOM     10  C   UNL     1       5.786  -0.834  -1.346  1.00  0.00     0.123 A 
ATOM     11  N   UNL     1       5.701  -0.943  -3.608  1.00  0.00    -0.180 NA
BRANCH   8  12
ATOM     12  C   UNL     1       4.571  -2.927  -0.713  1.00  0.00     0.254 C 
ATOM     13  N   UNL     1       4.989  -4.226  -0.806  1.00  0.00    -0.344 N 
ATOM     14  H   UNL     1       4.534  -4.865  -0.212  1.00  0.00     0.164 HD
ATOM     15  O   UNL     1       3.812  -2.595   0.194  1.00  0.00    -0.269 OA
BRANCH  13  16
ATOM     16  C   UNL     1       6.022  -4.789  -1.672  1.00  0.00     0.130 C 
ATOM     17  C   UNL     1       5.402  -5.815  -2.614  1.00  0.00     0.038 C 
BRANCH  16  18
ATOM     18  C   UNL     1       7.116  -5.375  -0.820  1.00  0.00     0.084 A 
ATOM     19  N   UNL     1       9.090  -5.694  -0.098  1.00  0.00    -0.273 N 
ATOM     20  C   UNL     1       8.312  -6.556   0.624  1.00  0.00     0.109 A 
ATOM     21  N   UNL     1       8.383  -4.960  -0.974  1.00  0.00    -0.176 NA
ATOM     22  C   UNL     1       7.025  -6.375   0.179  1.00  0.00     0.047 A 
BRANCH  19  23
ATOM     23  C   UNL     1      10.529  -5.552   0.026  1.00  0.00     0.141 C 
ATOM     24  C   UNL     1      11.203  -4.688  -1.030  1.00  0.00     0.029 C 
ENDBRANCH  19  23
ENDBRANCH  16  18
ENDBRANCH  13  16
ENDBRANCH   8  12
ENDBRANCH   5   7
ENDBRANCH   3   5
ENDBRANCH   2   3
ENDBRANCH   1   2
BRANCH   1  25
ATOM     25  C   UNL     1      10.365   1.513  -5.913  1.00  0.00     0.202 C 
BRANCH  25  26
ATOM     26  O   UNL     1      11.070   2.103  -4.821  1.00  0.00    -0.374 OA
BRANCH  26  27
ATOM     27  C   UNL     1      10.373   2.801  -3.796  1.00  0.00     0.202 C 
BRANCH  27  28
ATOM     28  C   UNL     1       9.733   4.138  -4.138  1.00  0.00     0.261 C 
BRANCH  28  29
ATOM     29  O   UNL     1       8.724   4.002  -5.126  1.00  0.00    -0.460 OA
BRANCH  29  30
ATOM     30  C   UNL     1       9.115   4.395  -6.361  1.00  0.00     0.338 C 
ATOM     31  O   UNL     1      10.246   4.634  -6.735  1.00  0.00    -0.246 OA
BRANCH  30  32
ATOM     32  C   UNL     1       7.919   4.668  -7.164  1.00  0.00     0.060 A 
ATOM     33  C   UNL     1       8.160   5.267  -8.401  1.00  0.00     0.016 A 
ATOM     34  C   UNL     1       6.664   4.708  -6.542  1.00  0.00     0.016 A 
ATOM     35  C   UNL     1       7.233   6.166  -8.863  1.00  0.00     0.010 A 
ATOM     36  C   UNL     1       5.745   5.617  -6.997  1.00  0.00     0.010 A 
ATOM     37  C   UNL     1       6.094   6.407  -8.086  1.00  0.00    -0.014 A 
BRANCH  37  38
ATOM     38  C   UNL     1       5.191   7.443  -8.526  1.00  0.00     0.031 A 
ATOM     39  C   UNL     1       4.420   7.005  -9.706  1.00  0.00     0.074 A 
ATOM     40  C   UNL     1       5.044   8.607  -7.868  1.00  0.00     0.049 A 
ATOM     41  N   UNL     1       4.576   7.390 -10.927  1.00  0.00    -0.248 NA
ATOM     42  C   UNL     1       3.554   5.823  -9.549  1.00  0.00     0.031 C 
ATOM     43  C   UNL     1       5.583   8.994  -6.562  1.00  0.00     0.029 A 
ATOM     44  N   UNL     1       4.286   9.682  -8.214  1.00  0.00    -0.354 N 
ATOM     45  C   UNL     1       3.641   6.664 -11.653  1.00  0.00     0.074 A 
ATOM     46  C   UNL     1       3.238   5.567 -10.818  1.00  0.00     0.031 C 
ATOM     47  C   UNL     1       4.952  10.112  -6.130  1.00  0.00     0.029 A 
ATOM     48  C   UNL     1       4.072  10.591  -7.181  1.00  0.00     0.049 A 
ATOM     49  H   UNL     1       3.919   9.807  -9.119  1.00  0.00     0.167 HD
ATOM     50  C   UNL     1       3.035   7.221 -12.734  1.00  0.00     0.037 A 
ATOM     51  C   UNL     1       3.167  11.604  -7.202  1.00  0.00     0.037 A 
ATOM     52  C   UNL     1       3.803   8.336 -13.234  1.00  0.00     0.049 A 
ATOM     53  C   UNL     1       2.820  11.851  -8.627  1.00  0.00     0.074 A 
ATOM     54  C   UNL     1       5.078   8.495 -13.739  1.00  0.00     0.029 A 
ATOM     55  N   UNL     1       3.377   9.593 -12.882  1.00  0.00    -0.354 N 
ATOM     56  N   UNL     1       3.655  12.343  -9.499  1.00  0.00    -0.248 NA
ATOM     57  C   UNL     1       1.706  11.098  -9.185  1.00  0.00     0.031 C 
ATOM     58  C   UNL     1       5.520   9.759 -13.249  1.00  0.00     0.029 A 
ATOM     59  C   UNL     1       4.473  10.337 -12.531  1.00  0.00     0.049 A 
ATOM     60  H   UNL     1       2.444   9.906 -12.881  1.00  0.00     0.167 HD
ATOM     61  C   UNL     1       3.433  11.607 -10.655  1.00  0.00     0.074 A 
ATOM     62  C   UNL     1       2.171  10.906 -10.422  1.00  0.00     0.031 C 
ATOM     63  C   UNL     1       4.436  11.407 -11.560  1.00  0.00     0.037 A 
BRANCH  50  64
ATOM     64  C   UNL     1       1.562   7.054 -13.028  1.00  0.00     0.057 A 
ATOM     65  C   UNL     1       1.046   7.620 -14.206  1.00  0.00     0.134 A 
ATOM     66  C   UNL     1       0.589   6.643 -12.090  1.00  0.00     0.134 A 
ATOM     67  F   UNL     1       1.865   8.059 -15.174  1.00  0.00    -0.206 F 
ATOM     68  C   UNL     1      -0.323   7.841 -14.394  1.00  0.00     0.040 A 
ATOM     69  C   UNL     1      -0.782   6.811 -12.291  1.00  0.00     0.040 A 
ATOM     70  F   UNL     1       0.895   6.150 -10.885  1.00  0.00    -0.206 F 
ATOM     71  C   UNL     1      -1.242   7.446 -13.431  1.00  0.00     0.006 A 
ENDBRANCH  50  64
BRANCH  51  72
ATOM     72  C   UNL     1       2.316  12.110  -6.099  1.00  0.00     0.057 A 
ATOM     73  C   UNL     1       1.624  13.326  -6.216  1.00  0.00     0.134 A 
ATOM     74  C   UNL     1       1.921  11.279  -5.037  1.00  0.00     0.134 A 
ATOM     75  F   UNL     1       1.895  14.167  -7.225  1.00  0.00    -0.206 F 
ATOM     76  C   UNL     1       0.585  13.682  -5.345  1.00  0.00     0.040 A 
ATOM     77  C   UNL     1       0.888  11.624  -4.158  1.00  0.00     0.040 A 
ATOM     78  F   UNL     1       2.459  10.062  -4.873  1.00  0.00    -0.206 F 
ATOM     79  C   UNL     1       0.205  12.823  -4.318  1.00  0.00     0.006 A 
ENDBRANCH  51  72
BRANCH  63  80
ATOM     80  C   UNL     1       5.691  12.222 -11.403  1.00  0.00     0.057 A 
ATOM     81  C   UNL     1       6.567  12.131 -10.310  1.00  0.00     0.134 A 
ATOM     82  C   UNL     1       6.098  13.026 -12.473  1.00  0.00     0.134 A 
ATOM     83  F   UNL     1       6.307  11.316  -9.279  1.00  0.00    -0.206 F 
ATOM     84  C   UNL     1       7.774  12.839 -10.272  1.00  0.00     0.040 A 
ATOM     85  C   UNL     1       7.314  13.710 -12.462  1.00  0.00     0.040 A 
ATOM     86  F   UNL     1       5.335  13.120 -13.574  1.00  0.00    -0.206 F 
ATOM     87  C   UNL     1       8.153  13.626 -11.355  1.00  0.00     0.006 A 
ENDBRANCH  63  80
ENDBRANCH  37  38
ENDBRANCH  30  32
ENDBRANCH  29  30
ENDBRANCH  28  29
ENDBRANCH  27  28
ENDBRANCH  26  27
ENDBRANCH  25  26
ENDBRANCH   1  25
TORSDOF 19
