REMARK SMILES O=C(OCCOCCOC(=O)c1cccc(S(=O)(=O)Nc2cccc(I)c2)c1)c1ccc(-c2c3nc(c(-c4c(F)cccc4F)c4ccc([nH]4)c(-c4c(F)cccc4F)c4nc(c(-c5c(F)cccc5F)c5ccc2[nH]5)C=C4)C=C3)cc1
REMARK SMILES IDX 7 1 6 2 5 3 4 4 3 5 2 6 1 7 29 8 30 9 82 10 31 11 81 12
REMARK SMILES IDX 32 13 33 14 34 15 75 16 35 17 80 18 74 19 76 20 36 21 79 22
REMARK SMILES IDX 73 23 72 24 37 26 63 27 46 28 62 29 47 30 50 31 61 32 77 33
REMARK SMILES IDX 48 34 49 35 60 37 78 38 51 39 38 40 39 41 44 42 40 43 41 44
REMARK SMILES IDX 43 45 45 46 42 47 64 48 65 49 70 50 66 51 67 52 69 53 71 54
REMARK SMILES IDX 68 55 52 56 53 57 58 58 54 59 55 60 57 61 59 62 56 63 8 64
REMARK SMILES IDX 9 65 10 66 11 67 12 68 13 69 28 70 14 71 16 72 15 73 17 74
REMARK SMILES IDX 18 75 19 76 20 77 21 79 22 80 27 81 23 82 25 83 24 84 26 85
REMARK H PARENT 76 25 50 36 20 78
REMARK Flexibility Score: inf
ROOT
ATOM      1  C   UNL     1       2.723   0.766  -1.800  1.00  0.00     0.202 C 
ENDROOT
BRANCH   1   2
ATOM      2  O   UNL     1       4.030   0.431  -1.333  1.00  0.00    -0.374 OA
BRANCH   2   3
ATOM      3  C   UNL     1       4.324  -0.952  -1.130  1.00  0.00     0.202 C 
BRANCH   3   4
ATOM      4  C   UNL     1       4.035  -1.440   0.289  1.00  0.00     0.261 C 
BRANCH   4   5
ATOM      5  O   UNL     1       2.645  -1.253   0.603  1.00  0.00    -0.460 OA
BRANCH   5   6
ATOM      6  C   UNL     1       2.068  -0.161   1.159  1.00  0.00     0.338 C 
ATOM      7  O   UNL     1       0.841  -0.092   1.196  1.00  0.00    -0.246 OA
BRANCH   6   8
ATOM      8  C   UNL     1       2.849   0.952   1.773  1.00  0.00     0.060 A 
ATOM      9  C   UNL     1       4.092   1.394   1.324  1.00  0.00     0.016 A 
ATOM     10  C   UNL     1       2.252   1.644   2.838  1.00  0.00     0.016 A 
ATOM     11  C   UNL     1       4.757   2.441   1.914  1.00  0.00     0.010 A 
ATOM     12  C   UNL     1       2.912   2.714   3.449  1.00  0.00     0.010 A 
ATOM     13  C   UNL     1       4.179   3.091   2.991  1.00  0.00    -0.014 A 
BRANCH  13  14
ATOM     14  C   UNL     1       5.075   3.992   3.718  1.00  0.00     0.031 A 
ATOM     15  C   UNL     1       5.729   3.451   4.949  1.00  0.00     0.074 A 
ATOM     16  C   UNL     1       5.469   5.133   3.129  1.00  0.00     0.049 A 
ATOM     17  N   UNL     1       6.573   4.025   5.757  1.00  0.00    -0.248 NA
ATOM     18  C   UNL     1       5.406   2.055   5.304  1.00  0.00     0.031 C 
ATOM     19  C   UNL     1       5.019   5.603   1.812  1.00  0.00     0.029 A 
ATOM     20  N   UNL     1       6.378   6.070   3.524  1.00  0.00    -0.354 N 
ATOM     21  C   UNL     1       6.839   3.084   6.742  1.00  0.00     0.074 A 
ATOM     22  C   UNL     1       6.081   1.897   6.429  1.00  0.00     0.031 C 
ATOM     23  C   UNL     1       5.677   6.731   1.503  1.00  0.00     0.029 A 
ATOM     24  C   UNL     1       6.524   7.100   2.629  1.00  0.00     0.049 A 
ATOM     25  H   UNL     1       6.880   6.013   4.369  1.00  0.00     0.167 HD
ATOM     26  C   UNL     1       7.641   3.224   7.820  1.00  0.00     0.037 A 
ATOM     27  C   UNL     1       7.240   8.231   2.746  1.00  0.00     0.037 A 
ATOM     28  C   UNL     1       8.383   4.427   8.076  1.00  0.00     0.049 A 
ATOM     29  C   UNL     1       8.026   8.414   4.015  1.00  0.00     0.074 A 
ATOM     30  C   UNL     1       9.170   4.747   9.163  1.00  0.00     0.029 A 
ATOM     31  N   UNL     1       8.423   5.514   7.210  1.00  0.00    -0.354 N 
ATOM     32  N   UNL     1       8.193   7.575   5.013  1.00  0.00    -0.248 NA
ATOM     33  C   UNL     1       8.709   9.699   4.187  1.00  0.00     0.031 C 
ATOM     34  C   UNL     1       9.639   6.053   8.981  1.00  0.00     0.029 A 
ATOM     35  C   UNL     1       9.204   6.519   7.747  1.00  0.00     0.049 A 
ATOM     36  H   UNL     1       7.962   5.561   6.341  1.00  0.00     0.167 HD
ATOM     37  C   UNL     1       9.026   8.216   5.917  1.00  0.00     0.074 A 
ATOM     38  C   UNL     1       9.338   9.510   5.338  1.00  0.00     0.031 C 
ATOM     39  C   UNL     1       9.495   7.784   7.115  1.00  0.00     0.037 A 
BRANCH  26  40
ATOM     40  C   UNL     1       7.636   2.106   8.820  1.00  0.00     0.057 A 
ATOM     41  C   UNL     1       8.199   0.850   8.559  1.00  0.00     0.134 A 
ATOM     42  C   UNL     1       6.982   2.275  10.048  1.00  0.00     0.134 A 
ATOM     43  F   UNL     1       8.804   0.605   7.387  1.00  0.00    -0.206 F 
ATOM     44  C   UNL     1       8.081  -0.206   9.467  1.00  0.00     0.040 A 
ATOM     45  C   UNL     1       6.883   1.236  10.975  1.00  0.00     0.040 A 
ATOM     46  F   UNL     1       6.406   3.446  10.357  1.00  0.00    -0.206 F 
ATOM     47  C   UNL     1       7.424  -0.013  10.681  1.00  0.00     0.006 A 
ENDBRANCH  26  40
BRANCH  27  48
ATOM     48  C   UNL     1       7.194   9.275   1.690  1.00  0.00     0.057 A 
ATOM     49  C   UNL     1       8.340   9.649   0.980  1.00  0.00     0.134 A 
ATOM     50  C   UNL     1       6.003   9.947   1.381  1.00  0.00     0.134 A 
ATOM     51  F   UNL     1       9.517   9.058   1.236  1.00  0.00    -0.206 F 
ATOM     52  C   UNL     1       8.310  10.666   0.022  1.00  0.00     0.040 A 
ATOM     53  C   UNL     1       5.951  10.943   0.405  1.00  0.00     0.040 A 
ATOM     54  F   UNL     1       4.864   9.639   2.019  1.00  0.00    -0.206 F 
ATOM     55  C   UNL     1       7.111  11.314  -0.270  1.00  0.00     0.006 A 
ENDBRANCH  27  48
BRANCH  39  56
ATOM     56  C   UNL     1      10.445   8.696   7.829  1.00  0.00     0.057 A 
ATOM     57  C   UNL     1      10.026   9.891   8.425  1.00  0.00     0.134 A 
ATOM     58  C   UNL     1      11.795   8.342   7.951  1.00  0.00     0.134 A 
ATOM     59  F   UNL     1       8.748  10.288   8.330  1.00  0.00    -0.206 F 
ATOM     60  C   UNL     1      10.926  10.721   9.091  1.00  0.00     0.040 A 
ATOM     61  C   UNL     1      12.696   9.146   8.645  1.00  0.00     0.040 A 
ATOM     62  F   UNL     1      12.253   7.202   7.412  1.00  0.00    -0.206 F 
ATOM     63  C   UNL     1      12.264  10.344   9.210  1.00  0.00     0.006 A 
ENDBRANCH  39  56
ENDBRANCH  13  14
ENDBRANCH   6   8
ENDBRANCH   5   6
ENDBRANCH   4   5
ENDBRANCH   3   4
ENDBRANCH   2   3
ENDBRANCH   1   2
BRANCH   1  64
ATOM     64  C   UNL     1       2.837   1.365  -3.194  1.00  0.00     0.261 C 
BRANCH  64  65
ATOM     65  O   UNL     1       3.403   0.359  -4.035  1.00  0.00    -0.460 OA
BRANCH  65  66
ATOM     66  C   UNL     1       4.752   0.242  -3.976  1.00  0.00     0.338 C 
ATOM     67  O   UNL     1       5.561   1.069  -3.582  1.00  0.00    -0.246 OA
BRANCH  66  68
ATOM     68  C   UNL     1       5.111  -1.129  -4.395  1.00  0.00     0.061 A 
ATOM     69  C   UNL     1       6.340  -1.684  -4.035  1.00  0.00     0.016 A 
ATOM     70  C   UNL     1       4.262  -1.806  -5.259  1.00  0.00     0.038 A 
ATOM     71  C   UNL     1       6.748  -2.881  -4.621  1.00  0.00     0.002 A 
ATOM     72  C   UNL     1       4.802  -2.796  -6.052  1.00  0.00     0.088 A 
ATOM     73  C   UNL     1       6.011  -3.401  -5.689  1.00  0.00     0.022 A 
BRANCH  72  74
ATOM     74  S   UNL     1       4.276  -2.889  -7.755  1.00  0.00     0.261 S 
ATOM     75  O   UNL     1       5.341  -2.300  -8.537  1.00  0.00    -0.201 OA
ATOM     76  O   UNL     1       3.843  -4.253  -7.971  1.00  0.00    -0.201 OA
BRANCH  74  77
ATOM     77  N   UNL     1       2.898  -1.952  -7.947  1.00  0.00    -0.280 N 
ATOM     78  H   UNL     1       2.120  -2.410  -8.340  1.00  0.00     0.180 HD
BRANCH  77  79
ATOM     79  C   UNL     1       2.704  -0.575  -7.615  1.00  0.00     0.050 A 
ATOM     80  C   UNL     1       1.399  -0.218  -7.237  1.00  0.00     0.027 A 
ATOM     81  C   UNL     1       3.716   0.385  -7.550  1.00  0.00     0.041 A 
ATOM     82  C   UNL     1       1.111   1.061  -6.756  1.00  0.00     0.003 A 
ATOM     83  C   UNL     1       3.419   1.671  -7.069  1.00  0.00     0.015 A 
ATOM     84  C   UNL     1       2.124   2.010  -6.667  1.00  0.00     0.015 A 
ATOM     85  I   UNL     1       4.930   3.094  -6.884  1.00  0.00    -0.044 I 
ENDBRANCH  77  79
ENDBRANCH  74  77
ENDBRANCH  72  74
ENDBRANCH  66  68
ENDBRANCH  65  66
ENDBRANCH  64  65
ENDBRANCH   1  64
TORSDOF 17
