REMARK SMILES Cc1c(NC(=O)[C@@H]2CC=CC[C@@H]2C(=O)OCCOCCOC(=O)c2ccc(-c3c4nc(c(-c5c(F)cccc5F)c5ccc([nH]5)c(-c5c(F)cccc5F)c5nc(c(-c6c(F)cccc6F)c6ccc3[nH]6)C=C5)C=C4)cc2)cccc1C(=O)N1CCOCC1
REMARK SMILES IDX 17 1 16 2 15 3 13 4 14 5 12 6 7 7 8 8 9 9 11 10 10 11 5 12
REMARK SMILES IDX 4 13 6 15 3 16 1 17 2 18 81 19 78 20 80 21 79 22 82 23 83 24
REMARK SMILES IDX 84 25 85 26 89 27 86 28 88 29 87 30 18 31 19 32 20 33 21 34
REMARK SMILES IDX 22 35 23 36 24 37 25 38 77 39 26 40 76 41 27 42 28 43 29 44
REMARK SMILES IDX 70 45 30 46 75 47 69 48 71 49 31 50 74 51 68 52 67 53 32 55
REMARK SMILES IDX 58 56 41 57 57 58 42 59 45 60 56 61 72 62 43 63 44 64 55 66
REMARK SMILES IDX 73 67 46 68 33 69 34 70 39 71 35 72 36 73 38 74 40 75 37 76
REMARK SMILES IDX 59 77 60 78 65 79 61 80 62 81 64 82 66 83 63 84 47 85 48 86
REMARK SMILES IDX 53 87 49 88 50 89 52 90 54 91 51 92
REMARK H PARENT 4 14 71 54 45 65
REMARK Flexibility Score: inf
ROOT
ATOM      1  C   UNL     1      -4.037  -1.805   1.510  1.00  0.00     0.202 C 
ENDROOT
BRANCH   1   2
ATOM      2  C   UNL     1      -3.871  -3.033   0.668  1.00  0.00     0.261 C 
BRANCH   2   3
ATOM      3  O   UNL     1      -2.647  -3.047  -0.090  1.00  0.00    -0.463 OA
BRANCH   3   4
ATOM      4  C   UNL     1      -2.334  -2.125  -1.048  1.00  0.00     0.310 C 
ATOM      5  O   UNL     1      -3.115  -1.538  -1.757  1.00  0.00    -0.252 OA
BRANCH   4   6
ATOM      6  C   UNL     1      -0.815  -1.906  -1.065  1.00  0.00     0.116 C 
ATOM      7  C   UNL     1      -0.031  -2.829  -0.075  1.00  0.00     0.097 C 
ATOM      8  C   UNL     1      -0.446  -2.538   1.389  1.00  0.00     0.041 C 
ATOM      9  C   UNL     1      -0.551  -1.065   1.672  1.00  0.00    -0.030 C 
ATOM     10  C   UNL     1      -0.530  -0.433  -0.753  1.00  0.00     0.043 C 
ATOM     11  C   UNL     1      -0.551  -0.125   0.717  1.00  0.00    -0.030 C 
BRANCH   7  12
ATOM     12  C   UNL     1      -0.198  -4.271  -0.541  1.00  0.00     0.228 C 
ATOM     13  N   UNL     1       0.169  -5.372   0.149  1.00  0.00    -0.326 N 
ATOM     14  H   UNL     1      -0.375  -6.161  -0.077  1.00  0.00     0.169 HD
ATOM     15  O   UNL     1      -0.666  -4.504  -1.661  1.00  0.00    -0.274 OA
BRANCH  13  16
ATOM     16  C   UNL     1       1.151  -5.649   1.117  1.00  0.00     0.044 A 
ATOM     17  C   UNL     1       0.305  -8.027   1.133  1.00  0.00     0.047 C 
ATOM     18  C   UNL     1       1.323  -7.000   1.540  1.00  0.00    -0.015 A 
ATOM     19  C   UNL     1       2.456  -7.340   2.317  1.00  0.00     0.045 A 
ATOM     20  C   UNL     1       2.029  -4.670   1.575  1.00  0.00     0.026 A 
ATOM     21  C   UNL     1       3.287  -6.303   2.784  1.00  0.00     0.014 A 
ATOM     22  C   UNL     1       3.057  -4.979   2.447  1.00  0.00     0.003 A 
BRANCH  19  23
ATOM     23  C   UNL     1       2.831  -8.701   2.838  1.00  0.00     0.254 C 
ATOM     24  O   UNL     1       3.592  -8.760   3.807  1.00  0.00    -0.269 OA
ATOM     25  N   UNL     1       2.246  -9.857   2.349  1.00  0.00    -0.334 N 
ATOM     26  C   UNL     1       2.353 -10.339   0.967  1.00  0.00     0.148 C 
ATOM     27  C   UNL     1       1.989 -10.918   3.314  1.00  0.00     0.148 C 
ATOM     28  C   UNL     1       1.162 -11.252   0.603  1.00  0.00     0.181 C 
ATOM     29  C   UNL     1       0.742 -11.691   2.896  1.00  0.00     0.181 C 
ATOM     30  O   UNL     1       0.930 -12.269   1.594  1.00  0.00    -0.378 OA
ENDBRANCH  19  23
ENDBRANCH  13  16
ENDBRANCH   7  12
ENDBRANCH   4   6
ENDBRANCH   3   4
ENDBRANCH   2   3
ENDBRANCH   1   2
BRANCH   1  31
ATOM     31  O   UNL     1      -4.236  -0.731   0.614  1.00  0.00    -0.374 OA
BRANCH  31  32
ATOM     32  C   UNL     1      -4.278   0.556   1.191  1.00  0.00     0.202 C 
BRANCH  32  33
ATOM     33  C   UNL     1      -5.381   0.700   2.245  1.00  0.00     0.261 C 
BRANCH  33  34
ATOM     34  O   UNL     1      -6.679   0.524   1.636  1.00  0.00    -0.460 OA
BRANCH  34  35
ATOM     35  C   UNL     1      -7.251  -0.702   1.790  1.00  0.00     0.338 C 
ATOM     36  O   UNL     1      -7.401  -1.284   2.854  1.00  0.00    -0.246 OA
BRANCH  35  37
ATOM     37  C   UNL     1      -7.392  -1.366   0.462  1.00  0.00     0.060 A 
ATOM     38  C   UNL     1      -7.721  -2.734   0.393  1.00  0.00     0.016 A 
ATOM     39  C   UNL     1      -6.841  -0.727  -0.646  1.00  0.00     0.016 A 
ATOM     40  C   UNL     1      -7.335  -3.490  -0.720  1.00  0.00     0.010 A 
ATOM     41  C   UNL     1      -6.329  -1.502  -1.660  1.00  0.00     0.010 A 
ATOM     42  C   UNL     1      -6.546  -2.886  -1.692  1.00  0.00    -0.014 A 
BRANCH  42  43
ATOM     43  C   UNL     1      -5.872  -3.567  -2.793  1.00  0.00     0.031 A 
ATOM     44  C   UNL     1      -6.359  -3.256  -4.148  1.00  0.00     0.074 A 
ATOM     45  C   UNL     1      -4.722  -4.262  -2.617  1.00  0.00     0.049 A 
ATOM     46  N   UNL     1      -6.046  -3.942  -5.188  1.00  0.00    -0.248 NA
ATOM     47  C   UNL     1      -7.313  -2.183  -4.452  1.00  0.00     0.031 C 
ATOM     48  C   UNL     1      -3.701  -4.631  -3.598  1.00  0.00     0.029 A 
ATOM     49  N   UNL     1      -4.236  -4.865  -1.448  1.00  0.00    -0.354 N 
ATOM     50  C   UNL     1      -6.373  -3.170  -6.271  1.00  0.00     0.074 A 
ATOM     51  C   UNL     1      -7.354  -2.242  -5.785  1.00  0.00     0.031 C 
ATOM     52  C   UNL     1      -2.952  -5.633  -3.096  1.00  0.00     0.029 A 
ATOM     53  C   UNL     1      -3.555  -6.028  -1.829  1.00  0.00     0.049 A 
ATOM     54  H   UNL     1      -4.352  -4.531  -0.529  1.00  0.00     0.167 HD
ATOM     55  C   UNL     1      -5.613  -3.292  -7.392  1.00  0.00     0.037 A 
ATOM     56  C   UNL     1      -4.061  -7.239  -1.470  1.00  0.00     0.037 A 
ATOM     57  C   UNL     1      -4.718  -4.464  -7.292  1.00  0.00     0.049 A 
ATOM     58  C   UNL     1      -4.476  -7.978  -2.710  1.00  0.00     0.074 A 
ATOM     59  C   UNL     1      -3.349  -4.662  -7.258  1.00  0.00     0.029 A 
ATOM     60  N   UNL     1      -5.271  -5.682  -6.896  1.00  0.00    -0.354 N 
ATOM     61  N   UNL     1      -4.557  -7.394  -3.874  1.00  0.00    -0.248 NA
ATOM     62  C   UNL     1      -4.824  -9.388  -2.777  1.00  0.00     0.031 C 
ATOM     63  C   UNL     1      -3.104  -5.999  -6.786  1.00  0.00     0.029 A 
ATOM     64  C   UNL     1      -4.322  -6.629  -6.574  1.00  0.00     0.049 A 
ATOM     65  H   UNL     1      -6.240  -5.848  -6.851  1.00  0.00     0.167 HD
ATOM     66  C   UNL     1      -4.822  -8.296  -4.842  1.00  0.00     0.074 A 
ATOM     67  C   UNL     1      -5.094  -9.519  -4.091  1.00  0.00     0.031 C 
ATOM     68  C   UNL     1      -4.766  -7.965  -6.168  1.00  0.00     0.037 A 
BRANCH  55  69
ATOM     69  C   UNL     1      -5.572  -2.257  -8.502  1.00  0.00     0.057 A 
ATOM     70  C   UNL     1      -4.882  -2.534  -9.695  1.00  0.00     0.134 A 
ATOM     71  C   UNL     1      -6.117  -0.952  -8.451  1.00  0.00     0.134 A 
ATOM     72  F   UNL     1      -4.270  -3.711  -9.886  1.00  0.00    -0.206 F 
ATOM     73  C   UNL     1      -4.773  -1.612 -10.749  1.00  0.00     0.040 A 
ATOM     74  C   UNL     1      -6.069  -0.045  -9.520  1.00  0.00     0.040 A 
ATOM     75  F   UNL     1      -6.673  -0.439  -7.348  1.00  0.00    -0.206 F 
ATOM     76  C   UNL     1      -5.387  -0.370 -10.676  1.00  0.00     0.006 A 
ENDBRANCH  55  69
BRANCH  56  77
ATOM     77  C   UNL     1      -4.728  -7.204  -0.129  1.00  0.00     0.057 A 
ATOM     78  C   UNL     1      -3.935  -6.934   1.005  1.00  0.00     0.134 A 
ATOM     79  C   UNL     1      -6.095  -6.981   0.025  1.00  0.00     0.134 A 
ATOM     80  F   UNL     1      -2.610  -7.075   0.929  1.00  0.00    -0.206 F 
ATOM     81  C   UNL     1      -4.441  -6.377   2.186  1.00  0.00     0.040 A 
ATOM     82  C   UNL     1      -6.618  -6.404   1.197  1.00  0.00     0.040 A 
ATOM     83  F   UNL     1      -6.935  -7.190  -0.998  1.00  0.00    -0.206 F 
ATOM     84  C   UNL     1      -5.787  -6.060   2.264  1.00  0.00     0.006 A 
ENDBRANCH  56  77
BRANCH  68  85
ATOM     85  C   UNL     1      -5.236  -8.929  -7.202  1.00  0.00     0.057 A 
ATOM     86  C   UNL     1      -4.931 -10.292  -7.165  1.00  0.00     0.134 A 
ATOM     87  C   UNL     1      -6.058  -8.505  -8.262  1.00  0.00     0.134 A 
ATOM     88  F   UNL     1      -4.029 -10.777  -6.299  1.00  0.00    -0.206 F 
ATOM     89  C   UNL     1      -5.562 -11.205  -8.008  1.00  0.00     0.040 A 
ATOM     90  C   UNL     1      -6.639  -9.398  -9.154  1.00  0.00     0.040 A 
ATOM     91  F   UNL     1      -6.372  -7.217  -8.456  1.00  0.00    -0.206 F 
ATOM     92  C   UNL     1      -6.434 -10.759  -8.996  1.00  0.00     0.006 A 
ENDBRANCH  68  85
ENDBRANCH  42  43
ENDBRANCH  35  37
ENDBRANCH  34  35
ENDBRANCH  33  34
ENDBRANCH  32  33
ENDBRANCH  31  32
ENDBRANCH   1  31
TORSDOF 17
