REMARK SMILES COCCNC(=O)c1cccc(NC(=O)[C@@H]2CCCC[C@H]2C(=O)OCCOCCOC(=O)c2ccc(-c3c4nc(c(-c5c(F)cccc5F)c5ccc([nH]5)c(-c5c(F)cccc5F)c5nc(c(-c6c(F)cccc6F)c6ccc3[nH]6)C=C5)C=C4)cc2)c1
REMARK SMILES IDX 25 1 24 2 22 3 23 4 21 5 16 6 17 7 18 8 20 9 19 10 14 11
REMARK SMILES IDX 13 12 15 14 12 15 8 16 9 17 87 18 10 19 11 20 6 21 5 22 7 24
REMARK SMILES IDX 4 25 3 26 2 27 1 28 26 29 27 30 28 31 29 32 30 33 31 34
REMARK SMILES IDX 32 35 33 36 34 37 86 38 35 39 85 40 36 41 37 42 38 43 79 44
REMARK SMILES IDX 39 45 84 46 78 47 80 48 40 49 83 50 77 51 76 52 41 54 67 55
REMARK SMILES IDX 50 56 66 57 51 58 54 59 65 60 81 61 52 62 53 63 64 65 82 66
REMARK SMILES IDX 55 67 42 68 43 69 48 70 44 71 45 72 47 73 49 74 46 75 68 76
REMARK SMILES IDX 69 77 74 78 70 79 71 80 73 81 75 82 72 83 56 84 57 85 62 86
REMARK SMILES IDX 58 87 59 88 61 89 63 90 60 91
REMARK H PARENT 13 13 5 23 80 53 54 64
REMARK Flexibility Score: inf
ROOT
ATOM      1  C   UNL     1       3.692  -5.249   3.133  1.00  0.00     0.261 C 
ENDROOT
BRANCH   1   2
ATOM      2  O   UNL     1       3.546  -6.625   2.776  1.00  0.00    -0.463 OA
BRANCH   2   3
ATOM      3  C   UNL     1       3.188  -7.414   3.810  1.00  0.00     0.309 C 
ATOM      4  O   UNL     1       2.928  -6.999   4.931  1.00  0.00    -0.252 OA
BRANCH   3   5
ATOM      5  C   UNL     1       3.217  -8.890   3.498  1.00  0.00     0.111 C 
ATOM      6  C   UNL     1       2.631  -9.481   2.206  1.00  0.00     0.093 C 
ATOM      7  C   UNL     1       2.244 -10.930   2.590  1.00  0.00     0.014 C 
ATOM      8  C   UNL     1       3.503 -11.732   2.927  1.00  0.00     0.001 C 
ATOM      9  C   UNL     1       4.606  -9.515   3.666  1.00  0.00     0.016 C 
ATOM     10  C   UNL     1       4.456 -11.025   3.906  1.00  0.00     0.001 C 
BRANCH   6  11
ATOM     11  C   UNL     1       1.455  -8.779   1.588  1.00  0.00     0.228 C 
ATOM     12  N   UNL     1       1.576  -7.785   0.663  1.00  0.00    -0.326 N 
ATOM     13  H   UNL     1       0.701  -7.535   0.286  1.00  0.00     0.169 HD
ATOM     14  O   UNL     1       0.306  -9.036   1.969  1.00  0.00    -0.274 OA
BRANCH  12  15
ATOM     15  C   UNL     1       2.618  -7.019   0.101  1.00  0.00     0.041 A 
ATOM     16  C   UNL     1       3.216  -4.727  -0.690  1.00  0.00     0.041 A 
ATOM     17  C   UNL     1       4.425  -5.260  -1.129  1.00  0.00     0.014 A 
ATOM     18  C   UNL     1       2.358  -5.636  -0.092  1.00  0.00     0.040 A 
ATOM     19  C   UNL     1       4.727  -6.627  -0.947  1.00  0.00     0.003 A 
ATOM     20  C   UNL     1       3.827  -7.511  -0.334  1.00  0.00     0.026 A 
BRANCH  16  21
ATOM     21  C   UNL     1       2.852  -3.299  -1.020  1.00  0.00     0.251 C 
ATOM     22  N   UNL     1       1.717  -2.601  -0.653  1.00  0.00    -0.350 N 
ATOM     23  H   UNL     1       1.440  -1.978  -1.363  1.00  0.00     0.163 HD
ATOM     24  O   UNL     1       3.595  -2.700  -1.803  1.00  0.00    -0.269 OA
BRANCH  22  25
ATOM     25  C   UNL     1       0.807  -2.529   0.499  1.00  0.00     0.144 C 
BRANCH  25  26
ATOM     26  C   UNL     1       1.171  -1.395   1.480  1.00  0.00     0.181 C 
BRANCH  26  27
ATOM     27  O   UNL     1       0.537  -0.147   1.184  1.00  0.00    -0.383 OA
ATOM     28  C   UNL     1       0.961   0.451  -0.029  1.00  0.00     0.194 C 
ENDBRANCH  26  27
ENDBRANCH  25  26
ENDBRANCH  22  25
ENDBRANCH  16  21
ENDBRANCH  12  15
ENDBRANCH   6  11
ENDBRANCH   3   5
ENDBRANCH   2   3
ENDBRANCH   1   2
BRANCH   1  29
ATOM     29  C   UNL     1       2.510  -4.321   2.792  1.00  0.00     0.202 C 
BRANCH  29  30
ATOM     30  O   UNL     1       1.131  -4.542   3.127  1.00  0.00    -0.374 OA
BRANCH  30  31
ATOM     31  C   UNL     1       0.387  -5.690   2.678  1.00  0.00     0.202 C 
BRANCH  31  32
ATOM     32  C   UNL     1      -0.734  -5.527   1.538  1.00  0.00     0.261 C 
BRANCH  32  33
ATOM     33  O   UNL     1      -0.420  -6.156   0.212  1.00  0.00    -0.460 OA
BRANCH  33  34
ATOM     34  C   UNL     1      -0.747  -5.511  -0.968  1.00  0.00     0.338 C 
ATOM     35  O   UNL     1      -1.474  -4.542  -1.023  1.00  0.00    -0.246 OA
BRANCH  34  36
ATOM     36  C   UNL     1       0.113  -5.934  -2.175  1.00  0.00     0.060 A 
ATOM     37  C   UNL     1       0.725  -4.905  -2.915  1.00  0.00     0.016 A 
ATOM     38  C   UNL     1       0.393  -7.243  -2.593  1.00  0.00     0.016 A 
ATOM     39  C   UNL     1       1.645  -5.157  -3.967  1.00  0.00     0.010 A 
ATOM     40  C   UNL     1       1.270  -7.497  -3.705  1.00  0.00     0.010 A 
ATOM     41  C   UNL     1       1.921  -6.458  -4.408  1.00  0.00    -0.014 A 
BRANCH  41  42
ATOM     42  C   UNL     1       2.640  -6.647  -5.738  1.00  0.00     0.031 A 
ATOM     43  C   UNL     1       1.818  -6.491  -7.006  1.00  0.00     0.074 A 
ATOM     44  C   UNL     1       3.973  -6.833  -5.912  1.00  0.00     0.049 A 
ATOM     45  N   UNL     1       2.185  -6.535  -8.266  1.00  0.00    -0.248 NA
ATOM     46  C   UNL     1       0.386  -6.229  -6.810  1.00  0.00     0.031 C 
ATOM     47  C   UNL     1       4.972  -6.910  -4.854  1.00  0.00     0.029 A 
ATOM     48  N   UNL     1       4.726  -6.973  -7.072  1.00  0.00    -0.354 N 
ATOM     49  C   UNL     1       1.035  -6.284  -9.008  1.00  0.00     0.074 A 
ATOM     50  C   UNL     1      -0.043  -6.113  -8.056  1.00  0.00     0.031 C 
ATOM     51  C   UNL     1       6.193  -7.082  -5.401  1.00  0.00     0.029 A 
ATOM     52  C   UNL     1       6.078  -7.157  -6.861  1.00  0.00     0.049 A 
ATOM     53  H   UNL     1       4.327  -6.944  -7.972  1.00  0.00     0.167 HD
ATOM     54  C   UNL     1       0.865  -6.198 -10.351  1.00  0.00     0.037 A 
ATOM     55  C   UNL     1       7.105  -7.372  -7.722  1.00  0.00     0.037 A 
ATOM     56  C   UNL     1       1.889  -6.397 -11.342  1.00  0.00     0.049 A 
ATOM     57  C   UNL     1       6.869  -7.419  -9.222  1.00  0.00     0.074 A 
ATOM     58  C   UNL     1       1.766  -6.362 -12.722  1.00  0.00     0.029 A 
ATOM     59  N   UNL     1       3.215  -6.684 -11.069  1.00  0.00    -0.354 N 
ATOM     60  N   UNL     1       5.773  -7.180  -9.898  1.00  0.00    -0.248 NA
ATOM     61  C   UNL     1       8.019  -7.772 -10.079  1.00  0.00     0.031 C 
ATOM     62  C   UNL     1       3.004  -6.689 -13.285  1.00  0.00     0.029 A 
ATOM     63  C   UNL     1       3.912  -6.863 -12.256  1.00  0.00     0.049 A 
ATOM     64  H   UNL     1       3.605  -6.752 -10.168  1.00  0.00     0.167 HD
ATOM     65  C   UNL     1       6.109  -7.318 -11.244  1.00  0.00     0.074 A 
ATOM     66  C   UNL     1       7.513  -7.650 -11.299  1.00  0.00     0.031 C 
ATOM     67  C   UNL     1       5.315  -7.178 -12.334  1.00  0.00     0.037 A 
BRANCH  54  68
ATOM     68  C   UNL     1      -0.528  -5.923 -10.836  1.00  0.00     0.057 A 
ATOM     69  C   UNL     1      -1.125  -4.662 -10.702  1.00  0.00     0.134 A 
ATOM     70  C   UNL     1      -1.278  -6.934 -11.450  1.00  0.00     0.134 A 
ATOM     71  F   UNL     1      -0.463  -3.657 -10.108  1.00  0.00    -0.206 F 
ATOM     72  C   UNL     1      -2.431  -4.427 -11.131  1.00  0.00     0.040 A 
ATOM     73  C   UNL     1      -2.575  -6.703 -11.909  1.00  0.00     0.040 A 
ATOM     74  F   UNL     1      -0.761  -8.161 -11.616  1.00  0.00    -0.206 F 
ATOM     75  C   UNL     1      -3.158  -5.449 -11.740  1.00  0.00     0.006 A 
ENDBRANCH  54  68
BRANCH  55  76
ATOM     76  C   UNL     1       8.495  -7.618  -7.221  1.00  0.00     0.057 A 
ATOM     77  C   UNL     1       9.558  -6.754  -7.528  1.00  0.00     0.134 A 
ATOM     78  C   UNL     1       8.816  -8.790  -6.524  1.00  0.00     0.134 A 
ATOM     79  F   UNL     1       9.338  -5.640  -8.242  1.00  0.00    -0.206 F 
ATOM     80  C   UNL     1      10.880  -7.054  -7.180  1.00  0.00     0.040 A 
ATOM     81  C   UNL     1      10.129  -9.089  -6.144  1.00  0.00     0.040 A 
ATOM     82  F   UNL     1       7.860  -9.679  -6.219  1.00  0.00    -0.206 F 
ATOM     83  C   UNL     1      11.167  -8.224  -6.481  1.00  0.00     0.006 A 
ENDBRANCH  55  76
BRANCH  67  84
ATOM     84  C   UNL     1       5.929  -7.336 -13.700  1.00  0.00     0.057 A 
ATOM     85  C   UNL     1       6.339  -8.581 -14.195  1.00  0.00     0.134 A 
ATOM     86  C   UNL     1       6.045  -6.237 -14.563  1.00  0.00     0.134 A 
ATOM     87  F   UNL     1       6.263  -9.678 -13.425  1.00  0.00    -0.206 F 
ATOM     88  C   UNL     1       6.853  -8.724 -15.488  1.00  0.00     0.040 A 
ATOM     89  C   UNL     1       6.533  -6.371 -15.865  1.00  0.00     0.040 A 
ATOM     90  F   UNL     1       5.663  -5.014 -14.163  1.00  0.00    -0.206 F 
ATOM     91  C   UNL     1       6.943  -7.618 -16.330  1.00  0.00     0.006 A 
ENDBRANCH  67  84
ENDBRANCH  41  42
ENDBRANCH  34  36
ENDBRANCH  33  34
ENDBRANCH  32  33
ENDBRANCH  31  32
ENDBRANCH  30  31
ENDBRANCH  29  30
ENDBRANCH   1  29
TORSDOF 20
