REMARK SMILES O=C(Cc1cccn1-c1ccc2c(c1)OCCO2)OCCOCCOC(=O)c1ccc(-c2c3nc(c(-c4c(F)cccc4F)c4ccc([nH]4)c(-c4c(F)cccc4F)c4nc(c(-c5c(F)cccc5F)c5ccc2[nH]5)C=C4)C=C3)cc1
REMARK SMILES IDX 22 1 21 2 20 3 19 4 2 5 1 6 3 7 4 8 5 9 8 10 6 11 7 12 9 13
REMARK SMILES IDX 10 14 14 15 11 16 13 17 12 18 15 19 18 20 16 21 17 22 23 23
REMARK SMILES IDX 24 24 25 25 26 26 27 27 28 28 29 29 81 30 30 31 80 32 31 33
REMARK SMILES IDX 32 34 33 35 74 36 34 37 79 38 73 39 75 40 35 41 78 42 72 43
REMARK SMILES IDX 71 44 36 46 62 47 45 48 61 49 46 50 49 51 60 52 76 53 47 54
REMARK SMILES IDX 48 55 59 57 77 58 50 59 37 60 38 61 43 62 39 63 40 64 42 65
REMARK SMILES IDX 44 66 41 67 63 68 64 69 69 70 65 71 66 72 68 73 70 74 67 75
REMARK SMILES IDX 51 76 52 77 57 78 53 79 54 80 56 81 58 82 55 83
REMARK H PARENT 75 45 49 56
REMARK Flexibility Score: inf
ROOT
ATOM      1  O   UNL     1       4.439   1.363   1.121  1.00  0.00    -0.374 OA
ENDROOT
BRANCH   1   2
ATOM      2  C   UNL     1       4.798   1.182  -0.251  1.00  0.00     0.202 C 
BRANCH   2   3
ATOM      3  C   UNL     1       4.252  -0.025  -1.009  1.00  0.00     0.261 C 
BRANCH   3   4
ATOM      4  O   UNL     1       2.833  -0.176  -0.949  1.00  0.00    -0.463 OA
BRANCH   4   5
ATOM      5  C   UNL     1       2.154  -0.705   0.091  1.00  0.00     0.311 C 
ATOM      6  O   UNL     1       0.923  -0.630   0.071  1.00  0.00    -0.252 OA
BRANCH   5   7
ATOM      7  C   UNL     1       2.869  -1.235   1.320  1.00  0.00     0.177 C 
BRANCH   7   8
ATOM      8  C   UNL     1       3.808  -2.370   1.098  1.00  0.00     0.034 A 
ATOM      9  C   UNL     1       5.195  -2.367   1.125  1.00  0.00     0.024 A 
ATOM     10  N   UNL     1       3.390  -3.685   1.041  1.00  0.00    -0.320 N 
ATOM     11  C   UNL     1       5.630  -3.697   0.980  1.00  0.00     0.020 A 
ATOM     12  C   UNL     1       4.504  -4.490   0.987  1.00  0.00     0.091 A 
BRANCH  10  13
ATOM     13  C   UNL     1       2.070  -4.104   1.306  1.00  0.00     0.049 A 
ATOM     14  C   UNL     1       1.806  -4.688   2.549  1.00  0.00     0.031 A 
ATOM     15  C   UNL     1       1.033  -3.685   0.468  1.00  0.00     0.077 A 
ATOM     16  C   UNL     1       0.482  -4.824   2.968  1.00  0.00     0.052 A 
ATOM     17  C   UNL     1      -0.281  -3.804   0.905  1.00  0.00     0.163 A 
ATOM     18  C   UNL     1      -0.558  -4.387   2.146  1.00  0.00     0.161 A 
ATOM     19  O   UNL     1      -1.251  -3.297   0.077  1.00  0.00    -0.486 OA
ATOM     20  O   UNL     1      -1.833  -4.537   2.633  1.00  0.00    -0.486 OA
ATOM     21  C   UNL     1      -2.486  -3.113   0.778  1.00  0.00     0.271 C 
ATOM     22  C   UNL     1      -2.804  -4.354   1.595  1.00  0.00     0.271 C 
ENDBRANCH  10  13
ENDBRANCH   7   8
ENDBRANCH   5   7
ENDBRANCH   4   5
ENDBRANCH   3   4
ENDBRANCH   2   3
ENDBRANCH   1   2
BRANCH   1  23
ATOM     23  C   UNL     1       3.155   1.905   1.458  1.00  0.00     0.202 C 
BRANCH  23  24
ATOM     24  C   UNL     1       2.961   3.397   1.380  1.00  0.00     0.261 C 
BRANCH  24  25
ATOM     25  O   UNL     1       3.195   3.813   0.057  1.00  0.00    -0.460 OA
BRANCH  25  26
ATOM     26  C   UNL     1       4.476   4.186  -0.131  1.00  0.00     0.338 C 
ATOM     27  O   UNL     1       5.438   4.003   0.591  1.00  0.00    -0.246 OA
BRANCH  26  28
ATOM     28  C   UNL     1       4.499   5.049  -1.296  1.00  0.00     0.060 A 
ATOM     29  C   UNL     1       5.777   5.439  -1.688  1.00  0.00     0.016 A 
ATOM     30  C   UNL     1       3.344   5.824  -1.484  1.00  0.00     0.016 A 
ATOM     31  C   UNL     1       5.935   6.745  -2.050  1.00  0.00     0.010 A 
ATOM     32  C   UNL     1       3.515   7.150  -1.741  1.00  0.00     0.010 A 
ATOM     33  C   UNL     1       4.811   7.586  -2.011  1.00  0.00    -0.014 A 
BRANCH  33  34
ATOM     34  C   UNL     1       4.987   8.912  -2.565  1.00  0.00     0.031 A 
ATOM     35  C   UNL     1       4.837   8.782  -4.089  1.00  0.00     0.074 A 
ATOM     36  C   UNL     1       5.350   9.867  -1.658  1.00  0.00     0.049 A 
ATOM     37  N   UNL     1       5.524   9.345  -5.025  1.00  0.00    -0.248 NA
ATOM     38  C   UNL     1       3.892   7.772  -4.669  1.00  0.00     0.031 C 
ATOM     39  C   UNL     1       5.363   9.700  -0.182  1.00  0.00     0.029 A 
ATOM     40  N   UNL     1       5.797  11.159  -1.780  1.00  0.00    -0.354 N 
ATOM     41  C   UNL     1       4.944   8.966  -6.252  1.00  0.00     0.074 A 
ATOM     42  C   UNL     1       4.087   7.862  -5.983  1.00  0.00     0.031 C 
ATOM     43  C   UNL     1       5.879  10.794   0.424  1.00  0.00     0.029 A 
ATOM     44  C   UNL     1       6.241  11.776  -0.579  1.00  0.00     0.049 A 
ATOM     45  H   UNL     1       5.809  11.629  -2.645  1.00  0.00     0.167 HD
ATOM     46  C   UNL     1       5.055   9.734  -7.370  1.00  0.00     0.037 A 
ATOM     47  C   UNL     1       6.906  12.967  -0.435  1.00  0.00     0.037 A 
ATOM     48  C   UNL     1       5.868  10.867  -7.075  1.00  0.00     0.049 A 
ATOM     49  C   UNL     1       6.922  13.537  -1.789  1.00  0.00     0.074 A 
ATOM     50  C   UNL     1       7.209  10.968  -6.809  1.00  0.00     0.029 A 
ATOM     51  N   UNL     1       5.211  11.964  -6.565  1.00  0.00    -0.354 N 
ATOM     52  N   UNL     1       5.888  14.049  -2.386  1.00  0.00    -0.248 NA
ATOM     53  C   UNL     1       8.141  13.391  -2.594  1.00  0.00     0.031 C 
ATOM     54  C   UNL     1       7.244  11.868  -5.726  1.00  0.00     0.029 A 
ATOM     55  C   UNL     1       6.002  12.499  -5.580  1.00  0.00     0.049 A 
ATOM     56  H   UNL     1       4.334  12.303  -6.854  1.00  0.00     0.167 HD
ATOM     57  C   UNL     1       6.246  13.947  -3.709  1.00  0.00     0.074 A 
ATOM     58  C   UNL     1       7.692  13.886  -3.743  1.00  0.00     0.031 C 
ATOM     59  C   UNL     1       5.395  13.358  -4.591  1.00  0.00     0.037 A 
BRANCH  46  60
ATOM     60  C   UNL     1       4.269   9.760  -8.643  1.00  0.00     0.057 A 
ATOM     61  C   UNL     1       4.798  10.511  -9.715  1.00  0.00     0.134 A 
ATOM     62  C   UNL     1       2.916   9.418  -8.742  1.00  0.00     0.134 A 
ATOM     63  F   UNL     1       6.100  10.842  -9.752  1.00  0.00    -0.206 F 
ATOM     64  C   UNL     1       3.998  11.030 -10.732  1.00  0.00     0.040 A 
ATOM     65  C   UNL     1       2.115   9.889  -9.788  1.00  0.00     0.040 A 
ATOM     66  F   UNL     1       2.294   8.707  -7.793  1.00  0.00    -0.206 F 
ATOM     67  C   UNL     1       2.643  10.738 -10.757  1.00  0.00     0.006 A 
ENDBRANCH  46  60
BRANCH  47  68
ATOM     68  C   UNL     1       7.652  13.749   0.622  1.00  0.00     0.057 A 
ATOM     69  C   UNL     1       7.610  13.534   2.001  1.00  0.00     0.134 A 
ATOM     70  C   UNL     1       8.536  14.802   0.239  1.00  0.00     0.134 A 
ATOM     71  F   UNL     1       6.742  12.671   2.542  1.00  0.00    -0.206 F 
ATOM     72  C   UNL     1       8.453  14.226   2.900  1.00  0.00     0.040 A 
ATOM     73  C   UNL     1       9.408  15.461   1.109  1.00  0.00     0.040 A 
ATOM     74  F   UNL     1       8.600  15.258  -1.018  1.00  0.00    -0.206 F 
ATOM     75  C   UNL     1       9.382  15.162   2.453  1.00  0.00     0.006 A 
ENDBRANCH  47  68
BRANCH  59  76
ATOM     76  C   UNL     1       3.933  13.394  -4.177  1.00  0.00     0.057 A 
ATOM     77  C   UNL     1       3.301  14.626  -3.959  1.00  0.00     0.134 A 
ATOM     78  C   UNL     1       3.162  12.266  -3.858  1.00  0.00     0.134 A 
ATOM     79  F   UNL     1       3.936  15.768  -4.263  1.00  0.00    -0.206 F 
ATOM     80  C   UNL     1       2.009  14.728  -3.421  1.00  0.00     0.040 A 
ATOM     81  C   UNL     1       1.871  12.346  -3.313  1.00  0.00     0.040 A 
ATOM     82  F   UNL     1       3.633  11.039  -4.064  1.00  0.00    -0.206 F 
ATOM     83  C   UNL     1       1.292  13.585  -3.084  1.00  0.00     0.006 A 
ENDBRANCH  59  76
ENDBRANCH  33  34
ENDBRANCH  26  28
ENDBRANCH  25  26
ENDBRANCH  24  25
ENDBRANCH  23  24
ENDBRANCH   1  23
TORSDOF 16
