REMARK SMILES COc1ccc(Cl)c2sc(N3CC(C(=O)OCCOCCOC(=O)c4ccc(-c5c6nc(c(-c7c(F)cccc7F)c7ccc([nH]7)c(-c7c(F)cccc7F)c7nc(c(-c8c(F)cccc8F)c8ccc5[nH]8)C=C7)C=C6)cc4)C3)nc12
REMARK SMILES IDX 19 1 18 2 17 3 16 4 14 5 15 6 13 7 11 8 12 9 79 10 10 11
REMARK SMILES IDX 3 12 4 13 81 14 5 15 8 16 80 17 6 18 9 19 7 20 2 21 1 22
REMARK SMILES IDX 20 23 21 24 22 25 23 26 24 27 25 28 26 29 78 30 27 31 77 32
REMARK SMILES IDX 28 33 29 34 30 35 71 36 31 37 76 38 70 39 72 40 32 41 75 42
REMARK SMILES IDX 69 43 68 44 33 46 59 47 42 48 58 49 43 50 46 51 57 52 73 53
REMARK SMILES IDX 44 54 45 55 56 57 74 58 47 59 34 60 35 61 40 62 36 63 37 64
REMARK SMILES IDX 39 65 41 66 38 67 60 68 61 69 66 70 62 71 63 72 65 73 67 74
REMARK SMILES IDX 64 75 48 76 49 77 54 78 50 79 51 80 53 81 55 82 52 83
REMARK H PARENT 72 45 46 56
REMARK Flexibility Score: inf
ROOT
ATOM      1  O   UNL     1      -8.444   7.343   2.311  1.00  0.00    -0.374 OA
ENDROOT
BRANCH   1   2
ATOM      2  C   UNL     1      -8.583   7.119   3.713  1.00  0.00     0.202 C 
BRANCH   2   3
ATOM      3  C   UNL     1      -8.039   5.827   4.324  1.00  0.00     0.261 C 
BRANCH   3   4
ATOM      4  O   UNL     1      -6.648   5.627   4.031  1.00  0.00    -0.463 OA
BRANCH   4   5
ATOM      5  C   UNL     1      -6.371   4.512   3.289  1.00  0.00     0.312 C 
ATOM      6  O   UNL     1      -7.208   3.651   3.019  1.00  0.00    -0.252 OA
BRANCH   5   7
ATOM      7  C   UNL     1      -4.950   4.481   2.739  1.00  0.00     0.138 C 
ATOM      8  N   UNL     1      -3.035   4.131   3.385  1.00  0.00    -0.346 N 
ATOM      9  C   UNL     1      -4.123   3.258   3.123  1.00  0.00     0.136 C 
ATOM     10  C   UNL     1      -3.808   5.326   3.319  1.00  0.00     0.136 C 
BRANCH   8  11
ATOM     11  C   UNL     1      -1.730   3.912   3.131  1.00  0.00     0.186 A 
ATOM     12  C   UNL     1       0.903   1.983   1.613  1.00  0.00     0.146 A 
ATOM     13  C   UNL     1       2.263   1.861   1.934  1.00  0.00     0.050 A 
ATOM     14  C   UNL     1       0.095   2.871   2.379  1.00  0.00     0.127 A 
ATOM     15  C   UNL     1       2.818   2.597   2.978  1.00  0.00     0.026 A 
ATOM     16  C   UNL     1       0.687   3.648   3.378  1.00  0.00     0.079 A 
ATOM     17  N   UNL     1      -1.283   3.029   2.269  1.00  0.00    -0.216 NA
ATOM     18  C   UNL     1       2.046   3.508   3.701  1.00  0.00     0.060 A 
ATOM     19  S   UNL     1      -0.507   4.711   4.033  1.00  0.00    -0.095 S 
ATOM     20  Cl  UNL     1       2.783   4.407   4.971  1.00  0.00    -0.083 Cl
BRANCH  12  21
ATOM     21  O   UNL     1       0.309   1.329   0.562  1.00  0.00    -0.494 OA
ATOM     22  C   UNL     1       0.888   0.095   0.156  1.00  0.00     0.278 C 
ENDBRANCH  12  21
ENDBRANCH   8  11
ENDBRANCH   5   7
ENDBRANCH   4   5
ENDBRANCH   3   4
ENDBRANCH   2   3
ENDBRANCH   1   2
BRANCH   1  23
ATOM     23  C   UNL     1      -7.163   7.399   1.690  1.00  0.00     0.202 C 
BRANCH  23  24
ATOM     24  C   UNL     1      -6.235   8.569   1.998  1.00  0.00     0.261 C 
BRANCH  24  25
ATOM     25  O   UNL     1      -5.983   8.685   3.387  1.00  0.00    -0.460 OA
BRANCH  25  26
ATOM     26  C   UNL     1      -6.765   9.614   3.980  1.00  0.00     0.338 C 
ATOM     27  O   UNL     1      -7.671  10.253   3.474  1.00  0.00    -0.246 OA
BRANCH  26  28
ATOM     28  C   UNL     1      -6.312   9.825   5.359  1.00  0.00     0.060 A 
ATOM     29  C   UNL     1      -7.082  10.733   6.088  1.00  0.00     0.016 A 
ATOM     30  C   UNL     1      -4.971   9.554   5.653  1.00  0.00     0.016 A 
ATOM     31  C   UNL     1      -6.411  11.644   6.861  1.00  0.00     0.010 A 
ATOM     32  C   UNL     1      -4.300  10.476   6.409  1.00  0.00     0.010 A 
ATOM     33  C   UNL     1      -5.017  11.570   6.886  1.00  0.00    -0.014 A 
BRANCH  33  34
ATOM     34  C   UNL     1      -4.301  12.706   7.404  1.00  0.00     0.031 A 
ATOM     35  C   UNL     1      -4.216  12.702   8.873  1.00  0.00     0.074 A 
ATOM     36  C   UNL     1      -3.711  13.595   6.586  1.00  0.00     0.049 A 
ATOM     37  N   UNL     1      -4.834  13.475   9.701  1.00  0.00    -0.248 NA
ATOM     38  C   UNL     1      -3.516  11.569   9.497  1.00  0.00     0.031 C 
ATOM     39  C   UNL     1      -3.519  13.527   5.133  1.00  0.00     0.029 A 
ATOM     40  N   UNL     1      -3.063  14.736   6.927  1.00  0.00    -0.354 N 
ATOM     41  C   UNL     1      -4.420  13.053  10.957  1.00  0.00     0.074 A 
ATOM     42  C   UNL     1      -3.812  11.761  10.781  1.00  0.00     0.031 C 
ATOM     43  C   UNL     1      -2.613  14.462   4.761  1.00  0.00     0.029 A 
ATOM     44  C   UNL     1      -2.268  15.265   5.921  1.00  0.00     0.049 A 
ATOM     45  H   UNL     1      -3.150  15.155   7.814  1.00  0.00     0.167 HD
ATOM     46  C   UNL     1      -4.332  13.923  11.995  1.00  0.00     0.037 A 
ATOM     47  C   UNL     1      -1.325  16.223   6.103  1.00  0.00     0.037 A 
ATOM     48  C   UNL     1      -5.088  15.124  11.751  1.00  0.00     0.049 A 
ATOM     49  C   UNL     1      -1.635  16.908   7.389  1.00  0.00     0.074 A 
ATOM     50  C   UNL     1      -6.421  15.406  11.521  1.00  0.00     0.029 A 
ATOM     51  N   UNL     1      -4.398  16.241  11.345  1.00  0.00    -0.354 N 
ATOM     52  N   UNL     1      -2.690  17.654   7.570  1.00  0.00    -0.248 NA
ATOM     53  C   UNL     1      -1.046  16.361   8.605  1.00  0.00     0.031 C 
ATOM     54  C   UNL     1      -6.419  16.463  10.564  1.00  0.00     0.029 A 
ATOM     55  C   UNL     1      -5.090  16.794  10.298  1.00  0.00     0.049 A 
ATOM     56  H   UNL     1      -3.561  16.581  11.735  1.00  0.00     0.167 HD
ATOM     57  C   UNL     1      -3.139  17.342   8.848  1.00  0.00     0.074 A 
ATOM     58  C   UNL     1      -2.047  16.590   9.461  1.00  0.00     0.031 C 
ATOM     59  C   UNL     1      -4.458  17.463   9.185  1.00  0.00     0.037 A 
BRANCH  46  60
ATOM     60  C   UNL     1      -3.234  13.854  13.023  1.00  0.00     0.057 A 
ATOM     61  C   UNL     1      -1.967  13.273  12.794  1.00  0.00     0.134 A 
ATOM     62  C   UNL     1      -3.331  14.649  14.173  1.00  0.00     0.134 A 
ATOM     63  F   UNL     1      -1.682  12.566  11.693  1.00  0.00    -0.206 F 
ATOM     64  C   UNL     1      -0.876  13.477  13.638  1.00  0.00     0.040 A 
ATOM     65  C   UNL     1      -2.228  14.908  14.993  1.00  0.00     0.040 A 
ATOM     66  F   UNL     1      -4.481  15.266  14.486  1.00  0.00    -0.206 F 
ATOM     67  C   UNL     1      -0.994  14.328  14.723  1.00  0.00     0.006 A 
ENDBRANCH  46  60
BRANCH  47  68
ATOM     68  C   UNL     1      -0.001  16.305   5.446  1.00  0.00     0.057 A 
ATOM     69  C   UNL     1       0.675  15.148   5.015  1.00  0.00     0.134 A 
ATOM     70  C   UNL     1       0.749  17.487   5.453  1.00  0.00     0.134 A 
ATOM     71  F   UNL     1       0.084  13.944   5.054  1.00  0.00    -0.206 F 
ATOM     72  C   UNL     1       2.013  15.164   4.611  1.00  0.00     0.040 A 
ATOM     73  C   UNL     1       2.094  17.517   5.056  1.00  0.00     0.040 A 
ATOM     74  F   UNL     1       0.210  18.631   5.898  1.00  0.00    -0.206 F 
ATOM     75  C   UNL     1       2.732  16.352   4.640  1.00  0.00     0.006 A 
ENDBRANCH  47  68
BRANCH  59  76
ATOM     76  C   UNL     1      -5.365  18.132   8.187  1.00  0.00     0.057 A 
ATOM     77  C   UNL     1      -6.063  19.283   8.559  1.00  0.00     0.134 A 
ATOM     78  C   UNL     1      -5.663  17.590   6.926  1.00  0.00     0.134 A 
ATOM     79  F   UNL     1      -5.880  19.820   9.776  1.00  0.00    -0.206 F 
ATOM     80  C   UNL     1      -6.997  19.884   7.710  1.00  0.00     0.040 A 
ATOM     81  C   UNL     1      -6.570  18.198   6.054  1.00  0.00     0.040 A 
ATOM     82  F   UNL     1      -5.126  16.430   6.530  1.00  0.00    -0.206 F 
ATOM     83  C   UNL     1      -7.244  19.350   6.448  1.00  0.00     0.006 A 
ENDBRANCH  59  76
ENDBRANCH  33  34
ENDBRANCH  26  28
ENDBRANCH  25  26
ENDBRANCH  24  25
ENDBRANCH  23  24
ENDBRANCH   1  23
TORSDOF 16
