REMARK SMILES Cc1cc(C)c2c(C(=O)OCCOCCOC(=O)c3ccc(-c4c5nc(c(-c6c(F)cccc6F)c6ccc([nH]6)c(-c6c(F)cccc6F)c6nc(c(-c7c(F)cccc7F)c7ccc4[nH]7)C=C6)C=C5)cc3)cc(-c3ccco3)nc2c1
REMARK SMILES IDX 14 1 13 2 12 3 11 4 10 5 8 6 9 7 7 8 1 9 2 10 3 11 82 12
REMARK SMILES IDX 4 13 81 14 5 15 6 16 80 17 74 18 73 19 75 20 76 21 79 22
REMARK SMILES IDX 77 23 78 24 15 25 16 26 17 27 18 28 19 29 20 30 72 31 21 32
REMARK SMILES IDX 71 33 22 34 23 35 24 36 65 37 25 38 70 39 64 40 66 41 26 42
REMARK SMILES IDX 69 43 63 44 62 45 27 47 53 48 36 49 52 50 37 51 40 52 51 53
REMARK SMILES IDX 67 54 38 55 39 56 50 58 68 59 41 60 28 61 29 62 34 63 30 64
REMARK SMILES IDX 31 65 33 66 35 67 32 68 54 69 55 70 60 71 56 72 57 73 59 74
REMARK SMILES IDX 61 75 58 76 42 77 43 78 48 79 44 80 45 81 47 82 49 83 46 84
REMARK H PARENT 66 46 40 57
REMARK Flexibility Score: inf
ROOT
ATOM      1  C   UNL     1      -3.667   0.621   6.837  1.00  0.00     0.202 C 
ENDROOT
BRANCH   1   2
ATOM      2  O   UNL     1      -3.450   1.561   7.892  1.00  0.00    -0.374 OA
BRANCH   2   3
ATOM      3  C   UNL     1      -2.570   2.655   7.614  1.00  0.00     0.202 C 
BRANCH   3   4
ATOM      4  C   UNL     1      -1.091   2.283   7.680  1.00  0.00     0.261 C 
BRANCH   4   5
ATOM      5  O   UNL     1      -0.812   1.475   6.527  1.00  0.00    -0.460 OA
BRANCH   5   6
ATOM      6  C   UNL     1       0.077   0.485   6.680  1.00  0.00     0.338 C 
ATOM      7  O   UNL     1       0.794   0.300   7.652  1.00  0.00    -0.246 OA
BRANCH   6   8
ATOM      8  C   UNL     1      -0.121  -0.525   5.617  1.00  0.00     0.072 A 
ATOM      9  C   UNL     1       0.894  -0.350  -0.060  1.00  0.00     0.044 C 
ATOM     10  C   UNL     1       0.504  -0.317   1.386  1.00  0.00    -0.049 A 
ATOM     11  C   UNL     1       0.381   0.887   2.063  1.00  0.00     0.007 A 
ATOM     12  C   UNL     1       0.300  -1.496   2.099  1.00  0.00     0.032 A 
ATOM     13  C   UNL     1       0.105   0.923   3.444  1.00  0.00    -0.041 A 
ATOM     14  C   UNL     1       0.026  -1.514   3.457  1.00  0.00     0.072 A 
ATOM     15  C   UNL     1      -0.151   2.296   4.009  1.00  0.00     0.045 C 
ATOM     16  C   UNL     1      -0.002  -0.307   4.202  1.00  0.00     0.018 A 
ATOM     17  N   UNL     1      -0.189  -2.734   3.970  1.00  0.00    -0.244 NA
ATOM     18  C   UNL     1      -0.407  -2.866   5.288  1.00  0.00     0.107 A 
ATOM     19  C   UNL     1      -0.356  -1.801   6.150  1.00  0.00     0.048 A 
BRANCH  18  20
ATOM     20  C   UNL     1      -0.720  -4.202   5.752  1.00  0.00     0.152 A 
ATOM     21  C   UNL     1      -1.846  -4.787   6.298  1.00  0.00     0.052 A 
ATOM     22  O   UNL     1       0.295  -5.113   5.698  1.00  0.00    -0.463 OA
ATOM     23  C   UNL     1      -1.499  -6.129   6.591  1.00  0.00     0.043 A 
ATOM     24  C   UNL     1      -0.186  -6.276   6.210  1.00  0.00     0.196 A 
ENDBRANCH  18  20
ENDBRANCH   6   8
ENDBRANCH   5   6
ENDBRANCH   4   5
ENDBRANCH   3   4
ENDBRANCH   2   3
ENDBRANCH   1   2
BRANCH   1  25
ATOM     25  C   UNL     1      -4.766   1.009   5.844  1.00  0.00     0.261 C 
BRANCH  25  26
ATOM     26  O   UNL     1      -4.341   2.078   4.979  1.00  0.00    -0.460 OA
BRANCH  26  27
ATOM     27  C   UNL     1      -4.889   3.283   5.250  1.00  0.00     0.338 C 
ATOM     28  O   UNL     1      -5.729   3.547   6.096  1.00  0.00    -0.246 OA
BRANCH  27  29
ATOM     29  C   UNL     1      -4.203   4.326   4.469  1.00  0.00     0.060 A 
ATOM     30  C   UNL     1      -3.644   5.402   5.172  1.00  0.00     0.016 A 
ATOM     31  C   UNL     1      -4.202   4.308   3.073  1.00  0.00     0.016 A 
ATOM     32  C   UNL     1      -3.128   6.493   4.479  1.00  0.00     0.010 A 
ATOM     33  C   UNL     1      -3.704   5.414   2.379  1.00  0.00     0.010 A 
ATOM     34  C   UNL     1      -3.206   6.526   3.082  1.00  0.00    -0.014 A 
BRANCH  34  35
ATOM     35  C   UNL     1      -2.972   7.806   2.374  1.00  0.00     0.031 A 
ATOM     36  C   UNL     1      -4.149   8.707   2.118  1.00  0.00     0.074 A 
ATOM     37  C   UNL     1      -1.738   8.176   1.992  1.00  0.00     0.049 A 
ATOM     38  N   UNL     1      -4.199   9.851   1.487  1.00  0.00    -0.248 NA
ATOM     39  C   UNL     1      -5.445   8.255   2.652  1.00  0.00     0.031 C 
ATOM     40  C   UNL     1      -0.512   7.420   2.237  1.00  0.00     0.029 A 
ATOM     41  N   UNL     1      -1.321   9.288   1.307  1.00  0.00    -0.354 N 
ATOM     42  C   UNL     1      -5.525  10.259   1.554  1.00  0.00     0.074 A 
ATOM     43  C   UNL     1      -6.253   9.228   2.261  1.00  0.00     0.031 C 
ATOM     44  C   UNL     1       0.522   8.084   1.692  1.00  0.00     0.029 A 
ATOM     45  C   UNL     1       0.025   9.293   1.038  1.00  0.00     0.049 A 
ATOM     46  H   UNL     1      -1.928  10.013   1.035  1.00  0.00     0.167 HD
ATOM     47  C   UNL     1      -6.086  11.395   1.077  1.00  0.00     0.037 A 
ATOM     48  C   UNL     1       0.760  10.165   0.322  1.00  0.00     0.037 A 
ATOM     49  C   UNL     1      -5.370  12.408   0.351  1.00  0.00     0.049 A 
ATOM     50  C   UNL     1       0.090  11.363  -0.301  1.00  0.00     0.074 A 
ATOM     51  C   UNL     1      -5.850  13.589  -0.188  1.00  0.00     0.029 A 
ATOM     52  N   UNL     1      -4.018  12.351   0.051  1.00  0.00    -0.354 N 
ATOM     53  N   UNL     1      -1.161  11.747  -0.223  1.00  0.00    -0.248 NA
ATOM     54  C   UNL     1       0.938  12.246  -1.115  1.00  0.00     0.031 C 
ATOM     55  C   UNL     1      -4.795  14.226  -0.851  1.00  0.00     0.029 A 
ATOM     56  C   UNL     1      -3.650  13.464  -0.686  1.00  0.00     0.049 A 
ATOM     57  H   UNL     1      -3.409  11.626   0.322  1.00  0.00     0.167 HD
ATOM     58  C   UNL     1      -1.242  12.931  -0.947  1.00  0.00     0.074 A 
ATOM     59  C   UNL     1       0.087  13.204  -1.452  1.00  0.00     0.031 C 
ATOM     60  C   UNL     1      -2.319  13.724  -1.170  1.00  0.00     0.037 A 
BRANCH  47  61
ATOM     61  C   UNL     1      -7.557  11.576   1.303  1.00  0.00     0.057 A 
ATOM     62  C   UNL     1      -8.465  11.447   0.245  1.00  0.00     0.134 A 
ATOM     63  C   UNL     1      -8.076  11.883   2.568  1.00  0.00     0.134 A 
ATOM     64  F   UNL     1      -8.033  11.153  -0.991  1.00  0.00    -0.206 F 
ATOM     65  C   UNL     1      -9.837  11.616   0.436  1.00  0.00     0.040 A 
ATOM     66  C   UNL     1      -9.448  12.031   2.776  1.00  0.00     0.040 A 
ATOM     67  F   UNL     1      -7.260  12.001   3.626  1.00  0.00    -0.206 F 
ATOM     68  C   UNL     1     -10.332  11.902   1.707  1.00  0.00     0.006 A 
ENDBRANCH  47  61
BRANCH  48  69
ATOM     69  C   UNL     1       2.213   9.937   0.127  1.00  0.00     0.057 A 
ATOM     70  C   UNL     1       2.684   8.900  -0.688  1.00  0.00     0.134 A 
ATOM     71  C   UNL     1       3.163  10.780   0.714  1.00  0.00     0.134 A 
ATOM     72  F   UNL     1       1.823   8.060  -1.281  1.00  0.00    -0.206 F 
ATOM     73  C   UNL     1       4.048   8.709  -0.911  1.00  0.00     0.040 A 
ATOM     74  C   UNL     1       4.530  10.614   0.481  1.00  0.00     0.040 A 
ATOM     75  F   UNL     1       2.771  11.805   1.484  1.00  0.00    -0.206 F 
ATOM     76  C   UNL     1       4.975   9.574  -0.332  1.00  0.00     0.006 A 
ENDBRANCH  48  69
BRANCH  60  77
ATOM     77  C   UNL     1      -2.094  14.983  -1.954  1.00  0.00     0.057 A 
ATOM     78  C   UNL     1      -2.128  16.231  -1.318  1.00  0.00     0.134 A 
ATOM     79  C   UNL     1      -1.879  14.967  -3.337  1.00  0.00     0.134 A 
ATOM     80  F   UNL     1      -2.337  16.317   0.004  1.00  0.00    -0.206 F 
ATOM     81  C   UNL     1      -1.959  17.419  -2.031  1.00  0.00     0.040 A 
ATOM     82  C   UNL     1      -1.685  16.147  -4.058  1.00  0.00     0.040 A 
ATOM     83  F   UNL     1      -1.822  13.803  -4.003  1.00  0.00    -0.206 F 
ATOM     84  C   UNL     1      -1.731  17.378  -3.405  1.00  0.00     0.006 A 
ENDBRANCH  60  77
ENDBRANCH  34  35
ENDBRANCH  27  29
ENDBRANCH  26  27
ENDBRANCH  25  26
ENDBRANCH   1  25
TORSDOF 15
