REMARK SMILES O=C(OCCOCCOC(=O)[C@H]1C[C@@H](O)CN1C(=O)CCc1ccc(Cl)cc1Cl)c1ccc(-c2c3nc(c(-c4c(F)cccc4F)c4ccc([nH]4)c(-c4c(F)cccc4F)c4nc(c(-c5c(F)cccc5F)c5ccc2[nH]5)C=C4)C=C3)cc1
REMARK SMILES IDX 7 1 6 2 5 3 4 4 3 5 2 6 1 7 30 8 31 9 83 10 32 11 82 12
REMARK SMILES IDX 33 13 34 14 35 15 76 16 36 17 81 18 75 19 77 20 37 21 80 22
REMARK SMILES IDX 74 23 73 24 38 26 64 27 47 28 63 29 48 30 51 31 62 32 78 33
REMARK SMILES IDX 49 34 50 35 61 37 79 38 52 39 39 40 40 41 45 42 41 43 42 44
REMARK SMILES IDX 44 45 46 46 43 47 65 48 66 49 71 50 67 51 68 52 70 53 72 54
REMARK SMILES IDX 69 55 53 56 54 57 59 58 55 59 56 60 58 61 60 62 57 63 8 64
REMARK SMILES IDX 9 65 10 66 11 67 12 68 13 69 17 70 14 71 16 72 18 73 19 74
REMARK SMILES IDX 20 75 21 76 22 77 23 78 28 79 24 80 27 81 29 82 25 83 26 84
REMARK SMILES IDX 15 85
REMARK H PARENT 77 25 51 36 15 86
REMARK Flexibility Score: inf
ROOT
ATOM      1  C   UNL     1       2.596   1.393   1.897  1.00  0.00     0.202 C 
ENDROOT
BRANCH   1   2
ATOM      2  O   UNL     1       3.840   0.696   1.784  1.00  0.00    -0.374 OA
BRANCH   2   3
ATOM      3  C   UNL     1       4.451   0.724   0.502  1.00  0.00     0.202 C 
BRANCH   3   4
ATOM      4  C   UNL     1       3.801  -0.055  -0.660  1.00  0.00     0.261 C 
BRANCH   4   5
ATOM      5  O   UNL     1       2.353  -0.145  -0.596  1.00  0.00    -0.460 OA
BRANCH   5   6
ATOM      6  C   UNL     1       1.662  -1.312  -0.400  1.00  0.00     0.338 C 
ATOM      7  O   UNL     1       0.496  -1.443  -0.739  1.00  0.00    -0.246 OA
BRANCH   6   8
ATOM      8  C   UNL     1       2.381  -2.422   0.268  1.00  0.00     0.060 A 
ATOM      9  C   UNL     1       3.225  -2.104   1.309  1.00  0.00     0.016 A 
ATOM     10  C   UNL     1       2.273  -3.754  -0.114  1.00  0.00     0.016 A 
ATOM     11  C   UNL     1       4.233  -2.947   1.685  1.00  0.00     0.010 A 
ATOM     12  C   UNL     1       3.107  -4.705   0.499  1.00  0.00     0.010 A 
ATOM     13  C   UNL     1       4.134  -4.292   1.370  1.00  0.00    -0.014 A 
BRANCH  13  14
ATOM     14  C   UNL     1       5.138  -5.188   1.985  1.00  0.00     0.031 A 
ATOM     15  C   UNL     1       6.005  -6.032   1.105  1.00  0.00     0.074 A 
ATOM     16  C   UNL     1       5.362  -5.113   3.317  1.00  0.00     0.049 A 
ATOM     17  N   UNL     1       6.848  -6.969   1.440  1.00  0.00    -0.248 NA
ATOM     18  C   UNL     1       5.910  -5.798  -0.347  1.00  0.00     0.031 C 
ATOM     19  C   UNL     1       4.652  -4.228   4.255  1.00  0.00     0.029 A 
ATOM     20  N   UNL     1       6.290  -5.731   4.113  1.00  0.00    -0.354 N 
ATOM     21  C   UNL     1       7.331  -7.482   0.245  1.00  0.00     0.074 A 
ATOM     22  C   UNL     1       6.699  -6.747  -0.827  1.00  0.00     0.031 C 
ATOM     23  C   UNL     1       5.240  -4.279   5.456  1.00  0.00     0.029 A 
ATOM     24  C   UNL     1       6.248  -5.321   5.427  1.00  0.00     0.049 A 
ATOM     25  H   UNL     1       6.926  -6.404   3.778  1.00  0.00     0.167 HD
ATOM     26  C   UNL     1       8.213  -8.493   0.075  1.00  0.00     0.037 A 
ATOM     27  C   UNL     1       6.901  -5.787   6.506  1.00  0.00     0.037 A 
ATOM     28  C   UNL     1       8.844  -9.175   1.172  1.00  0.00     0.049 A 
ATOM     29  C   UNL     1       7.817  -6.955   6.295  1.00  0.00     0.074 A 
ATOM     30  C   UNL     1       9.680 -10.275   1.149  1.00  0.00     0.029 A 
ATOM     31  N   UNL     1       8.716  -8.793   2.503  1.00  0.00    -0.354 N 
ATOM     32  N   UNL     1       8.158  -7.541   5.171  1.00  0.00    -0.248 NA
ATOM     33  C   UNL     1       8.402  -7.558   7.496  1.00  0.00     0.031 C 
ATOM     34  C   UNL     1      10.036 -10.575   2.469  1.00  0.00     0.029 A 
ATOM     35  C   UNL     1       9.455  -9.637   3.311  1.00  0.00     0.049 A 
ATOM     36  H   UNL     1       8.178  -8.033   2.822  1.00  0.00     0.167 HD
ATOM     37  C   UNL     1       8.994  -8.585   5.527  1.00  0.00     0.074 A 
ATOM     38  C   UNL     1       9.140  -8.525   6.970  1.00  0.00     0.031 C 
ATOM     39  C   UNL     1       9.574  -9.526   4.743  1.00  0.00     0.037 A 
BRANCH  26  40
ATOM     40  C   UNL     1       8.466  -8.948  -1.330  1.00  0.00     0.057 A 
ATOM     41  C   UNL     1       9.226  -8.198  -2.236  1.00  0.00     0.134 A 
ATOM     42  C   UNL     1       7.903 -10.144  -1.795  1.00  0.00     0.134 A 
ATOM     43  F   UNL     1       9.765  -7.027  -1.865  1.00  0.00    -0.206 F 
ATOM     44  C   UNL     1       9.399  -8.610  -3.560  1.00  0.00     0.040 A 
ATOM     45  C   UNL     1       8.086 -10.577  -3.109  1.00  0.00     0.040 A 
ATOM     46  F   UNL     1       7.154 -10.904  -0.983  1.00  0.00    -0.206 F 
ATOM     47  C   UNL     1       8.830  -9.805  -3.999  1.00  0.00     0.006 A 
ENDBRANCH  26  40
BRANCH  27  48
ATOM     48  C   UNL     1       6.628  -5.241   7.864  1.00  0.00     0.057 A 
ATOM     49  C   UNL     1       7.633  -4.631   8.624  1.00  0.00     0.134 A 
ATOM     50  C   UNL     1       5.357  -5.337   8.450  1.00  0.00     0.134 A 
ATOM     51  F   UNL     1       8.877  -4.524   8.136  1.00  0.00    -0.206 F 
ATOM     52  C   UNL     1       7.391  -4.158   9.917  1.00  0.00     0.040 A 
ATOM     53  C   UNL     1       5.091  -4.836   9.725  1.00  0.00     0.040 A 
ATOM     54  F   UNL     1       4.343  -5.910   7.784  1.00  0.00    -0.206 F 
ATOM     55  C   UNL     1       6.114  -4.254  10.468  1.00  0.00     0.006 A 
ENDBRANCH  27  48
BRANCH  39  56
ATOM     56  C   UNL     1      10.432 -10.530   5.444  1.00  0.00     0.057 A 
ATOM     57  C   UNL     1       9.878 -11.557   6.217  1.00  0.00     0.134 A 
ATOM     58  C   UNL     1      11.826 -10.471   5.332  1.00  0.00     0.134 A 
ATOM     59  F   UNL     1       8.549 -11.648   6.375  1.00  0.00    -0.206 F 
ATOM     60  C   UNL     1      10.686 -12.482   6.876  1.00  0.00     0.040 A 
ATOM     61  C   UNL     1      12.642 -11.406   5.965  1.00  0.00     0.040 A 
ATOM     62  F   UNL     1      12.411  -9.509   4.602  1.00  0.00    -0.206 F 
ATOM     63  C   UNL     1      12.072 -12.411   6.745  1.00  0.00     0.006 A 
ENDBRANCH  39  56
ENDBRANCH  13  14
ENDBRANCH   6   8
ENDBRANCH   5   6
ENDBRANCH   4   5
ENDBRANCH   3   4
ENDBRANCH   2   3
ENDBRANCH   1   2
BRANCH   1  64
ATOM     64  C   UNL     1       2.724   2.474   2.962  1.00  0.00     0.261 C 
BRANCH  64  65
ATOM     65  O   UNL     1       3.462   3.570   2.397  1.00  0.00    -0.462 OA
BRANCH  65  66
ATOM     66  C   UNL     1       4.816   3.533   2.551  1.00  0.00     0.329 C 
ATOM     67  O   UNL     1       5.434   2.706   3.211  1.00  0.00    -0.250 OA
BRANCH  66  68
ATOM     68  C   UNL     1       5.507   4.602   1.693  1.00  0.00     0.197 C 
ATOM     69  C   UNL     1       6.238   3.946   0.506  1.00  0.00     0.070 C 
ATOM     70  N   UNL     1       4.593   5.569   1.083  1.00  0.00    -0.326 N 
ATOM     71  C   UNL     1       5.412   4.279  -0.739  1.00  0.00     0.136 C 
ATOM     72  C   UNL     1       4.662   5.528  -0.350  1.00  0.00     0.152 C 
BRANCH  70  73
ATOM     73  C   UNL     1       3.958   6.538   1.825  1.00  0.00     0.223 C 
ATOM     74  O   UNL     1       4.242   6.715   3.011  1.00  0.00    -0.275 OA
BRANCH  73  75
ATOM     75  C   UNL     1       2.784   7.287   1.191  1.00  0.00     0.105 C 
BRANCH  75  76
ATOM     76  C   UNL     1       3.086   8.445   0.221  1.00  0.00     0.047 C 
BRANCH  76  77
ATOM     77  C   UNL     1       3.309   8.095  -1.243  1.00  0.00    -0.029 A 
ATOM     78  C   UNL     1       4.549   8.429  -1.825  1.00  0.00     0.007 A 
ATOM     79  C   UNL     1       2.389   7.368  -2.026  1.00  0.00     0.045 A 
ATOM     80  C   UNL     1       4.926   7.899  -3.063  1.00  0.00     0.021 A 
ATOM     81  C   UNL     1       2.776   6.821  -3.256  1.00  0.00     0.041 A 
ATOM     82  Cl  UNL     1       0.778   7.043  -1.497  1.00  0.00    -0.084 Cl
ATOM     83  C   UNL     1       4.053   7.062  -3.751  1.00  0.00     0.042 A 
ATOM     84  Cl  UNL     1       4.572   6.292  -5.198  1.00  0.00    -0.084 Cl
ENDBRANCH  76  77
ENDBRANCH  75  76
ENDBRANCH  73  75
ENDBRANCH  70  73
BRANCH  71  85
ATOM     85  O   UNL     1       4.494   3.275  -1.142  1.00  0.00    -0.391 OA
ATOM     86  H   UNL     1       3.858   3.113  -0.428  1.00  0.00     0.211 HD
ENDBRANCH  71  85
ENDBRANCH  66  68
ENDBRANCH  65  66
ENDBRANCH  64  65
ENDBRANCH   1  64
TORSDOF 19
