REMARK SMILES O=C(OCCOCCOC(=O)[C@@H]1CCCN1S(=O)(=O)c1ccc2c3c(cccc13)C(=O)N2)c1ccc(-c2c3nc(c(-c4c(F)cccc4F)c4ccc([nH]4)c(-c4c(F)cccc4F)c4nc(c(-c5c(F)cccc5F)c5ccc2[nH]5)C=C4)C=C3)cc1
REMARK SMILES IDX 6 1 5 2 4 3 3 4 2 5 1 6 33 7 34 8 86 9 35 10 85 11 36 12
REMARK SMILES IDX 37 13 38 14 79 15 39 16 84 17 78 18 80 19 40 20 83 21 77 22
REMARK SMILES IDX 76 23 41 25 67 26 50 27 66 28 51 29 54 30 65 31 81 32 52 33
REMARK SMILES IDX 53 34 64 36 82 37 55 38 42 39 43 40 48 41 44 42 45 43 47 44
REMARK SMILES IDX 49 45 46 46 68 47 69 48 74 49 70 50 71 51 73 52 75 53 72 54
REMARK SMILES IDX 56 55 57 56 62 57 58 58 59 59 61 60 63 61 60 62 7 63 8 64
REMARK SMILES IDX 9 65 10 66 11 67 12 68 13 69 16 70 14 71 15 72 17 73 18 74
REMARK SMILES IDX 19 75 20 76 21 77 29 78 22 79 24 80 28 81 23 82 25 83 27 84
REMARK SMILES IDX 32 85 26 86 30 87 31 89
REMARK H PARENT 80 24 54 35 32 88
REMARK Flexibility Score: inf
ROOT
ATOM      1  O   UNL     1       3.228   0.859  -0.826  1.00  0.00    -0.374 OA
ENDROOT
BRANCH   1   2
ATOM      2  C   UNL     1       3.819  -0.421  -1.049  1.00  0.00     0.202 C 
BRANCH   2   3
ATOM      3  C   UNL     1       3.877  -1.361   0.150  1.00  0.00     0.261 C 
BRANCH   3   4
ATOM      4  O   UNL     1       2.613  -1.430   0.808  1.00  0.00    -0.460 OA
BRANCH   4   5
ATOM      5  C   UNL     1       2.089  -0.532   1.673  1.00  0.00     0.338 C 
ATOM      6  O   UNL     1       0.941  -0.734   2.069  1.00  0.00    -0.246 OA
BRANCH   5   7
ATOM      7  C   UNL     1       2.795   0.697   2.184  1.00  0.00     0.060 A 
ATOM      8  C   UNL     1       4.021   1.208   1.742  1.00  0.00     0.016 A 
ATOM      9  C   UNL     1       2.116   1.429   3.176  1.00  0.00     0.016 A 
ATOM     10  C   UNL     1       4.509   2.428   2.178  1.00  0.00     0.010 A 
ATOM     11  C   UNL     1       2.639   2.618   3.692  1.00  0.00     0.010 A 
ATOM     12  C   UNL     1       3.843   3.109   3.189  1.00  0.00    -0.014 A 
BRANCH  12  13
ATOM     13  C   UNL     1       4.615   4.156   3.864  1.00  0.00     0.031 A 
ATOM     14  C   UNL     1       5.671   3.694   4.824  1.00  0.00     0.074 A 
ATOM     15  C   UNL     1       4.510   5.435   3.478  1.00  0.00     0.049 A 
ATOM     16  N   UNL     1       6.592   4.380   5.440  1.00  0.00    -0.248 NA
ATOM     17  C   UNL     1       5.729   2.240   5.073  1.00  0.00     0.031 C 
ATOM     18  C   UNL     1       3.622   5.939   2.430  1.00  0.00     0.029 A 
ATOM     19  N   UNL     1       5.189   6.538   3.909  1.00  0.00    -0.354 N 
ATOM     20  C   UNL     1       7.365   3.440   6.107  1.00  0.00     0.074 A 
ATOM     21  C   UNL     1       6.801   2.139   5.838  1.00  0.00     0.031 C 
ATOM     22  C   UNL     1       3.810   7.266   2.306  1.00  0.00     0.029 A 
ATOM     23  C   UNL     1       4.802   7.697   3.288  1.00  0.00     0.049 A 
ATOM     24  H   UNL     1       5.890   6.505   4.600  1.00  0.00     0.167 HD
ATOM     25  C   UNL     1       8.446   3.649   6.892  1.00  0.00     0.037 A 
ATOM     26  C   UNL     1       5.204   8.959   3.524  1.00  0.00     0.037 A 
ATOM     27  C   UNL     1       8.913   4.960   7.242  1.00  0.00     0.049 A 
ATOM     28  C   UNL     1       6.244   9.183   4.593  1.00  0.00     0.074 A 
ATOM     29  C   UNL     1       9.898   5.321   8.140  1.00  0.00     0.029 A 
ATOM     30  N   UNL     1       8.385   6.136   6.724  1.00  0.00    -0.354 N 
ATOM     31  N   UNL     1       6.930   8.303   5.286  1.00  0.00    -0.248 NA
ATOM     32  C   UNL     1       6.553  10.579   4.922  1.00  0.00     0.031 C 
ATOM     33  C   UNL     1       9.920   6.720   8.213  1.00  0.00     0.029 A 
ATOM     34  C   UNL     1       8.999   7.228   7.307  1.00  0.00     0.049 A 
ATOM     35  H   UNL     1       7.677   6.184   6.041  1.00  0.00     0.167 HD
ATOM     36  C   UNL     1       7.786   9.037   6.097  1.00  0.00     0.074 A 
ATOM     37  C   UNL     1       7.528  10.435   5.807  1.00  0.00     0.031 C 
ATOM     38  C   UNL     1       8.710   8.605   6.993  1.00  0.00     0.037 A 
BRANCH  25  39
ATOM     39  C   UNL     1       9.077   2.428   7.489  1.00  0.00     0.057 A 
ATOM     40  C   UNL     1       8.879   2.118   8.840  1.00  0.00     0.134 A 
ATOM     41  C   UNL     1       9.788   1.502   6.711  1.00  0.00     0.134 A 
ATOM     42  F   UNL     1       8.191   2.950   9.636  1.00  0.00    -0.206 F 
ATOM     43  C   UNL     1       9.352   0.927   9.392  1.00  0.00     0.040 A 
ATOM     44  C   UNL     1      10.244   0.296   7.247  1.00  0.00     0.040 A 
ATOM     45  F   UNL     1       9.975   1.718   5.399  1.00  0.00    -0.206 F 
ATOM     46  C   UNL     1      10.025   0.006   8.592  1.00  0.00     0.006 A 
ENDBRANCH  25  39
BRANCH  26  47
ATOM     47  C   UNL     1       4.607  10.102   2.788  1.00  0.00     0.057 A 
ATOM     48  C   UNL     1       3.259  10.449   2.945  1.00  0.00     0.134 A 
ATOM     49  C   UNL     1       5.385  10.918   1.958  1.00  0.00     0.134 A 
ATOM     50  F   UNL     1       2.457   9.714   3.729  1.00  0.00    -0.206 F 
ATOM     51  C   UNL     1       2.708  11.561   2.307  1.00  0.00     0.040 A 
ATOM     52  C   UNL     1       4.853  12.048   1.333  1.00  0.00     0.040 A 
ATOM     53  F   UNL     1       6.689  10.659   1.787  1.00  0.00    -0.206 F 
ATOM     54  C   UNL     1       3.509  12.371   1.507  1.00  0.00     0.006 A 
ENDBRANCH  26  47
BRANCH  38  55
ATOM     55  C   UNL     1       9.534   9.659   7.674  1.00  0.00     0.057 A 
ATOM     56  C   UNL     1      10.898   9.785   7.379  1.00  0.00     0.134 A 
ATOM     57  C   UNL     1       8.993  10.534   8.624  1.00  0.00     0.134 A 
ATOM     58  F   UNL     1      11.483   8.967   6.491  1.00  0.00    -0.206 F 
ATOM     59  C   UNL     1      11.692  10.748   7.999  1.00  0.00     0.040 A 
ATOM     60  C   UNL     1       9.770  11.526   9.224  1.00  0.00     0.040 A 
ATOM     61  F   UNL     1       7.691  10.472   8.943  1.00  0.00    -0.206 F 
ATOM     62  C   UNL     1      11.125  11.631   8.915  1.00  0.00     0.006 A 
ENDBRANCH  38  55
ENDBRANCH  12  13
ENDBRANCH   5   7
ENDBRANCH   4   5
ENDBRANCH   3   4
ENDBRANCH   2   3
ENDBRANCH   1   2
BRANCH   1  63
ATOM     63  C   UNL     1       1.998   1.073  -1.520  1.00  0.00     0.202 C 
BRANCH  63  64
ATOM     64  C   UNL     1       2.238   1.527  -2.965  1.00  0.00     0.261 C 
BRANCH  64  65
ATOM     65  O   UNL     1       3.022   0.526  -3.651  1.00  0.00    -0.462 OA
BRANCH  65  66
ATOM     66  C   UNL     1       4.109   0.952  -4.350  1.00  0.00     0.324 C 
ATOM     67  O   UNL     1       4.297   2.116  -4.681  1.00  0.00    -0.250 OA
BRANCH  66  68
ATOM     68  C   UNL     1       5.064  -0.169  -4.673  1.00  0.00     0.183 C 
ATOM     69  C   UNL     1       4.641  -1.581  -4.272  1.00  0.00     0.034 C 
ATOM     70  N   UNL     1       6.547  -0.156  -4.443  1.00  0.00    -0.184 NA
ATOM     71  C   UNL     1       5.701  -2.425  -4.942  1.00  0.00     0.019 C 
ATOM     72  C   UNL     1       6.970  -1.573  -4.865  1.00  0.00     0.103 C 
BRANCH  70  73
ATOM     73  S   UNL     1       7.389   0.243  -2.990  1.00  0.00     0.244 S 
ATOM     74  O   UNL     1       6.893  -0.648  -1.961  1.00  0.00    -0.207 OA
ATOM     75  O   UNL     1       8.782   0.139  -3.384  1.00  0.00    -0.207 OA
BRANCH  73  76
ATOM     76  C   UNL     1       7.149   1.911  -2.380  1.00  0.00     0.090 A 
ATOM     77  C   UNL     1       5.835   2.373  -2.165  1.00  0.00     0.024 A 
ATOM     78  C   UNL     1       8.244   2.704  -1.883  1.00  0.00     0.005 A 
ATOM     79  C   UNL     1       5.516   3.627  -1.611  1.00  0.00     0.028 A 
ATOM     80  C   UNL     1       7.884   3.914  -1.343  1.00  0.00     0.019 A 
ATOM     81  C   UNL     1       9.642   2.452  -1.780  1.00  0.00     0.010 A 
ATOM     82  C   UNL     1       6.595   4.377  -1.213  1.00  0.00     0.050 A 
ATOM     83  C   UNL     1       8.725   4.860  -0.772  1.00  0.00     0.050 A 
ATOM     84  C   UNL     1      10.531   3.385  -1.198  1.00  0.00     0.002 A 
ATOM     85  N   UNL     1       6.644   5.611  -0.595  1.00  0.00    -0.321 N 
ATOM     86  C   UNL     1      10.089   4.614  -0.691  1.00  0.00     0.014 A 
ATOM     87  C   UNL     1       7.956   5.998  -0.301  1.00  0.00     0.256 C 
ATOM     88  H   UNL     1       5.849   6.154  -0.386  1.00  0.00     0.170 HD
ATOM     89  O   UNL     1       8.271   7.056   0.217  1.00  0.00    -0.269 OA
ENDBRANCH  73  76
ENDBRANCH  70  73
ENDBRANCH  66  68
ENDBRANCH  65  66
ENDBRANCH  64  65
ENDBRANCH  63  64
ENDBRANCH   1  63
TORSDOF 16
