REMARK SMILES O=C(CCC(=O)OCCOCCOC(=O)c1ccc(-c2c3nc(c(-c4c(F)cccc4F)c4ccc([nH]4)c(-c4c(F)cccc4F)c4nc(c(-c5c(F)cccc5F)c5ccc2[nH]5)C=C4)C=C3)cc1)/[NH+]=C1\S[C@H]2CS(=O)(=O)C[C@@H]2N1c1ccc2c(c1)OCO2
REMARK SMILES IDX 9 1 8 2 7 3 5 4 6 5 4 6 3 7 2 8 1 9 70 10 71 11 72 13 80 14
REMARK SMILES IDX 73 15 79 16 74 17 78 18 75 19 76 20 77 21 81 22 82 23 86 24
REMARK SMILES IDX 83 25 85 26 84 27 87 28 89 29 88 30 10 31 11 32 12 33 13 34
REMARK SMILES IDX 14 35 15 36 16 37 17 38 69 39 18 40 68 41 19 42 20 43 21 44
REMARK SMILES IDX 62 45 22 46 67 47 61 48 63 49 23 50 66 51 60 52 59 53 24 55
REMARK SMILES IDX 50 56 33 57 49 58 34 59 37 60 48 61 64 62 35 63 36 64 47 66
REMARK SMILES IDX 65 67 38 68 25 69 26 70 31 71 27 72 28 73 30 74 32 75 29 76
REMARK SMILES IDX 51 77 52 78 57 79 53 80 54 81 56 82 58 83 55 84 39 85 40 86
REMARK SMILES IDX 45 87 41 88 42 89 44 90 46 91 43 92
REMARK H PARENT 70 12 63 54 37 65
REMARK Flexibility Score: inf
ROOT
ATOM      1  C   UNL     1       6.120  -0.468   1.479  1.00  0.00     0.202 C 
ENDROOT
BRANCH   1   2
ATOM      2  C   UNL     1       6.011  -1.690   2.428  1.00  0.00     0.261 C 
BRANCH   2   3
ATOM      3  O   UNL     1       4.690  -2.227   2.390  1.00  0.00    -0.463 OA
BRANCH   3   4
ATOM      4  C   UNL     1       3.825  -1.385   2.990  1.00  0.00     0.306 C 
ATOM      5  O   UNL     1       3.966  -0.955   4.127  1.00  0.00    -0.252 OA
BRANCH   4   6
ATOM      6  C   UNL     1       2.728  -0.985   2.046  1.00  0.00     0.135 C 
BRANCH   6   7
ATOM      7  C   UNL     1       3.040  -1.052   0.538  1.00  0.00     0.139 C 
BRANCH   7   8
ATOM      8  C   UNL     1       3.347  -2.314  -0.286  1.00  0.00     0.308 C 
ATOM      9  O   UNL     1       2.344  -2.907  -0.701  1.00  0.00    -0.247 OA
ATOM     10  N   UNL     1       4.606  -2.851  -0.607  1.00  0.00    -0.204 N 
ATOM     11  C   UNL     1       5.635  -2.384  -1.255  1.00  0.00     0.319 C 
ATOM     12  H   UNL     1       4.736  -3.768  -0.274  1.00  0.00     0.316 HD
ATOM     13  S   UNL     1       6.011  -0.686  -1.647  1.00  0.00    -0.029 SA
ATOM     14  N   UNL     1       6.731  -3.118  -1.785  1.00  0.00    -0.216 N 
ATOM     15  C   UNL     1       7.754  -0.901  -1.871  1.00  0.00     0.120 C 
ATOM     16  C   UNL     1       7.977  -2.365  -1.502  1.00  0.00     0.212 C 
ATOM     17  C   UNL     1       8.836  -0.148  -1.142  1.00  0.00     0.156 C 
ATOM     18  C   UNL     1       9.319  -2.658  -2.128  1.00  0.00     0.188 C 
ATOM     19  S   UNL     1      10.255  -1.186  -1.582  1.00  0.00     0.155 S 
ATOM     20  O   UNL     1      10.911  -0.594  -2.714  1.00  0.00    -0.229 OA
ATOM     21  O   UNL     1      10.953  -1.517  -0.348  1.00  0.00    -0.229 OA
BRANCH  14  22
ATOM     22  C   UNL     1       6.555  -3.579  -3.125  1.00  0.00     0.132 A 
ATOM     23  C   UNL     1       6.019  -4.862  -3.366  1.00  0.00     0.056 A 
ATOM     24  C   UNL     1       6.715  -2.723  -4.232  1.00  0.00     0.102 A 
ATOM     25  C   UNL     1       5.616  -5.256  -4.658  1.00  0.00     0.055 A 
ATOM     26  C   UNL     1       6.288  -3.115  -5.469  1.00  0.00     0.170 A 
ATOM     27  C   UNL     1       5.722  -4.338  -5.681  1.00  0.00     0.166 A 
ATOM     28  O   UNL     1       6.256  -2.305  -6.559  1.00  0.00    -0.453 OA
ATOM     29  O   UNL     1       5.225  -4.431  -6.944  1.00  0.00    -0.454 OA
ATOM     30  C   UNL     1       5.306  -3.043  -7.342  1.00  0.00     0.468 C 
ENDBRANCH  14  22
ENDBRANCH   7   8
ENDBRANCH   6   7
ENDBRANCH   4   6
ENDBRANCH   3   4
ENDBRANCH   2   3
ENDBRANCH   1   2
BRANCH   1  31
ATOM     31  O   UNL     1       5.167   0.599   1.570  1.00  0.00    -0.374 OA
BRANCH  31  32
ATOM     32  C   UNL     1       5.173   1.682   0.597  1.00  0.00     0.202 C 
BRANCH  32  33
ATOM     33  C   UNL     1       4.527   1.787  -0.926  1.00  0.00     0.261 C 
BRANCH  33  34
ATOM     34  O   UNL     1       3.594   0.801  -1.545  1.00  0.00    -0.460 OA
BRANCH  34  35
ATOM     35  C   UNL     1       3.509   0.759  -2.938  1.00  0.00     0.338 C 
ATOM     36  O   UNL     1       4.063   1.572  -3.670  1.00  0.00    -0.246 OA
BRANCH  35  37
ATOM     37  C   UNL     1       2.760  -0.426  -3.568  1.00  0.00     0.060 A 
ATOM     38  C   UNL     1       3.254  -1.728  -3.505  1.00  0.00     0.016 A 
ATOM     39  C   UNL     1       1.699  -0.265  -4.464  1.00  0.00     0.016 A 
ATOM     40  C   UNL     1       2.698  -2.842  -4.179  1.00  0.00     0.010 A 
ATOM     41  C   UNL     1       1.115  -1.386  -5.150  1.00  0.00     0.010 A 
ATOM     42  C   UNL     1       1.598  -2.708  -5.013  1.00  0.00    -0.014 A 
BRANCH  42  43
ATOM     43  C   UNL     1       1.063  -3.889  -5.804  1.00  0.00     0.031 A 
ATOM     44  C   UNL     1       1.043  -3.832  -7.321  1.00  0.00     0.074 A 
ATOM     45  C   UNL     1       0.670  -5.062  -5.243  1.00  0.00     0.049 A 
ATOM     46  N   UNL     1       0.477  -4.630  -8.195  1.00  0.00    -0.248 NA
ATOM     47  C   UNL     1       1.818  -2.747  -7.937  1.00  0.00     0.031 C 
ATOM     48  C   UNL     1       0.785  -5.430  -3.830  1.00  0.00     0.029 A 
ATOM     49  N   UNL     1       0.060  -6.173  -5.809  1.00  0.00    -0.354 N 
ATOM     50  C   UNL     1       0.819  -4.133  -9.450  1.00  0.00     0.074 A 
ATOM     51  C   UNL     1       1.688  -3.001  -9.230  1.00  0.00     0.031 C 
ATOM     52  C   UNL     1       0.237  -6.644  -3.638  1.00  0.00     0.029 A 
ATOM     53  C   UNL     1      -0.364  -7.108  -4.886  1.00  0.00     0.049 A 
ATOM     54  H   UNL     1      -0.060  -6.283  -6.780  1.00  0.00     0.167 HD
ATOM     55  C   UNL     1       0.407  -4.535 -10.678  1.00  0.00     0.037 A 
ATOM     56  C   UNL     1      -1.209  -8.160  -5.001  1.00  0.00     0.037 A 
ATOM     57  C   UNL     1      -0.511  -5.614 -10.914  1.00  0.00     0.049 A 
ATOM     58  C   UNL     1      -1.850  -8.461  -6.340  1.00  0.00     0.074 A 
ATOM     59  C   UNL     1      -1.085  -6.016 -12.109  1.00  0.00     0.029 A 
ATOM     60  N   UNL     1      -1.004  -6.452  -9.930  1.00  0.00    -0.354 N 
ATOM     61  N   UNL     1      -1.621  -7.915  -7.510  1.00  0.00    -0.248 NA
ATOM     62  C   UNL     1      -2.893  -9.503  -6.371  1.00  0.00     0.031 C 
ATOM     63  C   UNL     1      -1.975  -7.058 -11.836  1.00  0.00     0.029 A 
ATOM     64  C   UNL     1      -1.899  -7.349 -10.484  1.00  0.00     0.049 A 
ATOM     65  H   UNL     1      -0.755  -6.415  -8.978  1.00  0.00     0.167 HD
ATOM     66  C   UNL     1      -2.458  -8.568  -8.410  1.00  0.00     0.074 A 
ATOM     67  C   UNL     1      -3.199  -9.556  -7.660  1.00  0.00     0.031 C 
ATOM     68  C   UNL     1      -2.600  -8.362  -9.741  1.00  0.00     0.037 A 
BRANCH  55  69
ATOM     69  C   UNL     1       0.845  -3.716 -11.857  1.00  0.00     0.057 A 
ATOM     70  C   UNL     1       2.130  -3.807 -12.401  1.00  0.00     0.134 A 
ATOM     71  C   UNL     1      -0.058  -2.836 -12.470  1.00  0.00     0.134 A 
ATOM     72  F   UNL     1       3.048  -4.614 -11.848  1.00  0.00    -0.206 F 
ATOM     73  C   UNL     1       2.507  -3.040 -13.507  1.00  0.00     0.040 A 
ATOM     74  C   UNL     1       0.299  -2.081 -13.586  1.00  0.00     0.040 A 
ATOM     75  F   UNL     1      -1.306  -2.703 -11.996  1.00  0.00    -0.206 F 
ATOM     76  C   UNL     1       1.588  -2.178 -14.105  1.00  0.00     0.006 A 
ENDBRANCH  55  69
BRANCH  56  77
ATOM     77  C   UNL     1      -1.643  -8.939  -3.797  1.00  0.00     0.057 A 
ATOM     78  C   UNL     1      -1.450 -10.325  -3.694  1.00  0.00     0.134 A 
ATOM     79  C   UNL     1      -2.370  -8.328  -2.765  1.00  0.00     0.134 A 
ATOM     80  F   UNL     1      -0.809 -10.992  -4.665  1.00  0.00    -0.206 F 
ATOM     81  C   UNL     1      -1.979 -11.068  -2.632  1.00  0.00     0.040 A 
ATOM     82  C   UNL     1      -2.870  -9.051  -1.678  1.00  0.00     0.040 A 
ATOM     83  F   UNL     1      -2.627  -7.012  -2.803  1.00  0.00    -0.206 F 
ATOM     84  C   UNL     1      -2.687 -10.429  -1.616  1.00  0.00     0.006 A 
ENDBRANCH  56  77
BRANCH  68  85
ATOM     85  C   UNL     1      -3.526  -9.260 -10.509  1.00  0.00     0.057 A 
ATOM     86  C   UNL     1      -4.918  -9.148 -10.422  1.00  0.00     0.134 A 
ATOM     87  C   UNL     1      -3.007 -10.183 -11.427  1.00  0.00     0.134 A 
ATOM     88  F   UNL     1      -5.479  -8.288  -9.559  1.00  0.00    -0.206 F 
ATOM     89  C   UNL     1      -5.762  -9.926 -11.218  1.00  0.00     0.040 A 
ATOM     90  C   UNL     1      -3.839 -10.947 -12.246  1.00  0.00     0.040 A 
ATOM     91  F   UNL     1      -1.681 -10.331 -11.568  1.00  0.00    -0.206 F 
ATOM     92  C   UNL     1      -5.222 -10.820 -12.142  1.00  0.00     0.006 A 
ENDBRANCH  68  85
ENDBRANCH  42  43
ENDBRANCH  35  37
ENDBRANCH  34  35
ENDBRANCH  33  34
ENDBRANCH  32  33
ENDBRANCH  31  32
ENDBRANCH   1  31
TORSDOF 17
