REMARK SMILES CC(=O)N[C@H]1[C@@H](Oc2ccc(C)c(C)c2)O[C@H]2CO[C@H](c3ccco3)O[C@@H]2[C@H]1OCC(=O)OCCOCCOC(=O)c1ccc(-c2c3nc(c(-c4c(F)cccc4F)c4ccc([nH]4)c(-c4c(F)cccc4F)c4nc(c(-c5c(F)cccc5F)c5ccc2[nH]5)C=C4)C=C3)cc1
REMARK SMILES IDX 35 1 34 2 33 3 31 4 32 5 30 6 29 7 28 8 5 9 6 10 16 11 27 12
REMARK SMILES IDX 17 13 26 14 18 15 20 16 19 17 4 18 1 19 2 20 3 21 7 23 8 24
REMARK SMILES IDX 9 25 15 26 10 27 13 28 11 29 14 30 12 31 21 32 22 33 25 34
REMARK SMILES IDX 23 35 24 36 36 37 37 38 38 39 39 40 40 41 41 42 42 43 43 44
REMARK SMILES IDX 95 45 44 46 94 47 45 48 46 49 47 50 88 51 48 52 93 53 87 54
REMARK SMILES IDX 89 55 49 56 92 57 86 58 85 59 50 61 76 62 59 63 75 64 60 65
REMARK SMILES IDX 63 66 74 67 90 68 61 69 62 70 73 72 91 73 64 74 51 75 52 76
REMARK SMILES IDX 57 77 53 78 54 79 56 80 58 81 55 82 77 83 78 84 83 85 79 86
REMARK SMILES IDX 80 87 82 88 84 89 81 90 65 91 66 92 71 93 67 94 68 95 70 96
REMARK SMILES IDX 72 97 69 98
REMARK H PARENT 4 22 89 60 63 71
REMARK Flexibility Score: inf
ROOT
ATOM      1  C   UNL     1       3.557   7.043   5.412  1.00  0.00     0.202 C 
ENDROOT
BRANCH   1   2
ATOM      2  C   UNL     1       2.231   7.396   4.732  1.00  0.00     0.261 C 
BRANCH   2   3
ATOM      3  O   UNL     1       1.906   6.505   3.645  1.00  0.00    -0.462 OA
BRANCH   3   4
ATOM      4  C   UNL     1       1.628   7.124   2.464  1.00  0.00     0.332 C 
ATOM      5  O   UNL     1       1.598   8.341   2.300  1.00  0.00    -0.250 OA
BRANCH   4   6
ATOM      6  C   UNL     1       1.301   6.153   1.322  1.00  0.00     0.283 C 
BRANCH   6   7
ATOM      7  O   UNL     1       1.209   4.753   1.460  1.00  0.00    -0.361 OA
BRANCH   7   8
ATOM      8  C   UNL     1       2.392   3.925   1.407  1.00  0.00     0.179 C 
ATOM      9  C   UNL     1       1.877   2.428   1.417  1.00  0.00     0.182 C 
ATOM     10  C   UNL     1       2.820   1.393   0.684  1.00  0.00     0.333 C 
ATOM     11  O   UNL     1       3.694   1.914  -0.308  1.00  0.00    -0.332 OA
ATOM     12  C   UNL     1       3.352   4.225   0.229  1.00  0.00     0.184 C 
ATOM     13  C   UNL     1       4.360   3.085   0.101  1.00  0.00     0.180 C 
ATOM     14  O   UNL     1       4.069   5.450   0.444  1.00  0.00    -0.337 OA
ATOM     15  C   UNL     1       5.412   3.426  -0.947  1.00  0.00     0.199 C 
ATOM     16  C   UNL     1       4.974   5.697  -0.641  1.00  0.00     0.319 C 
ATOM     17  O   UNL     1       5.984   4.694  -0.683  1.00  0.00    -0.343 OA
BRANCH   9  18
ATOM     18  N   UNL     1       0.453   2.361   1.033  1.00  0.00    -0.345 N 
ATOM     19  C   UNL     1      -0.164   0.259   2.215  1.00  0.00     0.114 C 
ATOM     20  C   UNL     1      -0.511   1.460   1.374  1.00  0.00     0.217 C 
ATOM     21  O   UNL     1      -1.665   1.647   0.988  1.00  0.00    -0.275 OA
ATOM     22  H   UNL     1       0.151   3.082   0.435  1.00  0.00     0.164 HD
ENDBRANCH   9  18
BRANCH  10  23
ATOM     23  O   UNL     1       2.163   0.209   0.199  1.00  0.00    -0.463 OA
BRANCH  23  24
ATOM     24  C   UNL     1       1.409   0.263  -0.947  1.00  0.00     0.123 A 
ATOM     25  C   UNL     1       1.295   1.337  -1.823  1.00  0.00     0.047 A 
ATOM     26  C   UNL     1       0.628  -0.873  -1.179  1.00  0.00     0.050 A 
ATOM     27  C   UNL     1       0.355   1.313  -2.857  1.00  0.00     0.007 A 
ATOM     28  C   UNL     1      -0.328  -0.914  -2.211  1.00  0.00    -0.045 A 
ATOM     29  C   UNL     1      -0.490   0.210  -3.040  1.00  0.00    -0.048 A 
ATOM     30  C   UNL     1      -1.203  -2.132  -2.312  1.00  0.00     0.045 C 
ATOM     31  C   UNL     1      -1.560   0.281  -4.093  1.00  0.00     0.044 C 
ENDBRANCH  23  24
ENDBRANCH  10  23
BRANCH  16  32
ATOM     32  C   UNL     1       5.692   6.986  -0.439  1.00  0.00     0.159 A 
ATOM     33  C   UNL     1       6.723   7.578  -1.148  1.00  0.00     0.051 A 
ATOM     34  O   UNL     1       5.333   7.791   0.603  1.00  0.00    -0.464 OA
ATOM     35  C   UNL     1       7.020   8.794  -0.493  1.00  0.00     0.042 A 
ATOM     36  C   UNL     1       6.150   8.876   0.568  1.00  0.00     0.195 A 
ENDBRANCH  16  32
ENDBRANCH   7   8
ENDBRANCH   6   7
ENDBRANCH   4   6
ENDBRANCH   3   4
ENDBRANCH   2   3
ENDBRANCH   1   2
BRANCH   1  37
ATOM     37  O   UNL     1       4.728   7.156   4.606  1.00  0.00    -0.374 OA
BRANCH  37  38
ATOM     38  C   UNL     1       4.908   6.184   3.575  1.00  0.00     0.202 C 
BRANCH  38  39
ATOM     39  C   UNL     1       5.277   4.777   4.059  1.00  0.00     0.261 C 
BRANCH  39  40
ATOM     40  O   UNL     1       4.207   4.173   4.816  1.00  0.00    -0.460 OA
BRANCH  40  41
ATOM     41  C   UNL     1       4.613   3.584   5.967  1.00  0.00     0.338 C 
ATOM     42  O   UNL     1       5.757   3.328   6.300  1.00  0.00    -0.246 OA
BRANCH  41  43
ATOM     43  C   UNL     1       3.478   3.411   6.893  1.00  0.00     0.060 A 
ATOM     44  C   UNL     1       3.511   4.132   8.093  1.00  0.00     0.016 A 
ATOM     45  C   UNL     1       2.482   2.460   6.663  1.00  0.00     0.016 A 
ATOM     46  C   UNL     1       2.583   3.857   9.097  1.00  0.00     0.010 A 
ATOM     47  C   UNL     1       1.554   2.183   7.676  1.00  0.00     0.010 A 
ATOM     48  C   UNL     1       1.628   2.847   8.915  1.00  0.00    -0.014 A 
BRANCH  48  49
ATOM     49  C   UNL     1       0.833   2.385  10.082  1.00  0.00     0.031 A 
ATOM     50  C   UNL     1       1.283   1.164  10.839  1.00  0.00     0.074 A 
ATOM     51  C   UNL     1      -0.239   3.077  10.508  1.00  0.00     0.049 A 
ATOM     52  N   UNL     1       0.760   0.605  11.902  1.00  0.00    -0.248 NA
ATOM     53  C   UNL     1       2.487   0.485  10.335  1.00  0.00     0.031 C 
ATOM     54  C   UNL     1      -0.759   4.296   9.892  1.00  0.00     0.029 A 
ATOM     55  N   UNL     1      -1.081   2.850  11.569  1.00  0.00    -0.354 N 
ATOM     56  C   UNL     1       1.570  -0.486  12.194  1.00  0.00     0.074 A 
ATOM     57  C   UNL     1       2.601  -0.530  11.179  1.00  0.00     0.031 C 
ATOM     58  C   UNL     1      -1.833   4.710  10.586  1.00  0.00     0.029 A 
ATOM     59  C   UNL     1      -2.089   3.775  11.681  1.00  0.00     0.049 A 
ATOM     60  H   UNL     1      -0.972   2.095  12.191  1.00  0.00     0.167 HD
ATOM     61  C   UNL     1       1.476  -1.363  13.221  1.00  0.00     0.037 A 
ATOM     62  C   UNL     1      -3.108   3.853  12.559  1.00  0.00     0.037 A 
ATOM     63  C   UNL     1       0.457  -1.325  14.236  1.00  0.00     0.049 A 
ATOM     64  C   UNL     1      -3.231   2.825  13.652  1.00  0.00     0.074 A 
ATOM     65  C   UNL     1       0.289  -2.167  15.323  1.00  0.00     0.029 A 
ATOM     66  N   UNL     1      -0.571  -0.396  14.287  1.00  0.00    -0.354 N 
ATOM     67  N   UNL     1      -2.445   1.814  13.930  1.00  0.00    -0.248 NA
ATOM     68  C   UNL     1      -4.385   2.952  14.555  1.00  0.00     0.031 C 
ATOM     69  C   UNL     1      -0.864  -1.770  16.010  1.00  0.00     0.029 A 
ATOM     70  C   UNL     1      -1.389  -0.657  15.374  1.00  0.00     0.049 A 
ATOM     71  H   UNL     1      -0.700   0.340  13.646  1.00  0.00     0.167 HD
ATOM     72  C   UNL     1      -2.992   1.203  15.052  1.00  0.00     0.074 A 
ATOM     73  C   UNL     1      -4.171   1.962  15.411  1.00  0.00     0.031 C 
ATOM     74  C   UNL     1      -2.555   0.111  15.726  1.00  0.00     0.037 A 
BRANCH  61  75
ATOM     75  C   UNL     1       2.500  -2.456  13.291  1.00  0.00     0.057 A 
ATOM     76  C   UNL     1       3.818  -2.205  13.695  1.00  0.00     0.134 A 
ATOM     77  C   UNL     1       2.156  -3.779  12.988  1.00  0.00     0.134 A 
ATOM     78  F   UNL     1       4.213  -0.957  13.986  1.00  0.00    -0.206 F 
ATOM     79  C   UNL     1       4.762  -3.230  13.778  1.00  0.00     0.040 A 
ATOM     80  C   UNL     1       3.085  -4.815  13.088  1.00  0.00     0.040 A 
ATOM     81  F   UNL     1       0.909  -4.086  12.598  1.00  0.00    -0.206 F 
ATOM     82  C   UNL     1       4.394  -4.541  13.480  1.00  0.00     0.006 A 
ENDBRANCH  61  75
BRANCH  62  83
ATOM     83  C   UNL     1      -4.107   4.944  12.443  1.00  0.00     0.057 A 
ATOM     84  C   UNL     1      -4.176   5.970  13.392  1.00  0.00     0.134 A 
ATOM     85  C   UNL     1      -5.036   4.969  11.396  1.00  0.00     0.134 A 
ATOM     86  F   UNL     1      -3.330   5.986  14.432  1.00  0.00    -0.206 F 
ATOM     87  C   UNL     1      -5.144   6.974  13.313  1.00  0.00     0.040 A 
ATOM     88  C   UNL     1      -5.994   5.978  11.292  1.00  0.00     0.040 A 
ATOM     89  F   UNL     1      -5.022   4.011  10.457  1.00  0.00    -0.206 F 
ATOM     90  C   UNL     1      -6.054   6.981  12.257  1.00  0.00     0.006 A 
ENDBRANCH  62  83
BRANCH  74  91
ATOM     91  C   UNL     1      -3.334  -0.310  16.936  1.00  0.00     0.057 A 
ATOM     92  C   UNL     1      -4.581  -0.940  16.830  1.00  0.00     0.134 A 
ATOM     93  C   UNL     1      -2.814  -0.118  18.223  1.00  0.00     0.134 A 
ATOM     94  F   UNL     1      -5.139  -1.142  15.627  1.00  0.00    -0.206 F 
ATOM     95  C   UNL     1      -5.291  -1.346  17.961  1.00  0.00     0.040 A 
ATOM     96  C   UNL     1      -3.504  -0.540  19.360  1.00  0.00     0.040 A 
ATOM     97  F   UNL     1      -1.621   0.471  18.393  1.00  0.00    -0.206 F 
ATOM     98  C   UNL     1      -4.749  -1.151  19.230  1.00  0.00     0.006 A 
ENDBRANCH  74  91
ENDBRANCH  48  49
ENDBRANCH  41  43
ENDBRANCH  40  41
ENDBRANCH  39  40
ENDBRANCH  38  39
ENDBRANCH  37  38
ENDBRANCH   1  37
TORSDOF 20
