REMARK SMILES COC(=O)[C@@H](NC(=O)CCC(=O)OCCOCCOC(=O)c1ccc(-c2c3nc(c(-c4c(F)cccc4F)c4ccc([nH]4)c(-c4c(F)cccc4F)c4nc(c(-c5c(F)cccc5F)c5ccc2[nH]5)C=C4)C=C3)cc1)c1cccc2ccccc12
REMARK SMILES IDX 14 1 13 2 11 3 12 4 10 5 9 6 7 7 6 8 8 10 5 11 3 12 4 13
REMARK SMILES IDX 2 14 1 15 76 16 77 17 85 18 78 19 80 20 84 21 79 22 81 23
REMARK SMILES IDX 83 24 82 25 15 26 16 27 17 28 18 29 19 30 20 31 21 32 22 33
REMARK SMILES IDX 23 34 75 35 24 36 74 37 25 38 26 39 27 40 68 41 28 42 73 43
REMARK SMILES IDX 67 44 69 45 29 46 72 47 66 48 65 49 30 51 56 52 39 53 55 54
REMARK SMILES IDX 40 55 43 56 54 57 70 58 41 59 42 60 53 62 71 63 44 64 31 65
REMARK SMILES IDX 32 66 37 67 33 68 34 69 36 70 38 71 35 72 57 73 58 74 63 75
REMARK SMILES IDX 59 76 60 77 62 78 64 79 61 80 45 81 46 82 51 83 47 84 48 85
REMARK SMILES IDX 50 86 52 87 49 88
REMARK H PARENT 6 9 69 50 43 61
REMARK Flexibility Score: inf
ROOT
ATOM      1  C   UNL     1      -0.103   0.118   2.146  1.00  0.00     0.261 C 
ENDROOT
BRANCH   1   2
ATOM      2  O   UNL     1      -0.720   1.070   1.185  1.00  0.00    -0.463 OA
BRANCH   2   3
ATOM      3  C   UNL     1      -1.157   0.678  -0.049  1.00  0.00     0.306 C 
ATOM      4  O   UNL     1      -1.117  -0.504  -0.387  1.00  0.00    -0.252 OA
BRANCH   3   5
ATOM      5  C   UNL     1      -1.739   1.764  -1.039  1.00  0.00     0.132 C 
BRANCH   5   6
ATOM      6  C   UNL     1      -1.696   3.312  -1.250  1.00  0.00     0.112 C 
BRANCH   6   7
ATOM      7  C   UNL     1      -0.564   4.328  -1.028  1.00  0.00     0.221 C 
ATOM      8  N   UNL     1      -0.140   4.632   0.231  1.00  0.00    -0.339 N 
ATOM      9  H   UNL     1       0.309   5.497   0.375  1.00  0.00     0.164 HD
ATOM     10  O   UNL     1      -0.073   4.970  -1.958  1.00  0.00    -0.275 OA
BRANCH   8  11
ATOM     11  C   UNL     1      -0.315   3.742   1.383  1.00  0.00     0.224 C 
BRANCH  11  12
ATOM     12  C   UNL     1       0.899   2.794   0.974  1.00  0.00     0.333 C 
ATOM     13  O   UNL     1       1.875   2.574   1.685  1.00  0.00    -0.249 OA
BRANCH  12  14
ATOM     14  O   UNL     1       0.873   2.325  -0.318  1.00  0.00    -0.467 OA
ATOM     15  C   UNL     1       1.872   1.385  -0.755  1.00  0.00     0.282 C 
ENDBRANCH  12  14
ENDBRANCH  11  12
BRANCH  11  16
ATOM     16  C   UNL     1      -1.913   3.697   1.679  1.00  0.00    -0.007 A 
ATOM     17  C   UNL     1      -2.389   5.039   1.722  1.00  0.00     0.007 A 
ATOM     18  C   UNL     1      -2.986   2.664   1.871  1.00  0.00    -0.013 A 
ATOM     19  C   UNL     1      -3.733   5.371   1.633  1.00  0.00     0.001 A 
ATOM     20  C   UNL     1      -4.336   3.036   1.617  1.00  0.00    -0.018 A 
ATOM     21  C   UNL     1      -2.977   1.317   2.383  1.00  0.00     0.009 A 
ATOM     22  C   UNL     1      -4.679   4.375   1.482  1.00  0.00     0.009 A 
ATOM     23  C   UNL     1      -5.405   2.104   1.567  1.00  0.00     0.009 A 
ATOM     24  C   UNL     1      -4.037   0.396   2.425  1.00  0.00     0.001 A 
ATOM     25  C   UNL     1      -5.256   0.778   1.944  1.00  0.00     0.001 A 
ENDBRANCH  11  16
ENDBRANCH   8  11
ENDBRANCH   6   7
ENDBRANCH   5   6
ENDBRANCH   3   5
ENDBRANCH   2   3
ENDBRANCH   1   2
BRANCH   1  26
ATOM     26  C   UNL     1       0.436   0.782   3.494  1.00  0.00     0.202 C 
BRANCH  26  27
ATOM     27  O   UNL     1      -0.454   1.008   4.611  1.00  0.00    -0.374 OA
BRANCH  27  28
ATOM     28  C   UNL     1      -1.124   2.277   4.665  1.00  0.00     0.202 C 
BRANCH  28  29
ATOM     29  C   UNL     1      -0.538   3.472   5.419  1.00  0.00     0.261 C 
BRANCH  29  30
ATOM     30  O   UNL     1       0.637   3.950   4.750  1.00  0.00    -0.460 OA
BRANCH  30  31
ATOM     31  C   UNL     1       1.775   3.568   5.350  1.00  0.00     0.338 C 
ATOM     32  O   UNL     1       1.880   3.011   6.443  1.00  0.00    -0.246 OA
BRANCH  31  33
ATOM     33  C   UNL     1       2.924   3.760   4.462  1.00  0.00     0.060 A 
ATOM     34  C   UNL     1       3.843   2.709   4.438  1.00  0.00     0.016 A 
ATOM     35  C   UNL     1       3.161   4.943   3.749  1.00  0.00     0.016 A 
ATOM     36  C   UNL     1       5.059   2.873   3.799  1.00  0.00     0.010 A 
ATOM     37  C   UNL     1       4.386   5.102   3.092  1.00  0.00     0.010 A 
ATOM     38  C   UNL     1       5.360   4.092   3.178  1.00  0.00    -0.014 A 
BRANCH  38  39
ATOM     39  C   UNL     1       6.778   4.342   2.836  1.00  0.00     0.031 A 
ATOM     40  C   UNL     1       7.615   5.153   3.787  1.00  0.00     0.074 A 
ATOM     41  C   UNL     1       7.340   3.731   1.780  1.00  0.00     0.049 A 
ATOM     42  N   UNL     1       8.899   5.401   3.758  1.00  0.00    -0.248 NA
ATOM     43  C   UNL     1       6.912   5.756   4.931  1.00  0.00     0.031 C 
ATOM     44  C   UNL     1       6.635   2.875   0.828  1.00  0.00     0.029 A 
ATOM     45  N   UNL     1       8.641   3.720   1.351  1.00  0.00    -0.354 N 
ATOM     46  C   UNL     1       9.157   6.177   4.881  1.00  0.00     0.074 A 
ATOM     47  C   UNL     1       7.891   6.402   5.543  1.00  0.00     0.031 C 
ATOM     48  C   UNL     1       7.516   2.418  -0.078  1.00  0.00     0.029 A 
ATOM     49  C   UNL     1       8.837   2.968   0.220  1.00  0.00     0.049 A 
ATOM     50  H   UNL     1       9.365   4.205   1.809  1.00  0.00     0.167 HD
ATOM     51  C   UNL     1      10.345   6.645   5.332  1.00  0.00     0.037 A 
ATOM     52  C   UNL     1       9.957   2.760  -0.497  1.00  0.00     0.037 A 
ATOM     53  C   UNL     1      11.600   6.425   4.665  1.00  0.00     0.049 A 
ATOM     54  C   UNL     1      11.254   3.361  -0.024  1.00  0.00     0.074 A 
ATOM     55  C   UNL     1      12.861   6.860   5.031  1.00  0.00     0.029 A 
ATOM     56  N   UNL     1      11.749   5.711   3.485  1.00  0.00    -0.354 N 
ATOM     57  N   UNL     1      11.491   4.079   1.048  1.00  0.00    -0.248 NA
ATOM     58  C   UNL     1      12.440   3.114  -0.855  1.00  0.00     0.031 C 
ATOM     59  C   UNL     1      13.765   6.456   4.043  1.00  0.00     0.029 A 
ATOM     60  C   UNL     1      13.077   5.718   3.093  1.00  0.00     0.049 A 
ATOM     61  H   UNL     1      11.018   5.265   2.998  1.00  0.00     0.167 HD
ATOM     62  C   UNL     1      12.854   4.351   1.032  1.00  0.00     0.074 A 
ATOM     63  C   UNL     1      13.392   3.705  -0.148  1.00  0.00     0.031 C 
ATOM     64  C   UNL     1      13.593   5.069   1.913  1.00  0.00     0.037 A 
BRANCH  51  65
ATOM     65  C   UNL     1      10.327   7.466   6.589  1.00  0.00     0.057 A 
ATOM     66  C   UNL     1      10.058   6.900   7.843  1.00  0.00     0.134 A 
ATOM     67  C   UNL     1      10.583   8.842   6.545  1.00  0.00     0.134 A 
ATOM     68  F   UNL     1       9.786   5.591   7.954  1.00  0.00    -0.206 F 
ATOM     69  C   UNL     1      10.014   7.678   9.002  1.00  0.00     0.040 A 
ATOM     70  C   UNL     1      10.570   9.625   7.701  1.00  0.00     0.040 A 
ATOM     71  F   UNL     1      10.850   9.449   5.379  1.00  0.00    -0.206 F 
ATOM     72  C   UNL     1      10.277   9.044   8.932  1.00  0.00     0.006 A 
ENDBRANCH  51  65
BRANCH  52  73
ATOM     73  C   UNL     1       9.893   1.960  -1.745  1.00  0.00     0.057 A 
ATOM     74  C   UNL     1      10.502   0.705  -1.846  1.00  0.00     0.134 A 
ATOM     75  C   UNL     1       9.216   2.441  -2.873  1.00  0.00     0.134 A 
ATOM     76  F   UNL     1      11.183   0.199  -0.808  1.00  0.00    -0.206 F 
ATOM     77  C   UNL     1      10.453  -0.037  -3.028  1.00  0.00     0.040 A 
ATOM     78  C   UNL     1       9.136   1.699  -4.052  1.00  0.00     0.040 A 
ATOM     79  F   UNL     1       8.608   3.637  -2.840  1.00  0.00    -0.206 F 
ATOM     80  C   UNL     1       9.762   0.458  -4.133  1.00  0.00     0.006 A 
ENDBRANCH  52  73
BRANCH  64  81
ATOM     81  C   UNL     1      15.068   5.173   1.650  1.00  0.00     0.057 A 
ATOM     82  C   UNL     1      15.581   5.951   0.605  1.00  0.00     0.134 A 
ATOM     83  C   UNL     1      15.988   4.522   2.483  1.00  0.00     0.134 A 
ATOM     84  F   UNL     1      14.754   6.592  -0.235  1.00  0.00    -0.206 F 
ATOM     85  C   UNL     1      16.955   6.059   0.382  1.00  0.00     0.040 A 
ATOM     86  C   UNL     1      17.364   4.645   2.288  1.00  0.00     0.040 A 
ATOM     87  F   UNL     1      15.564   3.769   3.510  1.00  0.00    -0.206 F 
ATOM     88  C   UNL     1      17.851   5.410   1.231  1.00  0.00     0.006 A 
ENDBRANCH  64  81
ENDBRANCH  38  39
ENDBRANCH  31  33
ENDBRANCH  30  31
ENDBRANCH  29  30
ENDBRANCH  28  29
ENDBRANCH  27  28
ENDBRANCH  26  27
ENDBRANCH   1  26
TORSDOF 20
