REMARK SMILES O=C(OCCOCCOC(=O)c1cc(NC(=O)c2cccnc2Cl)ccc1O)c1ccc(-c2c3nc(c(-c4c(F)cccc4F)c4ccc([nH]4)c(-c4c(F)cccc4F)c4nc(c(-c5c(F)cccc5F)c5ccc2[nH]5)C=C4)C=C3)cc1
REMARK SMILES IDX 6 1 5 2 4 3 3 4 2 5 1 6 29 7 30 8 82 9 31 10 81 11 32 12
REMARK SMILES IDX 33 13 34 14 75 15 35 16 80 17 74 18 76 19 36 20 79 21 73 22
REMARK SMILES IDX 72 23 37 25 63 26 46 27 62 28 47 29 50 30 61 31 77 32 48 33
REMARK SMILES IDX 49 34 60 36 78 37 51 38 38 39 39 40 44 41 40 42 41 43 43 44
REMARK SMILES IDX 45 45 42 46 64 47 65 48 70 49 66 50 67 51 69 52 71 53 68 54
REMARK SMILES IDX 52 55 53 56 58 57 54 58 55 59 57 60 59 61 56 62 7 63 8 64
REMARK SMILES IDX 9 65 10 66 11 67 12 68 13 69 27 70 14 71 26 72 25 73 28 74
REMARK SMILES IDX 15 76 16 77 17 79 18 80 19 81 23 82 20 83 22 84 24 85 21 86
REMARK H PARENT 76 24 50 35 28 75 15 78
REMARK Flexibility Score: inf
ROOT
ATOM      1  O   UNL     1       3.655   1.348  -1.080  1.00  0.00    -0.374 OA
ENDROOT
BRANCH   1   2
ATOM      2  C   UNL     1       3.612   0.041  -1.654  1.00  0.00     0.202 C 
BRANCH   2   3
ATOM      3  C   UNL     1       3.153  -1.030  -0.664  1.00  0.00     0.261 C 
BRANCH   3   4
ATOM      4  O   UNL     1       1.851  -0.697  -0.153  1.00  0.00    -0.460 OA
BRANCH   4   5
ATOM      5  C   UNL     1       1.534  -0.314   1.104  1.00  0.00     0.338 C 
ATOM      6  O   UNL     1       0.346  -0.268   1.423  1.00  0.00    -0.246 OA
BRANCH   5   7
ATOM      7  C   UNL     1       2.544   0.074   2.137  1.00  0.00     0.060 A 
ATOM      8  C   UNL     1       3.802   0.612   1.862  1.00  0.00     0.016 A 
ATOM      9  C   UNL     1       2.145  -0.000   3.482  1.00  0.00     0.016 A 
ATOM     10  C   UNL     1       4.652   1.040   2.873  1.00  0.00     0.010 A 
ATOM     11  C   UNL     1       2.975   0.466   4.506  1.00  0.00     0.010 A 
ATOM     12  C   UNL     1       4.235   0.992   4.199  1.00  0.00    -0.014 A 
BRANCH  12  13
ATOM     13  C   UNL     1       5.166   1.458   5.241  1.00  0.00     0.031 A 
ATOM     14  C   UNL     1       5.855   0.446   6.098  1.00  0.00     0.074 A 
ATOM     15  C   UNL     1       5.453   2.769   5.331  1.00  0.00     0.049 A 
ATOM     16  N   UNL     1       6.670   0.630   7.100  1.00  0.00    -0.248 NA
ATOM     17  C   UNL     1       5.599  -0.967   5.774  1.00  0.00     0.031 C 
ATOM     18  C   UNL     1       4.908   3.814   4.460  1.00  0.00     0.029 A 
ATOM     19  N   UNL     1       6.296   3.445   6.172  1.00  0.00    -0.354 N 
ATOM     20  C   UNL     1       6.994  -0.641   7.554  1.00  0.00     0.074 A 
ATOM     21  C   UNL     1       6.293  -1.587   6.715  1.00  0.00     0.031 C 
ATOM     22  C   UNL     1       5.457   4.994   4.792  1.00  0.00     0.029 A 
ATOM     23  C   UNL     1       6.333   4.799   5.940  1.00  0.00     0.049 A 
ATOM     24  H   UNL     1       6.824   3.003   6.875  1.00  0.00     0.167 HD
ATOM     25  C   UNL     1       7.795  -0.977   8.591  1.00  0.00     0.037 A 
ATOM     26  C   UNL     1       6.984   5.769   6.607  1.00  0.00     0.037 A 
ATOM     27  C   UNL     1       8.481  -0.011   9.407  1.00  0.00     0.049 A 
ATOM     28  C   UNL     1       7.807   5.374   7.802  1.00  0.00     0.074 A 
ATOM     29  C   UNL     1       9.280  -0.221  10.515  1.00  0.00     0.029 A 
ATOM     30  N   UNL     1       8.445   1.361   9.191  1.00  0.00    -0.354 N 
ATOM     31  N   UNL     1       8.060   4.174   8.271  1.00  0.00    -0.248 NA
ATOM     32  C   UNL     1       8.417   6.463   8.573  1.00  0.00     0.031 C 
ATOM     33  C   UNL     1       9.696   1.029  10.992  1.00  0.00     0.029 A 
ATOM     34  C   UNL     1       9.195   2.013  10.153  1.00  0.00     0.049 A 
ATOM     35  H   UNL     1       7.956   1.805   8.460  1.00  0.00     0.167 HD
ATOM     36  C   UNL     1       8.870   4.361   9.381  1.00  0.00     0.074 A 
ATOM     37  C   UNL     1       9.083   5.791   9.502  1.00  0.00     0.031 C 
ATOM     38  C   UNL     1       9.389   3.440  10.230  1.00  0.00     0.037 A 
BRANCH  25  39
ATOM     39  C   UNL     1       7.889  -2.435   8.927  1.00  0.00     0.057 A 
ATOM     40  C   UNL     1       8.578  -3.347   8.117  1.00  0.00     0.134 A 
ATOM     41  C   UNL     1       7.230  -2.942  10.054  1.00  0.00     0.134 A 
ATOM     42  F   UNL     1       9.206  -2.931   7.007  1.00  0.00    -0.206 F 
ATOM     43  C   UNL     1       8.577  -4.716   8.396  1.00  0.00     0.040 A 
ATOM     44  C   UNL     1       7.242  -4.304  10.357  1.00  0.00     0.040 A 
ATOM     45  F   UNL     1       6.547  -2.124  10.869  1.00  0.00    -0.206 F 
ATOM     46  C   UNL     1       7.907  -5.197   9.520  1.00  0.00     0.006 A 
ENDBRANCH  25  39
BRANCH  26  47
ATOM     47  C   UNL     1       6.858   7.190   6.191  1.00  0.00     0.057 A 
ATOM     48  C   UNL     1       7.957   7.902   5.698  1.00  0.00     0.134 A 
ATOM     49  C   UNL     1       5.640   7.876   6.288  1.00  0.00     0.134 A 
ATOM     50  F   UNL     1       9.156   7.310   5.600  1.00  0.00    -0.206 F 
ATOM     51  C   UNL     1       7.854   9.245   5.329  1.00  0.00     0.040 A 
ATOM     52  C   UNL     1       5.516   9.211   5.897  1.00  0.00     0.040 A 
ATOM     53  F   UNL     1       4.546   7.255   6.753  1.00  0.00    -0.206 F 
ATOM     54  C   UNL     1       6.629   9.902   5.423  1.00  0.00     0.006 A 
ENDBRANCH  26  47
BRANCH  38  55
ATOM     55  C   UNL     1      10.263   3.958  11.332  1.00  0.00     0.057 A 
ATOM     56  C   UNL     1       9.732   4.623  12.444  1.00  0.00     0.134 A 
ATOM     57  C   UNL     1      11.648   3.758  11.291  1.00  0.00     0.134 A 
ATOM     58  F   UNL     1       8.414   4.859  12.531  1.00  0.00    -0.206 F 
ATOM     59  C   UNL     1      10.554   5.090  13.470  1.00  0.00     0.040 A 
ATOM     60  C   UNL     1      12.476   4.197  12.323  1.00  0.00     0.040 A 
ATOM     61  F   UNL     1      12.214   3.122  10.254  1.00  0.00    -0.206 F 
ATOM     62  C   UNL     1      11.929   4.870  13.414  1.00  0.00     0.006 A 
ENDBRANCH  38  55
ENDBRANCH  12  13
ENDBRANCH   5   7
ENDBRANCH   4   5
ENDBRANCH   3   4
ENDBRANCH   2   3
ENDBRANCH   1   2
BRANCH   1  63
ATOM     63  C   UNL     1       2.482   2.138  -1.292  1.00  0.00     0.202 C 
BRANCH  63  64
ATOM     64  C   UNL     1       2.842   3.342  -2.160  1.00  0.00     0.261 C 
BRANCH  64  65
ATOM     65  O   UNL     1       3.407   2.857  -3.387  1.00  0.00    -0.460 OA
BRANCH  65  66
ATOM     66  C   UNL     1       4.762   2.753  -3.421  1.00  0.00     0.342 C 
ATOM     67  O   UNL     1       5.561   3.226  -2.633  1.00  0.00    -0.246 OA
BRANCH  66  68
ATOM     68  C   UNL     1       5.132   1.753  -4.451  1.00  0.00     0.103 A 
ATOM     69  C   UNL     1       6.120   0.801  -4.110  1.00  0.00     0.045 A 
ATOM     70  C   UNL     1       4.501   1.701  -5.697  1.00  0.00     0.130 A 
ATOM     71  C   UNL     1       6.448  -0.218  -5.002  1.00  0.00     0.042 A 
ATOM     72  C   UNL     1       4.832   0.694  -6.595  1.00  0.00     0.049 A 
ATOM     73  C   UNL     1       5.798  -0.253  -6.246  1.00  0.00     0.030 A 
BRANCH  70  74
ATOM     74  O   UNL     1       3.581   2.643  -6.059  1.00  0.00    -0.507 OA
ATOM     75  H   UNL     1       3.351   3.326  -5.461  1.00  0.00     0.293 HD
ENDBRANCH  70  74
BRANCH  71  76
ATOM     76  N   UNL     1       7.428  -1.206  -4.799  1.00  0.00    -0.322 N 
ATOM     77  C   UNL     1       8.151  -1.643  -3.719  1.00  0.00     0.258 C 
ATOM     78  H   UNL     1       7.645  -1.698  -5.624  1.00  0.00     0.170 HD
ATOM     79  O   UNL     1       9.105  -2.401  -3.892  1.00  0.00    -0.269 OA
BRANCH  77  80
ATOM     80  C   UNL     1       7.798  -1.326  -2.341  1.00  0.00     0.077 A 
ATOM     81  C   UNL     1       8.619  -0.479  -1.595  1.00  0.00     0.018 A 
ATOM     82  C   UNL     1       6.777  -1.995  -1.685  1.00  0.00     0.141 A 
ATOM     83  C   UNL     1       8.350  -0.294  -0.241  1.00  0.00     0.021 A 
ATOM     84  N   UNL     1       6.480  -1.818  -0.374  1.00  0.00    -0.244 NA
ATOM     85  Cl  UNL     1       5.749  -3.143  -2.451  1.00  0.00    -0.061 Cl
ATOM     86  C   UNL     1       7.280  -0.976   0.319  1.00  0.00     0.113 A 
ENDBRANCH  77  80
ENDBRANCH  71  76
ENDBRANCH  66  68
ENDBRANCH  65  66
ENDBRANCH  64  65
ENDBRANCH  63  64
ENDBRANCH   1  63
TORSDOF 17
