REMARK SMILES O=C(OCCOCCOC(=O)[C@@H]1C[C@@H]1C(=O)N1CCN(c2ncc(C(F)(F)F)cc2Cl)CC1)c1ccc(-c2c3nc(c(-c4c(F)cccc4F)c4ccc([nH]4)c(-c4c(F)cccc4F)c4nc(c(-c5c(F)cccc5F)c5ccc2[nH]5)C=C4)C=C3)cc1
REMARK SMILES IDX 7 1 6 2 5 3 4 4 3 5 2 6 1 7 34 8 35 9 87 10 36 11 86 12
REMARK SMILES IDX 37 13 38 14 39 15 80 16 40 17 85 18 79 19 81 20 41 21 84 22
REMARK SMILES IDX 78 23 77 24 42 26 68 27 51 28 67 29 52 30 55 31 66 32 82 33
REMARK SMILES IDX 53 34 54 35 65 37 83 38 56 39 43 40 44 41 49 42 45 43 46 44
REMARK SMILES IDX 48 45 50 46 47 47 69 48 70 49 75 50 71 51 72 52 74 53 76 54
REMARK SMILES IDX 73 55 57 56 58 57 63 58 59 59 60 60 62 61 64 62 61 63 8 64
REMARK SMILES IDX 9 65 10 66 11 67 12 68 13 69 14 70 15 71 16 72 17 73 18 74
REMARK SMILES IDX 33 75 19 76 32 77 20 78 21 79 22 80 30 81 23 82 29 83 31 84
REMARK SMILES IDX 24 85 25 86 26 87 27 88 28 89
REMARK H PARENT 81 25 55 36
REMARK Flexibility Score: inf
ROOT
ATOM      1  C   UNL     1       2.701   0.897   1.957  1.00  0.00     0.202 C 
ENDROOT
BRANCH   1   2
ATOM      2  O   UNL     1       4.074   0.631   1.637  1.00  0.00    -0.374 OA
BRANCH   2   3
ATOM      3  C   UNL     1       4.619   1.342   0.521  1.00  0.00     0.202 C 
BRANCH   3   4
ATOM      4  C   UNL     1       4.161   0.931  -0.891  1.00  0.00     0.261 C 
BRANCH   4   5
ATOM      5  O   UNL     1       2.754   0.656  -0.981  1.00  0.00    -0.460 OA
BRANCH   5   6
ATOM      6  C   UNL     1       2.140  -0.550  -0.957  1.00  0.00     0.338 C 
ATOM      7  O   UNL     1       0.932  -0.615  -1.173  1.00  0.00    -0.246 OA
BRANCH   6   8
ATOM      8  C   UNL     1       2.872  -1.824  -0.687  1.00  0.00     0.060 A 
ATOM      9  C   UNL     1       4.065  -1.910   0.026  1.00  0.00     0.016 A 
ATOM     10  C   UNL     1       2.280  -3.022  -1.119  1.00  0.00     0.016 A 
ATOM     11  C   UNL     1       4.704  -3.111   0.248  1.00  0.00     0.010 A 
ATOM     12  C   UNL     1       2.890  -4.254  -0.859  1.00  0.00     0.010 A 
ATOM     13  C   UNL     1       4.114  -4.290  -0.185  1.00  0.00    -0.014 A 
BRANCH  13  14
ATOM     14  C   UNL     1       4.884  -5.521   0.027  1.00  0.00     0.031 A 
ATOM     15  C   UNL     1       5.649  -6.084  -1.125  1.00  0.00     0.074 A 
ATOM     16  C   UNL     1       5.030  -5.983   1.280  1.00  0.00     0.049 A 
ATOM     17  N   UNL     1       6.413  -7.140  -1.168  1.00  0.00    -0.248 NA
ATOM     18  C   UNL     1       5.560  -5.345  -2.397  1.00  0.00     0.031 C 
ATOM     19  C   UNL     1       4.429  -5.381   2.476  1.00  0.00     0.029 A 
ATOM     20  N   UNL     1       5.765  -7.027   1.766  1.00  0.00    -0.354 N 
ATOM     21  C   UNL     1       6.874  -7.210  -2.474  1.00  0.00     0.074 A 
ATOM     22  C   UNL     1       6.311  -6.090  -3.193  1.00  0.00     0.031 C 
ATOM     23  C   UNL     1       4.843  -6.055   3.560  1.00  0.00     0.029 A 
ATOM     24  C   UNL     1       5.678  -7.169   3.129  1.00  0.00     0.049 A 
ATOM     25  H   UNL     1       6.304  -7.620   1.194  1.00  0.00     0.167 HD
ATOM     26  C   UNL     1       7.688  -8.143  -3.015  1.00  0.00     0.037 A 
ATOM     27  C   UNL     1       6.195  -8.121   3.925  1.00  0.00     0.037 A 
ATOM     28  C   UNL     1       8.223  -9.247  -2.268  1.00  0.00     0.049 A 
ATOM     29  C   UNL     1       7.013  -9.203   3.278  1.00  0.00     0.074 A 
ATOM     30  C   UNL     1       8.988 -10.308  -2.712  1.00  0.00     0.029 A 
ATOM     31  N   UNL     1       8.041  -9.422  -0.901  1.00  0.00    -0.354 N 
ATOM     32  N   UNL     1       7.377  -9.322   2.022  1.00  0.00    -0.248 NA
ATOM     33  C   UNL     1       7.474 -10.292   4.146  1.00  0.00     0.031 C 
ATOM     34  C   UNL     1       9.238 -11.145  -1.619  1.00  0.00     0.029 A 
ATOM     35  C   UNL     1       8.666 -10.584  -0.486  1.00  0.00     0.049 A 
ATOM     36  H   UNL     1       7.542  -8.809  -0.314  1.00  0.00     0.167 HD
ATOM     37  C   UNL     1       8.115 -10.493   1.947  1.00  0.00     0.074 A 
ATOM     38  C   UNL     1       8.166 -11.035   3.292  1.00  0.00     0.031 C 
ATOM     39  C   UNL     1       8.691 -11.078   0.868  1.00  0.00     0.037 A 
BRANCH  26  40
ATOM     40  C   UNL     1       7.958  -8.034  -4.484  1.00  0.00     0.057 A 
ATOM     41  C   UNL     1       8.806  -7.055  -5.018  1.00  0.00     0.134 A 
ATOM     42  C   UNL     1       7.315  -8.893  -5.384  1.00  0.00     0.134 A 
ATOM     43  F   UNL     1       9.424  -6.178  -4.212  1.00  0.00    -0.206 F 
ATOM     44  C   UNL     1       8.986  -6.919  -6.396  1.00  0.00     0.040 A 
ATOM     45  C   UNL     1       7.502  -8.781  -6.762  1.00  0.00     0.040 A 
ATOM     46  F   UNL     1       6.480  -9.844  -4.939  1.00  0.00    -0.206 F 
ATOM     47  C   UNL     1       8.334  -7.786  -7.273  1.00  0.00     0.006 A 
ENDBRANCH  26  40
BRANCH  27  48
ATOM     48  C   UNL     1       5.906  -8.121   5.381  1.00  0.00     0.057 A 
ATOM     49  C   UNL     1       6.916  -7.922   6.328  1.00  0.00     0.134 A 
ATOM     50  C   UNL     1       4.605  -8.320   5.863  1.00  0.00     0.134 A 
ATOM     51  F   UNL     1       8.186  -7.745   5.935  1.00  0.00    -0.206 F 
ATOM     52  C   UNL     1       6.646  -7.932   7.699  1.00  0.00     0.040 A 
ATOM     53  C   UNL     1       4.316  -8.305   7.229  1.00  0.00     0.040 A 
ATOM     54  F   UNL     1       3.589  -8.516   5.010  1.00  0.00    -0.206 F 
ATOM     55  C   UNL     1       5.341  -8.118   8.152  1.00  0.00     0.006 A 
ENDBRANCH  27  48
BRANCH  39  56
ATOM     56  C   UNL     1       9.436 -12.351   1.117  1.00  0.00     0.057 A 
ATOM     57  C   UNL     1       8.767 -13.561   1.338  1.00  0.00     0.134 A 
ATOM     58  C   UNL     1      10.835 -12.373   1.088  1.00  0.00     0.134 A 
ATOM     59  F   UNL     1       7.427 -13.597   1.390  1.00  0.00    -0.206 F 
ATOM     60  C   UNL     1       9.467 -14.749   1.538  1.00  0.00     0.040 A 
ATOM     61  C   UNL     1      11.546 -13.559   1.264  1.00  0.00     0.040 A 
ATOM     62  F   UNL     1      11.530 -11.245   0.873  1.00  0.00    -0.206 F 
ATOM     63  C   UNL     1      10.861 -14.751   1.494  1.00  0.00     0.006 A 
ENDBRANCH  39  56
ENDBRANCH  13  14
ENDBRANCH   6   8
ENDBRANCH   5   6
ENDBRANCH   4   5
ENDBRANCH   3   4
ENDBRANCH   2   3
ENDBRANCH   1   2
BRANCH   1  64
ATOM     64  C   UNL     1       2.567   1.534   3.343  1.00  0.00     0.261 C 
BRANCH  64  65
ATOM     65  O   UNL     1       3.179   2.832   3.319  1.00  0.00    -0.463 OA
BRANCH  65  66
ATOM     66  C   UNL     1       4.499   2.829   3.610  1.00  0.00     0.309 C 
ATOM     67  O   UNL     1       5.068   2.043   4.356  1.00  0.00    -0.252 OA
BRANCH  66  68
ATOM     68  C   UNL     1       5.274   3.860   2.877  1.00  0.00     0.112 C 
ATOM     69  C   UNL     1       5.076   5.311   3.199  1.00  0.00     0.030 C 
ATOM     70  C   UNL     1       4.753   4.808   1.806  1.00  0.00     0.094 C 
BRANCH  70  71
ATOM     71  C   UNL     1       3.353   4.804   1.304  1.00  0.00     0.226 C 
ATOM     72  O   UNL     1       2.863   3.799   0.806  1.00  0.00    -0.275 OA
ATOM     73  N   UNL     1       2.648   5.971   1.393  1.00  0.00    -0.339 N 
ATOM     74  C   UNL     1       1.187   5.904   1.497  1.00  0.00     0.141 C 
ATOM     75  C   UNL     1       3.234   7.311   1.445  1.00  0.00     0.141 C 
ATOM     76  C   UNL     1       0.737   6.612   2.788  1.00  0.00     0.139 C 
ATOM     77  C   UNL     1       2.751   8.075   2.684  1.00  0.00     0.139 C 
ATOM     78  N   UNL     1       1.294   7.966   2.765  1.00  0.00    -0.352 N 
BRANCH  78  79
ATOM     79  C   UNL     1       0.572   8.994   3.316  1.00  0.00     0.147 A 
ATOM     80  N   UNL     1      -0.019   8.771   4.513  1.00  0.00    -0.237 NA
ATOM     81  C   UNL     1       0.409  10.212   2.636  1.00  0.00     0.084 A 
ATOM     82  C   UNL     1      -0.759   9.765   5.054  1.00  0.00     0.126 A 
ATOM     83  C   UNL     1      -0.370  11.212   3.207  1.00  0.00     0.039 A 
ATOM     84  Cl  UNL     1       1.062  10.498   1.059  1.00  0.00    -0.080 Cl
ATOM     85  C   UNL     1      -0.972  10.992   4.445  1.00  0.00     0.075 A 
BRANCH  85  86
ATOM     86  C   UNL     1      -1.825  12.020   5.113  1.00  0.00     0.417 C 
ATOM     87  F   UNL     1      -3.057  11.544   5.437  1.00  0.00    -0.166 F 
ATOM     88  F   UNL     1      -1.277  12.473   6.273  1.00  0.00    -0.166 F 
ATOM     89  F   UNL     1      -2.039  13.122   4.344  1.00  0.00    -0.166 F 
ENDBRANCH  85  86
ENDBRANCH  78  79
ENDBRANCH  70  71
ENDBRANCH  66  68
ENDBRANCH  65  66
ENDBRANCH  64  65
ENDBRANCH   1  64
TORSDOF 17
