REMARK SMILES CC(C)CCc1cc2c(cc1Cl)C=C(C(=O)OCCOCCOC(=O)c1ccc(-c3c4nc(c(-c5c(F)cccc5F)c5ccc([nH]5)c(-c5c(F)cccc5F)c5nc(c(-c6c(F)cccc6F)c6ccc3[nH]6)C=C5)C=C4)cc1)[C@@H](C(F)(F)F)O2
REMARK SMILES IDX 19 1 18 2 17 3 15 4 16 5 14 6 6 7 7 8 11 9 8 10 10 11 12 12
REMARK SMILES IDX 9 13 85 14 13 15 80 16 5 17 4 18 2 19 1 20 3 21 81 22 82 23
REMARK SMILES IDX 83 24 84 25 20 26 21 27 22 28 23 29 24 30 25 31 26 32 27 33
REMARK SMILES IDX 79 34 28 35 78 36 29 37 30 38 31 39 72 40 32 41 77 42 71 43
REMARK SMILES IDX 73 44 33 45 76 46 70 47 69 48 34 50 60 51 43 52 59 53 44 54
REMARK SMILES IDX 47 55 58 56 74 57 45 58 46 59 57 61 75 62 48 63 35 64 36 65
REMARK SMILES IDX 41 66 37 67 38 68 40 69 42 70 39 71 61 72 62 73 67 74 63 75
REMARK SMILES IDX 64 76 66 77 68 78 65 79 49 80 50 81 55 82 51 83 52 84 54 85
REMARK SMILES IDX 56 86 53 87
REMARK H PARENT 73 49 47 60
REMARK Flexibility Score: inf
ROOT
ATOM      1  C   UNL     1       0.248   5.896  10.310  1.00  0.00     0.202 C 
ENDROOT
BRANCH   1   2
ATOM      2  C   UNL     1       1.166   6.244   9.134  1.00  0.00     0.261 C 
BRANCH   2   3
ATOM      3  O   UNL     1       0.627   5.803   7.880  1.00  0.00    -0.460 OA
BRANCH   3   4
ATOM      4  C   UNL     1       1.304   4.776   7.312  1.00  0.00     0.338 C 
ATOM      5  O   UNL     1       2.353   4.288   7.699  1.00  0.00    -0.246 OA
BRANCH   4   6
ATOM      6  C   UNL     1       0.516   4.217   6.198  1.00  0.00     0.087 C 
ATOM      7  C   UNL     1      -1.156   1.166   2.584  1.00  0.00    -0.026 A 
ATOM      8  C   UNL     1      -1.297   2.541   2.860  1.00  0.00     0.052 A 
ATOM      9  C   UNL     1      -0.583   0.350   3.573  1.00  0.00     0.045 A 
ATOM     10  C   UNL     1      -0.782   3.100   4.030  1.00  0.00     0.128 A 
ATOM     11  C   UNL     1      -0.081   0.908   4.752  1.00  0.00     0.032 A 
ATOM     12  Cl  UNL     1      -0.440  -1.364   3.402  1.00  0.00    -0.084 Cl
ATOM     13  C   UNL     1      -0.144   2.287   4.962  1.00  0.00     0.019 A 
ATOM     14  O   UNL     1      -0.936   4.448   4.180  1.00  0.00    -0.475 OA
ATOM     15  C   UNL     1       0.508   2.881   6.111  1.00  0.00     0.027 C 
ATOM     16  C   UNL     1      -0.193   5.127   5.233  1.00  0.00     0.316 C 
BRANCH   7  17
ATOM     17  C   UNL     1      -1.601   0.640   1.236  1.00  0.00     0.037 C 
BRANCH  17  18
ATOM     18  C   UNL     1      -0.964   1.359   0.032  1.00  0.00     0.008 C 
BRANCH  18  19
ATOM     19  C   UNL     1       0.580   1.349  -0.013  1.00  0.00    -0.017 C 
ATOM     20  C   UNL     1       1.152  -0.061  -0.157  1.00  0.00     0.007 C 
ATOM     21  C   UNL     1       1.069   2.223  -1.171  1.00  0.00     0.007 C 
ENDBRANCH  18  19
ENDBRANCH  17  18
ENDBRANCH   7  17
BRANCH  16  22
ATOM     22  C   UNL     1       0.755   6.146   4.583  1.00  0.00     0.430 C 
ATOM     23  F   UNL     1       0.106   6.909   3.671  1.00  0.00    -0.167 F 
ATOM     24  F   UNL     1       1.276   6.999   5.497  1.00  0.00    -0.167 F 
ATOM     25  F   UNL     1       1.790   5.547   3.952  1.00  0.00    -0.167 F 
ENDBRANCH  16  22
ENDBRANCH   4   6
ENDBRANCH   3   4
ENDBRANCH   2   3
ENDBRANCH   1   2
BRANCH   1  26
ATOM     26  O   UNL     1      -0.116   4.531  10.489  1.00  0.00    -0.374 OA
BRANCH  26  27
ATOM     27  C   UNL     1      -1.080   3.957   9.607  1.00  0.00     0.202 C 
BRANCH  27  28
ATOM     28  C   UNL     1      -2.542   4.408   9.726  1.00  0.00     0.261 C 
BRANCH  28  29
ATOM     29  O   UNL     1      -2.729   5.795   9.399  1.00  0.00    -0.460 OA
BRANCH  29  30
ATOM     30  C   UNL     1      -3.031   6.592  10.454  1.00  0.00     0.338 C 
ATOM     31  O   UNL     1      -3.182   6.256  11.619  1.00  0.00    -0.246 OA
BRANCH  30  32
ATOM     32  C   UNL     1      -2.965   8.002  10.033  1.00  0.00     0.060 A 
ATOM     33  C   UNL     1      -3.747   8.478   8.981  1.00  0.00     0.016 A 
ATOM     34  C   UNL     1      -2.133   8.869  10.755  1.00  0.00     0.016 A 
ATOM     35  C   UNL     1      -3.721   9.840   8.675  1.00  0.00     0.010 A 
ATOM     36  C   UNL     1      -2.108  10.228  10.447  1.00  0.00     0.010 A 
ATOM     37  C   UNL     1      -2.922  10.727   9.422  1.00  0.00    -0.014 A 
BRANCH  37  38
ATOM     38  C   UNL     1      -3.052  12.191   9.224  1.00  0.00     0.031 A 
ATOM     39  C   UNL     1      -1.983  12.990   8.543  1.00  0.00     0.074 A 
ATOM     40  C   UNL     1      -4.154  12.802   9.699  1.00  0.00     0.049 A 
ATOM     41  N   UNL     1      -1.971  14.267   8.251  1.00  0.00    -0.248 NA
ATOM     42  C   UNL     1      -0.768  12.267   8.144  1.00  0.00     0.031 C 
ATOM     43  C   UNL     1      -5.242  12.133  10.416  1.00  0.00     0.029 A 
ATOM     44  N   UNL     1      -4.544  14.115   9.649  1.00  0.00    -0.354 N 
ATOM     45  C   UNL     1      -0.760  14.499   7.614  1.00  0.00     0.074 A 
ATOM     46  C   UNL     1      -0.042  13.240   7.611  1.00  0.00     0.031 C 
ATOM     47  C   UNL     1      -6.191  13.034  10.711  1.00  0.00     0.029 A 
ATOM     48  C   UNL     1      -5.762  14.347  10.240  1.00  0.00     0.049 A 
ATOM     49  H   UNL     1      -4.004  14.823   9.231  1.00  0.00     0.167 HD
ATOM     50  C   UNL     1      -0.301  15.652   7.068  1.00  0.00     0.037 A 
ATOM     51  C   UNL     1      -6.454  15.491  10.388  1.00  0.00     0.037 A 
ATOM     52  C   UNL     1      -1.006  16.910   7.107  1.00  0.00     0.049 A 
ATOM     53  C   UNL     1      -5.886  16.767   9.835  1.00  0.00     0.074 A 
ATOM     54  C   UNL     1      -0.636  18.126   6.559  1.00  0.00     0.029 A 
ATOM     55  N   UNL     1      -2.218  17.119   7.750  1.00  0.00    -0.354 N 
ATOM     56  N   UNL     1      -4.777  16.958   9.161  1.00  0.00    -0.248 NA
ATOM     57  C   UNL     1      -6.671  17.989  10.060  1.00  0.00     0.031 C 
ATOM     58  C   UNL     1      -1.591  19.083   6.921  1.00  0.00     0.029 A 
ATOM     59  C   UNL     1      -2.591  18.451   7.641  1.00  0.00     0.049 A 
ATOM     60  H   UNL     1      -2.737  16.424   8.216  1.00  0.00     0.167 HD
ATOM     61  C   UNL     1      -4.745  18.314   8.859  1.00  0.00     0.074 A 
ATOM     62  C   UNL     1      -5.957  18.891   9.403  1.00  0.00     0.031 C 
ATOM     63  C   UNL     1      -3.797  19.018   8.193  1.00  0.00     0.037 A 
BRANCH  50  64
ATOM     64  C   UNL     1       1.039  15.607   6.389  1.00  0.00     0.057 A 
ATOM     65  C   UNL     1       2.141  16.288   6.923  1.00  0.00     0.134 A 
ATOM     66  C   UNL     1       1.233  14.914   5.186  1.00  0.00     0.134 A 
ATOM     67  F   UNL     1       2.025  16.981   8.065  1.00  0.00    -0.206 F 
ATOM     68  C   UNL     1       3.385  16.278   6.288  1.00  0.00     0.040 A 
ATOM     69  C   UNL     1       2.479  14.873   4.557  1.00  0.00     0.040 A 
ATOM     70  F   UNL     1       0.222  14.235   4.622  1.00  0.00    -0.206 F 
ATOM     71  C   UNL     1       3.558  15.561   5.106  1.00  0.00     0.006 A 
ENDBRANCH  50  64
BRANCH  51  72
ATOM     72  C   UNL     1      -7.766  15.488  11.083  1.00  0.00     0.057 A 
ATOM     73  C   UNL     1      -7.864  15.239  12.457  1.00  0.00     0.134 A 
ATOM     74  C   UNL     1      -8.951  15.770  10.393  1.00  0.00     0.134 A 
ATOM     75  F   UNL     1      -6.766  14.955  13.174  1.00  0.00    -0.206 F 
ATOM     76  C   UNL     1      -9.091  15.273  13.120  1.00  0.00     0.040 A 
ATOM     77  C   UNL     1     -10.181  15.837  11.049  1.00  0.00     0.040 A 
ATOM     78  F   UNL     1      -8.920  16.033   9.078  1.00  0.00    -0.206 F 
ATOM     79  C   UNL     1     -10.252  15.585  12.417  1.00  0.00     0.006 A 
ENDBRANCH  51  72
BRANCH  63  80
ATOM     80  C   UNL     1      -4.055  20.485   7.992  1.00  0.00     0.057 A 
ATOM     81  C   UNL     1      -4.331  20.993   6.716  1.00  0.00     0.134 A 
ATOM     82  C   UNL     1      -4.033  21.397   9.056  1.00  0.00     0.134 A 
ATOM     83  F   UNL     1      -4.361  20.179   5.650  1.00  0.00    -0.206 F 
ATOM     84  C   UNL     1      -4.578  22.351   6.506  1.00  0.00     0.040 A 
ATOM     85  C   UNL     1      -4.311  22.752   8.864  1.00  0.00     0.040 A 
ATOM     86  F   UNL     1      -3.792  20.976  10.307  1.00  0.00    -0.206 F 
ATOM     87  C   UNL     1      -4.580  23.233   7.585  1.00  0.00     0.006 A 
ENDBRANCH  63  80
ENDBRANCH  37  38
ENDBRANCH  30  32
ENDBRANCH  29  30
ENDBRANCH  28  29
ENDBRANCH  27  28
ENDBRANCH  26  27
ENDBRANCH   1  26
TORSDOF 18
