REMARK SMILES CCn1cc(S(=O)(=O)N2CCC(CCc3ccc(C(=O)OCCOCCOC(=O)c4ccc(-c5c6nc(c(-c7c(F)cccc7F)c7ccc([nH]7)c(-c7c(F)cccc7F)c7nc(c(-c8c(F)cccc8F)c8ccc5[nH]8)C=C7)C=C6)cc4)cc3)CC2)cn1
REMARK SMILES IDX 22 1 21 2 19 3 20 4 18 5 15 6 16 7 85 8 17 9 84 10 14 11
REMARK SMILES IDX 13 12 12 13 9 14 10 15 87 16 11 17 86 18 6 19 7 20 8 21 5 22
REMARK SMILES IDX 3 23 4 24 89 25 88 26 2 27 1 28 23 29 24 30 25 31 26 32
REMARK SMILES IDX 27 33 28 34 29 35 30 36 31 37 83 38 32 39 82 40 33 41 34 42
REMARK SMILES IDX 35 43 76 44 36 45 81 46 75 47 77 48 37 49 80 50 74 51 73 52
REMARK SMILES IDX 38 54 64 55 47 56 63 57 48 58 51 59 62 60 78 61 49 62 50 63
REMARK SMILES IDX 61 65 79 66 52 67 39 68 40 69 45 70 41 71 42 72 44 73 46 74
REMARK SMILES IDX 43 75 65 76 66 77 71 78 67 79 68 80 70 81 72 82 69 83 53 84
REMARK SMILES IDX 54 85 59 86 55 87 56 88 58 89 60 90 57 91
REMARK H PARENT 77 53 51 64
REMARK Flexibility Score: inf
ROOT
ATOM      1  C   UNL     1      -0.176  -1.774  -5.284  1.00  0.00     0.261 C 
ENDROOT
BRANCH   1   2
ATOM      2  O   UNL     1      -0.103  -0.482  -4.654  1.00  0.00    -0.460 OA
BRANCH   2   3
ATOM      3  C   UNL     1      -1.050   0.391  -5.086  1.00  0.00     0.338 C 
ATOM      4  O   UNL     1      -1.928   0.165  -5.905  1.00  0.00    -0.246 OA
BRANCH   3   5
ATOM      5  C   UNL     1      -1.004   1.668  -4.341  1.00  0.00     0.060 A 
ATOM      6  C   UNL     1      -1.093   4.267  -3.285  1.00  0.00    -0.048 A 
ATOM      7  C   UNL     1      -2.275   3.542  -3.480  1.00  0.00     0.004 A 
ATOM      8  C   UNL     1       0.139   3.646  -3.561  1.00  0.00     0.004 A 
ATOM      9  C   UNL     1      -2.231   2.254  -4.009  1.00  0.00     0.016 A 
ATOM     10  C   UNL     1       0.188   2.345  -4.080  1.00  0.00     0.016 A 
BRANCH   6  11
ATOM     11  C   UNL     1      -1.158   5.727  -2.901  1.00  0.00     0.036 C 
BRANCH  11  12
ATOM     12  C   UNL     1      -1.844   6.029  -1.562  1.00  0.00     0.008 C 
BRANCH  12  13
ATOM     13  C   UNL     1      -1.158   5.425  -0.325  1.00  0.00    -0.008 C 
ATOM     14  N   UNL     1       0.127   5.467   2.302  1.00  0.00    -0.198 NA
ATOM     15  C   UNL     1       0.927   5.268   1.068  1.00  0.00     0.103 C 
ATOM     16  C   UNL     1      -1.332   5.193   2.198  1.00  0.00     0.103 C 
ATOM     17  C   UNL     1       0.276   5.927  -0.140  1.00  0.00     0.020 C 
ATOM     18  C   UNL     1      -1.951   5.786   0.939  1.00  0.00     0.020 C 
BRANCH  14  19
ATOM     19  S   UNL     1       0.866   4.850   3.733  1.00  0.00     0.246 S 
ATOM     20  O   UNL     1       0.019   5.120   4.856  1.00  0.00    -0.207 OA
ATOM     21  O   UNL     1       2.277   5.218   3.712  1.00  0.00    -0.207 OA
BRANCH  19  22
ATOM     22  C   UNL     1       0.903   3.142   3.644  1.00  0.00     0.120 A 
ATOM     23  N   UNL     1       0.668   1.076   2.989  1.00  0.00    -0.272 N 
ATOM     24  C   UNL     1       0.272   2.348   2.722  1.00  0.00     0.130 A 
ATOM     25  N   UNL     1       1.454   0.977   4.070  1.00  0.00    -0.180 NA
ATOM     26  C   UNL     1       1.608   2.250   4.466  1.00  0.00     0.156 A 
BRANCH  23  27
ATOM     27  C   UNL     1       0.461  -0.030   2.083  1.00  0.00     0.141 C 
ATOM     28  C   UNL     1       0.892   0.373   0.688  1.00  0.00     0.029 C 
ENDBRANCH  23  27
ENDBRANCH  19  22
ENDBRANCH  14  19
ENDBRANCH  12  13
ENDBRANCH  11  12
ENDBRANCH   6  11
ENDBRANCH   3   5
ENDBRANCH   2   3
ENDBRANCH   1   2
BRANCH   1  29
ATOM     29  C   UNL     1      -0.681  -2.913  -4.389  1.00  0.00     0.202 C 
BRANCH  29  30
ATOM     30  O   UNL     1      -1.898  -2.754  -3.672  1.00  0.00    -0.374 OA
BRANCH  30  31
ATOM     31  C   UNL     1      -2.006  -1.723  -2.707  1.00  0.00     0.202 C 
BRANCH  31  32
ATOM     32  C   UNL     1      -1.048  -1.702  -1.524  1.00  0.00     0.261 C 
BRANCH  32  33
ATOM     33  O   UNL     1       0.340  -1.862  -1.831  1.00  0.00    -0.460 OA
BRANCH  33  34
ATOM     34  C   UNL     1       0.827  -3.087  -1.495  1.00  0.00     0.338 C 
ATOM     35  O   UNL     1       0.181  -4.120  -1.431  1.00  0.00    -0.246 OA
BRANCH  34  36
ATOM     36  C   UNL     1       2.186  -2.964  -0.930  1.00  0.00     0.060 A 
ATOM     37  C   UNL     1       2.685  -4.086  -0.266  1.00  0.00     0.016 A 
ATOM     38  C   UNL     1       2.772  -1.710  -0.746  1.00  0.00     0.016 A 
ATOM     39  C   UNL     1       3.608  -3.913   0.750  1.00  0.00     0.010 A 
ATOM     40  C   UNL     1       3.614  -1.523   0.336  1.00  0.00     0.010 A 
ATOM     41  C   UNL     1       3.992  -2.618   1.111  1.00  0.00    -0.014 A 
BRANCH  41  42
ATOM     42  C   UNL     1       5.042  -2.461   2.106  1.00  0.00     0.031 A 
ATOM     43  C   UNL     1       6.375  -2.608   1.477  1.00  0.00     0.074 A 
ATOM     44  C   UNL     1       4.870  -2.123   3.399  1.00  0.00     0.049 A 
ATOM     45  N   UNL     1       7.171  -3.621   1.567  1.00  0.00    -0.248 NA
ATOM     46  C   UNL     1       6.768  -1.630   0.446  1.00  0.00     0.031 C 
ATOM     47  C   UNL     1       3.645  -1.655   4.042  1.00  0.00     0.029 A 
ATOM     48  N   UNL     1       5.793  -2.034   4.404  1.00  0.00    -0.354 N 
ATOM     49  C   UNL     1       8.271  -3.284   0.786  1.00  0.00     0.074 A 
ATOM     50  C   UNL     1       7.854  -2.208  -0.064  1.00  0.00     0.031 C 
ATOM     51  C   UNL     1       3.944  -1.119   5.248  1.00  0.00     0.029 A 
ATOM     52  C   UNL     1       5.354  -1.330   5.524  1.00  0.00     0.049 A 
ATOM     53  H   UNL     1       6.691  -2.432   4.342  1.00  0.00     0.167 HD
ATOM     54  C   UNL     1       9.519  -3.666   1.164  1.00  0.00     0.037 A 
ATOM     55  C   UNL     1       6.112  -0.914   6.571  1.00  0.00     0.037 A 
ATOM     56  C   UNL     1       9.444  -4.724   2.141  1.00  0.00     0.049 A 
ATOM     57  C   UNL     1       7.359  -1.710   6.566  1.00  0.00     0.074 A 
ATOM     58  C   UNL     1       9.050  -6.044   2.160  1.00  0.00     0.029 A 
ATOM     59  N   UNL     1       9.459  -4.284   3.436  1.00  0.00    -0.354 N 
ATOM     60  N   UNL     1       7.421  -2.972   6.880  1.00  0.00    -0.248 NA
ATOM     61  C   UNL     1       8.535  -1.179   5.886  1.00  0.00     0.031 C 
ATOM     62  C   UNL     1       8.624  -6.307   3.497  1.00  0.00     0.029 A 
ATOM     63  C   UNL     1       8.808  -5.155   4.261  1.00  0.00     0.049 A 
ATOM     64  H   UNL     1       9.883  -3.447   3.734  1.00  0.00     0.167 HD
ATOM     65  C   UNL     1       8.406  -3.480   6.055  1.00  0.00     0.074 A 
ATOM     66  C   UNL     1       9.173  -2.321   5.620  1.00  0.00     0.031 C 
ATOM     67  C   UNL     1       8.292  -4.742   5.548  1.00  0.00     0.037 A 
BRANCH  54  68
ATOM     68  C   UNL     1      10.733  -2.753   1.096  1.00  0.00     0.057 A 
ATOM     69  C   UNL     1      11.972  -3.264   1.529  1.00  0.00     0.134 A 
ATOM     70  C   UNL     1      10.697  -1.349   0.946  1.00  0.00     0.134 A 
ATOM     71  F   UNL     1      12.144  -4.581   1.719  1.00  0.00    -0.206 F 
ATOM     72  C   UNL     1      13.050  -2.438   1.873  1.00  0.00     0.040 A 
ATOM     73  C   UNL     1      11.784  -0.521   1.240  1.00  0.00     0.040 A 
ATOM     74  F   UNL     1       9.594  -0.675   0.605  1.00  0.00    -0.206 F 
ATOM     75  C   UNL     1      12.955  -1.060   1.738  1.00  0.00     0.006 A 
ENDBRANCH  54  68
BRANCH  55  76
ATOM     76  C   UNL     1       5.969   0.256   7.472  1.00  0.00     0.057 A 
ATOM     77  C   UNL     1       6.695   0.337   8.674  1.00  0.00     0.134 A 
ATOM     78  C   UNL     1       5.367   1.447   7.039  1.00  0.00     0.134 A 
ATOM     79  F   UNL     1       7.334  -0.737   9.161  1.00  0.00    -0.206 F 
ATOM     80  C   UNL     1       6.854   1.541   9.374  1.00  0.00     0.040 A 
ATOM     81  C   UNL     1       5.510   2.655   7.734  1.00  0.00     0.040 A 
ATOM     82  F   UNL     1       4.703   1.503   5.877  1.00  0.00    -0.206 F 
ATOM     83  C   UNL     1       6.273   2.709   8.894  1.00  0.00     0.006 A 
ENDBRANCH  55  76
BRANCH  67  84
ATOM     84  C   UNL     1       7.438  -5.711   6.306  1.00  0.00     0.057 A 
ATOM     85  C   UNL     1       6.058  -5.579   6.514  1.00  0.00     0.134 A 
ATOM     86  C   UNL     1       8.048  -6.872   6.797  1.00  0.00     0.134 A 
ATOM     87  F   UNL     1       5.371  -4.547   6.004  1.00  0.00    -0.206 F 
ATOM     88  C   UNL     1       5.333  -6.538   7.228  1.00  0.00     0.040 A 
ATOM     89  C   UNL     1       7.329  -7.855   7.473  1.00  0.00     0.040 A 
ATOM     90  F   UNL     1       9.360  -7.082   6.598  1.00  0.00    -0.206 F 
ATOM     91  C   UNL     1       5.968  -7.683   7.705  1.00  0.00     0.006 A 
ENDBRANCH  67  84
ENDBRANCH  41  42
ENDBRANCH  34  36
ENDBRANCH  33  34
ENDBRANCH  32  33
ENDBRANCH  31  32
ENDBRANCH  30  31
ENDBRANCH  29  30
ENDBRANCH   1  29
TORSDOF 20
