REMARK SMILES O=C1O[C@@H](c2ccc(O)c(O)c2)[C@H](C(=O)OCCOCCOC(=O)c2ccc(-c3c4nc(c(-c5c(F)cccc5F)c5ccc([nH]5)c(-c5c(F)cccc5F)c5nc(c(-c6c(F)cccc6F)c6ccc3[nH]6)C=C5)C=C4)cc2)/C1=C\c1ccc(O)c(O)c1
REMARK SMILES IDX 19 1 18 2 17 3 16 4 14 5 15 6 13 7 1 8 2 9 3 10 79 11 4 12
REMARK SMILES IDX 80 13 5 14 6 15 12 16 7 17 10 18 8 19 11 20 9 22 81 24 82 25
REMARK SMILES IDX 88 26 83 27 86 28 84 29 87 30 85 32 20 34 21 35 22 36 23 37
REMARK SMILES IDX 24 38 25 39 26 40 78 41 27 42 77 43 28 44 29 45 30 46 71 47
REMARK SMILES IDX 31 48 76 49 70 50 72 51 32 52 75 53 69 54 68 55 33 57 59 58
REMARK SMILES IDX 42 59 58 60 43 61 46 62 57 63 73 64 44 65 45 66 56 68 74 69
REMARK SMILES IDX 47 70 34 71 35 72 40 73 36 74 37 75 39 76 41 77 38 78 60 79
REMARK SMILES IDX 61 80 66 81 62 82 63 83 65 84 67 85 64 86 48 87 49 88 54 89
REMARK SMILES IDX 50 90 51 91 53 92 55 93 52 94
REMARK H PARENT 11 21 9 23 87 31 85 33 72 56 46 67
REMARK Flexibility Score: inf
ROOT
ATOM      1  O   UNL     1       1.852   3.569   3.752  1.00  0.00    -0.374 OA
ENDROOT
BRANCH   1   2
ATOM      2  C   UNL     1       2.770   2.542   4.108  1.00  0.00     0.202 C 
BRANCH   2   3
ATOM      3  C   UNL     1       2.409   1.097   3.766  1.00  0.00     0.261 C 
BRANCH   3   4
ATOM      4  O   UNL     1       2.348   0.907   2.342  1.00  0.00    -0.463 OA
BRANCH   4   5
ATOM      5  C   UNL     1       1.112   0.591   1.857  1.00  0.00     0.317 C 
ATOM      6  O   UNL     1       0.144   0.306   2.547  1.00  0.00    -0.251 OA
BRANCH   5   7
ATOM      7  C   UNL     1       1.113   0.688   0.340  1.00  0.00     0.182 C 
ATOM      8  O   UNL     1      -1.853  -1.091  -0.444  1.00  0.00    -0.247 OA
ATOM      9  C   UNL     1      -0.714  -0.685  -0.287  1.00  0.00     0.335 C 
ATOM     10  O   UNL     1       0.403  -1.463  -0.231  1.00  0.00    -0.453 OA
ATOM     11  C   UNL     1      -0.295   0.726  -0.138  1.00  0.00     0.056 C 
ATOM     12  C   UNL     1       1.588  -0.643  -0.209  1.00  0.00     0.226 C 
ATOM     13  C   UNL     1      -1.134   1.737  -0.417  1.00  0.00     0.020 C 
BRANCH  12  14
ATOM     14  C   UNL     1       2.242  -0.574  -1.585  1.00  0.00    -0.002 A 
ATOM     15  C   UNL     1       3.360   0.257  -1.810  1.00  0.00     0.012 A 
ATOM     16  C   UNL     1       1.793  -1.386  -2.641  1.00  0.00     0.057 A 
ATOM     17  C   UNL     1       3.993   0.295  -3.061  1.00  0.00     0.050 A 
ATOM     18  C   UNL     1       2.429  -1.344  -3.874  1.00  0.00     0.157 A 
ATOM     19  C   UNL     1       3.520  -0.510  -4.088  1.00  0.00     0.157 A 
BRANCH  18  20
ATOM     20  O   UNL     1       1.975  -2.148  -4.879  1.00  0.00    -0.504 OA
ATOM     21  H   UNL     1       2.393  -2.131  -5.718  1.00  0.00     0.293 HD
ENDBRANCH  18  20
BRANCH  19  22
ATOM     22  O   UNL     1       4.100  -0.530  -5.325  1.00  0.00    -0.504 OA
ATOM     23  H   UNL     1       4.838   0.019  -5.505  1.00  0.00     0.293 HD
ENDBRANCH  19  22
ENDBRANCH  12  14
BRANCH  13  24
ATOM     24  C   UNL     1      -0.820   3.167  -0.345  1.00  0.00    -0.021 A 
ATOM     25  C   UNL     1       0.084   3.753  -1.247  1.00  0.00     0.012 A 
ATOM     26  C   UNL     1      -1.478   3.978   0.588  1.00  0.00     0.058 A 
ATOM     27  C   UNL     1       0.347   5.129  -1.206  1.00  0.00     0.051 A 
ATOM     28  C   UNL     1      -1.203   5.342   0.627  1.00  0.00     0.157 A 
ATOM     29  C   UNL     1      -0.292   5.915  -0.256  1.00  0.00     0.157 A 
BRANCH  28  30
ATOM     30  O   UNL     1      -1.815   6.117   1.570  1.00  0.00    -0.504 OA
ATOM     31  H   UNL     1      -1.638   7.037   1.607  1.00  0.00     0.293 HD
ENDBRANCH  28  30
BRANCH  29  32
ATOM     32  O   UNL     1      -0.044   7.253  -0.134  1.00  0.00    -0.504 OA
ATOM     33  H   UNL     1       0.564   7.671  -0.712  1.00  0.00     0.293 HD
ENDBRANCH  29  32
ENDBRANCH  13  24
ENDBRANCH   5   7
ENDBRANCH   4   5
ENDBRANCH   3   4
ENDBRANCH   2   3
ENDBRANCH   1   2
BRANCH   1  34
ATOM     34  C   UNL     1       1.672   3.887   2.378  1.00  0.00     0.202 C 
BRANCH  34  35
ATOM     35  C   UNL     1       2.771   4.663   1.640  1.00  0.00     0.261 C 
BRANCH  35  36
ATOM     36  O   UNL     1       4.079   4.104   1.793  1.00  0.00    -0.460 OA
BRANCH  36  37
ATOM     37  C   UNL     1       4.845   4.757   2.702  1.00  0.00     0.338 C 
ATOM     38  O   UNL     1       4.570   5.764   3.330  1.00  0.00    -0.246 OA
BRANCH  37  39
ATOM     39  C   UNL     1       6.049   3.957   2.962  1.00  0.00     0.060 A 
ATOM     40  C   UNL     1       6.270   3.515   4.273  1.00  0.00     0.016 A 
ATOM     41  C   UNL     1       6.965   3.688   1.945  1.00  0.00     0.016 A 
ATOM     42  C   UNL     1       7.433   2.819   4.581  1.00  0.00     0.010 A 
ATOM     43  C   UNL     1       8.138   3.005   2.259  1.00  0.00     0.010 A 
ATOM     44  C   UNL     1       8.388   2.596   3.582  1.00  0.00    -0.014 A 
BRANCH  44  45
ATOM     45  C   UNL     1       9.723   2.079   3.944  1.00  0.00     0.031 A 
ATOM     46  C   UNL     1      10.863   3.050   4.048  1.00  0.00     0.074 A 
ATOM     47  C   UNL     1       9.911   0.768   4.167  1.00  0.00     0.049 A 
ATOM     48  N   UNL     1      12.135   2.818   4.234  1.00  0.00    -0.248 NA
ATOM     49  C   UNL     1      10.521   4.476   3.913  1.00  0.00     0.031 C 
ATOM     50  C   UNL     1       8.865  -0.252   4.141  1.00  0.00     0.029 A 
ATOM     51  N   UNL     1      11.059   0.071   4.441  1.00  0.00    -0.354 N 
ATOM     52  C   UNL     1      12.748   4.065   4.223  1.00  0.00     0.074 A 
ATOM     53  C   UNL     1      11.714   5.047   3.984  1.00  0.00     0.031 C 
ATOM     54  C   UNL     1       9.424  -1.453   4.369  1.00  0.00     0.029 A 
ATOM     55  C   UNL     1      10.869  -1.287   4.513  1.00  0.00     0.049 A 
ATOM     56  H   UNL     1      11.934   0.501   4.574  1.00  0.00     0.167 HD
ATOM     57  C   UNL     1      14.056   4.359   4.403  1.00  0.00     0.037 A 
ATOM     58  C   UNL     1      11.768  -2.280   4.645  1.00  0.00     0.037 A 
ATOM     59  C   UNL     1      15.073   3.370   4.644  1.00  0.00     0.049 A 
ATOM     60  C   UNL     1      13.229  -1.934   4.762  1.00  0.00     0.074 A 
ATOM     61  C   UNL     1      16.425   3.560   4.860  1.00  0.00     0.029 A 
ATOM     62  N   UNL     1      14.846   2.002   4.691  1.00  0.00    -0.354 N 
ATOM     63  N   UNL     1      13.802  -0.753   4.768  1.00  0.00    -0.248 NA
ATOM     64  C   UNL     1      14.170  -3.056   4.887  1.00  0.00     0.031 C 
ATOM     65  C   UNL     1      17.027   2.304   4.978  1.00  0.00     0.029 A 
ATOM     66  C   UNL     1      16.040   1.334   4.902  1.00  0.00     0.049 A 
ATOM     67  H   UNL     1      13.967   1.571   4.590  1.00  0.00     0.167 HD
ATOM     68  C   UNL     1      15.161  -0.988   4.935  1.00  0.00     0.074 A 
ATOM     69  C   UNL     1      15.327  -2.424   5.029  1.00  0.00     0.031 C 
ATOM     70  C   UNL     1      16.180  -0.097   5.008  1.00  0.00     0.037 A 
BRANCH  57  71
ATOM     71  C   UNL     1      14.464   5.800   4.312  1.00  0.00     0.057 A 
ATOM     72  C   UNL     1      14.110   6.738   5.290  1.00  0.00     0.134 A 
ATOM     73  C   UNL     1      15.251   6.249   3.243  1.00  0.00     0.134 A 
ATOM     74  F   UNL     1      13.344   6.378   6.332  1.00  0.00    -0.206 F 
ATOM     75  C   UNL     1      14.503   8.075   5.197  1.00  0.00     0.040 A 
ATOM     76  C   UNL     1      15.675   7.575   3.154  1.00  0.00     0.040 A 
ATOM     77  F   UNL     1      15.627   5.404   2.272  1.00  0.00    -0.206 F 
ATOM     78  C   UNL     1      15.296   8.494   4.130  1.00  0.00     0.006 A 
ENDBRANCH  57  71
BRANCH  58  79
ATOM     79  C   UNL     1      11.317  -3.695   4.652  1.00  0.00     0.057 A 
ATOM     80  C   UNL     1      11.421  -4.483   5.803  1.00  0.00     0.134 A 
ATOM     81  C   UNL     1      10.784  -4.296   3.505  1.00  0.00     0.134 A 
ATOM     82  F   UNL     1      11.942  -3.970   6.927  1.00  0.00    -0.206 F 
ATOM     83  C   UNL     1      11.029  -5.823   5.809  1.00  0.00     0.040 A 
ATOM     84  C   UNL     1      10.361  -5.627   3.504  1.00  0.00     0.040 A 
ATOM     85  F   UNL     1      10.652  -3.594   2.369  1.00  0.00    -0.206 F 
ATOM     86  C   UNL     1      10.492  -6.396   4.658  1.00  0.00     0.006 A 
ENDBRANCH  58  79
BRANCH  70  87
ATOM     87  C   UNL     1      17.560  -0.637   5.251  1.00  0.00     0.057 A 
ATOM     88  C   UNL     1      18.277  -1.316   4.260  1.00  0.00     0.134 A 
ATOM     89  C   UNL     1      18.204  -0.406   6.474  1.00  0.00     0.134 A 
ATOM     90  F   UNL     1      17.713  -1.579   3.071  1.00  0.00    -0.206 F 
ATOM     91  C   UNL     1      19.582  -1.760   4.481  1.00  0.00     0.040 A 
ATOM     92  C   UNL     1      19.518  -0.818   6.697  1.00  0.00     0.040 A 
ATOM     93  F   UNL     1      17.576   0.249   7.463  1.00  0.00    -0.206 F 
ATOM     94  C   UNL     1      20.210  -1.501   5.699  1.00  0.00     0.006 A 
ENDBRANCH  70  87
ENDBRANCH  44  45
ENDBRANCH  37  39
ENDBRANCH  36  37
ENDBRANCH  35  36
ENDBRANCH  34  35
ENDBRANCH   1  34
TORSDOF 20
