REMARK SMILES O=C(OCCOCCOC(=O)[C@H]1C[C@H](O)CN1S(=O)(=O)c1ccc2c(c1)OCCO2)c1ccc(-c2c3nc(c(-c4c(F)cccc4F)c4ccc([nH]4)c(-c4c(F)cccc4F)c4nc(c(-c5c(F)cccc5F)c5ccc2[nH]5)C=C4)C=C3)cc1
REMARK SMILES IDX 6 1 5 2 4 3 3 4 2 5 1 6 31 7 32 8 84 9 33 10 83 11 34 12
REMARK SMILES IDX 35 13 36 14 77 15 37 16 82 17 76 18 78 19 38 20 81 21 75 22
REMARK SMILES IDX 74 23 39 25 65 26 48 27 64 28 49 29 52 30 63 31 79 32 50 33
REMARK SMILES IDX 51 34 62 36 80 37 53 38 40 39 41 40 46 41 42 42 43 43 45 44
REMARK SMILES IDX 47 45 44 46 66 47 67 48 72 49 68 50 69 51 71 52 73 53 70 54
REMARK SMILES IDX 54 55 55 56 60 57 56 58 57 59 59 60 61 61 58 62 7 63 8 64
REMARK SMILES IDX 9 65 10 66 11 67 12 68 13 69 17 70 14 71 16 72 18 73 19 74
REMARK SMILES IDX 20 75 21 76 22 77 26 78 23 79 25 80 24 81 27 82 30 83 28 84
REMARK SMILES IDX 29 85 15 86
REMARK H PARENT 78 24 52 35 15 87
REMARK Flexibility Score: inf
ROOT
ATOM      1  O   UNL     1       4.521   1.166  -0.342  1.00  0.00    -0.374 OA
ENDROOT
BRANCH   1   2
ATOM      2  C   UNL     1       4.605   0.019  -1.187  1.00  0.00     0.202 C 
BRANCH   2   3
ATOM      3  C   UNL     1       4.191  -1.312  -0.550  1.00  0.00     0.261 C 
BRANCH   3   4
ATOM      4  O   UNL     1       2.782  -1.313  -0.242  1.00  0.00    -0.460 OA
BRANCH   4   5
ATOM      5  C   UNL     1       2.171  -1.123   0.952  1.00  0.00     0.338 C 
ATOM      6  O   UNL     1       0.953  -1.257   1.032  1.00  0.00    -0.246 OA
BRANCH   5   7
ATOM      7  C   UNL     1       2.911  -0.728   2.184  1.00  0.00     0.060 A 
ATOM      8  C   UNL     1       4.144  -0.093   2.160  1.00  0.00     0.016 A 
ATOM      9  C   UNL     1       2.309  -0.921   3.436  1.00  0.00     0.016 A 
ATOM     10  C   UNL     1       4.767   0.383   3.278  1.00  0.00     0.010 A 
ATOM     11  C   UNL     1       2.942  -0.471   4.602  1.00  0.00     0.010 A 
ATOM     12  C   UNL     1       4.167   0.195   4.505  1.00  0.00    -0.014 A 
BRANCH  12  13
ATOM     13  C   UNL     1       5.028   0.555   5.626  1.00  0.00     0.031 A 
ATOM     14  C   UNL     1       5.835  -0.542   6.232  1.00  0.00     0.074 A 
ATOM     15  C   UNL     1       5.292   1.857   5.835  1.00  0.00     0.049 A 
ATOM     16  N   UNL     1       6.666  -0.498   7.231  1.00  0.00    -0.248 NA
ATOM     17  C   UNL     1       5.715  -1.871   5.599  1.00  0.00     0.031 C 
ATOM     18  C   UNL     1       4.729   2.971   5.058  1.00  0.00     0.029 A 
ATOM     19  N   UNL     1       6.146   2.462   6.710  1.00  0.00    -0.354 N 
ATOM     20  C   UNL     1       7.122  -1.799   7.386  1.00  0.00     0.074 A 
ATOM     21  C   UNL     1       6.505  -2.608   6.363  1.00  0.00     0.031 C 
ATOM     22  C   UNL     1       5.257   4.123   5.498  1.00  0.00     0.029 A 
ATOM     23  C   UNL     1       6.115   3.833   6.636  1.00  0.00     0.049 A 
ATOM     24  H   UNL     1       6.725   1.966   7.331  1.00  0.00     0.167 HD
ATOM     25  C   UNL     1       7.966  -2.259   8.334  1.00  0.00     0.037 A 
ATOM     26  C   UNL     1       6.678   4.734   7.458  1.00  0.00     0.037 A 
ATOM     27  C   UNL     1       8.541  -1.393   9.325  1.00  0.00     0.049 A 
ATOM     28  C   UNL     1       7.482   4.186   8.605  1.00  0.00     0.074 A 
ATOM     29  C   UNL     1       9.313  -1.715  10.421  1.00  0.00     0.029 A 
ATOM     30  N   UNL     1       8.390  -0.009   9.323  1.00  0.00    -0.354 N 
ATOM     31  N   UNL     1       7.802   2.938   8.866  1.00  0.00    -0.248 NA
ATOM     32  C   UNL     1       7.979   5.154   9.585  1.00  0.00     0.031 C 
ATOM     33  C   UNL     1       9.584  -0.529  11.113  1.00  0.00     0.029 A 
ATOM     34  C   UNL     1       9.037   0.539  10.412  1.00  0.00     0.049 A 
ATOM     35  H   UNL     1       7.895   0.504   8.644  1.00  0.00     0.167 HD
ATOM     36  C   UNL     1       8.556   2.969  10.027  1.00  0.00     0.074 A 
ATOM     37  C   UNL     1       8.659   4.368  10.407  1.00  0.00     0.031 C 
ATOM     38  C   UNL     1       9.111   1.947  10.725  1.00  0.00     0.037 A 
BRANCH  25  39
ATOM     39  C   UNL     1       8.170  -3.741   8.392  1.00  0.00     0.057 A 
ATOM     40  C   UNL     1       8.894  -4.446   7.422  1.00  0.00     0.134 A 
ATOM     41  C   UNL     1       7.546  -4.489   9.399  1.00  0.00     0.134 A 
ATOM     42  F   UNL     1       9.478  -3.796   6.403  1.00  0.00    -0.206 F 
ATOM     43  C   UNL     1       8.965  -5.841   7.435  1.00  0.00     0.040 A 
ATOM     44  C   UNL     1       7.631  -5.881   9.437  1.00  0.00     0.040 A 
ATOM     45  F   UNL     1       6.817  -3.880  10.347  1.00  0.00    -0.206 F 
ATOM     46  C   UNL     1       8.334  -6.562   8.447  1.00  0.00     0.006 A 
ENDBRANCH  25  39
BRANCH  26  47
ATOM     47  C   UNL     1       6.418   6.187   7.293  1.00  0.00     0.057 A 
ATOM     48  C   UNL     1       7.452   7.095   7.044  1.00  0.00     0.134 A 
ATOM     49  C   UNL     1       5.122   6.714   7.411  1.00  0.00     0.134 A 
ATOM     50  F   UNL     1       8.717   6.663   6.935  1.00  0.00    -0.206 F 
ATOM     51  C   UNL     1       7.215   8.469   6.943  1.00  0.00     0.040 A 
ATOM     52  C   UNL     1       4.866   8.080   7.282  1.00  0.00     0.040 A 
ATOM     53  F   UNL     1       4.079   5.905   7.650  1.00  0.00    -0.206 F 
ATOM     54  C   UNL     1       5.917   8.964   7.059  1.00  0.00     0.006 A 
ENDBRANCH  26  47
BRANCH  38  55
ATOM     55  C   UNL     1       9.915   2.324  11.930  1.00  0.00     0.057 A 
ATOM     56  C   UNL     1       9.314   2.780  13.108  1.00  0.00     0.134 A 
ATOM     57  C   UNL     1      11.307   2.173  11.918  1.00  0.00     0.134 A 
ATOM     58  F   UNL     1       7.985   2.958  13.171  1.00  0.00    -0.206 F 
ATOM     59  C   UNL     1      10.076   3.096  14.231  1.00  0.00     0.040 A 
ATOM     60  C   UNL     1      12.074   2.452  13.046  1.00  0.00     0.040 A 
ATOM     61  F   UNL     1      11.936   1.729  10.819  1.00  0.00    -0.206 F 
ATOM     62  C   UNL     1      11.459   2.921  14.204  1.00  0.00     0.006 A 
ENDBRANCH  38  55
ENDBRANCH  12  13
ENDBRANCH   5   7
ENDBRANCH   4   5
ENDBRANCH   3   4
ENDBRANCH   2   3
ENDBRANCH   1   2
BRANCH   1  63
ATOM     63  C   UNL     1       3.258   1.843  -0.320  1.00  0.00     0.202 C 
BRANCH  63  64
ATOM     64  C   UNL     1       3.479   3.163  -1.013  1.00  0.00     0.261 C 
BRANCH  64  65
ATOM     65  O   UNL     1       3.805   2.777  -2.349  1.00  0.00    -0.462 OA
BRANCH  65  66
ATOM     66  C   UNL     1       5.003   3.024  -2.900  1.00  0.00     0.324 C 
ATOM     67  O   UNL     1       5.990   3.442  -2.314  1.00  0.00    -0.250 OA
BRANCH  66  68
ATOM     68  C   UNL     1       4.974   2.598  -4.363  1.00  0.00     0.185 C 
ATOM     69  C   UNL     1       5.381   1.117  -4.466  1.00  0.00     0.065 C 
ATOM     70  N   UNL     1       3.699   2.729  -5.219  1.00  0.00    -0.181 NA
ATOM     71  C   UNL     1       4.092   0.405  -4.830  1.00  0.00     0.131 C 
ATOM     72  C   UNL     1       3.472   1.379  -5.819  1.00  0.00     0.135 C 
BRANCH  70  73
ATOM     73  S   UNL     1       2.346   3.451  -4.441  1.00  0.00     0.244 S 
ATOM     74  O   UNL     1       1.627   2.408  -3.727  1.00  0.00    -0.207 OA
ATOM     75  O   UNL     1       2.825   4.644  -3.782  1.00  0.00    -0.207 OA
BRANCH  73  76
ATOM     76  C   UNL     1       1.250   4.021  -5.689  1.00  0.00     0.086 A 
ATOM     77  C   UNL     1       0.979   5.396  -5.752  1.00  0.00     0.026 A 
ATOM     78  C   UNL     1       0.536   3.114  -6.460  1.00  0.00     0.072 A 
ATOM     79  C   UNL     1       0.011   5.869  -6.629  1.00  0.00     0.052 A 
ATOM     80  C   UNL     1      -0.374   3.599  -7.383  1.00  0.00     0.162 A 
ATOM     81  C   UNL     1      -0.656   4.970  -7.453  1.00  0.00     0.161 A 
ATOM     82  O   UNL     1      -0.959   2.668  -8.200  1.00  0.00    -0.486 OA
ATOM     83  O   UNL     1      -1.575   5.503  -8.318  1.00  0.00    -0.486 OA
ATOM     84  C   UNL     1      -1.480   3.311  -9.366  1.00  0.00     0.271 C 
ATOM     85  C   UNL     1      -2.354   4.484  -8.954  1.00  0.00     0.271 C 
ENDBRANCH  73  76
ENDBRANCH  70  73
BRANCH  71  86
ATOM     86  O   UNL     1       4.334  -0.890  -5.351  1.00  0.00    -0.392 OA
ATOM     87  H   UNL     1       4.923  -0.824  -6.119  1.00  0.00     0.211 HD
ENDBRANCH  71  86
ENDBRANCH  66  68
ENDBRANCH  65  66
ENDBRANCH  64  65
ENDBRANCH  63  64
ENDBRANCH   1  63
TORSDOF 17
