REMARK SMILES O=C(OCCOCCOC(=O)c1cncc(C(=O)c2ccsc2)c1)c1ccc(-c2c3nc(c(-c4c(F)cccc4F)c4ccc([nH]4)c(-c4c(F)cccc4F)c4nc(c(-c5c(F)cccc5F)c5ccc2[nH]5)C=C4)C=C3)cc1
REMARK SMILES IDX 6 1 5 2 4 3 3 4 2 5 1 6 25 7 26 8 78 9 27 10 77 11 28 12
REMARK SMILES IDX 29 13 30 14 71 15 31 16 76 17 70 18 72 19 32 20 75 21 69 22
REMARK SMILES IDX 68 23 33 25 59 26 42 27 58 28 43 29 46 30 57 31 73 32 44 33
REMARK SMILES IDX 45 34 56 36 74 37 47 38 34 39 35 40 40 41 36 42 37 43 39 44
REMARK SMILES IDX 41 45 38 46 60 47 61 48 66 49 62 50 63 51 65 52 67 53 64 54
REMARK SMILES IDX 48 55 49 56 54 57 50 58 51 59 53 60 55 61 52 62 7 63 8 64
REMARK SMILES IDX 9 65 10 66 11 67 12 68 13 69 24 70 14 71 16 72 15 73 17 74
REMARK SMILES IDX 18 75 19 76 20 77 23 78 21 79 22 80
REMARK H PARENT 72 24 46 35
REMARK Flexibility Score: inf
ROOT
ATOM      1  O   UNL     1       4.127  -0.881  -1.397  1.00  0.00    -0.374 OA
ENDROOT
BRANCH   1   2
ATOM      2  C   UNL     1       4.380  -1.594  -0.188  1.00  0.00     0.202 C 
BRANCH   2   3
ATOM      3  C   UNL     1       4.077  -0.787   1.076  1.00  0.00     0.261 C 
BRANCH   3   4
ATOM      4  O   UNL     1       2.690  -0.407   1.097  1.00  0.00    -0.460 OA
BRANCH   4   5
ATOM      5  C   UNL     1       2.142   0.789   0.787  1.00  0.00     0.338 C 
ATOM      6  O   UNL     1       0.921   0.915   0.865  1.00  0.00    -0.246 OA
BRANCH   5   7
ATOM      7  C   UNL     1       2.934   1.981   0.357  1.00  0.00     0.060 A 
ATOM      8  C   UNL     1       4.139   1.930  -0.346  1.00  0.00     0.016 A 
ATOM      9  C   UNL     1       2.364   3.243   0.595  1.00  0.00     0.016 A 
ATOM     10  C   UNL     1       4.790   3.079  -0.761  1.00  0.00     0.010 A 
ATOM     11  C   UNL     1       2.997   4.409   0.154  1.00  0.00     0.010 A 
ATOM     12  C   UNL     1       4.221   4.322  -0.515  1.00  0.00    -0.014 A 
BRANCH  12  13
ATOM     13  C   UNL     1       5.007   5.509  -0.877  1.00  0.00     0.031 A 
ATOM     14  C   UNL     1       5.742   6.223   0.210  1.00  0.00     0.074 A 
ATOM     15  C   UNL     1       5.165   5.826  -2.174  1.00  0.00     0.049 A 
ATOM     16  N   UNL     1       6.465   7.306   0.146  1.00  0.00    -0.248 NA
ATOM     17  C   UNL     1       5.663   5.624   1.553  1.00  0.00     0.031 C 
ATOM     18  C   UNL     1       4.592   5.082  -3.299  1.00  0.00     0.029 A 
ATOM     19  N   UNL     1       5.877   6.831  -2.766  1.00  0.00    -0.354 N 
ATOM     20  C   UNL     1       6.902   7.536   1.443  1.00  0.00     0.074 A 
ATOM     21  C   UNL     1       6.366   6.483   2.274  1.00  0.00     0.031 C 
ATOM     22  C   UNL     1       4.990   5.650  -4.448  1.00  0.00     0.029 A 
ATOM     23  C   UNL     1       5.784   6.833  -4.136  1.00  0.00     0.049 A 
ATOM     24  H   UNL     1       6.405   7.490  -2.260  1.00  0.00     0.167 HD
ATOM     25  C   UNL     1       7.675   8.552   1.890  1.00  0.00     0.037 A 
ATOM     26  C   UNL     1       6.259   7.723  -5.026  1.00  0.00     0.037 A 
ATOM     27  C   UNL     1       8.184   9.584   1.029  1.00  0.00     0.049 A 
ATOM     28  C   UNL     1       7.029   8.900  -4.492  1.00  0.00     0.074 A 
ATOM     29  C   UNL     1       8.914  10.709   1.358  1.00  0.00     0.029 A 
ATOM     30  N   UNL     1       8.007   9.605  -0.350  1.00  0.00    -0.354 N 
ATOM     31  N   UNL     1       7.373   9.168  -3.253  1.00  0.00    -0.248 NA
ATOM     32  C   UNL     1       7.460   9.907  -5.468  1.00  0.00     0.031 C 
ATOM     33  C   UNL     1       9.141  11.434   0.183  1.00  0.00     0.029 A 
ATOM     34  C   UNL     1       8.599  10.733  -0.886  1.00  0.00     0.049 A 
ATOM     35  H   UNL     1       7.530   8.917  -0.869  1.00  0.00     0.167 HD
ATOM     36  C   UNL     1       8.074  10.363  -3.300  1.00  0.00     0.074 A 
ATOM     37  C   UNL     1       8.120  10.758  -4.695  1.00  0.00     0.031 C 
ATOM     38  C   UNL     1       8.625  11.078  -2.287  1.00  0.00     0.037 A 
BRANCH  25  39
ATOM     39  C   UNL     1       7.918   8.618   3.368  1.00  0.00     0.057 A 
ATOM     40  C   UNL     1       8.746   7.705   4.034  1.00  0.00     0.134 A 
ATOM     41  C   UNL     1       7.259   9.578   4.147  1.00  0.00     0.134 A 
ATOM     42  F   UNL     1       9.380   6.739   3.352  1.00  0.00    -0.206 F 
ATOM     43  C   UNL     1       8.884   7.724   5.424  1.00  0.00     0.040 A 
ATOM     44  C   UNL     1       7.409   9.623   5.534  1.00  0.00     0.040 A 
ATOM     45  F   UNL     1       6.443  10.476   3.575  1.00  0.00    -0.206 F 
ATOM     46  C   UNL     1       8.215   8.687   6.178  1.00  0.00     0.006 A 
ENDBRANCH  25  39
BRANCH  26  47
ATOM     47  C   UNL     1       5.973   7.565  -6.475  1.00  0.00     0.057 A 
ATOM     48  C   UNL     1       6.994   7.327  -7.402  1.00  0.00     0.134 A 
ATOM     49  C   UNL     1       4.665   7.653  -6.972  1.00  0.00     0.134 A 
ATOM     50  F   UNL     1       8.270   7.250  -6.997  1.00  0.00    -0.206 F 
ATOM     51  C   UNL     1       6.727   7.194  -8.768  1.00  0.00     0.040 A 
ATOM     52  C   UNL     1       4.381   7.494  -8.330  1.00  0.00     0.040 A 
ATOM     53  F   UNL     1       3.638   7.879  -6.140  1.00  0.00    -0.206 F 
ATOM     54  C   UNL     1       5.416   7.271  -9.233  1.00  0.00     0.006 A 
ENDBRANCH  26  47
BRANCH  38  55
ATOM     55  C   UNL     1       9.352  12.331  -2.666  1.00  0.00     0.057 A 
ATOM     56  C   UNL     1       8.670  13.491  -3.053  1.00  0.00     0.134 A 
ATOM     57  C   UNL     1      10.749  12.389  -2.588  1.00  0.00     0.134 A 
ATOM     58  F   UNL     1       7.332  13.490  -3.159  1.00  0.00    -0.206 F 
ATOM     59  C   UNL     1       9.356  14.663  -3.367  1.00  0.00     0.040 A 
ATOM     60  C   UNL     1      11.443  13.564  -2.873  1.00  0.00     0.040 A 
ATOM     61  F   UNL     1      11.456  11.312  -2.215  1.00  0.00    -0.206 F 
ATOM     62  C   UNL     1      10.746  14.704  -3.268  1.00  0.00     0.006 A 
ENDBRANCH  38  55
ENDBRANCH  12  13
ENDBRANCH   5   7
ENDBRANCH   4   5
ENDBRANCH   3   4
ENDBRANCH   2   3
ENDBRANCH   1   2
BRANCH   1  63
ATOM     63  C   UNL     1       2.803  -0.978  -1.933  1.00  0.00     0.202 C 
BRANCH  63  64
ATOM     64  C   UNL     1       2.902  -1.346  -3.414  1.00  0.00     0.261 C 
BRANCH  64  65
ATOM     65  O   UNL     1       3.535  -2.630  -3.509  1.00  0.00    -0.460 OA
BRANCH  65  66
ATOM     66  C   UNL     1       4.891  -2.618  -3.437  1.00  0.00     0.339 C 
ATOM     67  O   UNL     1       5.646  -1.701  -3.709  1.00  0.00    -0.246 OA
BRANCH  66  68
ATOM     68  C   UNL     1       5.316  -3.881  -2.811  1.00  0.00     0.079 A 
ATOM     69  C   UNL     1       6.492  -3.947  -2.085  1.00  0.00     0.126 A 
ATOM     70  C   UNL     1       4.527  -5.024  -2.892  1.00  0.00     0.031 A 
ATOM     71  N   UNL     1       6.908  -5.072  -1.448  1.00  0.00    -0.263 NA
ATOM     72  C   UNL     1       4.969  -6.222  -2.334  1.00  0.00     0.042 A 
ATOM     73  C   UNL     1       6.142  -6.189  -1.594  1.00  0.00     0.123 A 
BRANCH  72  74
ATOM     74  C   UNL     1       4.208  -7.486  -2.504  1.00  0.00     0.195 C 
ATOM     75  O   UNL     1       4.415  -8.421  -1.738  1.00  0.00    -0.289 OA
BRANCH  74  76
ATOM     76  C   UNL     1       3.188  -7.543  -3.558  1.00  0.00     0.033 A 
ATOM     77  C   UNL     1       3.279  -7.012  -4.895  1.00  0.00     0.024 A 
ATOM     78  C   UNL     1       1.951  -8.127  -3.357  1.00  0.00     0.077 A 
ATOM     79  C   UNL     1       2.082  -7.071  -5.573  1.00  0.00     0.065 A 
ATOM     80  S   UNL     1       0.882  -7.885  -4.672  1.00  0.00    -0.152 S 
ENDBRANCH  74  76
ENDBRANCH  72  74
ENDBRANCH  66  68
ENDBRANCH  65  66
ENDBRANCH  64  65
ENDBRANCH  63  64
ENDBRANCH   1  63
TORSDOF 16
