REMARK SMILES COc1ccc2c(c1)c(CC(=O)OCCOCCOC(=O)c1ccc(-c3c4nc(c(-c5c(F)cccc5F)c5ccc([nH]5)c(-c5c(F)cccc5F)c5nc(c(-c6c(F)cccc6F)c6ccc3[nH]6)C=C5)C=C4)cc1)c(C(F)(F)F)n2C(=O)c1ccc(Cl)cc1
REMARK SMILES IDX 15 1 14 2 13 3 11 4 12 5 10 6 9 7 3 8 4 9 8 10 5 11 7 12
REMARK SMILES IDX 6 13 81 14 76 15 2 16 1 17 82 18 83 19 84 20 85 21 90 22
REMARK SMILES IDX 86 23 89 24 87 25 88 26 77 27 78 28 79 29 80 30 16 31 17 32
REMARK SMILES IDX 18 33 19 34 20 35 21 36 22 37 23 38 75 39 24 40 74 41 25 42
REMARK SMILES IDX 26 43 27 44 68 45 28 46 73 47 67 48 69 49 29 50 72 51 66 52
REMARK SMILES IDX 65 53 30 55 56 56 39 57 55 58 40 59 43 60 54 61 70 62 41 63
REMARK SMILES IDX 42 64 53 66 71 67 44 68 31 69 32 70 37 71 33 72 34 73 36 74
REMARK SMILES IDX 38 75 35 76 57 77 58 78 63 79 59 80 60 81 62 82 64 83 61 84
REMARK SMILES IDX 45 85 46 86 51 87 47 88 48 89 50 90 52 91 49 92
REMARK H PARENT 69 54 43 65
REMARK Flexibility Score: inf
ROOT
ATOM      1  C   UNL     1      -2.636  -4.675   4.072  1.00  0.00     0.202 C 
ENDROOT
BRANCH   1   2
ATOM      2  C   UNL     1      -2.814  -6.009   3.330  1.00  0.00     0.261 C 
BRANCH   2   3
ATOM      3  O   UNL     1      -2.102  -6.111   2.085  1.00  0.00    -0.463 OA
BRANCH   3   4
ATOM      4  C   UNL     1      -2.898  -6.046   0.986  1.00  0.00     0.310 C 
ATOM      5  O   UNL     1      -4.124  -5.968   1.029  1.00  0.00    -0.252 OA
BRANCH   4   6
ATOM      6  C   UNL     1      -2.182  -6.071  -0.347  1.00  0.00     0.161 C 
BRANCH   6   7
ATOM      7  C   UNL     1      -0.674  -5.950  -0.407  1.00  0.00     0.002 A 
ATOM      8  C   UNL     1       0.640  -2.353  -0.417  1.00  0.00     0.119 A 
ATOM      9  C   UNL     1       1.977  -2.684  -0.494  1.00  0.00     0.048 A 
ATOM     10  C   UNL     1      -0.314  -3.374  -0.492  1.00  0.00     0.057 A 
ATOM     11  C   UNL     1       2.372  -4.021  -0.629  1.00  0.00     0.031 A 
ATOM     12  C   UNL     1       0.065  -4.739  -0.494  1.00  0.00     0.008 A 
ATOM     13  C   UNL     1       1.420  -5.065  -0.585  1.00  0.00     0.057 A 
ATOM     14  N   UNL     1       1.532  -6.471  -0.670  1.00  0.00    -0.271 N 
ATOM     15  C   UNL     1       0.238  -7.003  -0.533  1.00  0.00     0.135 A 
BRANCH   8  16
ATOM     16  O   UNL     1       0.127  -1.114  -0.162  1.00  0.00    -0.497 OA
ATOM     17  C   UNL     1       0.990   0.007  -0.315  1.00  0.00     0.278 C 
ENDBRANCH   8  16
BRANCH  14  18
ATOM     18  C   UNL     1       2.742  -7.184  -0.927  1.00  0.00     0.262 C 
ATOM     19  O   UNL     1       2.679  -8.375  -1.208  1.00  0.00    -0.268 OA
BRANCH  18  20
ATOM     20  C   UNL     1       4.097  -6.607  -0.995  1.00  0.00     0.040 A 
ATOM     21  C   UNL     1       4.740  -6.117   0.148  1.00  0.00     0.015 A 
ATOM     22  C   UNL     1       4.723  -6.547  -2.247  1.00  0.00     0.015 A 
ATOM     23  C   UNL     1       5.973  -5.471   0.012  1.00  0.00     0.021 A 
ATOM     24  C   UNL     1       5.960  -5.913  -2.373  1.00  0.00     0.021 A 
ATOM     25  C   UNL     1       6.568  -5.357  -1.247  1.00  0.00     0.041 A 
ATOM     26  Cl  UNL     1       8.051  -4.503  -1.418  1.00  0.00    -0.084 Cl
ENDBRANCH  18  20
ENDBRANCH  14  18
BRANCH  15  27
ATOM     27  C   UNL     1      -0.161  -8.450  -0.565  1.00  0.00     0.432 C 
ATOM     28  F   UNL     1      -0.924  -8.726   0.532  1.00  0.00    -0.165 F 
ATOM     29  F   UNL     1      -0.970  -8.680  -1.637  1.00  0.00    -0.165 F 
ATOM     30  F   UNL     1       0.788  -9.399  -0.585  1.00  0.00    -0.165 F 
ENDBRANCH  15  27
ENDBRANCH   6   7
ENDBRANCH   4   6
ENDBRANCH   3   4
ENDBRANCH   2   3
ENDBRANCH   1   2
BRANCH   1  31
ATOM     31  O   UNL     1      -2.621  -3.438   3.380  1.00  0.00    -0.374 OA
BRANCH  31  32
ATOM     32  C   UNL     1      -1.561  -3.221   2.457  1.00  0.00     0.202 C 
BRANCH  32  33
ATOM     33  C   UNL     1      -0.098  -3.220   2.945  1.00  0.00     0.261 C 
BRANCH  33  34
ATOM     34  O   UNL     1       0.265  -4.408   3.646  1.00  0.00    -0.460 OA
BRANCH  34  35
ATOM     35  C   UNL     1       1.071  -4.185   4.726  1.00  0.00     0.338 C 
ATOM     36  O   UNL     1       1.836  -3.274   4.914  1.00  0.00    -0.246 OA
BRANCH  35  37
ATOM     37  C   UNL     1       0.467  -5.029   5.772  1.00  0.00     0.060 A 
ATOM     38  C   UNL     1       0.264  -6.391   5.535  1.00  0.00     0.016 A 
ATOM     39  C   UNL     1      -0.245  -4.331   6.760  1.00  0.00     0.016 A 
ATOM     40  C   UNL     1      -0.752  -7.034   6.225  1.00  0.00     0.010 A 
ATOM     41  C   UNL     1      -1.282  -4.970   7.421  1.00  0.00     0.010 A 
ATOM     42  C   UNL     1      -1.560  -6.306   7.119  1.00  0.00    -0.014 A 
BRANCH  42  43
ATOM     43  C   UNL     1      -2.493  -7.058   7.956  1.00  0.00     0.031 A 
ATOM     44  C   UNL     1      -1.729  -7.896   8.918  1.00  0.00     0.074 A 
ATOM     45  C   UNL     1      -3.835  -6.907   7.994  1.00  0.00     0.049 A 
ATOM     46  N   UNL     1      -1.627  -9.183   8.940  1.00  0.00    -0.248 NA
ATOM     47  C   UNL     1      -0.770  -7.207   9.804  1.00  0.00     0.031 C 
ATOM     48  C   UNL     1      -4.641  -5.905   7.298  1.00  0.00     0.029 A 
ATOM     49  N   UNL     1      -4.768  -7.562   8.754  1.00  0.00    -0.354 N 
ATOM     50  C   UNL     1      -0.774  -9.461  10.007  1.00  0.00     0.074 A 
ATOM     51  C   UNL     1      -0.101  -8.236  10.323  1.00  0.00     0.031 C 
ATOM     52  C   UNL     1      -5.883  -5.862   7.830  1.00  0.00     0.029 A 
ATOM     53  C   UNL     1      -6.002  -6.913   8.820  1.00  0.00     0.049 A 
ATOM     54  H   UNL     1      -4.584  -8.413   9.213  1.00  0.00     0.167 HD
ATOM     55  C   UNL     1      -0.965 -10.573  10.766  1.00  0.00     0.037 A 
ATOM     56  C   UNL     1      -7.022  -7.187   9.673  1.00  0.00     0.037 A 
ATOM     57  C   UNL     1      -1.820 -11.506  10.081  1.00  0.00     0.049 A 
ATOM     58  C   UNL     1      -6.821  -8.563  10.175  1.00  0.00     0.074 A 
ATOM     59  C   UNL     1      -1.715 -12.385   9.027  1.00  0.00     0.029 A 
ATOM     60  N   UNL     1      -3.151 -11.268  10.290  1.00  0.00    -0.354 N 
ATOM     61  N   UNL     1      -6.912  -9.622   9.421  1.00  0.00    -0.248 NA
ATOM     62  C   UNL     1      -6.133  -8.757  11.446  1.00  0.00     0.031 C 
ATOM     63  C   UNL     1      -3.034 -12.525   8.501  1.00  0.00     0.029 A 
ATOM     64  C   UNL     1      -3.913 -11.770   9.276  1.00  0.00     0.049 A 
ATOM     65  H   UNL     1      -3.514 -10.794  11.073  1.00  0.00     0.167 HD
ATOM     66  C   UNL     1      -5.940 -10.475   9.907  1.00  0.00     0.074 A 
ATOM     67  C   UNL     1      -5.614  -9.970  11.236  1.00  0.00     0.031 C 
ATOM     68  C   UNL     1      -5.266 -11.308   9.064  1.00  0.00     0.037 A 
BRANCH  55  69
ATOM     69  C   UNL     1      -0.890 -10.576  12.284  1.00  0.00     0.057 A 
ATOM     70  C   UNL     1      -0.967  -9.427  13.101  1.00  0.00     0.134 A 
ATOM     71  C   UNL     1      -1.097 -11.794  12.960  1.00  0.00     0.134 A 
ATOM     72  F   UNL     1      -0.865  -8.184  12.623  1.00  0.00    -0.206 F 
ATOM     73  C   UNL     1      -1.265  -9.479  14.465  1.00  0.00     0.040 A 
ATOM     74  C   UNL     1      -1.442 -11.853  14.317  1.00  0.00     0.040 A 
ATOM     75  F   UNL     1      -1.057 -12.962  12.300  1.00  0.00    -0.206 F 
ATOM     76  C   UNL     1      -1.539 -10.692  15.072  1.00  0.00     0.006 A 
ENDBRANCH  55  69
BRANCH  56  77
ATOM     77  C   UNL     1      -7.972  -6.245  10.313  1.00  0.00     0.057 A 
ATOM     78  C   UNL     1      -7.583  -4.931  10.630  1.00  0.00     0.134 A 
ATOM     79  C   UNL     1      -9.180  -6.678  10.882  1.00  0.00     0.134 A 
ATOM     80  F   UNL     1      -6.407  -4.442  10.211  1.00  0.00    -0.206 F 
ATOM     81  C   UNL     1      -8.338  -4.103  11.468  1.00  0.00     0.040 A 
ATOM     82  C   UNL     1      -9.946  -5.859  11.726  1.00  0.00     0.040 A 
ATOM     83  F   UNL     1      -9.614  -7.931  10.684  1.00  0.00    -0.206 F 
ATOM     84  C   UNL     1      -9.520  -4.569  12.029  1.00  0.00     0.006 A 
ENDBRANCH  56  77
BRANCH  68  85
ATOM     85  C   UNL     1      -5.909 -11.642   7.756  1.00  0.00     0.057 A 
ATOM     86  C   UNL     1      -6.260 -12.977   7.529  1.00  0.00     0.134 A 
ATOM     87  C   UNL     1      -6.081 -10.743   6.696  1.00  0.00     0.134 A 
ATOM     88  F   UNL     1      -6.080 -13.895   8.493  1.00  0.00    -0.206 F 
ATOM     89  C   UNL     1      -6.752 -13.410   6.300  1.00  0.00     0.040 A 
ATOM     90  C   UNL     1      -6.605 -11.158   5.468  1.00  0.00     0.040 A 
ATOM     91  F   UNL     1      -5.702  -9.462   6.805  1.00  0.00    -0.206 F 
ATOM     92  C   UNL     1      -6.933 -12.497   5.265  1.00  0.00     0.006 A 
ENDBRANCH  68  85
ENDBRANCH  42  43
ENDBRANCH  35  37
ENDBRANCH  34  35
ENDBRANCH  33  34
ENDBRANCH  32  33
ENDBRANCH  31  32
ENDBRANCH   1  31
TORSDOF 19
