REMARK SMILES CC[NH2+]C(C)(C)C(=O)N[C@@](C)(C(=O)OCCOCCOC(=O)c1ccc(-c2c3nc(c(-c4c(F)cccc4F)c4ccc([nH]4)c(-c4c(F)cccc4F)c4nc(c(-c5c(F)cccc5F)c5ccc2[nH]5)C=C4)C=C3)cc1)C(F)(F)F
REMARK SMILES IDX 16 1 15 2 14 3 12 4 13 5 10 6 11 7 9 8 7 9 8 10 4 12 5 13
REMARK SMILES IDX 6 14 3 15 2 18 1 19 77 20 78 21 79 22 80 23 17 24 18 25
REMARK SMILES IDX 19 26 20 27 21 28 22 29 23 30 24 31 76 32 25 33 75 34 26 35
REMARK SMILES IDX 27 36 28 37 69 38 29 39 74 40 68 41 70 42 30 43 73 44 67 45
REMARK SMILES IDX 66 46 31 48 57 49 40 50 56 51 41 52 44 53 55 54 71 55 42 56
REMARK SMILES IDX 43 57 54 59 72 60 45 61 32 62 33 63 38 64 34 65 35 66 37 67
REMARK SMILES IDX 39 68 36 69 58 70 59 71 64 72 60 73 61 74 63 75 65 76 62 77
REMARK SMILES IDX 46 78 47 79 52 80 48 81 49 82 51 83 53 84 50 85
REMARK H PARENT 9 11 3 16 3 17 70 47 44 58
REMARK Flexibility Score: inf
ROOT
ATOM      1  C   UNL     1      -2.397  -1.813   8.007  1.00  0.00     0.202 C 
ENDROOT
BRANCH   1   2
ATOM      2  C   UNL     1      -2.591  -0.336   8.371  1.00  0.00     0.261 C 
BRANCH   2   3
ATOM      3  O   UNL     1      -2.221   0.553   7.305  1.00  0.00    -0.461 OA
BRANCH   3   4
ATOM      4  C   UNL     1      -1.418   1.597   7.669  1.00  0.00     0.341 C 
ATOM      5  O   UNL     1      -1.239   1.935   8.833  1.00  0.00    -0.249 OA
BRANCH   4   6
ATOM      6  C   UNL     1      -0.773   2.300   6.453  1.00  0.00     0.231 C 
ATOM      7  C   UNL     1      -1.312   3.736   6.463  1.00  0.00     0.058 C 
BRANCH   6   8
ATOM      8  N   UNL     1      -1.261   1.631   5.170  1.00  0.00    -0.328 N 
ATOM      9  C   UNL     1      -0.944   1.434   3.860  1.00  0.00     0.281 C 
ATOM     10  O   UNL     1      -1.901   1.003   3.202  1.00  0.00    -0.268 OA
ATOM     11  H   UNL     1      -2.115   1.178   5.358  1.00  0.00     0.165 HD
BRANCH   9  12
ATOM     12  C   UNL     1       0.479   1.596   3.230  1.00  0.00     0.169 C 
ATOM     13  C   UNL     1       1.447   0.603   3.890  1.00  0.00     0.090 C 
ATOM     14  C   UNL     1       0.946   3.057   3.351  1.00  0.00     0.090 C 
BRANCH  12  15
ATOM     15  N   UNL     1       0.525   1.375   1.749  1.00  0.00    -0.334 N 
ATOM     16  H   UNL     1      -0.051   2.099   1.321  1.00  0.00     0.347 HD
ATOM     17  H   UNL     1       1.521   1.395   1.530  1.00  0.00     0.347 HD
BRANCH  15  18
ATOM     18  C   UNL     1       0.074   0.094   1.210  1.00  0.00     0.257 C 
ATOM     19  C   UNL     1       0.574  -0.037  -0.228  1.00  0.00     0.071 C 
ENDBRANCH  15  18
ENDBRANCH  12  15
ENDBRANCH   9  12
ENDBRANCH   6   8
BRANCH   6  20
ATOM     20  C   UNL     1       0.715   2.255   6.847  1.00  0.00     0.422 C 
ATOM     21  F   UNL     1       1.139   0.991   7.077  1.00  0.00    -0.168 F 
ATOM     22  F   UNL     1       1.516   2.771   5.889  1.00  0.00    -0.168 F 
ATOM     23  F   UNL     1       0.984   2.978   7.959  1.00  0.00    -0.168 F 
ENDBRANCH   6  20
ENDBRANCH   4   6
ENDBRANCH   3   4
ENDBRANCH   2   3
ENDBRANCH   1   2
BRANCH   1  24
ATOM     24  O   UNL     1      -1.190  -2.184   7.350  1.00  0.00    -0.374 OA
BRANCH  24  25
ATOM     25  C   UNL     1      -0.998  -1.761   6.000  1.00  0.00     0.202 C 
BRANCH  25  26
ATOM     26  C   UNL     1      -1.966  -2.275   4.924  1.00  0.00     0.261 C 
BRANCH  26  27
ATOM     27  O   UNL     1      -3.339  -1.918   5.169  1.00  0.00    -0.460 OA
BRANCH  27  28
ATOM     28  C   UNL     1      -4.182  -2.976   5.284  1.00  0.00     0.338 C 
ATOM     29  O   UNL     1      -3.911  -4.158   5.160  1.00  0.00    -0.246 OA
BRANCH  28  30
ATOM     30  C   UNL     1      -5.497  -2.531   5.778  1.00  0.00     0.060 A 
ATOM     31  C   UNL     1      -5.938  -3.046   7.004  1.00  0.00     0.016 A 
ATOM     32  C   UNL     1      -6.335  -1.730   5.001  1.00  0.00     0.016 A 
ATOM     33  C   UNL     1      -7.236  -2.794   7.441  1.00  0.00     0.010 A 
ATOM     34  C   UNL     1      -7.644  -1.489   5.436  1.00  0.00     0.010 A 
ATOM     35  C   UNL     1      -8.110  -2.049   6.640  1.00  0.00    -0.014 A 
BRANCH  35  36
ATOM     36  C   UNL     1      -9.548  -1.986   6.996  1.00  0.00     0.031 A 
ATOM     37  C   UNL     1     -10.507  -2.937   6.333  1.00  0.00     0.074 A 
ATOM     38  C   UNL     1      -9.989  -1.118   7.924  1.00  0.00     0.049 A 
ATOM     39  N   UNL     1     -11.803  -3.047   6.482  1.00  0.00    -0.248 NA
ATOM     40  C   UNL     1      -9.929  -3.894   5.375  1.00  0.00     0.031 C 
ATOM     41  C   UNL     1      -9.153  -0.175   8.665  1.00  0.00     0.029 A 
ATOM     42  N   UNL     1     -11.257  -0.887   8.397  1.00  0.00    -0.354 N 
ATOM     43  C   UNL     1     -12.195  -4.072   5.631  1.00  0.00     0.074 A 
ATOM     44  C   UNL     1     -11.005  -4.543   4.956  1.00  0.00     0.031 C 
ATOM     45  C   UNL     1      -9.933   0.542   9.493  1.00  0.00     0.029 A 
ATOM     46  C   UNL     1     -11.324   0.127   9.320  1.00  0.00     0.049 A 
ATOM     47  H   UNL     1     -12.043  -1.401   8.102  1.00  0.00     0.167 HD
ATOM     48  C   UNL     1     -13.435  -4.579   5.434  1.00  0.00     0.037 A 
ATOM     49  C   UNL     1     -12.390   0.670   9.938  1.00  0.00     0.037 A 
ATOM     50  C   UNL     1     -14.616  -4.122   6.117  1.00  0.00     0.049 A 
ATOM     51  C   UNL     1     -13.766   0.126   9.653  1.00  0.00     0.074 A 
ATOM     52  C   UNL     1     -15.910  -4.603   6.016  1.00  0.00     0.029 A 
ATOM     53  N   UNL     1     -14.647  -3.074   7.022  1.00  0.00    -0.354 N 
ATOM     54  N   UNL     1     -14.118  -0.873   8.881  1.00  0.00    -0.248 NA
ATOM     55  C   UNL     1     -14.893   0.787  10.328  1.00  0.00     0.031 C 
ATOM     56  C   UNL     1     -16.733  -3.814   6.826  1.00  0.00     0.029 A 
ATOM     57  C   UNL     1     -15.944  -2.872   7.465  1.00  0.00     0.049 A 
ATOM     58  H   UNL     1     -13.864  -2.550   7.308  1.00  0.00     0.167 HD
ATOM     59  C   UNL     1     -15.498  -0.981   9.003  1.00  0.00     0.074 A 
ATOM     60  C   UNL     1     -15.919   0.048   9.930  1.00  0.00     0.031 C 
ATOM     61  C   UNL     1     -16.342  -1.855   8.402  1.00  0.00     0.037 A 
BRANCH  48  62
ATOM     62  C   UNL     1     -13.590  -5.673   4.421  1.00  0.00     0.057 A 
ATOM     63  C   UNL     1     -13.176  -6.986   4.680  1.00  0.00     0.134 A 
ATOM     64  C   UNL     1     -14.217  -5.421   3.195  1.00  0.00     0.134 A 
ATOM     65  F   UNL     1     -12.558  -7.289   5.832  1.00  0.00    -0.206 F 
ATOM     66  C   UNL     1     -13.371  -8.008   3.749  1.00  0.00     0.040 A 
ATOM     67  C   UNL     1     -14.436  -6.438   2.265  1.00  0.00     0.040 A 
ATOM     68  F   UNL     1     -14.640  -4.186   2.888  1.00  0.00    -0.206 F 
ATOM     69  C   UNL     1     -14.011  -7.736   2.541  1.00  0.00     0.006 A 
ENDBRANCH  48  62
BRANCH  49  70
ATOM     70  C   UNL     1     -12.217   1.808  10.877  1.00  0.00     0.057 A 
ATOM     71  C   UNL     1     -12.466   1.663  12.246  1.00  0.00     0.134 A 
ATOM     72  C   UNL     1     -11.848   3.078  10.419  1.00  0.00     0.134 A 
ATOM     73  F   UNL     1     -12.848   0.477  12.741  1.00  0.00    -0.206 F 
ATOM     74  C   UNL     1     -12.380   2.746  13.123  1.00  0.00     0.040 A 
ATOM     75  C   UNL     1     -11.733   4.164  11.288  1.00  0.00     0.040 A 
ATOM     76  F   UNL     1     -11.597   3.283   9.117  1.00  0.00    -0.206 F 
ATOM     77  C   UNL     1     -12.010   4.001  12.644  1.00  0.00     0.006 A 
ENDBRANCH  49  70
BRANCH  61  78
ATOM     78  C   UNL     1     -17.796  -1.766   8.761  1.00  0.00     0.057 A 
ATOM     79  C   UNL     1     -18.611  -0.728   8.293  1.00  0.00     0.134 A 
ATOM     80  C   UNL     1     -18.395  -2.755   9.551  1.00  0.00     0.134 A 
ATOM     81  F   UNL     1     -18.094   0.257   7.543  1.00  0.00    -0.206 F 
ATOM     82  C   UNL     1     -19.967  -0.666   8.616  1.00  0.00     0.040 A 
ATOM     83  C   UNL     1     -19.755  -2.718   9.860  1.00  0.00     0.040 A 
ATOM     84  F   UNL     1     -17.672  -3.782  10.023  1.00  0.00    -0.206 F 
ATOM     85  C   UNL     1     -20.544  -1.667   9.396  1.00  0.00     0.006 A 
ENDBRANCH  61  78
ENDBRANCH  35  36
ENDBRANCH  28  30
ENDBRANCH  27  28
ENDBRANCH  26  27
ENDBRANCH  25  26
ENDBRANCH  24  25
ENDBRANCH   1  24
TORSDOF 19
