REMARK SMILES CCCCCCNC(=O)Oc1cccc(-c2ccc([C@@H](C)C(=O)OCCOCCOC(=O)c3ccc(-c4c5nc(c(-c6c(F)cccc6F)c6ccc([nH]6)c(-c6c(F)cccc6F)c6nc(c(-c7c(F)cccc7F)c7ccc4[nH]7)C=C6)C=C5)cc3)cc2Cl)c1
REMARK SMILES IDX 22 1 23 2 20 3 21 4 19 5 16 6 17 7 88 8 18 9 87 10 89 11
REMARK SMILES IDX 15 12 11 13 12 14 90 15 13 16 14 17 10 18 8 19 7 20 9 22
REMARK SMILES IDX 6 23 5 24 4 25 3 26 2 27 1 28 24 29 25 30 26 31 27 32 28 33
REMARK SMILES IDX 29 34 30 35 31 36 32 37 33 38 34 39 86 40 35 41 85 42 36 43
REMARK SMILES IDX 37 44 38 45 79 46 39 47 84 48 78 49 80 50 40 51 83 52 77 53
REMARK SMILES IDX 76 54 41 56 67 57 50 58 66 59 51 60 54 61 65 62 81 63 52 64
REMARK SMILES IDX 53 65 64 67 82 68 55 69 42 70 43 71 48 72 44 73 45 74 47 75
REMARK SMILES IDX 49 76 46 77 68 78 69 79 74 80 70 81 71 82 73 83 75 84 72 85
REMARK SMILES IDX 56 86 57 87 62 88 58 89 59 90 61 91 63 92 60 93
REMARK H PARENT 7 21 80 55 54 66
REMARK Flexibility Score: inf
ROOT
ATOM      1  C   UNL     1      -3.602  -8.842 -12.250  1.00  0.00     0.313 C 
ATOM      2  O   UNL     1      -3.282 -10.014 -12.427  1.00  0.00    -0.252 OA
ENDROOT
BRANCH   1   3
ATOM      3  C   UNL     1      -4.791  -8.461 -11.381  1.00  0.00     0.126 C 
ATOM      4  C   UNL     1      -6.077  -8.649 -12.182  1.00  0.00     0.025 C 
BRANCH   3   5
ATOM      5  C   UNL     1      -4.758  -7.111 -10.669  1.00  0.00    -0.033 A 
ATOM      6  C   UNL     1      -4.893  -4.631  -9.244  1.00  0.00     0.000 A 
ATOM      7  C   UNL     1      -4.851  -4.676 -10.651  1.00  0.00     0.010 A 
ATOM      8  C   UNL     1      -4.842  -5.860  -8.562  1.00  0.00     0.049 A 
ATOM      9  C   UNL     1      -4.792  -5.891 -11.352  1.00  0.00     0.005 A 
ATOM     10  C   UNL     1      -4.769  -7.075  -9.264  1.00  0.00     0.025 A 
ATOM     11  Cl  UNL     1      -4.932  -5.967  -6.835  1.00  0.00    -0.084 Cl
BRANCH   6  12
ATOM     12  C   UNL     1      -5.032  -3.326  -8.565  1.00  0.00    -0.013 A 
ATOM     13  C   UNL     1      -4.239  -1.630  -7.016  1.00  0.00     0.133 A 
ATOM     14  C   UNL     1      -5.365  -0.846  -7.250  1.00  0.00     0.047 A 
ATOM     15  C   UNL     1      -4.067  -2.860  -7.656  1.00  0.00     0.056 A 
ATOM     16  C   UNL     1      -6.324  -1.286  -8.158  1.00  0.00     0.004 A 
ATOM     17  C   UNL     1      -6.157  -2.515  -8.807  1.00  0.00     0.009 A 
BRANCH  13  18
ATOM     18  O   UNL     1      -3.352  -1.182  -6.022  1.00  0.00    -0.410 OA
BRANCH  18  19
ATOM     19  C   UNL     1      -2.006  -1.099  -6.342  1.00  0.00     0.412 C 
ATOM     20  N   UNL     1      -1.226  -0.678  -5.299  1.00  0.00    -0.321 N 
ATOM     21  H   UNL     1      -0.259  -0.615  -5.473  1.00  0.00     0.167 HD
ATOM     22  O   UNL     1      -1.508  -1.351  -7.434  1.00  0.00    -0.224 OA
BRANCH  20  23
ATOM     23  C   UNL     1      -1.665  -0.315  -3.965  1.00  0.00     0.119 C 
BRANCH  23  24
ATOM     24  C   UNL     1      -1.056  -1.217  -2.891  1.00  0.00     0.021 C 
BRANCH  24  25
ATOM     25  C   UNL     1       0.473  -1.154  -2.782  1.00  0.00     0.002 C 
BRANCH  25  26
ATOM     26  C   UNL     1       1.061   0.226  -2.467  1.00  0.00    -0.000 C 
BRANCH  26  27
ATOM     27  C   UNL     1       0.590   0.860  -1.156  1.00  0.00    -0.003 C 
ATOM     28  C   UNL     1       0.983   0.061   0.077  1.00  0.00     0.004 C 
ENDBRANCH  26  27
ENDBRANCH  25  26
ENDBRANCH  24  25
ENDBRANCH  23  24
ENDBRANCH  20  23
ENDBRANCH  18  19
ENDBRANCH  13  18
ENDBRANCH   6  12
ENDBRANCH   3   5
ENDBRANCH   1   3
BRANCH   1  29
ATOM     29  O   UNL     1      -2.978  -7.782 -12.825  1.00  0.00    -0.463 OA
BRANCH  29  30
ATOM     30  C   UNL     1      -1.771  -8.080 -13.550  1.00  0.00     0.261 C 
BRANCH  30  31
ATOM     31  C   UNL     1      -0.555  -7.414 -12.902  1.00  0.00     0.202 C 
BRANCH  31  32
ATOM     32  O   UNL     1      -0.195  -7.883 -11.604  1.00  0.00    -0.374 OA
BRANCH  32  33
ATOM     33  C   UNL     1      -0.978  -7.429 -10.500  1.00  0.00     0.202 C 
BRANCH  33  34
ATOM     34  C   UNL     1      -0.729  -5.992 -10.022  1.00  0.00     0.261 C 
BRANCH  34  35
ATOM     35  O   UNL     1      -1.127  -5.013 -10.998  1.00  0.00    -0.460 OA
BRANCH  35  36
ATOM     36  C   UNL     1      -0.106  -4.307 -11.543  1.00  0.00     0.338 C 
ATOM     37  O   UNL     1       1.075  -4.373 -11.263  1.00  0.00    -0.246 OA
BRANCH  36  38
ATOM     38  C   UNL     1      -0.596  -3.554 -12.715  1.00  0.00     0.060 A 
ATOM     39  C   UNL     1       0.061  -3.764 -13.935  1.00  0.00     0.016 A 
ATOM     40  C   UNL     1      -1.624  -2.616 -12.614  1.00  0.00     0.016 A 
ATOM     41  C   UNL     1      -0.283  -3.008 -15.054  1.00  0.00     0.010 A 
ATOM     42  C   UNL     1      -1.961  -1.850 -13.736  1.00  0.00     0.010 A 
ATOM     43  C   UNL     1      -1.273  -2.023 -14.952  1.00  0.00    -0.014 A 
BRANCH  43  44
ATOM     44  C   UNL     1      -1.500  -1.090 -16.082  1.00  0.00     0.031 A 
ATOM     45  C   UNL     1      -0.889   0.281 -16.035  1.00  0.00     0.074 A 
ATOM     46  C   UNL     1      -2.233  -1.464 -17.145  1.00  0.00     0.049 A 
ATOM     47  N   UNL     1      -1.012   1.274 -16.878  1.00  0.00    -0.248 NA
ATOM     48  C   UNL     1      -0.025   0.573 -14.880  1.00  0.00     0.031 C 
ATOM     49  C   UNL     1      -2.844  -2.779 -17.328  1.00  0.00     0.029 A 
ATOM     50  N   UNL     1      -2.602  -0.761 -18.264  1.00  0.00    -0.354 N 
ATOM     51  C   UNL     1      -0.255   2.312 -16.350  1.00  0.00     0.074 A 
ATOM     52  C   UNL     1       0.308   1.836 -15.105  1.00  0.00     0.031 C 
ATOM     53  C   UNL     1      -3.535  -2.780 -18.480  1.00  0.00     0.029 A 
ATOM     54  C   UNL     1      -3.443  -1.457 -19.096  1.00  0.00     0.049 A 
ATOM     55  H   UNL     1      -2.292   0.155 -18.453  1.00  0.00     0.167 HD
ATOM     56  C   UNL     1      -0.048   3.550 -16.860  1.00  0.00     0.037 A 
ATOM     57  C   UNL     1      -4.094  -1.062 -20.206  1.00  0.00     0.037 A 
ATOM     58  C   UNL     1      -0.604   4.019 -18.102  1.00  0.00     0.049 A 
ATOM     59  C   UNL     1      -3.912   0.343 -20.714  1.00  0.00     0.074 A 
ATOM     60  C   UNL     1      -0.403   5.235 -18.731  1.00  0.00     0.029 A 
ATOM     61  N   UNL     1      -1.484   3.298 -18.894  1.00  0.00    -0.354 N 
ATOM     62  N   UNL     1      -3.160   1.304 -20.233  1.00  0.00    -0.248 NA
ATOM     63  C   UNL     1      -4.673   0.722 -21.913  1.00  0.00     0.031 C 
ATOM     64  C   UNL     1      -1.210   5.273 -19.873  1.00  0.00     0.029 A 
ATOM     65  C   UNL     1      -1.873   4.062 -19.982  1.00  0.00     0.049 A 
ATOM     66  H   UNL     1      -1.786   2.380 -18.711  1.00  0.00     0.167 HD
ATOM     67  C   UNL     1      -3.349   2.394 -21.073  1.00  0.00     0.074 A 
ATOM     68  C   UNL     1      -4.272   1.972 -22.105  1.00  0.00     0.031 C 
ATOM     69  C   UNL     1      -2.806   3.635 -20.994  1.00  0.00     0.037 A 
BRANCH  56  70
ATOM     70  C   UNL     1       0.787   4.498 -16.051  1.00  0.00     0.057 A 
ATOM     71  C   UNL     1       2.173   4.345 -15.921  1.00  0.00     0.134 A 
ATOM     72  C   UNL     1       0.195   5.596 -15.413  1.00  0.00     0.134 A 
ATOM     73  F   UNL     1       2.800   3.308 -16.498  1.00  0.00    -0.206 F 
ATOM     74  C   UNL     1       2.937   5.235 -15.163  1.00  0.00     0.040 A 
ATOM     75  C   UNL     1       0.951   6.505 -14.673  1.00  0.00     0.040 A 
ATOM     76  F   UNL     1      -1.127   5.804 -15.502  1.00  0.00    -0.206 F 
ATOM     77  C   UNL     1       2.326   6.322 -14.541  1.00  0.00     0.006 A 
ENDBRANCH  56  70
BRANCH  57  78
ATOM     78  C   UNL     1      -5.018  -2.002 -20.889  1.00  0.00     0.057 A 
ATOM     79  C   UNL     1      -4.711  -2.546 -22.140  1.00  0.00     0.134 A 
ATOM     80  C   UNL     1      -6.231  -2.381 -20.299  1.00  0.00     0.134 A 
ATOM     81  F   UNL     1      -3.577  -2.201 -22.767  1.00  0.00    -0.206 F 
ATOM     82  C   UNL     1      -5.579  -3.430 -22.784  1.00  0.00     0.040 A 
ATOM     83  C   UNL     1      -7.097  -3.281 -20.920  1.00  0.00     0.040 A 
ATOM     84  F   UNL     1      -6.582  -1.892 -19.100  1.00  0.00    -0.206 F 
ATOM     85  C   UNL     1      -6.773  -3.806 -22.169  1.00  0.00     0.006 A 
ENDBRANCH  57  78
BRANCH  69  86
ATOM     86  C   UNL     1      -3.198   4.628 -22.049  1.00  0.00     0.057 A 
ATOM     87  C   UNL     1      -4.461   5.232 -22.054  1.00  0.00     0.134 A 
ATOM     88  C   UNL     1      -2.284   5.031 -23.031  1.00  0.00     0.134 A 
ATOM     89  F   UNL     1      -5.386   4.881 -21.148  1.00  0.00    -0.206 F 
ATOM     90  C   UNL     1      -4.807   6.192 -23.007  1.00  0.00     0.040 A 
ATOM     91  C   UNL     1      -2.609   6.007 -23.974  1.00  0.00     0.040 A 
ATOM     92  F   UNL     1      -1.054   4.498 -23.077  1.00  0.00    -0.206 F 
ATOM     93  C   UNL     1      -3.875   6.589 -23.965  1.00  0.00     0.006 A 
ENDBRANCH  69  86
ENDBRANCH  43  44
ENDBRANCH  36  38
ENDBRANCH  35  36
ENDBRANCH  34  35
ENDBRANCH  33  34
ENDBRANCH  32  33
ENDBRANCH  31  32
ENDBRANCH  30  31
ENDBRANCH  29  30
ENDBRANCH   1  29
TORSDOF 23
