REMARK SMILES C[C@H]1[NH2+]CC[C@H]1C(=O)N1CC(C(=O)OCCOCCOC(=O)c2ccc(-c3c4nc(c(-c5c(F)cccc5F)c5ccc([nH]5)c(-c5c(F)cccc5F)c5nc(c(-c6c(F)cccc6F)c6ccc3[nH]6)C=C5)C=C4)cc2)C1
REMARK SMILES IDX 18 1 17 2 16 3 15 4 14 5 12 6 13 7 11 8 7 9 8 10 9 11 10 12
REMARK SMILES IDX 77 13 6 14 1 15 2 16 3 17 4 18 5 21 19 22 20 23 21 24 22 25
REMARK SMILES IDX 23 26 24 27 76 28 25 29 75 30 26 31 27 32 28 33 69 34 29 35
REMARK SMILES IDX 74 36 68 37 70 38 30 39 73 40 67 41 66 42 31 44 57 45 40 46
REMARK SMILES IDX 56 47 41 48 44 49 55 50 71 51 42 52 43 53 54 55 72 56 45 57
REMARK SMILES IDX 32 58 33 59 38 60 34 61 35 62 37 63 39 64 36 65 58 66 59 67
REMARK SMILES IDX 64 68 60 69 61 70 63 71 65 72 62 73 46 74 47 75 52 76 48 77
REMARK SMILES IDX 49 78 51 79 53 80 50 81
REMARK H PARENT 3 19 3 20 70 43 44 54
REMARK Flexibility Score: inf
ROOT
ATOM      1  C   UNL     1       5.454   2.365   4.115  1.00  0.00     0.202 C 
ENDROOT
BRANCH   1   2
ATOM      2  O   UNL     1       5.557   2.923   5.425  1.00  0.00    -0.374 OA
BRANCH   2   3
ATOM      3  C   UNL     1       4.448   2.729   6.306  1.00  0.00     0.202 C 
BRANCH   3   4
ATOM      4  C   UNL     1       3.262   3.670   6.074  1.00  0.00     0.261 C 
BRANCH   4   5
ATOM      5  O   UNL     1       2.638   3.358   4.816  1.00  0.00    -0.463 OA
BRANCH   5   6
ATOM      6  C   UNL     1       2.447   4.393   3.945  1.00  0.00     0.312 C 
ATOM      7  O   UNL     1       2.570   5.574   4.266  1.00  0.00    -0.252 OA
BRANCH   6   8
ATOM      8  C   UNL     1       2.127   3.911   2.521  1.00  0.00     0.138 C 
ATOM      9  C   UNL     1       0.902   2.341   0.096  1.00  0.00     0.231 C 
ATOM     10  O   UNL     1       1.557   3.020  -0.691  1.00  0.00    -0.274 OA
ATOM     11  N   UNL     1       0.986   2.504   1.466  1.00  0.00    -0.340 N 
ATOM     12  C   UNL     1       0.659   3.781   2.133  1.00  0.00     0.136 C 
ATOM     13  C   UNL     1       2.276   2.433   2.170  1.00  0.00     0.136 C 
BRANCH   9  14
ATOM     14  C   UNL     1       0.030   1.183  -0.359  1.00  0.00     0.142 C 
ATOM     15  C   UNL     1       1.804  -0.501   0.520  1.00  0.00     0.076 C 
ATOM     16  C   UNL     1       0.770  -0.141  -0.547  1.00  0.00     0.192 C 
ATOM     17  N   UNL     1      -0.305  -1.149  -0.568  1.00  0.00    -0.343 N 
ATOM     18  C   UNL     1      -1.462  -0.617   0.154  1.00  0.00     0.261 C 
ATOM     19  H   UNL     1       0.017  -2.004  -0.117  1.00  0.00     0.346 HD
ATOM     20  H   UNL     1      -0.565  -1.359  -1.532  1.00  0.00     0.346 HD
ATOM     21  C   UNL     1      -1.128   0.809   0.554  1.00  0.00     0.081 C 
ENDBRANCH   9  14
ENDBRANCH   6   8
ENDBRANCH   5   6
ENDBRANCH   4   5
ENDBRANCH   3   4
ENDBRANCH   2   3
ENDBRANCH   1   2
BRANCH   1  22
ATOM     22  C   UNL     1       5.765   0.868   4.000  1.00  0.00     0.261 C 
BRANCH  22  23
ATOM     23  O   UNL     1       4.800   0.061   4.700  1.00  0.00    -0.460 OA
BRANCH  23  24
ATOM     24  C   UNL     1       5.279  -0.547   5.810  1.00  0.00     0.338 C 
ATOM     25  O   UNL     1       6.436  -0.546   6.212  1.00  0.00    -0.246 OA
BRANCH  24  26
ATOM     26  C   UNL     1       4.183  -1.125   6.608  1.00  0.00     0.060 A 
ATOM     27  C   UNL     1       4.181  -0.850   7.981  1.00  0.00     0.016 A 
ATOM     28  C   UNL     1       3.246  -2.007   6.061  1.00  0.00     0.016 A 
ATOM     29  C   UNL     1       3.297  -1.515   8.826  1.00  0.00     0.010 A 
ATOM     30  C   UNL     1       2.360  -2.679   6.914  1.00  0.00     0.010 A 
ATOM     31  C   UNL     1       2.419  -2.473   8.304  1.00  0.00    -0.014 A 
BRANCH  31  32
ATOM     32  C   UNL     1       1.721  -3.387   9.243  1.00  0.00     0.031 A 
ATOM     33  C   UNL     1       2.317  -4.746   9.508  1.00  0.00     0.074 A 
ATOM     34  C   UNL     1       0.622  -2.994   9.909  1.00  0.00     0.049 A 
ATOM     35  N   UNL     1       1.908  -5.690  10.317  1.00  0.00    -0.248 NA
ATOM     36  C   UNL     1       3.539  -5.082   8.759  1.00  0.00     0.031 C 
ATOM     37  C   UNL     1      -0.030  -1.694   9.773  1.00  0.00     0.029 A 
ATOM     38  N   UNL     1      -0.134  -3.656  10.844  1.00  0.00    -0.354 N 
ATOM     39  C   UNL     1       2.821  -6.728  10.176  1.00  0.00     0.074 A 
ATOM     40  C   UNL     1       3.783  -6.315   9.178  1.00  0.00     0.031 C 
ATOM     41  C   UNL     1      -1.092  -1.652  10.597  1.00  0.00     0.029 A 
ATOM     42  C   UNL     1      -1.202  -2.926  11.305  1.00  0.00     0.049 A 
ATOM     43  H   UNL     1       0.069  -4.568  11.154  1.00  0.00     0.167 HD
ATOM     44  C   UNL     1       2.865  -7.915  10.828  1.00  0.00     0.037 A 
ATOM     45  C   UNL     1      -2.158  -3.253  12.195  1.00  0.00     0.037 A 
ATOM     46  C   UNL     1       1.914  -8.331  11.823  1.00  0.00     0.049 A 
ATOM     47  C   UNL     1      -2.113  -4.596  12.874  1.00  0.00     0.074 A 
ATOM     48  C   UNL     1       1.871  -9.516  12.536  1.00  0.00     0.029 A 
ATOM     49  N   UNL     1       0.836  -7.569  12.248  1.00  0.00    -0.354 N 
ATOM     50  N   UNL     1      -1.237  -5.562  12.744  1.00  0.00    -0.248 NA
ATOM     51  C   UNL     1      -3.186  -4.887  13.837  1.00  0.00     0.031 C 
ATOM     52  C   UNL     1       0.747  -9.486  13.369  1.00  0.00     0.029 A 
ATOM     53  C   UNL     1       0.116  -8.263  13.206  1.00  0.00     0.049 A 
ATOM     54  H   UNL     1       0.615  -6.669  11.917  1.00  0.00     0.167 HD
ATOM     55  C   UNL     1      -1.630  -6.557  13.632  1.00  0.00     0.074 A 
ATOM     56  C   UNL     1      -2.821  -6.074  14.300  1.00  0.00     0.031 C 
ATOM     57  C   UNL     1      -1.056  -7.761  13.875  1.00  0.00     0.037 A 
BRANCH  44  58
ATOM     58  C   UNL     1       3.978  -8.854  10.467  1.00  0.00     0.057 A 
ATOM     59  C   UNL     1       5.301  -8.617  10.862  1.00  0.00     0.134 A 
ATOM     60  C   UNL     1       3.721 -10.015   9.728  1.00  0.00     0.134 A 
ATOM     61  F   UNL     1       5.615  -7.513  11.557  1.00  0.00    -0.206 F 
ATOM     62  C   UNL     1       6.333  -9.491  10.517  1.00  0.00     0.040 A 
ATOM     63  C   UNL     1       4.740 -10.909   9.396  1.00  0.00     0.040 A 
ATOM     64  F   UNL     1       2.475 -10.301   9.319  1.00  0.00    -0.206 F 
ATOM     65  C   UNL     1       6.052 -10.644   9.786  1.00  0.00     0.006 A 
ENDBRANCH  44  58
BRANCH  45  66
ATOM     66  C   UNL     1      -3.242  -2.289  12.511  1.00  0.00     0.057 A 
ATOM     67  C   UNL     1      -3.313  -1.661  13.759  1.00  0.00     0.134 A 
ATOM     68  C   UNL     1      -4.249  -2.000  11.583  1.00  0.00     0.134 A 
ATOM     69  F   UNL     1      -2.389  -1.917  14.697  1.00  0.00    -0.206 F 
ATOM     70  C   UNL     1      -4.358  -0.793  14.082  1.00  0.00     0.040 A 
ATOM     71  C   UNL     1      -5.287  -1.117  11.884  1.00  0.00     0.040 A 
ATOM     72  F   UNL     1      -4.236  -2.570  10.369  1.00  0.00    -0.206 F 
ATOM     73  C   UNL     1      -5.348  -0.517  13.140  1.00  0.00     0.006 A 
ENDBRANCH  45  66
BRANCH  57  74
ATOM     74  C   UNL     1      -1.675  -8.613  14.944  1.00  0.00     0.057 A 
ATOM     75  C   UNL     1      -2.896  -9.272  14.755  1.00  0.00     0.134 A 
ATOM     76  C   UNL     1      -1.024  -8.794  16.171  1.00  0.00     0.134 A 
ATOM     77  F   UNL     1      -3.574  -9.131  13.606  1.00  0.00    -0.206 F 
ATOM     78  C   UNL     1      -3.462 -10.059  15.760  1.00  0.00     0.040 A 
ATOM     79  C   UNL     1      -1.568  -9.597  17.174  1.00  0.00     0.040 A 
ATOM     80  F   UNL     1       0.153  -8.198  16.413  1.00  0.00    -0.206 F 
ATOM     81  C   UNL     1      -2.795 -10.226  16.973  1.00  0.00     0.006 A 
ENDBRANCH  57  74
ENDBRANCH  31  32
ENDBRANCH  24  26
ENDBRANCH  23  24
ENDBRANCH  22  23
ENDBRANCH   1  22
TORSDOF 15
