REMARK SMILES Cc1c(C(=O)Nc2ccc(C(=O)Nc3ccccc3C(=O)OCCOCCOC(=O)c3ccc(-c4c5nc(c(-c6c(F)cccc6F)c6ccc([nH]6)c(-c6c(F)cccc6F)c6nc(c(-c7c(F)cccc7F)c7ccc4[nH]7)C=C6)C=C5)cc3)cc2)cccc1[N+](=O)[O-]
REMARK SMILES IDX 23 1 22 2 20 3 21 4 19 5 14 6 15 7 16 8 18 9 17 10 13 11
REMARK SMILES IDX 11 12 12 13 10 15 7 16 8 17 86 18 9 19 85 20 6 21 4 22 5 23
REMARK SMILES IDX 3 25 1 26 2 27 90 28 87 29 89 30 88 31 91 32 92 33 93 34
REMARK SMILES IDX 24 35 25 36 26 37 27 38 28 39 29 40 30 41 31 42 32 43 84 44
REMARK SMILES IDX 33 45 83 46 34 47 35 48 36 49 77 50 37 51 82 52 76 53 78 54
REMARK SMILES IDX 38 55 81 56 75 57 74 58 39 60 65 61 48 62 64 63 49 64 52 65
REMARK SMILES IDX 63 66 79 67 50 68 51 69 62 71 80 72 53 73 40 74 41 75 46 76
REMARK SMILES IDX 42 77 43 78 45 79 47 80 44 81 66 82 67 83 72 84 68 85 69 86
REMARK SMILES IDX 71 87 73 88 70 89 54 90 55 91 60 92 56 93 57 94 59 95 61 96
REMARK SMILES IDX 58 97
REMARK H PARENT 13 14 6 24 78 59 52 70
REMARK Flexibility Score: inf
ROOT
ATOM      1  C   UNL     1       3.756  -0.570   2.630  1.00  0.00     0.261 C 
ENDROOT
BRANCH   1   2
ATOM      2  O   UNL     1       3.793   0.742   3.225  1.00  0.00    -0.460 OA
BRANCH   2   3
ATOM      3  C   UNL     1       4.399   1.813   2.627  1.00  0.00     0.340 C 
ATOM      4  O   UNL     1       5.418   1.812   2.010  1.00  0.00    -0.246 OA
BRANCH   3   5
ATOM      5  C   UNL     1       3.465   2.990   2.719  1.00  0.00     0.083 A 
ATOM      6  C   UNL     1       3.433   3.975   1.706  1.00  0.00     0.056 A 
ATOM      7  C   UNL     1       2.475   5.001   1.761  1.00  0.00     0.027 A 
ATOM      8  C   UNL     1       1.496   5.003   2.752  1.00  0.00     0.002 A 
ATOM      9  C   UNL     1       2.520   3.060   3.760  1.00  0.00     0.018 A 
ATOM     10  C   UNL     1       1.522   4.040   3.755  1.00  0.00     0.001 A 
BRANCH   6  11
ATOM     11  N   UNL     1       4.213   3.983   0.538  1.00  0.00    -0.321 N 
ATOM     12  C   UNL     1       4.337   3.066  -0.485  1.00  0.00     0.255 C 
ATOM     13  O   UNL     1       5.148   3.313  -1.382  1.00  0.00    -0.269 OA
ATOM     14  H   UNL     1       4.772   4.787   0.431  1.00  0.00     0.170 HD
BRANCH  12  15
ATOM     15  C   UNL     1       3.500   1.830  -0.614  1.00  0.00     0.040 A 
ATOM     16  C   UNL     1       2.201  -0.675  -0.808  1.00  0.00     0.041 A 
ATOM     17  C   UNL     1       1.784   0.280   0.115  1.00  0.00     0.027 A 
ATOM     18  C   UNL     1       3.254  -0.369  -1.664  1.00  0.00     0.027 A 
ATOM     19  C   UNL     1       2.385   1.537   0.166  1.00  0.00     0.016 A 
ATOM     20  C   UNL     1       3.882   0.883  -1.581  1.00  0.00     0.016 A 
BRANCH  16  21
ATOM     21  N   UNL     1       1.527  -1.896  -0.972  1.00  0.00    -0.322 N 
ATOM     22  C   UNL     1       0.168  -2.148  -0.862  1.00  0.00     0.256 C 
ATOM     23  O   UNL     1      -0.243  -3.305  -0.837  1.00  0.00    -0.269 OA
ATOM     24  H   UNL     1       2.092  -2.672  -1.193  1.00  0.00     0.170 HD
BRANCH  22  25
ATOM     25  C   UNL     1      -0.812  -1.014  -0.774  1.00  0.00     0.049 A 
ATOM     26  C   UNL     1       0.131   0.281  -2.753  1.00  0.00     0.053 C 
ATOM     27  C   UNL     1      -0.655   0.211  -1.467  1.00  0.00     0.039 A 
ATOM     28  C   UNL     1      -1.269   1.344  -0.893  1.00  0.00     0.273 A 
ATOM     29  C   UNL     1      -1.828  -1.161   0.183  1.00  0.00     0.014 A 
ATOM     30  C   UNL     1      -2.261   1.199   0.093  1.00  0.00     0.086 A 
ATOM     31  C   UNL     1      -2.594  -0.065   0.569  1.00  0.00     0.008 A 
BRANCH  28  32
ATOM     32  N   UNL     1      -0.741   2.708  -1.109  1.00  0.00     0.063 N 
ATOM     33  O   UNL     1      -0.874   3.515  -0.175  1.00  0.00    -0.258 OA
ATOM     34  O   UNL     1      -0.152   2.965  -2.165  1.00  0.00    -0.258 OA
ENDBRANCH  28  32
ENDBRANCH  22  25
ENDBRANCH  16  21
ENDBRANCH  12  15
ENDBRANCH   6  11
ENDBRANCH   3   5
ENDBRANCH   2   3
ENDBRANCH   1   2
BRANCH   1  35
ATOM     35  C   UNL     1       4.997  -1.401   2.357  1.00  0.00     0.202 C 
BRANCH  35  36
ATOM     36  O   UNL     1       6.108  -0.770   1.768  1.00  0.00    -0.374 OA
BRANCH  36  37
ATOM     37  C   UNL     1       6.191  -0.640   0.359  1.00  0.00     0.202 C 
BRANCH  37  38
ATOM     38  C   UNL     1       5.825  -1.881  -0.473  1.00  0.00     0.261 C 
BRANCH  38  39
ATOM     39  O   UNL     1       6.802  -2.938  -0.370  1.00  0.00    -0.460 OA
BRANCH  39  40
ATOM     40  C   UNL     1       6.670  -3.778   0.696  1.00  0.00     0.338 C 
ATOM     41  O   UNL     1       5.713  -4.506   0.898  1.00  0.00    -0.246 OA
BRANCH  40  42
ATOM     42  C   UNL     1       7.718  -3.434   1.703  1.00  0.00     0.060 A 
ATOM     43  C   UNL     1       7.395  -3.564   3.059  1.00  0.00     0.016 A 
ATOM     44  C   UNL     1       8.741  -2.574   1.321  1.00  0.00     0.016 A 
ATOM     45  C   UNL     1       7.786  -2.551   3.942  1.00  0.00     0.010 A 
ATOM     46  C   UNL     1       9.113  -1.575   2.205  1.00  0.00     0.010 A 
ATOM     47  C   UNL     1       8.451  -1.435   3.440  1.00  0.00    -0.014 A 
BRANCH  47  48
ATOM     48  C   UNL     1       8.263  -0.057   3.977  1.00  0.00     0.031 A 
ATOM     49  C   UNL     1       9.305   0.918   3.662  1.00  0.00     0.074 A 
ATOM     50  C   UNL     1       7.177   0.484   4.580  1.00  0.00     0.049 A 
ATOM     51  N   UNL     1      10.328   1.180   4.407  1.00  0.00    -0.248 NA
ATOM     52  C   UNL     1       9.275   1.587   2.358  1.00  0.00     0.031 C 
ATOM     53  C   UNL     1       6.963   1.886   4.954  1.00  0.00     0.029 A 
ATOM     54  N   UNL     1       5.996  -0.130   4.996  1.00  0.00    -0.354 N 
ATOM     55  C   UNL     1      10.943   2.234   3.770  1.00  0.00     0.074 A 
ATOM     56  C   UNL     1      10.445   2.222   2.398  1.00  0.00     0.031 C 
ATOM     57  C   UNL     1       5.908   1.970   5.786  1.00  0.00     0.029 A 
ATOM     58  C   UNL     1       5.416   0.623   6.029  1.00  0.00     0.049 A 
ATOM     59  H   UNL     1       5.627  -0.963   4.622  1.00  0.00     0.167 HD
ATOM     60  C   UNL     1      11.241   3.393   4.426  1.00  0.00     0.037 A 
ATOM     61  C   UNL     1       5.158   0.032   7.228  1.00  0.00     0.037 A 
ATOM     62  C   UNL     1      10.396   3.570   5.612  1.00  0.00     0.049 A 
ATOM     63  C   UNL     1       6.192   0.486   8.218  1.00  0.00     0.074 A 
ATOM     64  C   UNL     1       9.331   4.426   5.852  1.00  0.00     0.029 A 
ATOM     65  N   UNL     1      10.377   2.636   6.645  1.00  0.00    -0.354 N 
ATOM     66  N   UNL     1       7.243   1.164   7.847  1.00  0.00    -0.248 NA
ATOM     67  C   UNL     1       6.152   0.280   9.660  1.00  0.00     0.031 C 
ATOM     68  C   UNL     1       8.676   4.006   7.036  1.00  0.00     0.029 A 
ATOM     69  C   UNL     1       9.345   2.898   7.530  1.00  0.00     0.049 A 
ATOM     70  H   UNL     1      11.012   1.889   6.733  1.00  0.00     0.167 HD
ATOM     71  C   UNL     1       8.012   1.464   8.920  1.00  0.00     0.074 A 
ATOM     72  C   UNL     1       7.288   0.896  10.043  1.00  0.00     0.031 C 
ATOM     73  C   UNL     1       9.186   2.135   8.764  1.00  0.00     0.037 A 
BRANCH  60  74
ATOM     74  C   UNL     1      11.970   4.519   3.722  1.00  0.00     0.057 A 
ATOM     75  C   UNL     1      11.986   5.826   4.233  1.00  0.00     0.134 A 
ATOM     76  C   UNL     1      12.751   4.336   2.559  1.00  0.00     0.134 A 
ATOM     77  F   UNL     1      11.414   6.130   5.406  1.00  0.00    -0.206 F 
ATOM     78  C   UNL     1      12.627   6.887   3.580  1.00  0.00     0.040 A 
ATOM     79  C   UNL     1      13.356   5.394   1.870  1.00  0.00     0.040 A 
ATOM     80  F   UNL     1      12.981   3.113   2.054  1.00  0.00    -0.206 F 
ATOM     81  C   UNL     1      13.289   6.681   2.378  1.00  0.00     0.006 A 
ENDBRANCH  60  74
BRANCH  61  82
ATOM     82  C   UNL     1       4.551  -1.322   7.051  1.00  0.00     0.057 A 
ATOM     83  C   UNL     1       3.217  -1.362   6.596  1.00  0.00     0.134 A 
ATOM     84  C   UNL     1       5.320  -2.467   6.822  1.00  0.00     0.134 A 
ATOM     85  F   UNL     1       2.413  -0.302   6.782  1.00  0.00    -0.206 F 
ATOM     86  C   UNL     1       2.721  -2.418   5.822  1.00  0.00     0.040 A 
ATOM     87  C   UNL     1       4.839  -3.522   6.026  1.00  0.00     0.040 A 
ATOM     88  F   UNL     1       6.596  -2.521   7.228  1.00  0.00    -0.206 F 
ATOM     89  C   UNL     1       3.554  -3.479   5.487  1.00  0.00     0.006 A 
ENDBRANCH  61  82
BRANCH  73  90
ATOM     90  C   UNL     1      10.258   2.196   9.804  1.00  0.00     0.057 A 
ATOM     91  C   UNL     1      10.499   1.157  10.713  1.00  0.00     0.134 A 
ATOM     92  C   UNL     1      11.206   3.238   9.795  1.00  0.00     0.134 A 
ATOM     93  F   UNL     1       9.728   0.061  10.749  1.00  0.00    -0.206 F 
ATOM     94  C   UNL     1      11.585   1.176  11.591  1.00  0.00     0.040 A 
ATOM     95  C   UNL     1      12.325   3.239  10.626  1.00  0.00     0.040 A 
ATOM     96  F   UNL     1      11.100   4.282   8.959  1.00  0.00    -0.206 F 
ATOM     97  C   UNL     1      12.510   2.211  11.539  1.00  0.00     0.006 A 
ENDBRANCH  73  90
ENDBRANCH  47  48
ENDBRANCH  40  42
ENDBRANCH  39  40
ENDBRANCH  38  39
ENDBRANCH  37  38
ENDBRANCH  36  37
ENDBRANCH  35  36
ENDBRANCH   1  35
TORSDOF 19
