REMARK SMILES O=C(N[C@@H](Cc1c[nH]c2ccccc12)C(=O)N[C@@H](CO)C(=O)OCCOCCOC(=O)c1ccc(-c2c3nc(c(-c4c(F)cccc4F)c4ccc([nH]4)c(-c4c(F)cccc4F)c4nc(c(-c5c(F)cccc5F)c5ccc2[nH]5)C=C4)C=C3)cc1)c1ccc(F)cc1
REMARK SMILES IDX 25 1 24 2 23 3 21 4 22 5 18 6 17 7 15 8 16 9 4 11 3 12 1 13
REMARK SMILES IDX 2 14 86 16 87 17 92 18 88 19 91 20 89 21 90 22 5 23 6 24
REMARK SMILES IDX 7 25 14 26 8 27 9 28 13 29 10 31 12 32 11 33 19 34 20 35
REMARK SMILES IDX 26 37 27 38 28 39 29 40 30 41 31 42 32 43 33 44 85 45 34 46
REMARK SMILES IDX 84 47 35 48 36 49 37 50 78 51 38 52 83 53 77 54 79 55 39 56
REMARK SMILES IDX 82 57 76 58 75 59 40 61 66 62 49 63 65 64 50 65 53 66 64 67
REMARK SMILES IDX 80 68 51 69 52 70 63 72 81 73 54 74 41 75 42 76 47 77 43 78
REMARK SMILES IDX 44 79 46 80 48 81 45 82 67 83 68 84 73 85 69 86 70 87 72 88
REMARK SMILES IDX 74 89 71 90 55 91 56 92 61 93 57 94 58 95 60 96 62 97 59 98
REMARK H PARENT 17 10 3 15 8 30 20 36 79 60 53 71
REMARK Flexibility Score: inf
ROOT
ATOM      1  C   UNL     1       7.563   4.700  -6.084  1.00  0.00     0.202 C 
ENDROOT
BRANCH   1   2
ATOM      2  C   UNL     1       6.298   5.434  -5.606  1.00  0.00     0.261 C 
BRANCH   2   3
ATOM      3  O   UNL     1       5.760   4.993  -4.333  1.00  0.00    -0.462 OA
BRANCH   3   4
ATOM      4  C   UNL     1       4.325   4.609  -4.242  1.00  0.00     0.331 C 
ATOM      5  O   UNL     1       3.922   4.674  -5.438  1.00  0.00    -0.250 OA
BRANCH   4   6
ATOM      6  C   UNL     1       3.267   4.157  -2.355  1.00  0.00     0.218 C 
BRANCH   6   7
ATOM      7  N   UNL     1       3.886   3.669  -0.814  1.00  0.00    -0.339 N 
ATOM      8  C   UNL     1       4.310   2.497  -0.250  1.00  0.00     0.243 C 
ATOM      9  O   UNL     1       4.888   2.627   0.842  1.00  0.00    -0.273 OA
ATOM     10  H   UNL     1       3.949   4.424  -0.185  1.00  0.00     0.164 HD
BRANCH   8  11
ATOM     11  C   UNL     1       4.080   1.053  -0.799  1.00  0.00     0.176 C 
BRANCH  11  12
ATOM     12  N   UNL     1       2.662   0.735  -0.609  1.00  0.00    -0.340 N 
ATOM     13  O   UNL     1       0.845  -0.215   0.321  1.00  0.00    -0.269 OA
ATOM     14  C   UNL     1       2.068  -0.127   0.281  1.00  0.00     0.251 C 
ATOM     15  H   UNL     1       2.042   1.210  -1.208  1.00  0.00     0.164 HD
BRANCH  14  16
ATOM     16  C   UNL     1       2.891  -1.037   1.115  1.00  0.00     0.040 A 
ATOM     17  C   UNL     1       3.908  -0.576   1.960  1.00  0.00     0.017 A 
ATOM     18  C   UNL     1       2.632  -2.411   1.019  1.00  0.00     0.017 A 
ATOM     19  C   UNL     1       4.742  -1.492   2.607  1.00  0.00     0.040 A 
ATOM     20  C   UNL     1       3.448  -3.322   1.691  1.00  0.00     0.040 A 
ATOM     21  C   UNL     1       4.511  -2.855   2.457  1.00  0.00     0.123 A 
ATOM     22  F   UNL     1       5.325  -3.732   3.058  1.00  0.00    -0.207 F 
ENDBRANCH  14  16
ENDBRANCH  11  12
BRANCH  11  23
ATOM     23  C   UNL     1       4.676   0.568  -2.146  1.00  0.00     0.072 C 
BRANCH  23  24
ATOM     24  C   UNL     1       4.119   1.302  -3.300  1.00  0.00    -0.020 A 
ATOM     25  C   UNL     1       3.157   0.902  -4.221  1.00  0.00     0.087 A 
ATOM     26  C   UNL     1       4.325   2.681  -3.443  1.00  0.00     0.003 A 
ATOM     27  N   UNL     1       2.479   1.964  -4.816  1.00  0.00    -0.361 N 
ATOM     28  C   UNL     1       2.827   3.142  -4.211  1.00  0.00     0.046 A 
ATOM     29  C   UNL     1       5.310   3.901  -2.547  1.00  0.00     0.010 A 
ATOM     30  H   UNL     1       1.843   1.879  -5.562  1.00  0.00     0.166 HD
ATOM     31  C   UNL     1       2.251   4.842  -4.106  1.00  0.00     0.026 A 
ATOM     32  C   UNL     1       4.743   5.617  -2.441  1.00  0.00     0.001 A 
ATOM     33  C   UNL     1       3.264   6.082  -3.280  1.00  0.00     0.002 A 
ENDBRANCH  23  24
ENDBRANCH  11  23
ENDBRANCH   8  11
ENDBRANCH   6   7
BRANCH   6  34
ATOM     34  C   UNL     1       1.891   4.936  -1.591  1.00  0.00     0.193 C 
BRANCH  34  35
ATOM     35  O   UNL     1       2.194   6.107  -0.826  1.00  0.00    -0.394 OA
ATOM     36  H   UNL     1       2.772   5.868  -0.085  1.00  0.00     0.210 HD
ENDBRANCH  34  35
ENDBRANCH   6  34
ENDBRANCH   4   6
ENDBRANCH   3   4
ENDBRANCH   2   3
ENDBRANCH   1   2
BRANCH   1  37
ATOM     37  O   UNL     1       7.594   3.281  -6.081  1.00  0.00    -0.374 OA
BRANCH  37  38
ATOM     38  C   UNL     1       7.537   2.631  -4.816  1.00  0.00     0.202 C 
BRANCH  38  39
ATOM     39  C   UNL     1       8.570   3.013  -3.742  1.00  0.00     0.261 C 
BRANCH  39  40
ATOM     40  O   UNL     1       8.410   4.367  -3.266  1.00  0.00    -0.460 OA
BRANCH  40  41
ATOM     41  C   UNL     1       9.517   5.142  -3.340  1.00  0.00     0.338 C 
ATOM     42  O   UNL     1      10.643   4.797  -3.656  1.00  0.00    -0.246 OA
BRANCH  41  43
ATOM     43  C   UNL     1       9.161   6.561  -3.166  1.00  0.00     0.060 A 
ATOM     44  C   UNL     1       9.206   7.386  -4.298  1.00  0.00     0.016 A 
ATOM     45  C   UNL     1       8.981   7.109  -1.896  1.00  0.00     0.016 A 
ATOM     46  C   UNL     1       9.119   8.766  -4.164  1.00  0.00     0.010 A 
ATOM     47  C   UNL     1       8.921   8.502  -1.757  1.00  0.00     0.010 A 
ATOM     48  C   UNL     1       9.044   9.332  -2.887  1.00  0.00    -0.014 A 
BRANCH  48  49
ATOM     49  C   UNL     1       9.354  10.775  -2.750  1.00  0.00     0.031 A 
ATOM     50  C   UNL     1      10.764  11.172  -2.403  1.00  0.00     0.074 A 
ATOM     51  C   UNL     1       8.434  11.712  -3.034  1.00  0.00     0.049 A 
ATOM     52  N   UNL     1      11.277  12.365  -2.244  1.00  0.00    -0.248 NA
ATOM     53  C   UNL     1      11.727  10.074  -2.220  1.00  0.00     0.031 C 
ATOM     54  C   UNL     1       7.062  11.447  -3.463  1.00  0.00     0.029 A 
ATOM     55  N   UNL     1       8.524  13.080  -3.010  1.00  0.00    -0.354 N 
ATOM     56  C   UNL     1      12.617  12.160  -1.937  1.00  0.00     0.074 A 
ATOM     57  C   UNL     1      12.833  10.730  -1.904  1.00  0.00     0.031 C 
ATOM     58  C   UNL     1       6.433  12.619  -3.654  1.00  0.00     0.029 A 
ATOM     59  C   UNL     1       7.348  13.712  -3.328  1.00  0.00     0.049 A 
ATOM     60  H   UNL     1       9.352  13.562  -2.787  1.00  0.00     0.167 HD
ATOM     61  C   UNL     1      13.584  13.081  -1.712  1.00  0.00     0.037 A 
ATOM     62  C   UNL     1       7.043  15.024  -3.332  1.00  0.00     0.037 A 
ATOM     63  C   UNL     1      13.364  14.502  -1.748  1.00  0.00     0.049 A 
ATOM     64  C   UNL     1       8.111  16.028  -2.982  1.00  0.00     0.074 A 
ATOM     65  C   UNL     1      14.274  15.522  -1.534  1.00  0.00     0.029 A 
ATOM     66  N   UNL     1      12.142  15.104  -2.012  1.00  0.00    -0.354 N 
ATOM     67  N   UNL     1       9.375  15.826  -2.692  1.00  0.00    -0.248 NA
ATOM     68  C   UNL     1       7.710  17.442  -2.961  1.00  0.00     0.031 C 
ATOM     69  C   UNL     1      13.590  16.739  -1.611  1.00  0.00     0.029 A 
ATOM     70  C   UNL     1      12.268  16.480  -1.935  1.00  0.00     0.049 A 
ATOM     71  H   UNL     1      11.309  14.623  -2.222  1.00  0.00     0.167 HD
ATOM     72  C   UNL     1       9.925  17.086  -2.487  1.00  0.00     0.074 A 
ATOM     73  C   UNL     1       8.861  18.045  -2.697  1.00  0.00     0.031 C 
ATOM     74  C   UNL     1      11.198  17.420  -2.156  1.00  0.00     0.037 A 
BRANCH  61  75
ATOM     75  C   UNL     1      14.954  12.576  -1.365  1.00  0.00     0.057 A 
ATOM     76  C   UNL     1      15.779  11.949  -2.309  1.00  0.00     0.134 A 
ATOM     77  C   UNL     1      15.464  12.738  -0.070  1.00  0.00     0.134 A 
ATOM     78  F   UNL     1      15.347  11.746  -3.563  1.00  0.00    -0.206 F 
ATOM     79  C   UNL     1      17.051  11.481  -1.971  1.00  0.00     0.040 A 
ATOM     80  C   UNL     1      16.744  12.300   0.272  1.00  0.00     0.040 A 
ATOM     81  F   UNL     1      14.728  13.331   0.882  1.00  0.00    -0.206 F 
ATOM     82  C   UNL     1      17.539  11.663  -0.678  1.00  0.00     0.006 A 
ENDBRANCH  61  75
BRANCH  62  83
ATOM     83  C   UNL     1       5.662  15.467  -3.651  1.00  0.00     0.057 A 
ATOM     84  C   UNL     1       5.379  16.201  -4.808  1.00  0.00     0.134 A 
ATOM     85  C   UNL     1       4.593  15.186  -2.790  1.00  0.00     0.134 A 
ATOM     86  F   UNL     1       6.363  16.523  -5.661  1.00  0.00    -0.206 F 
ATOM     87  C   UNL     1       4.089  16.657  -5.089  1.00  0.00     0.040 A 
ATOM     88  C   UNL     1       3.294  15.611  -3.071  1.00  0.00     0.040 A 
ATOM     89  F   UNL     1       4.796  14.487  -1.664  1.00  0.00    -0.206 F 
ATOM     90  C   UNL     1       3.041  16.356  -4.221  1.00  0.00     0.006 A 
ENDBRANCH  62  83
BRANCH  74  91
ATOM     91  C   UNL     1      11.520  18.883  -2.042  1.00  0.00     0.057 A 
ATOM     92  C   UNL     1      11.048  19.667  -0.982  1.00  0.00     0.134 A 
ATOM     93  C   UNL     1      12.350  19.503  -2.985  1.00  0.00     0.134 A 
ATOM     94  F   UNL     1      10.240  19.137  -0.051  1.00  0.00    -0.206 F 
ATOM     95  C   UNL     1      11.371  21.021  -0.877  1.00  0.00     0.040 A 
ATOM     96  C   UNL     1      12.704  20.848  -2.874  1.00  0.00     0.040 A 
ATOM     97  F   UNL     1      12.846  18.807  -4.019  1.00  0.00    -0.206 F 
ATOM     98  C   UNL     1      12.208  21.613  -1.821  1.00  0.00     0.006 A 
ENDBRANCH  74  91
ENDBRANCH  48  49
ENDBRANCH  41  43
ENDBRANCH  40  41
ENDBRANCH  39  40
ENDBRANCH  38  39
ENDBRANCH  37  38
ENDBRANCH   1  37
TORSDOF 22
