REMARK SMILES O=C(Cc1ccccc1-c1ccn(C(F)F)c(=O)c1)OCCOCCOC(=O)c1ccc(-c2c3nc(c(-c4c(F)cccc4F)c4ccc([nH]4)c(-c4c(F)cccc4F)c4nc(c(-c5c(F)cccc5F)c5ccc2[nH]5)C=C4)C=C3)cc1
REMARK SMILES IDX 22 1 21 2 20 3 2 4 1 5 3 6 4 7 5 8 9 9 6 10 8 11 7 12 10 13
REMARK SMILES IDX 11 14 19 15 12 16 17 17 13 18 18 19 14 20 15 21 16 22 23 23
REMARK SMILES IDX 24 24 25 25 26 26 27 27 28 28 29 29 30 30 82 31 31 32 81 33
REMARK SMILES IDX 32 34 33 35 34 36 75 37 35 38 80 39 74 40 76 41 36 42 79 43
REMARK SMILES IDX 73 44 72 45 37 47 63 48 46 49 62 50 47 51 50 52 61 53 77 54
REMARK SMILES IDX 48 55 49 56 60 58 78 59 51 60 38 61 39 62 44 63 40 64 41 65
REMARK SMILES IDX 43 66 45 67 42 68 64 69 65 70 70 71 66 72 67 73 69 74 71 75
REMARK SMILES IDX 68 76 52 77 53 78 58 79 54 80 55 81 57 82 59 83 56 84
REMARK H PARENT 76 46 50 57
REMARK Flexibility Score: inf
ROOT
ATOM      1  C   UNL     1       4.213   0.248   1.834  1.00  0.00     0.202 C 
ENDROOT
BRANCH   1   2
ATOM      2  C   UNL     1       3.383   0.875   0.712  1.00  0.00     0.261 C 
BRANCH   2   3
ATOM      3  O   UNL     1       2.140   0.240   0.406  1.00  0.00    -0.463 OA
BRANCH   3   4
ATOM      4  C   UNL     1       2.102  -0.471  -0.754  1.00  0.00     0.310 C 
ATOM      5  O   UNL     1       1.326  -0.199  -1.660  1.00  0.00    -0.252 OA
BRANCH   4   6
ATOM      6  C   UNL     1       2.886  -1.743  -0.672  1.00  0.00     0.158 C 
BRANCH   6   7
ATOM      7  C   UNL     1       3.917  -2.122  -1.719  1.00  0.00    -0.029 A 
ATOM      8  C   UNL     1       4.133  -3.520  -1.784  1.00  0.00     0.005 A 
ATOM      9  C   UNL     1       4.762  -1.284  -2.490  1.00  0.00    -0.014 A 
ATOM     10  C   UNL     1       5.144  -4.077  -2.559  1.00  0.00     0.000 A 
ATOM     11  C   UNL     1       5.783  -1.869  -3.265  1.00  0.00     0.009 A 
ATOM     12  C   UNL     1       5.977  -3.250  -3.293  1.00  0.00     0.001 A 
BRANCH   9  13
ATOM     13  C   UNL     1       4.707   0.192  -2.545  1.00  0.00    -0.011 A 
ATOM     14  C   UNL     1       5.687   1.048  -1.887  1.00  0.00     0.027 A 
ATOM     15  C   UNL     1       3.705   0.767  -3.233  1.00  0.00     0.080 A 
ATOM     16  C   UNL     1       5.391   2.336  -1.659  1.00  0.00     0.095 A 
ATOM     17  C   UNL     1       3.436   2.223  -3.091  1.00  0.00     0.255 A 
ATOM     18  N   UNL     1       4.213   2.873  -2.146  1.00  0.00    -0.258 N 
ATOM     19  O   UNL     1       2.526   2.735  -3.733  1.00  0.00    -0.269 OA
BRANCH  18  20
ATOM     20  C   UNL     1       3.649   4.071  -1.590  1.00  0.00     0.451 C 
ATOM     21  F   UNL     1       3.418   5.017  -2.525  1.00  0.00    -0.185 F 
ATOM     22  F   UNL     1       2.477   3.794  -0.965  1.00  0.00    -0.185 F 
ENDBRANCH  18  20
ENDBRANCH   9  13
ENDBRANCH   6   7
ENDBRANCH   4   6
ENDBRANCH   3   4
ENDBRANCH   2   3
ENDBRANCH   1   2
BRANCH   1  23
ATOM     23  O   UNL     1       3.543  -0.188   3.004  1.00  0.00    -0.374 OA
BRANCH  23  24
ATOM     24  C   UNL     1       2.397   0.534   3.435  1.00  0.00     0.202 C 
BRANCH  24  25
ATOM     25  C   UNL     1       2.643   1.921   4.035  1.00  0.00     0.261 C 
BRANCH  25  26
ATOM     26  O   UNL     1       3.159   2.888   3.101  1.00  0.00    -0.460 OA
BRANCH  26  27
ATOM     27  C   UNL     1       4.452   3.255   3.265  1.00  0.00     0.338 C 
ATOM     28  O   UNL     1       5.263   2.768   4.037  1.00  0.00    -0.246 OA
BRANCH  27  29
ATOM     29  C   UNL     1       4.809   4.316   2.295  1.00  0.00     0.060 A 
ATOM     30  C   UNL     1       6.087   4.311   1.716  1.00  0.00     0.016 A 
ATOM     31  C   UNL     1       3.925   5.365   2.023  1.00  0.00     0.016 A 
ATOM     32  C   UNL     1       6.495   5.366   0.887  1.00  0.00     0.010 A 
ATOM     33  C   UNL     1       4.337   6.423   1.206  1.00  0.00     0.010 A 
ATOM     34  C   UNL     1       5.632   6.445   0.653  1.00  0.00    -0.014 A 
BRANCH  34  35
ATOM     35  C   UNL     1       6.112   7.712   0.044  1.00  0.00     0.031 A 
ATOM     36  C   UNL     1       6.550   8.803   0.977  1.00  0.00     0.074 A 
ATOM     37  C   UNL     1       6.075   7.944  -1.281  1.00  0.00     0.049 A 
ATOM     38  N   UNL     1       6.841  10.051   0.722  1.00  0.00    -0.248 NA
ATOM     39  C   UNL     1       6.672   8.427   2.395  1.00  0.00     0.031 C 
ATOM     40  C   UNL     1       5.741   6.965  -2.306  1.00  0.00     0.029 A 
ATOM     41  N   UNL     1       6.276   9.106  -1.987  1.00  0.00    -0.354 N 
ATOM     42  C   UNL     1       7.188  10.608   1.945  1.00  0.00     0.074 A 
ATOM     43  C   UNL     1       7.025   9.576   2.946  1.00  0.00     0.031 C 
ATOM     44  C   UNL     1       5.661   7.579  -3.498  1.00  0.00     0.029 A 
ATOM     45  C   UNL     1       5.952   8.998  -3.321  1.00  0.00     0.049 A 
ATOM     46  H   UNL     1       6.617   9.934  -1.579  1.00  0.00     0.167 HD
ATOM     47  C   UNL     1       7.616  11.863   2.211  1.00  0.00     0.037 A 
ATOM     48  C   UNL     1       5.877   9.942  -4.280  1.00  0.00     0.037 A 
ATOM     49  C   UNL     1       7.739  12.899   1.224  1.00  0.00     0.049 A 
ATOM     50  C   UNL     1       6.243  11.363  -3.947  1.00  0.00     0.074 A 
ATOM     51  C   UNL     1       8.166  14.204   1.390  1.00  0.00     0.029 A 
ATOM     52  N   UNL     1       7.410  12.750  -0.116  1.00  0.00    -0.354 N 
ATOM     53  N   UNL     1       6.620  11.871  -2.799  1.00  0.00    -0.248 NA
ATOM     54  C   UNL     1       6.197  12.339  -5.047  1.00  0.00     0.031 C 
ATOM     55  C   UNL     1       8.049  14.859   0.159  1.00  0.00     0.029 A 
ATOM     56  C   UNL     1       7.603  13.946  -0.784  1.00  0.00     0.049 A 
ATOM     57  H   UNL     1       7.088  11.917  -0.529  1.00  0.00     0.167 HD
ATOM     58  C   UNL     1       6.909  13.208  -3.048  1.00  0.00     0.074 A 
ATOM     59  C   UNL     1       6.649  13.436  -4.454  1.00  0.00     0.031 C 
ATOM     60  C   UNL     1       7.366  14.153  -2.191  1.00  0.00     0.037 A 
BRANCH  47  61
ATOM     61  C   UNL     1       7.944  12.169   3.642  1.00  0.00     0.057 A 
ATOM     62  C   UNL     1       9.057  11.604   4.280  1.00  0.00     0.134 A 
ATOM     63  C   UNL     1       7.114  13.001   4.402  1.00  0.00     0.134 A 
ATOM     64  F   UNL     1       9.877  10.779   3.611  1.00  0.00    -0.206 F 
ATOM     65  C   UNL     1       9.308  11.820   5.635  1.00  0.00     0.040 A 
ATOM     66  C   UNL     1       7.371  13.248   5.751  1.00  0.00     0.040 A 
ATOM     67  F   UNL     1       6.032  13.571   3.853  1.00  0.00    -0.206 F 
ATOM     68  C   UNL     1       8.464  12.646   6.374  1.00  0.00     0.006 A 
ENDBRANCH  47  61
BRANCH  48  69
ATOM     69  C   UNL     1       5.447   9.576  -5.655  1.00  0.00     0.057 A 
ATOM     70  C   UNL     1       6.357   9.554  -6.718  1.00  0.00     0.134 A 
ATOM     71  C   UNL     1       4.113   9.262  -5.943  1.00  0.00     0.134 A 
ATOM     72  F   UNL     1       7.644   9.870  -6.509  1.00  0.00    -0.206 F 
ATOM     73  C   UNL     1       5.955   9.249  -8.020  1.00  0.00     0.040 A 
ATOM     74  C   UNL     1       3.701   8.934  -7.236  1.00  0.00     0.040 A 
ATOM     75  F   UNL     1       3.190   9.274  -4.970  1.00  0.00    -0.206 F 
ATOM     76  C   UNL     1       4.624   8.934  -8.281  1.00  0.00     0.006 A 
ENDBRANCH  48  69
BRANCH  60  77
ATOM     77  C   UNL     1       7.689  15.507  -2.752  1.00  0.00     0.057 A 
ATOM     78  C   UNL     1       6.694  16.418  -3.125  1.00  0.00     0.134 A 
ATOM     79  C   UNL     1       9.022  15.930  -2.842  1.00  0.00     0.134 A 
ATOM     80  F   UNL     1       5.400  16.072  -3.073  1.00  0.00    -0.206 F 
ATOM     81  C   UNL     1       7.015  17.700  -3.577  1.00  0.00     0.040 A 
ATOM     82  C   UNL     1       9.354  17.216  -3.268  1.00  0.00     0.040 A 
ATOM     83  F   UNL     1      10.023  15.107  -2.492  1.00  0.00    -0.206 F 
ATOM     84  C   UNL     1       8.348  18.105  -3.638  1.00  0.00     0.006 A 
ENDBRANCH  60  77
ENDBRANCH  34  35
ENDBRANCH  27  29
ENDBRANCH  26  27
ENDBRANCH  25  26
ENDBRANCH  24  25
ENDBRANCH  23  24
ENDBRANCH   1  23
TORSDOF 17
