REMARK SMILES Cc1ccccc1OCc1nc2cc(C(=O)OCCOCCOC(=O)c3ccc(-c4c5nc(c(-c6c(F)cccc6F)c6ccc([nH]6)c(-c6c(F)cccc6F)c6nc(c(-c7c(F)cccc7F)c7ccc4[nH]7)C=C6)C=C5)cc3)ccc2n1C[C@H](C)O
REMARK SMILES IDX 19 1 18 2 17 3 15 4 16 5 14 6 10 7 11 8 83 9 12 10 82 11
REMARK SMILES IDX 13 12 81 13 80 14 9 15 8 16 7 17 1 18 2 19 3 20 4 21 6 22
REMARK SMILES IDX 5 23 84 24 85 25 86 26 87 27 20 29 21 30 22 31 23 32 24 33
REMARK SMILES IDX 25 34 26 35 27 36 79 37 28 38 78 39 29 40 30 41 31 42 72 43
REMARK SMILES IDX 32 44 77 45 71 46 73 47 33 48 76 49 70 50 69 51 34 53 60 54
REMARK SMILES IDX 43 55 59 56 44 57 47 58 58 59 74 60 45 61 46 62 57 64 75 65
REMARK SMILES IDX 48 66 35 67 36 68 41 69 37 70 38 71 40 72 42 73 39 74 61 75
REMARK SMILES IDX 62 76 67 77 63 78 64 79 66 80 68 81 65 82 49 83 50 84 55 85
REMARK SMILES IDX 51 86 52 87 54 88 56 89 53 90
REMARK H PARENT 87 28 73 52 47 63
REMARK Flexibility Score: inf
ROOT
ATOM      1  C   UNL     1      -3.465   3.762   0.723  1.00  0.00     0.202 C 
ENDROOT
BRANCH   1   2
ATOM      2  C   UNL     1      -2.451   3.455   1.816  1.00  0.00     0.261 C 
BRANCH   2   3
ATOM      3  O   UNL     1      -2.209   2.054   1.756  1.00  0.00    -0.460 OA
BRANCH   3   4
ATOM      4  C   UNL     1      -3.301   1.245   1.960  1.00  0.00     0.338 C 
ATOM      5  O   UNL     1      -4.260   1.399   2.624  1.00  0.00    -0.246 OA
BRANCH   4   6
ATOM      6  C   UNL     1      -2.919   0.052   1.176  1.00  0.00     0.062 A 
ATOM      7  C   UNL     1      -0.199  -1.472  -1.939  1.00  0.00     0.148 A 
ATOM      8  N   UNL     1      -1.435  -0.979  -2.116  1.00  0.00    -0.229 NA
ATOM      9  N   UNL     1       0.326  -0.767  -0.896  1.00  0.00    -0.322 N 
ATOM     10  C   UNL     1      -1.787  -0.527  -0.842  1.00  0.00     0.090 A 
ATOM     11  C   UNL     1      -0.716  -0.789   0.002  1.00  0.00     0.068 A 
ATOM     12  C   UNL     1      -2.896   0.086  -0.244  1.00  0.00     0.046 A 
ATOM     13  C   UNL     1      -0.917  -1.169   1.329  1.00  0.00     0.029 A 
ATOM     14  C   UNL     1      -2.086  -0.760   1.922  1.00  0.00     0.018 A 
BRANCH   7  15
ATOM     15  C   UNL     1       0.386  -2.865  -2.057  1.00  0.00     0.304 C 
BRANCH  15  16
ATOM     16  O   UNL     1       0.562  -3.302  -0.666  1.00  0.00    -0.485 OA
BRANCH  16  17
ATOM     17  C   UNL     1       1.789  -3.741  -0.241  1.00  0.00     0.122 A 
ATOM     18  C   UNL     1       2.180  -1.911   1.618  1.00  0.00     0.048 C 
ATOM     19  C   UNL     1       2.498  -3.153   0.841  1.00  0.00    -0.009 A 
ATOM     20  C   UNL     1       3.624  -3.810   1.363  1.00  0.00     0.007 A 
ATOM     21  C   UNL     1       4.039  -5.027   0.857  1.00  0.00     0.001 A 
ATOM     22  C   UNL     1       2.231  -4.962  -0.754  1.00  0.00     0.047 A 
ATOM     23  C   UNL     1       3.344  -5.601  -0.201  1.00  0.00     0.004 A 
ENDBRANCH  16  17
ENDBRANCH  15  16
ENDBRANCH   7  15
BRANCH   9  24
ATOM     24  C   UNL     1       1.425   0.181  -1.025  1.00  0.00     0.155 C 
BRANCH  24  25
ATOM     25  C   UNL     1       2.762  -0.395  -1.525  1.00  0.00     0.131 C 
ATOM     26  C   UNL     1       3.945   0.264  -0.823  1.00  0.00     0.040 C 
BRANCH  25  27
ATOM     27  O   UNL     1       2.886  -0.164  -2.931  1.00  0.00    -0.392 OA
ATOM     28  H   UNL     1       2.878   0.790  -3.104  1.00  0.00     0.211 HD
ENDBRANCH  25  27
ENDBRANCH  24  25
ENDBRANCH   9  24
ENDBRANCH   4   6
ENDBRANCH   3   4
ENDBRANCH   2   3
ENDBRANCH   1   2
BRANCH   1  29
ATOM     29  O   UNL     1      -4.729   3.833   1.369  1.00  0.00    -0.374 OA
BRANCH  29  30
ATOM     30  C   UNL     1      -5.856   3.527   0.564  1.00  0.00     0.202 C 
BRANCH  30  31
ATOM     31  C   UNL     1      -6.083   4.580  -0.520  1.00  0.00     0.261 C 
BRANCH  31  32
ATOM     32  O   UNL     1      -5.920   5.883   0.075  1.00  0.00    -0.460 OA
BRANCH  32  33
ATOM     33  C   UNL     1      -5.000   6.671  -0.536  1.00  0.00     0.338 C 
ATOM     34  O   UNL     1      -4.870   6.790  -1.745  1.00  0.00    -0.246 OA
BRANCH  33  35
ATOM     35  C   UNL     1      -3.985   7.161   0.448  1.00  0.00     0.060 A 
ATOM     36  C   UNL     1      -2.852   7.829  -0.029  1.00  0.00     0.016 A 
ATOM     37  C   UNL     1      -3.992   6.710   1.767  1.00  0.00     0.016 A 
ATOM     38  C   UNL     1      -1.714   7.968   0.782  1.00  0.00     0.010 A 
ATOM     39  C   UNL     1      -2.821   6.751   2.522  1.00  0.00     0.010 A 
ATOM     40  C   UNL     1      -1.654   7.377   2.054  1.00  0.00    -0.014 A 
BRANCH  40  41
ATOM     41  C   UNL     1      -0.426   7.365   2.930  1.00  0.00     0.031 A 
ATOM     42  C   UNL     1      -0.693   7.182   4.397  1.00  0.00     0.074 A 
ATOM     43  C   UNL     1       0.793   7.166   2.382  1.00  0.00     0.049 A 
ATOM     44  N   UNL     1      -0.466   6.116   5.096  1.00  0.00    -0.248 NA
ATOM     45  C   UNL     1      -1.578   8.128   5.074  1.00  0.00     0.031 C 
ATOM     46  C   UNL     1       2.119   6.963   2.968  1.00  0.00     0.029 A 
ATOM     47  N   UNL     1       0.970   6.780   1.058  1.00  0.00    -0.354 N 
ATOM     48  C   UNL     1      -1.228   6.194   6.274  1.00  0.00     0.074 A 
ATOM     49  C   UNL     1      -1.907   7.463   6.189  1.00  0.00     0.031 C 
ATOM     50  C   UNL     1       2.851   6.239   2.092  1.00  0.00     0.029 A 
ATOM     51  C   UNL     1       1.949   5.798   1.037  1.00  0.00     0.049 A 
ATOM     52  H   UNL     1       0.489   7.139   0.278  1.00  0.00     0.167 HD
ATOM     53  C   UNL     1      -1.217   5.200   7.225  1.00  0.00     0.037 A 
ATOM     54  C   UNL     1       1.599   4.517   0.728  1.00  0.00     0.037 A 
ATOM     55  C   UNL     1      -0.275   4.163   6.899  1.00  0.00     0.049 A 
ATOM     56  C   UNL     1       2.072   3.651   1.945  1.00  0.00     0.074 A 
ATOM     57  C   UNL     1      -0.219   2.791   6.768  1.00  0.00     0.029 A 
ATOM     58  N   UNL     1       0.989   4.625   6.669  1.00  0.00    -0.354 N 
ATOM     59  N   UNL     1       1.667   3.767   3.201  1.00  0.00    -0.248 NA
ATOM     60  C   UNL     1       3.421   3.058   1.887  1.00  0.00     0.031 C 
ATOM     61  C   UNL     1       1.072   2.483   6.247  1.00  0.00     0.029 A 
ATOM     62  C   UNL     1       1.732   3.682   6.050  1.00  0.00     0.049 A 
ATOM     63  H   UNL     1       1.313   5.521   6.919  1.00  0.00     0.167 HD
ATOM     64  C   UNL     1       2.828   3.673   4.027  1.00  0.00     0.074 A 
ATOM     65  C   UNL     1       3.865   3.209   3.144  1.00  0.00     0.031 C 
ATOM     66  C   UNL     1       2.903   4.102   5.339  1.00  0.00     0.037 A 
BRANCH  53  67
ATOM     67  C   UNL     1      -1.915   5.135   8.564  1.00  0.00     0.057 A 
ATOM     68  C   UNL     1      -1.332   4.392   9.624  1.00  0.00     0.134 A 
ATOM     69  C   UNL     1      -3.163   5.692   8.856  1.00  0.00     0.134 A 
ATOM     70  F   UNL     1      -0.114   3.840   9.510  1.00  0.00    -0.206 F 
ATOM     71  C   UNL     1      -1.958   4.189  10.859  1.00  0.00     0.040 A 
ATOM     72  C   UNL     1      -3.780   5.537  10.111  1.00  0.00     0.040 A 
ATOM     73  F   UNL     1      -3.852   6.380   7.937  1.00  0.00    -0.206 F 
ATOM     74  C   UNL     1      -3.188   4.770  11.110  1.00  0.00     0.006 A 
ENDBRANCH  53  67
BRANCH  54  75
ATOM     75  C   UNL     1       0.516   4.345  -0.363  1.00  0.00     0.057 A 
ATOM     76  C   UNL     1      -0.174   3.169  -0.647  1.00  0.00     0.134 A 
ATOM     77  C   UNL     1       0.137   5.405  -1.252  1.00  0.00     0.134 A 
ATOM     78  F   UNL     1       0.028   2.099   0.119  1.00  0.00    -0.206 F 
ATOM     79  C   UNL     1      -1.126   3.045  -1.702  1.00  0.00     0.040 A 
ATOM     80  C   UNL     1      -0.914   5.344  -2.189  1.00  0.00     0.040 A 
ATOM     81  F   UNL     1       0.807   6.570  -1.291  1.00  0.00    -0.206 F 
ATOM     82  C   UNL     1      -1.538   4.145  -2.443  1.00  0.00     0.006 A 
ENDBRANCH  54  75
BRANCH  66  83
ATOM     83  C   UNL     1       4.017   4.928   6.086  1.00  0.00     0.057 A 
ATOM     84  C   UNL     1       5.248   5.302   5.526  1.00  0.00     0.134 A 
ATOM     85  C   UNL     1       3.823   5.514   7.385  1.00  0.00     0.134 A 
ATOM     86  F   UNL     1       5.589   4.927   4.289  1.00  0.00    -0.206 F 
ATOM     87  C   UNL     1       6.198   6.119   6.195  1.00  0.00     0.040 A 
ATOM     88  C   UNL     1       4.747   6.351   8.046  1.00  0.00     0.040 A 
ATOM     89  F   UNL     1       2.694   5.361   8.089  1.00  0.00    -0.206 F 
ATOM     90  C   UNL     1       5.955   6.647   7.456  1.00  0.00     0.006 A 
ENDBRANCH  66  83
ENDBRANCH  40  41
ENDBRANCH  33  35
ENDBRANCH  32  33
ENDBRANCH  31  32
ENDBRANCH  30  31
ENDBRANCH  29  30
ENDBRANCH   1  29
TORSDOF 20
