REMARK SMILES Cc1nn2c(nnc3c(=O)n(CCCC(=O)OCCOCCOC(=O)c4ccc(-c5c6nc(c(-c7c(F)cccc7F)c7ccc([nH]7)c(-c7c(F)cccc7F)c7nc(c(-c8c(F)cccc8F)c8ccc5[nH]8)C=C7)C=C6)cc4)ccc32)c1-c1ccc(F)cc1
REMARK SMILES IDX 19 1 18 2 17 3 15 4 16 5 14 6 13 7 12 8 11 9 1 10 2 11 3 12
REMARK SMILES IDX 83 13 4 14 5 15 82 16 6 17 8 18 81 19 7 20 9 21 80 22 10 23
REMARK SMILES IDX 84 24 85 25 90 26 86 27 89 28 87 29 88 30 20 31 21 32 22 33
REMARK SMILES IDX 23 34 24 35 25 36 26 37 27 38 79 39 28 40 78 41 29 42 30 43
REMARK SMILES IDX 31 44 72 45 32 46 77 47 71 48 73 49 33 50 76 51 70 52 69 53
REMARK SMILES IDX 34 55 60 56 43 57 59 58 44 59 47 60 58 61 74 62 45 63 46 64
REMARK SMILES IDX 57 66 75 67 48 68 35 69 36 70 41 71 37 72 38 73 40 74 42 75
REMARK SMILES IDX 39 76 61 77 62 78 67 79 63 80 64 81 66 82 68 83 65 84 49 85
REMARK SMILES IDX 50 86 55 87 51 88 52 89 54 90 56 91 53 92
REMARK H PARENT 73 54 47 65
REMARK Flexibility Score: inf
ROOT
ATOM      1  C   UNL     1      -0.006  -4.302  11.556  1.00  0.00     0.202 C 
ENDROOT
BRANCH   1   2
ATOM      2  C   UNL     1       0.149  -4.298  10.043  1.00  0.00     0.261 C 
BRANCH   2   3
ATOM      3  O   UNL     1      -0.965  -3.624   9.459  1.00  0.00    -0.463 OA
BRANCH   3   4
ATOM      4  C   UNL     1      -1.826  -4.395   8.749  1.00  0.00     0.305 C 
ATOM      5  O   UNL     1      -1.754  -5.612   8.632  1.00  0.00    -0.252 OA
BRANCH   4   6
ATOM      6  C   UNL     1      -2.986  -3.590   8.181  1.00  0.00     0.124 C 
BRANCH   6   7
ATOM      7  C   UNL     1      -3.186  -2.109   8.554  1.00  0.00     0.034 C 
BRANCH   7   8
ATOM      8  C   UNL     1      -2.024  -1.106   8.417  1.00  0.00     0.126 C 
BRANCH   8   9
ATOM      9  N   UNL     1      -1.508  -0.986   7.057  1.00  0.00    -0.313 N 
ATOM     10  C   UNL     1       0.881   0.207  -0.082  1.00  0.00     0.069 C 
ATOM     11  C   UNL     1       0.496  -0.566   1.121  1.00  0.00     0.070 A 
ATOM     12  N   UNL     1      -0.022   0.047   2.196  1.00  0.00    -0.170 NA
ATOM     13  C   UNL     1       0.594  -1.962   1.293  1.00  0.00     0.051 A 
ATOM     14  N   UNL     1      -0.206  -0.952   3.103  1.00  0.00    -0.210 N 
ATOM     15  C   UNL     1       0.168  -2.184   2.575  1.00  0.00     0.186 A 
ATOM     16  C   UNL     1      -0.641  -0.890   4.424  1.00  0.00     0.102 A 
ATOM     17  N   UNL     1       0.094  -3.326   3.310  1.00  0.00    -0.129 NA
ATOM     18  C   UNL     1      -0.574  -2.057   5.082  1.00  0.00     0.177 A 
ATOM     19  C   UNL     1      -1.124   0.302   5.100  1.00  0.00     0.049 A 
ATOM     20  N   UNL     1      -0.226  -3.261   4.514  1.00  0.00    -0.141 NA
ATOM     21  C   UNL     1      -0.787  -2.052   6.534  1.00  0.00     0.280 A 
ATOM     22  C   UNL     1      -1.600   0.206   6.354  1.00  0.00     0.091 A 
ATOM     23  O   UNL     1      -0.320  -2.982   7.177  1.00  0.00    -0.267 OA
BRANCH  13  24
ATOM     24  C   UNL     1       1.041  -3.033   0.434  1.00  0.00    -0.012 A 
ATOM     25  C   UNL     1       2.351  -3.053  -0.055  1.00  0.00     0.012 A 
ATOM     26  C   UNL     1       0.160  -4.081   0.122  1.00  0.00     0.012 A 
ATOM     27  C   UNL     1       2.766  -4.103  -0.875  1.00  0.00     0.040 A 
ATOM     28  C   UNL     1       0.576  -5.123  -0.704  1.00  0.00     0.040 A 
ATOM     29  C   UNL     1       1.873  -5.120  -1.199  1.00  0.00     0.123 A 
ATOM     30  F   UNL     1       2.272  -6.116  -2.002  1.00  0.00    -0.207 F 
ENDBRANCH  13  24
ENDBRANCH   8   9
ENDBRANCH   7   8
ENDBRANCH   6   7
ENDBRANCH   4   6
ENDBRANCH   3   4
ENDBRANCH   2   3
ENDBRANCH   1   2
BRANCH   1  31
ATOM     31  O   UNL     1      -1.232  -4.777  12.120  1.00  0.00    -0.374 OA
BRANCH  31  32
ATOM     32  C   UNL     1      -2.478  -4.145  11.840  1.00  0.00     0.202 C 
BRANCH  32  33
ATOM     33  C   UNL     1      -2.755  -2.754  12.384  1.00  0.00     0.261 C 
BRANCH  33  34
ATOM     34  O   UNL     1      -1.728  -1.845  12.037  1.00  0.00    -0.460 OA
BRANCH  34  35
ATOM     35  C   UNL     1      -0.795  -1.732  13.025  1.00  0.00     0.338 C 
ATOM     36  O   UNL     1      -0.670  -2.399  14.014  1.00  0.00    -0.246 OA
BRANCH  35  37
ATOM     37  C   UNL     1      -0.015  -0.519  12.761  1.00  0.00     0.060 A 
ATOM     38  C   UNL     1       1.044  -0.262  13.627  1.00  0.00     0.016 A 
ATOM     39  C   UNL     1      -0.757   0.518  12.255  1.00  0.00     0.016 A 
ATOM     40  C   UNL     1       0.975   0.898  14.396  1.00  0.00     0.010 A 
ATOM     41  C   UNL     1      -0.662   1.697  12.930  1.00  0.00     0.010 A 
ATOM     42  C   UNL     1      -0.087   1.794  14.197  1.00  0.00    -0.014 A 
BRANCH  42  43
ATOM     43  C   UNL     1      -0.176   3.125  14.858  1.00  0.00     0.031 A 
ATOM     44  C   UNL     1       0.964   3.921  14.213  1.00  0.00     0.074 A 
ATOM     45  C   UNL     1      -1.121   3.530  15.796  1.00  0.00     0.049 A 
ATOM     46  N   UNL     1       2.182   3.945  14.672  1.00  0.00    -0.248 NA
ATOM     47  C   UNL     1       0.959   4.328  12.772  1.00  0.00     0.031 C 
ATOM     48  C   UNL     1      -2.287   2.837  16.419  1.00  0.00     0.029 A 
ATOM     49  N   UNL     1      -1.239   4.758  16.465  1.00  0.00    -0.354 N 
ATOM     50  C   UNL     1       2.903   4.741  13.779  1.00  0.00     0.074 A 
ATOM     51  C   UNL     1       2.247   4.594  12.529  1.00  0.00     0.031 C 
ATOM     52  C   UNL     1      -3.123   3.720  17.053  1.00  0.00     0.029 A 
ATOM     53  C   UNL     1      -2.527   5.043  17.053  1.00  0.00     0.049 A 
ATOM     54  H   UNL     1      -0.486   5.389  16.529  1.00  0.00     0.167 HD
ATOM     55  C   UNL     1       3.573   5.824  14.267  1.00  0.00     0.037 A 
ATOM     56  C   UNL     1      -2.962   6.239  17.613  1.00  0.00     0.037 A 
ATOM     57  C   UNL     1       3.740   5.631  15.690  1.00  0.00     0.049 A 
ATOM     58  C   UNL     1      -1.738   7.041  17.878  1.00  0.00     0.074 A 
ATOM     59  C   UNL     1       4.356   4.696  16.493  1.00  0.00     0.029 A 
ATOM     60  N   UNL     1       2.713   6.168  16.414  1.00  0.00    -0.354 N 
ATOM     61  N   UNL     1      -0.857   6.675  18.767  1.00  0.00    -0.248 NA
ATOM     62  C   UNL     1      -1.248   7.772  16.716  1.00  0.00     0.031 C 
ATOM     63  C   UNL     1       3.462   4.485  17.587  1.00  0.00     0.029 A 
ATOM     64  C   UNL     1       2.444   5.433  17.526  1.00  0.00     0.049 A 
ATOM     65  H   UNL     1       2.227   6.986  16.162  1.00  0.00     0.167 HD
ATOM     66  C   UNL     1       0.317   6.617  18.036  1.00  0.00     0.074 A 
ATOM     67  C   UNL     1       0.004   7.302  16.765  1.00  0.00     0.031 C 
ATOM     68  C   UNL     1       1.297   5.713  18.347  1.00  0.00     0.037 A 
BRANCH  55  69
ATOM     69  C   UNL     1       3.479   7.242  13.686  1.00  0.00     0.057 A 
ATOM     70  C   UNL     1       2.542   7.708  12.736  1.00  0.00     0.134 A 
ATOM     71  C   UNL     1       4.161   8.266  14.374  1.00  0.00     0.134 A 
ATOM     72  F   UNL     1       1.783   6.898  11.992  1.00  0.00    -0.206 F 
ATOM     73  C   UNL     1       2.259   9.067  12.540  1.00  0.00     0.040 A 
ATOM     74  C   UNL     1       3.852   9.625  14.219  1.00  0.00     0.040 A 
ATOM     75  F   UNL     1       5.096   7.970  15.290  1.00  0.00    -0.206 F 
ATOM     76  C   UNL     1       2.888  10.030  13.308  1.00  0.00     0.006 A 
ENDBRANCH  55  69
BRANCH  56  77
ATOM     77  C   UNL     1      -4.292   6.971  17.594  1.00  0.00     0.057 A 
ATOM     78  C   UNL     1      -5.174   6.715  16.539  1.00  0.00     0.134 A 
ATOM     79  C   UNL     1      -4.603   8.144  18.339  1.00  0.00     0.134 A 
ATOM     80  F   UNL     1      -4.939   5.695  15.704  1.00  0.00    -0.206 F 
ATOM     81  C   UNL     1      -6.266   7.544  16.223  1.00  0.00     0.040 A 
ATOM     82  C   UNL     1      -5.713   8.978  18.044  1.00  0.00     0.040 A 
ATOM     83  F   UNL     1      -3.805   8.565  19.334  1.00  0.00    -0.206 F 
ATOM     84  C   UNL     1      -6.543   8.682  16.970  1.00  0.00     0.006 A 
ENDBRANCH  56  77
BRANCH  68  85
ATOM     85  C   UNL     1       1.189   4.956  19.640  1.00  0.00     0.057 A 
ATOM     86  C   UNL     1       2.189   5.191  20.587  1.00  0.00     0.134 A 
ATOM     87  C   UNL     1       0.251   3.957  19.947  1.00  0.00     0.134 A 
ATOM     88  F   UNL     1       3.188   6.044  20.309  1.00  0.00    -0.206 F 
ATOM     89  C   UNL     1       2.223   4.530  21.810  1.00  0.00     0.040 A 
ATOM     90  C   UNL     1       0.250   3.308  21.191  1.00  0.00     0.040 A 
ATOM     91  F   UNL     1      -0.644   3.542  19.040  1.00  0.00    -0.206 F 
ATOM     92  C   UNL     1       1.229   3.613  22.134  1.00  0.00     0.006 A 
ENDBRANCH  68  85
ENDBRANCH  42  43
ENDBRANCH  35  37
ENDBRANCH  34  35
ENDBRANCH  33  34
ENDBRANCH  32  33
ENDBRANCH  31  32
ENDBRANCH   1  31
TORSDOF 18
