REMARK SMILES Cc1ccccc1C(=O)Nc1cc(C(=O)OCCOCCOC(=O)c2ccc(-c3c4nc(c(-c5c(F)cccc5F)c5ccc([nH]5)c(-c5c(F)cccc5F)c5nc(c(-c6c(F)cccc6F)c6ccc3[nH]6)C=C5)C=C4)cc2)ccc1N1CC[NH+](CC(=O)Nc2ccc(F)cc2)CC1
REMARK SMILES IDX 18 1 17 2 16 3 14 4 15 5 13 6 11 7 12 8 81 9 80 10 79 11
REMARK SMILES IDX 10 12 8 13 9 14 7 16 1 17 2 18 3 19 4 20 6 21 5 22 82 23
REMARK SMILES IDX 83 24 98 25 84 26 97 27 85 28 86 30 87 31 88 32 89 33 90 35
REMARK SMILES IDX 91 36 96 37 92 38 95 39 93 40 94 41 19 42 20 43 21 44 22 45
REMARK SMILES IDX 23 46 24 47 25 48 26 49 78 50 27 51 77 52 28 53 29 54 30 55
REMARK SMILES IDX 71 56 31 57 76 58 70 59 72 60 32 61 75 62 69 63 68 64 33 66
REMARK SMILES IDX 59 67 42 68 58 69 43 70 46 71 57 72 73 73 44 74 45 75 56 77
REMARK SMILES IDX 74 78 47 79 34 80 35 81 40 82 36 83 37 84 39 85 41 86 38 87
REMARK SMILES IDX 60 88 61 89 66 90 62 91 63 92 65 93 67 94 64 95 48 96 49 97
REMARK SMILES IDX 54 98 50 99 51 100 53 101 55 102 52 103
REMARK H PARENT 10 15 85 29 89 34 72 65 46 76
REMARK Flexibility Score: inf
ROOT
ATOM      1  C   UNL     1       3.438  -1.241  -3.952  1.00  0.00     0.202 C 
ENDROOT
BRANCH   1   2
ATOM      2  C   UNL     1       2.214  -1.569  -3.145  1.00  0.00     0.261 C 
BRANCH   2   3
ATOM      3  O   UNL     1       2.345  -1.747  -1.714  1.00  0.00    -0.460 OA
BRANCH   3   4
ATOM      4  C   UNL     1       3.560  -1.980  -1.172  1.00  0.00     0.338 C 
ATOM      5  O   UNL     1       3.917  -3.060  -0.691  1.00  0.00    -0.246 OA
BRANCH   4   6
ATOM      6  C   UNL     1       4.275  -0.711  -0.921  1.00  0.00     0.062 A 
ATOM      7  C   UNL     1       4.027   1.639  -0.574  1.00  0.00     0.065 A 
ATOM      8  C   UNL     1       3.579   0.468  -1.134  1.00  0.00     0.044 A 
ATOM      9  C   UNL     1       5.272   1.736   0.109  1.00  0.00     0.061 A 
ATOM     10  C   UNL     1       6.028   0.551   0.190  1.00  0.00     0.029 A 
ATOM     11  C   UNL     1       5.516  -0.673  -0.281  1.00  0.00     0.018 A 
BRANCH   7  12
ATOM     12  N   UNL     1       3.125   2.699  -0.610  1.00  0.00    -0.320 N 
ATOM     13  C   UNL     1       1.828   2.753  -0.118  1.00  0.00     0.255 C 
ATOM     14  O   UNL     1       1.293   3.868  -0.204  1.00  0.00    -0.269 OA
ATOM     15  H   UNL     1       3.451   3.521  -1.044  1.00  0.00     0.170 HD
BRANCH  13  16
ATOM     16  C   UNL     1       1.042   1.650   0.585  1.00  0.00     0.043 A 
ATOM     17  C   UNL     1       2.805   0.230   1.938  1.00  0.00     0.045 C 
ATOM     18  C   UNL     1       1.440   0.580   1.428  1.00  0.00    -0.038 A 
ATOM     19  C   UNL     1       0.454  -0.285   1.970  1.00  0.00     0.004 A 
ATOM     20  C   UNL     1      -0.902  -0.031   1.840  1.00  0.00     0.000 A 
ATOM     21  C   UNL     1      -0.355   1.859   0.463  1.00  0.00     0.014 A 
ATOM     22  C   UNL     1      -1.308   1.060   1.100  1.00  0.00     0.001 A 
ENDBRANCH  13  16
ENDBRANCH   7  12
BRANCH   9  23
ATOM     23  N   UNL     1       5.620   2.893   0.817  1.00  0.00    -0.359 N 
ATOM     24  C   UNL     1       6.953   3.078   1.457  1.00  0.00     0.178 C 
ATOM     25  C   UNL     1       4.567   3.440   1.680  1.00  0.00     0.178 C 
ATOM     26  C   UNL     1       7.105   4.512   2.094  1.00  0.00     0.284 C 
ATOM     27  C   UNL     1       4.788   4.937   1.839  1.00  0.00     0.284 C 
ATOM     28  N   UNL     1       5.924   5.158   2.716  1.00  0.00    -0.324 N 
ATOM     29  H   UNL     1       6.192   6.138   2.796  1.00  0.00     0.348 HD
BRANCH  28  30
ATOM     30  C   UNL     1       5.600   4.923   4.148  1.00  0.00     0.364 C 
BRANCH  30  31
ATOM     31  C   UNL     1       5.322   3.503   4.659  1.00  0.00     0.279 C 
ATOM     32  O   UNL     1       6.282   2.731   4.816  1.00  0.00    -0.268 OA
ATOM     33  N   UNL     1       4.106   3.006   5.058  1.00  0.00    -0.321 N 
ATOM     34  H   UNL     1       4.242   2.253   5.678  1.00  0.00     0.170 HD
BRANCH  33  35
ATOM     35  C   UNL     1       2.718   3.225   4.867  1.00  0.00     0.041 A 
ATOM     36  C   UNL     1       1.852   2.444   5.658  1.00  0.00     0.029 A 
ATOM     37  C   UNL     1       2.119   4.023   3.897  1.00  0.00     0.029 A 
ATOM     38  C   UNL     1       0.459   2.457   5.476  1.00  0.00     0.041 A 
ATOM     39  C   UNL     1       0.730   4.001   3.666  1.00  0.00     0.041 A 
ATOM     40  C   UNL     1      -0.091   3.225   4.465  1.00  0.00     0.123 A 
ATOM     41  F   UNL     1      -1.415   3.220   4.263  1.00  0.00    -0.207 F 
ENDBRANCH  33  35
ENDBRANCH  30  31
ENDBRANCH  28  30
ENDBRANCH   9  23
ENDBRANCH   4   6
ENDBRANCH   3   4
ENDBRANCH   2   3
ENDBRANCH   1   2
BRANCH   1  42
ATOM     42  O   UNL     1       4.394  -2.251  -3.688  1.00  0.00    -0.374 OA
BRANCH  42  43
ATOM     43  C   UNL     1       5.658  -2.055  -4.295  1.00  0.00     0.202 C 
BRANCH  43  44
ATOM     44  C   UNL     1       5.568  -1.989  -5.825  1.00  0.00     0.261 C 
BRANCH  44  45
ATOM     45  O   UNL     1       5.048  -3.240  -6.327  1.00  0.00    -0.460 OA
BRANCH  45  46
ATOM     46  C   UNL     1       3.746  -3.229  -6.739  1.00  0.00     0.338 C 
ATOM     47  O   UNL     1       3.247  -2.399  -7.473  1.00  0.00    -0.246 OA
BRANCH  46  48
ATOM     48  C   UNL     1       2.948  -4.189  -5.915  1.00  0.00     0.060 A 
ATOM     49  C   UNL     1       1.541  -4.181  -5.996  1.00  0.00     0.016 A 
ATOM     50  C   UNL     1       3.574  -4.798  -4.833  1.00  0.00     0.016 A 
ATOM     51  C   UNL     1       0.768  -4.618  -4.908  1.00  0.00     0.010 A 
ATOM     52  C   UNL     1       2.817  -5.095  -3.722  1.00  0.00     0.010 A 
ATOM     53  C   UNL     1       1.416  -4.972  -3.731  1.00  0.00    -0.014 A 
BRANCH  53  54
ATOM     54  C   UNL     1       0.817  -5.145  -2.403  1.00  0.00     0.031 A 
ATOM     55  C   UNL     1       1.121  -6.420  -1.711  1.00  0.00     0.074 A 
ATOM     56  C   UNL     1       0.368  -4.084  -1.683  1.00  0.00     0.049 A 
ATOM     57  N   UNL     1       0.910  -6.620  -0.465  1.00  0.00    -0.248 NA
ATOM     58  C   UNL     1       1.741  -7.575  -2.355  1.00  0.00     0.031 C 
ATOM     59  C   UNL     1       0.281  -3.952  -0.228  1.00  0.00     0.029 A 
ATOM     60  N   UNL     1      -0.183  -2.865  -2.110  1.00  0.00    -0.354 N 
ATOM     61  C   UNL     1       1.592  -7.738  -0.069  1.00  0.00     0.074 A 
ATOM     62  C   UNL     1       2.054  -8.332  -1.296  1.00  0.00     0.031 C 
ATOM     63  C   UNL     1      -0.609  -3.000   0.086  1.00  0.00     0.029 A 
ATOM     64  C   UNL     1      -1.163  -2.524  -1.162  1.00  0.00     0.049 A 
ATOM     65  H   UNL     1       0.066  -2.352  -2.913  1.00  0.00     0.167 HD
ATOM     66  C   UNL     1       1.715  -7.926   1.275  1.00  0.00     0.037 A 
ATOM     67  C   UNL     1      -2.472  -2.448  -1.499  1.00  0.00     0.037 A 
ATOM     68  C   UNL     1       0.742  -7.061   1.978  1.00  0.00     0.049 A 
ATOM     69  C   UNL     1      -3.185  -3.468  -0.661  1.00  0.00     0.074 A 
ATOM     70  C   UNL     1       0.826  -5.935   2.778  1.00  0.00     0.029 A 
ATOM     71  N   UNL     1      -0.603  -7.153   1.591  1.00  0.00    -0.354 N 
ATOM     72  N   UNL     1      -2.646  -4.618  -0.319  1.00  0.00    -0.248 NA
ATOM     73  C   UNL     1      -4.361  -3.122   0.130  1.00  0.00     0.031 C 
ATOM     74  C   UNL     1      -0.462  -5.302   2.774  1.00  0.00     0.029 A 
ATOM     75  C   UNL     1      -1.331  -6.046   1.981  1.00  0.00     0.049 A 
ATOM     76  H   UNL     1      -0.984  -7.917   1.099  1.00  0.00     0.167 HD
ATOM     77  C   UNL     1      -3.252  -5.045   0.834  1.00  0.00     0.074 A 
ATOM     78  C   UNL     1      -4.349  -4.106   1.044  1.00  0.00     0.031 C 
ATOM     79  C   UNL     1      -2.768  -5.969   1.720  1.00  0.00     0.037 A 
BRANCH  66  80
ATOM     80  C   UNL     1       2.744  -8.805   1.960  1.00  0.00     0.057 A 
ATOM     81  C   UNL     1       2.813  -8.861   3.367  1.00  0.00     0.134 A 
ATOM     82  C   UNL     1       3.750  -9.557   1.316  1.00  0.00     0.134 A 
ATOM     83  F   UNL     1       1.963  -8.170   4.139  1.00  0.00    -0.206 F 
ATOM     84  C   UNL     1       3.776  -9.614   4.063  1.00  0.00     0.040 A 
ATOM     85  C   UNL     1       4.696 -10.339   1.998  1.00  0.00     0.040 A 
ATOM     86  F   UNL     1       3.916  -9.553  -0.008  1.00  0.00    -0.206 F 
ATOM     87  C   UNL     1       4.715 -10.369   3.379  1.00  0.00     0.006 A 
ENDBRANCH  66  80
BRANCH  67  88
ATOM     88  C   UNL     1      -2.638  -1.901  -2.878  1.00  0.00     0.057 A 
ATOM     89  C   UNL     1      -2.286  -0.537  -3.014  1.00  0.00     0.134 A 
ATOM     90  C   UNL     1      -2.480  -2.692  -4.023  1.00  0.00     0.134 A 
ATOM     91  F   UNL     1      -2.430   0.296  -1.970  1.00  0.00    -0.206 F 
ATOM     92  C   UNL     1      -1.617  -0.039  -4.140  1.00  0.00     0.040 A 
ATOM     93  C   UNL     1      -1.834  -2.191  -5.171  1.00  0.00     0.040 A 
ATOM     94  F   UNL     1      -2.780  -3.998  -3.997  1.00  0.00    -0.206 F 
ATOM     95  C   UNL     1      -1.343  -0.886  -5.206  1.00  0.00     0.006 A 
ENDBRANCH  67  88
BRANCH  79  96
ATOM     96  C   UNL     1      -3.704  -6.885   2.476  1.00  0.00     0.057 A 
ATOM     97  C   UNL     1      -5.068  -7.028   2.166  1.00  0.00     0.134 A 
ATOM     98  C   UNL     1      -3.210  -7.810   3.422  1.00  0.00     0.134 A 
ATOM     99  F   UNL     1      -5.662  -6.304   1.208  1.00  0.00    -0.206 F 
ATOM    100  C   UNL     1      -5.888  -7.969   2.792  1.00  0.00     0.040 A 
ATOM    101  C   UNL     1      -4.007  -8.796   4.004  1.00  0.00     0.040 A 
ATOM    102  F   UNL     1      -1.924  -7.835   3.798  1.00  0.00    -0.206 F 
ATOM    103  C   UNL     1      -5.356  -8.867   3.703  1.00  0.00     0.006 A 
ENDBRANCH  79  96
ENDBRANCH  53  54
ENDBRANCH  46  48
ENDBRANCH  45  46
ENDBRANCH  44  45
ENDBRANCH  43  44
ENDBRANCH  42  43
ENDBRANCH   1  42
TORSDOF 20
