REMARK SMILES Nc1nc(Nc2ccc(C(=O)OCCOCCOC(=O)c3ccc(-c4c5nc(c(-c6c(F)cccc6F)c6ccc([nH]6)c(-c6c(F)cccc6F)c6nc(c(-c7c(F)cccc7F)c7ccc4[nH]7)C=C6)C=C5)cc3)cc2)ccc1[N+](=O)[O-]
REMARK SMILES IDX 14 1 13 2 12 3 10 4 11 5 9 6 6 7 7 8 76 9 8 10 75 11 5 12
REMARK SMILES IDX 4 14 2 15 3 16 79 17 78 18 77 19 1 20 80 23 81 24 82 25
REMARK SMILES IDX 15 26 16 27 17 28 18 29 19 30 20 31 21 32 22 33 74 34 23 35
REMARK SMILES IDX 73 36 24 37 25 38 26 39 67 40 27 41 72 42 66 43 68 44 28 45
REMARK SMILES IDX 71 46 65 47 64 48 29 50 55 51 38 52 54 53 39 54 42 55 53 56
REMARK SMILES IDX 69 57 40 58 41 59 52 61 70 62 43 63 30 64 31 65 36 66 32 67
REMARK SMILES IDX 33 68 35 69 37 70 34 71 56 72 57 73 62 74 58 75 59 76 61 77
REMARK SMILES IDX 63 78 60 79 44 80 45 81 50 82 46 83 47 84 49 85 51 86 48 87
REMARK H PARENT 5 13 1 21 1 22 68 49 42 60
REMARK Flexibility Score: inf
ROOT
ATOM      1  C   UNL     1       2.651   9.677  -0.123  1.00  0.00     0.202 C 
ENDROOT
BRANCH   1   2
ATOM      2  C   UNL     1       3.395   8.414   0.319  1.00  0.00     0.261 C 
BRANCH   2   3
ATOM      3  O   UNL     1       2.637   7.234   0.007  1.00  0.00    -0.460 OA
BRANCH   3   4
ATOM      4  C   UNL     1       2.114   6.596   1.081  1.00  0.00     0.338 C 
ATOM      5  O   UNL     1       2.340   6.839   2.258  1.00  0.00    -0.246 OA
BRANCH   4   6
ATOM      6  C   UNL     1       1.089   5.619   0.654  1.00  0.00     0.060 A 
ATOM      7  C   UNL     1      -0.798   3.623   0.085  1.00  0.00     0.040 A 
ATOM      8  C   UNL     1      -0.922   4.401   1.242  1.00  0.00     0.027 A 
ATOM      9  C   UNL     1       0.236   3.912  -0.820  1.00  0.00     0.027 A 
ATOM     10  C   UNL     1       0.022   5.386   1.530  1.00  0.00     0.018 A 
ATOM     11  C   UNL     1       1.172   4.914  -0.548  1.00  0.00     0.018 A 
BRANCH   7  12
ATOM     12  N   UNL     1      -1.565   2.444  -0.031  1.00  0.00    -0.340 N 
ATOM     13  H   UNL     1      -2.544   2.529  -0.091  1.00  0.00     0.168 HD
BRANCH  12  14
ATOM     14  C   UNL     1      -1.004   1.151  -0.067  1.00  0.00     0.133 A 
ATOM     15  C   UNL     1       0.907  -0.214  -0.065  1.00  0.00     0.204 A 
ATOM     16  N   UNL     1       0.342   1.009  -0.085  1.00  0.00    -0.207 NA
ATOM     17  C   UNL     1       0.122  -1.358  -0.041  1.00  0.00     0.311 A 
ATOM     18  C   UNL     1      -1.273  -1.232  -0.057  1.00  0.00     0.093 A 
ATOM     19  C   UNL     1      -1.840   0.042  -0.083  1.00  0.00     0.054 A 
BRANCH  15  20
ATOM     20  N   UNL     1       2.280  -0.185  -0.165  1.00  0.00    -0.378 N 
ATOM     21  H   UNL     1       2.755   0.677  -0.174  1.00  0.00     0.158 HD
ATOM     22  H   UNL     1       2.787  -1.027  -0.227  1.00  0.00     0.158 HD
ENDBRANCH  15  20
BRANCH  17  23
ATOM     23  N   UNL     1       0.718  -2.685   0.031  1.00  0.00     0.066 N 
ATOM     24  O   UNL     1       0.000  -3.648  -0.280  1.00  0.00    -0.258 OA
ATOM     25  O   UNL     1       1.886  -2.790   0.436  1.00  0.00    -0.258 OA
ENDBRANCH  17  23
ENDBRANCH  12  14
ENDBRANCH   7  12
ENDBRANCH   4   6
ENDBRANCH   3   4
ENDBRANCH   2   3
ENDBRANCH   1   2
BRANCH   1  26
ATOM     26  O   UNL     1       1.416   9.940   0.543  1.00  0.00    -0.374 OA
BRANCH  26  27
ATOM     27  C   UNL     1       0.261   9.251   0.061  1.00  0.00     0.202 C 
BRANCH  27  28
ATOM     28  C   UNL     1      -0.401   9.846  -1.187  1.00  0.00     0.261 C 
BRANCH  28  29
ATOM     29  O   UNL     1       0.429   9.688  -2.353  1.00  0.00    -0.460 OA
BRANCH  29  30
ATOM     30  C   UNL     1       0.962  10.833  -2.835  1.00  0.00     0.338 C 
ATOM     31  O   UNL     1       0.741  11.974  -2.452  1.00  0.00    -0.246 OA
BRANCH  30  32
ATOM     32  C   UNL     1       2.022  10.523  -3.812  1.00  0.00     0.060 A 
ATOM     33  C   UNL     1       3.267  11.140  -3.633  1.00  0.00     0.016 A 
ATOM     34  C   UNL     1       1.790   9.700  -4.917  1.00  0.00     0.016 A 
ATOM     35  C   UNL     1       4.269  10.979  -4.587  1.00  0.00     0.010 A 
ATOM     36  C   UNL     1       2.795   9.547  -5.879  1.00  0.00     0.010 A 
ATOM     37  C   UNL     1       4.026  10.213  -5.735  1.00  0.00    -0.014 A 
BRANCH  37  38
ATOM     38  C   UNL     1       5.004  10.235  -6.849  1.00  0.00     0.031 A 
ATOM     39  C   UNL     1       4.756  11.147  -8.019  1.00  0.00     0.074 A 
ATOM     40  C   UNL     1       6.118   9.482  -6.803  1.00  0.00     0.049 A 
ATOM     41  N   UNL     1       5.457  11.305  -9.112  1.00  0.00    -0.248 NA
ATOM     42  C   UNL     1       3.558  11.999  -7.943  1.00  0.00     0.031 C 
ATOM     43  C   UNL     1       6.496   8.596  -5.704  1.00  0.00     0.029 A 
ATOM     44  N   UNL     1       7.136   9.346  -7.713  1.00  0.00    -0.354 N 
ATOM     45  C   UNL     1       4.790  12.274  -9.851  1.00  0.00     0.074 A 
ATOM     46  C   UNL     1       3.609  12.642  -9.100  1.00  0.00     0.031 C 
ATOM     47  C   UNL     1       7.663   8.001  -6.007  1.00  0.00     0.029 A 
ATOM     48  C   UNL     1       8.096   8.441  -7.332  1.00  0.00     0.049 A 
ATOM     49  H   UNL     1       7.175   9.849  -8.558  1.00  0.00     0.167 HD
ATOM     50  C   UNL     1       5.136  12.817 -11.043  1.00  0.00     0.037 A 
ATOM     51  C   UNL     1       9.189   8.006  -7.989  1.00  0.00     0.037 A 
ATOM     52  C   UNL     1       6.305  12.447 -11.795  1.00  0.00     0.049 A 
ATOM     53  C   UNL     1       9.500   8.559  -9.355  1.00  0.00     0.074 A 
ATOM     54  C   UNL     1       6.735  12.933 -13.017  1.00  0.00     0.029 A 
ATOM     55  N   UNL     1       7.231  11.496 -11.394  1.00  0.00    -0.354 N 
ATOM     56  N   UNL     1       8.866   9.478 -10.041  1.00  0.00    -0.248 NA
ATOM     57  C   UNL     1      10.681   8.010 -10.037  1.00  0.00     0.031 C 
ATOM     58  C   UNL     1       7.901  12.248 -13.374  1.00  0.00     0.029 A 
ATOM     59  C   UNL     1       8.221  11.368 -12.353  1.00  0.00     0.049 A 
ATOM     60  H   UNL     1       7.190  10.987 -10.552  1.00  0.00     0.167 HD
ATOM     61  C   UNL     1       9.589   9.642 -11.217  1.00  0.00     0.074 A 
ATOM     62  C   UNL     1      10.714   8.734 -11.147  1.00  0.00     0.031 C 
ATOM     63  C   UNL     1       9.344  10.472 -12.260  1.00  0.00     0.037 A 
BRANCH  50  64
ATOM     64  C   UNL     1       4.226  13.865 -11.613  1.00  0.00     0.057 A 
ATOM     65  C   UNL     1       4.167  15.158 -11.076  1.00  0.00     0.134 A 
ATOM     66  C   UNL     1       3.430  13.591 -12.731  1.00  0.00     0.134 A 
ATOM     67  F   UNL     1       4.895  15.479  -9.995  1.00  0.00    -0.206 F 
ATOM     68  C   UNL     1       3.335  16.136 -11.621  1.00  0.00     0.040 A 
ATOM     69  C   UNL     1       2.611  14.568 -13.300  1.00  0.00     0.040 A 
ATOM     70  F   UNL     1       3.442  12.374 -13.295  1.00  0.00    -0.206 F 
ATOM     71  C   UNL     1       2.559  15.844 -12.742  1.00  0.00     0.006 A 
ENDBRANCH  50  64
BRANCH  51  72
ATOM     72  C   UNL     1      10.072   6.980  -7.378  1.00  0.00     0.057 A 
ATOM     73  C   UNL     1      11.376   7.293  -6.977  1.00  0.00     0.134 A 
ATOM     74  C   UNL     1       9.650   5.654  -7.223  1.00  0.00     0.134 A 
ATOM     75  F   UNL     1      11.846   8.540  -7.125  1.00  0.00    -0.206 F 
ATOM     76  C   UNL     1      12.237   6.320  -6.466  1.00  0.00     0.040 A 
ATOM     77  C   UNL     1      10.491   4.677  -6.690  1.00  0.00     0.040 A 
ATOM     78  F   UNL     1       8.412   5.290  -7.589  1.00  0.00    -0.206 F 
ATOM     79  C   UNL     1      11.793   5.007  -6.318  1.00  0.00     0.006 A 
ENDBRANCH  51  72
BRANCH  63  80
ATOM     80  C   UNL     1      10.334  10.471 -13.388  1.00  0.00     0.057 A 
ATOM     81  C   UNL     1      10.416   9.413 -14.301  1.00  0.00     0.134 A 
ATOM     82  C   UNL     1      11.191  11.562 -13.582  1.00  0.00     0.134 A 
ATOM     83  F   UNL     1       9.632   8.333 -14.162  1.00  0.00    -0.206 F 
ATOM     84  C   UNL     1      11.330   9.430 -15.356  1.00  0.00     0.040 A 
ATOM     85  C   UNL     1      12.092  11.602 -14.647  1.00  0.00     0.040 A 
ATOM     86  F   UNL     1      11.158  12.612 -12.748  1.00  0.00    -0.206 F 
ATOM     87  C   UNL     1      12.167  10.530 -15.534  1.00  0.00     0.006 A 
ENDBRANCH  63  80
ENDBRANCH  37  38
ENDBRANCH  30  32
ENDBRANCH  29  30
ENDBRANCH  28  29
ENDBRANCH  27  28
ENDBRANCH  26  27
ENDBRANCH   1  26
TORSDOF 18
