REMARK SMILES O=C(OCCOCCOC(=O)c1c(F)cccc1NS(=O)(=O)C(F)(F)F)c1ccc(-c2c3nc(c(-c4c(F)cccc4F)c4ccc([nH]4)c(-c4c(F)cccc4F)c4nc(c(-c5c(F)cccc5F)c5ccc2[nH]5)C=C4)C=C3)cc1
REMARK SMILES IDX 7 1 6 2 5 3 4 4 3 5 2 6 1 7 27 8 28 9 80 10 29 11 79 12
REMARK SMILES IDX 30 13 31 14 32 15 73 16 33 17 78 18 72 19 74 20 34 21 77 22
REMARK SMILES IDX 71 23 70 24 35 26 61 27 44 28 60 29 45 30 48 31 59 32 75 33
REMARK SMILES IDX 46 34 47 35 58 37 76 38 49 39 36 40 37 41 42 42 38 43 39 44
REMARK SMILES IDX 41 45 43 46 40 47 62 48 63 49 68 50 64 51 65 52 67 53 69 54
REMARK SMILES IDX 66 55 50 56 51 57 56 58 52 59 53 60 55 61 57 62 54 63 8 64
REMARK SMILES IDX 9 65 10 66 11 67 12 68 13 69 18 70 14 71 15 72 17 73 16 74
REMARK SMILES IDX 19 75 20 77 21 78 22 79 23 80 24 81 25 82 26 83
REMARK H PARENT 74 25 48 36 19 76
REMARK Flexibility Score: inf
ROOT
ATOM      1  C   UNL     1       2.706  -1.185   1.974  1.00  0.00     0.202 C 
ENDROOT
BRANCH   1   2
ATOM      2  O   UNL     1       4.010  -0.837   1.528  1.00  0.00    -0.374 OA
BRANCH   2   3
ATOM      3  C   UNL     1       4.334   0.545   1.482  1.00  0.00     0.202 C 
BRANCH   3   4
ATOM      4  C   UNL     1       3.941   1.268   0.194  1.00  0.00     0.261 C 
BRANCH   4   5
ATOM      5  O   UNL     1       2.549   1.063  -0.096  1.00  0.00    -0.460 OA
BRANCH   5   6
ATOM      6  C   UNL     1       2.040   0.289  -1.084  1.00  0.00     0.338 C 
ATOM      7  O   UNL     1       0.833   0.321  -1.313  1.00  0.00    -0.246 OA
BRANCH   6   8
ATOM      8  C   UNL     1       2.884  -0.624  -1.906  1.00  0.00     0.060 A 
ATOM      9  C   UNL     1       3.999  -1.297  -1.410  1.00  0.00     0.016 A 
ATOM     10  C   UNL     1       2.462  -0.923  -3.208  1.00  0.00     0.016 A 
ATOM     11  C   UNL     1       4.695  -2.224  -2.154  1.00  0.00     0.010 A 
ATOM     12  C   UNL     1       3.126  -1.899  -3.959  1.00  0.00     0.010 A 
ATOM     13  C   UNL     1       4.230  -2.566  -3.412  1.00  0.00    -0.014 A 
BRANCH  13  14
ATOM     14  C   UNL     1       4.952  -3.630  -4.114  1.00  0.00     0.031 A 
ATOM     15  C   UNL     1       5.860  -3.252  -5.231  1.00  0.00     0.074 A 
ATOM     16  C   UNL     1       4.871  -4.888  -3.639  1.00  0.00     0.049 A 
ATOM     17  N   UNL     1       6.493  -4.026  -6.064  1.00  0.00    -0.248 NA
ATOM     18  C   UNL     1       6.100  -1.812  -5.431  1.00  0.00     0.031 C 
ATOM     19  C   UNL     1       4.124  -5.292  -2.441  1.00  0.00     0.029 A 
ATOM     20  N   UNL     1       5.435  -6.052  -4.082  1.00  0.00    -0.354 N 
ATOM     21  C   UNL     1       7.167  -3.169  -6.920  1.00  0.00     0.074 A 
ATOM     22  C   UNL     1       6.890  -1.817  -6.496  1.00  0.00     0.031 C 
ATOM     23  C   UNL     1       4.282  -6.609  -2.246  1.00  0.00     0.029 A 
ATOM     24  C   UNL     1       5.053  -7.154  -3.354  1.00  0.00     0.049 A 
ATOM     25  H   UNL     1       6.054  -6.097  -4.847  1.00  0.00     0.167 HD
ATOM     26  C   UNL     1       7.933  -3.512  -7.976  1.00  0.00     0.037 A 
ATOM     27  C   UNL     1       5.251  -8.461  -3.606  1.00  0.00     0.037 A 
ATOM     28  C   UNL     1       8.195  -4.877  -8.336  1.00  0.00     0.049 A 
ATOM     29  C   UNL     1       6.015  -8.813  -4.853  1.00  0.00     0.074 A 
ATOM     30  C   UNL     1       8.924  -5.360  -9.404  1.00  0.00     0.029 A 
ATOM     31  N   UNL     1       7.733  -5.977  -7.624  1.00  0.00    -0.354 N 
ATOM     32  N   UNL     1       6.598  -8.008  -5.712  1.00  0.00    -0.248 NA
ATOM     33  C   UNL     1       6.125 -10.236  -5.192  1.00  0.00     0.031 C 
ATOM     34  C   UNL     1       8.857  -6.754  -9.370  1.00  0.00     0.029 A 
ATOM     35  C   UNL     1       8.131  -7.141  -8.251  1.00  0.00     0.049 A 
ATOM     36  H   UNL     1       7.201  -5.933  -6.797  1.00  0.00     0.167 HD
ATOM     37  C   UNL     1       7.144  -8.823  -6.690  1.00  0.00     0.074 A 
ATOM     38  C   UNL     1       6.846 -10.189  -6.305  1.00  0.00     0.031 C 
ATOM     39  C   UNL     1       7.819  -8.479  -7.813  1.00  0.00     0.037 A 
BRANCH  26  40
ATOM     40  C   UNL     1       8.465  -2.418  -8.844  1.00  0.00     0.057 A 
ATOM     41  C   UNL     1       7.914  -2.202 -10.114  1.00  0.00     0.134 A 
ATOM     42  C   UNL     1       9.543  -1.614  -8.459  1.00  0.00     0.134 A 
ATOM     43  F   UNL     1       6.869  -2.932 -10.534  1.00  0.00    -0.206 F 
ATOM     44  C   UNL     1       8.434  -1.244 -10.982  1.00  0.00     0.040 A 
ATOM     45  C   UNL     1      10.061  -0.637  -9.313  1.00  0.00     0.040 A 
ATOM     46  F   UNL     1      10.096  -1.751  -7.245  1.00  0.00    -0.206 F 
ATOM     47  C   UNL     1       9.514  -0.459 -10.583  1.00  0.00     0.006 A 
ENDBRANCH  26  40
BRANCH  27  48
ATOM     48  C   UNL     1       4.639  -9.501  -2.736  1.00  0.00     0.057 A 
ATOM     49  C   UNL     1       3.247  -9.618  -2.609  1.00  0.00     0.134 A 
ATOM     50  C   UNL     1       5.421 -10.408  -2.013  1.00  0.00     0.134 A 
ATOM     51  F   UNL     1       2.432  -8.785  -3.274  1.00  0.00    -0.206 F 
ATOM     52  C   UNL     1       2.658 -10.580  -1.786  1.00  0.00     0.040 A 
ATOM     53  C   UNL     1       4.845 -11.396  -1.210  1.00  0.00     0.040 A 
ATOM     54  F   UNL     1       6.759 -10.366  -2.102  1.00  0.00    -0.206 F 
ATOM     55  C   UNL     1       3.459 -11.479  -1.089  1.00  0.00     0.006 A 
ENDBRANCH  27  48
BRANCH  39  56
ATOM     56  C   UNL     1       8.285  -9.588  -8.701  1.00  0.00     0.057 A 
ATOM     57  C   UNL     1       9.649  -9.885  -8.806  1.00  0.00     0.134 A 
ATOM     58  C   UNL     1       7.399 -10.253  -9.555  1.00  0.00     0.134 A 
ATOM     59  F   UNL     1      10.544  -9.265  -8.021  1.00  0.00    -0.206 F 
ATOM     60  C   UNL     1      10.122 -10.781  -9.762  1.00  0.00     0.040 A 
ATOM     61  C   UNL     1       7.858 -11.172 -10.497  1.00  0.00     0.040 A 
ATOM     62  F   UNL     1       6.081 -10.014  -9.488  1.00  0.00    -0.206 F 
ATOM     63  C   UNL     1       9.225 -11.424 -10.614  1.00  0.00     0.006 A 
ENDBRANCH  39  56
ENDBRANCH  13  14
ENDBRANCH   6   8
ENDBRANCH   5   6
ENDBRANCH   4   5
ENDBRANCH   3   4
ENDBRANCH   2   3
ENDBRANCH   1   2
BRANCH   1  64
ATOM     64  C   UNL     1       2.887  -2.264   3.038  1.00  0.00     0.261 C 
BRANCH  64  65
ATOM     65  O   UNL     1       3.504  -1.649   4.182  1.00  0.00    -0.460 OA
BRANCH  65  66
ATOM     66  C   UNL     1       4.857  -1.499   4.188  1.00  0.00     0.343 C 
ATOM     67  O   UNL     1       5.674  -2.039   3.475  1.00  0.00    -0.246 OA
BRANCH  66  68
ATOM     68  C   UNL     1       5.181  -0.381   5.103  1.00  0.00     0.119 A 
ATOM     69  C   UNL     1       4.375  -0.189   6.235  1.00  0.00     0.139 A 
ATOM     70  C   UNL     1       6.234   0.523   4.832  1.00  0.00     0.066 A 
ATOM     71  F   UNL     1       3.406  -1.057   6.561  1.00  0.00    -0.206 F 
ATOM     72  C   UNL     1       4.565   0.894   7.080  1.00  0.00     0.040 A 
ATOM     73  C   UNL     1       6.425   1.592   5.718  1.00  0.00     0.028 A 
ATOM     74  C   UNL     1       5.587   1.790   6.818  1.00  0.00     0.005 A 
BRANCH  70  75
ATOM     75  N   UNL     1       7.208   0.290   3.791  1.00  0.00    -0.275 N 
ATOM     76  H   UNL     1       7.568  -0.619   3.672  1.00  0.00     0.180 HD
BRANCH  75  77
ATOM     77  S   UNL     1       7.754   1.531   2.761  1.00  0.00     0.333 S 
ATOM     78  O   UNL     1       8.427   0.820   1.686  1.00  0.00    -0.197 OA
ATOM     79  O   UNL     1       6.603   2.359   2.438  1.00  0.00    -0.197 OA
BRANCH  77  80
ATOM     80  C   UNL     1       9.009   2.537   3.715  1.00  0.00     0.516 C 
ATOM     81  F   UNL     1       8.436   3.647   4.270  1.00  0.00    -0.155 F 
ATOM     82  F   UNL     1       9.566   1.837   4.743  1.00  0.00    -0.155 F 
ATOM     83  F   UNL     1      10.029   2.985   2.932  1.00  0.00    -0.155 F 
ENDBRANCH  77  80
ENDBRANCH  75  77
ENDBRANCH  70  75
ENDBRANCH  66  68
ENDBRANCH  65  66
ENDBRANCH  64  65
ENDBRANCH   1  64
TORSDOF 17
