REMARK SMILES O=C(CN1C(=O)N[C@@](CCC(=O)OCCOCCOC(=O)c2ccc(-c3c4nc(c(-c5c(F)cccc5F)c5ccc([nH]5)c(-c5c(F)cccc5F)c5nc(c(-c6c(F)cccc6F)c6ccc3[nH]6)C=C5)C=C4)cc2)(c2ccccc2)C1=O)Nc1cccc(F)c1
REMARK SMILES IDX 14 1 13 2 11 3 12 4 10 5 9 6 8 7 4 8 5 9 82 10 6 11 7 12
REMARK SMILES IDX 83 13 3 15 2 16 1 17 84 18 85 20 86 21 91 22 87 23 89 24
REMARK SMILES IDX 88 25 90 26 76 27 77 28 81 29 78 30 80 31 79 32 15 33 16 34
REMARK SMILES IDX 17 35 18 36 19 37 20 38 21 39 22 40 23 41 75 42 24 43 74 44
REMARK SMILES IDX 25 45 26 46 27 47 68 48 28 49 73 50 67 51 69 52 29 53 72 54
REMARK SMILES IDX 66 55 65 56 30 58 56 59 39 60 55 61 40 62 43 63 54 64 70 65
REMARK SMILES IDX 41 66 42 67 53 69 71 70 44 71 31 72 32 73 37 74 33 75 34 76
REMARK SMILES IDX 36 77 38 78 35 79 57 80 58 81 63 82 59 83 60 84 62 85 64 86
REMARK SMILES IDX 61 87 45 88 46 89 51 90 47 91 48 92 50 93 52 94 49 95
REMARK H PARENT 7 14 84 19 69 57 43 68
REMARK Flexibility Score: inf
ROOT
ATOM      1  C   UNL     1       7.661   6.296   2.166  1.00  0.00     0.261 C 
ENDROOT
BRANCH   1   2
ATOM      2  O   UNL     1       7.015   5.554   1.103  1.00  0.00    -0.463 OA
BRANCH   2   3
ATOM      3  C   UNL     1       7.509   5.687  -0.154  1.00  0.00     0.305 C 
ATOM      4  O   UNL     1       8.559   6.257  -0.422  1.00  0.00    -0.252 OA
BRANCH   3   5
ATOM      5  C   UNL     1       6.566   5.151  -1.232  1.00  0.00     0.126 C 
BRANCH   5   6
ATOM      6  C   UNL     1       6.369   3.625  -1.383  1.00  0.00     0.055 C 
BRANCH   6   7
ATOM      7  C   UNL     1       5.011   3.052  -0.877  1.00  0.00     0.147 C 
ATOM      8  N   UNL     1       3.544   1.364  -1.644  1.00  0.00    -0.252 N 
ATOM      9  C   UNL     1       2.991   2.569  -1.959  1.00  0.00     0.325 C 
ATOM     10  C   UNL     1       4.820   1.538  -1.183  1.00  0.00     0.261 C 
ATOM     11  O   UNL     1       1.888   2.787  -2.410  1.00  0.00    -0.248 OA
ATOM     12  N   UNL     1       3.894   3.559  -1.639  1.00  0.00    -0.319 N 
ATOM     13  O   UNL     1       5.618   0.647  -0.924  1.00  0.00    -0.271 OA
ATOM     14  H   UNL     1       3.790   4.503  -1.900  1.00  0.00     0.166 HD
BRANCH   8  15
ATOM     15  C   UNL     1       2.881   0.100  -1.875  1.00  0.00     0.230 C 
BRANCH  15  16
ATOM     16  C   UNL     1       1.851  -0.300  -0.809  1.00  0.00     0.244 C 
ATOM     17  O   UNL     1       0.770  -0.770  -1.164  1.00  0.00    -0.273 OA
ATOM     18  N   UNL     1       2.283  -0.252   0.507  1.00  0.00    -0.324 N 
ATOM     19  H   UNL     1       3.112   0.242   0.697  1.00  0.00     0.170 HD
BRANCH  18  20
ATOM     20  C   UNL     1       1.618  -0.862   1.603  1.00  0.00     0.044 A 
ATOM     21  C   UNL     1       1.911  -0.404   2.889  1.00  0.00     0.026 A 
ATOM     22  C   UNL     1       0.712  -1.919   1.467  1.00  0.00     0.065 A 
ATOM     23  C   UNL     1       1.304  -0.987   4.010  1.00  0.00     0.005 A 
ATOM     24  C   UNL     1       0.129  -2.503   2.593  1.00  0.00     0.125 A 
ATOM     25  C   UNL     1       0.420  -2.048   3.868  1.00  0.00     0.039 A 
ATOM     26  F   UNL     1      -0.721  -3.527   2.442  1.00  0.00    -0.207 F 
ENDBRANCH  18  20
ENDBRANCH  15  16
ENDBRANCH   8  15
BRANCH   7  27
ATOM     27  C   UNL     1       4.761   3.219   0.612  1.00  0.00    -0.013 A 
ATOM     28  C   UNL     1       5.816   3.034   1.488  1.00  0.00     0.007 A 
ATOM     29  C   UNL     1       3.501   3.522   1.159  1.00  0.00     0.007 A 
ATOM     30  C   UNL     1       5.683   3.444   2.799  1.00  0.00     0.000 A 
ATOM     31  C   UNL     1       3.358   3.825   2.509  1.00  0.00     0.000 A 
ATOM     32  C   UNL     1       4.477   3.865   3.314  1.00  0.00     0.000 A 
ENDBRANCH   7  27
ENDBRANCH   6   7
ENDBRANCH   5   6
ENDBRANCH   3   5
ENDBRANCH   2   3
ENDBRANCH   1   2
BRANCH   1  33
ATOM     33  C   UNL     1       8.494   5.484   3.187  1.00  0.00     0.202 C 
BRANCH  33  34
ATOM     34  O   UNL     1       9.656   4.807   2.721  1.00  0.00    -0.374 OA
BRANCH  34  35
ATOM     35  C   UNL     1       9.469   3.671   1.884  1.00  0.00     0.202 C 
BRANCH  35  36
ATOM     36  C   UNL     1       9.547   2.293   2.577  1.00  0.00     0.261 C 
BRANCH  36  37
ATOM     37  O   UNL     1       8.311   1.893   3.222  1.00  0.00    -0.460 OA
BRANCH  37  38
ATOM     38  C   UNL     1       8.292   1.829   4.581  1.00  0.00     0.338 C 
ATOM     39  O   UNL     1       9.226   2.076   5.324  1.00  0.00    -0.246 OA
BRANCH  38  40
ATOM     40  C   UNL     1       6.900   1.594   5.084  1.00  0.00     0.060 A 
ATOM     41  C   UNL     1       6.414   2.424   6.109  1.00  0.00     0.016 A 
ATOM     42  C   UNL     1       6.037   0.651   4.525  1.00  0.00     0.016 A 
ATOM     43  C   UNL     1       5.081   2.328   6.566  1.00  0.00     0.010 A 
ATOM     44  C   UNL     1       4.709   0.552   4.995  1.00  0.00     0.010 A 
ATOM     45  C   UNL     1       4.201   1.384   6.022  1.00  0.00    -0.014 A 
BRANCH  45  46
ATOM     46  C   UNL     1       2.837   1.137   6.625  1.00  0.00     0.031 A 
ATOM     47  C   UNL     1       2.606  -0.171   7.354  1.00  0.00     0.074 A 
ATOM     48  C   UNL     1       1.770   1.962   6.498  1.00  0.00     0.049 A 
ATOM     49  N   UNL     1       1.505  -0.650   7.881  1.00  0.00    -0.248 NA
ATOM     50  C   UNL     1       3.753  -1.084   7.425  1.00  0.00     0.031 C 
ATOM     51  C   UNL     1       1.754   3.245   5.809  1.00  0.00     0.029 A 
ATOM     52  N   UNL     1       0.461   1.821   6.928  1.00  0.00    -0.354 N 
ATOM     53  C   UNL     1       1.827  -1.926   8.327  1.00  0.00     0.074 A 
ATOM     54  C   UNL     1       3.192  -2.176   7.915  1.00  0.00     0.031 C 
ATOM     55  C   UNL     1       0.513   3.766   5.841  1.00  0.00     0.029 A 
ATOM     56  C   UNL     1      -0.371   2.865   6.577  1.00  0.00     0.049 A 
ATOM     57  H   UNL     1       0.149   1.040   7.441  1.00  0.00     0.167 HD
ATOM     58  C   UNL     1       1.088  -2.806   9.047  1.00  0.00     0.037 A 
ATOM     59  C   UNL     1      -1.680   3.093   6.831  1.00  0.00     0.037 A 
ATOM     60  C   UNL     1      -0.261  -2.585   9.495  1.00  0.00     0.049 A 
ATOM     61  C   UNL     1      -2.490   2.110   7.647  1.00  0.00     0.074 A 
ATOM     62  C   UNL     1      -1.041  -3.395  10.304  1.00  0.00     0.029 A 
ATOM     63  N   UNL     1      -1.037  -1.486   9.169  1.00  0.00    -0.354 N 
ATOM     64  N   UNL     1      -2.121   0.973   8.180  1.00  0.00    -0.248 NA
ATOM     65  C   UNL     1      -3.896   2.462   7.919  1.00  0.00     0.031 C 
ATOM     66  C   UNL     1      -2.305  -2.810  10.428  1.00  0.00     0.029 A 
ATOM     67  C   UNL     1      -2.292  -1.605   9.748  1.00  0.00     0.049 A 
ATOM     68  H   UNL     1      -0.742  -0.732   8.609  1.00  0.00     0.167 HD
ATOM     69  C   UNL     1      -3.224   0.508   8.893  1.00  0.00     0.074 A 
ATOM     70  C   UNL     1      -4.277   1.484   8.728  1.00  0.00     0.031 C 
ATOM     71  C   UNL     1      -3.341  -0.626   9.626  1.00  0.00     0.037 A 
BRANCH  58  72
ATOM     72  C   UNL     1       1.756  -4.102   9.413  1.00  0.00     0.057 A 
ATOM     73  C   UNL     1       2.862  -4.143  10.275  1.00  0.00     0.134 A 
ATOM     74  C   UNL     1       1.301  -5.318   8.889  1.00  0.00     0.134 A 
ATOM     75  F   UNL     1       3.353  -3.012  10.806  1.00  0.00    -0.206 F 
ATOM     76  C   UNL     1       3.531  -5.336  10.549  1.00  0.00     0.040 A 
ATOM     77  C   UNL     1       1.935  -6.523   9.192  1.00  0.00     0.040 A 
ATOM     78  F   UNL     1       0.238  -5.355   8.072  1.00  0.00    -0.206 F 
ATOM     79  C   UNL     1       3.065  -6.532  10.009  1.00  0.00     0.006 A 
ENDBRANCH  58  72
BRANCH  59  80
ATOM     80  C   UNL     1      -2.340   4.356   6.384  1.00  0.00     0.057 A 
ATOM     81  C   UNL     1      -2.719   5.332   7.319  1.00  0.00     0.134 A 
ATOM     82  C   UNL     1      -2.696   4.579   5.050  1.00  0.00     0.134 A 
ATOM     83  F   UNL     1      -2.441   5.160   8.620  1.00  0.00    -0.206 F 
ATOM     84  C   UNL     1      -3.453   6.462   6.950  1.00  0.00     0.040 A 
ATOM     85  C   UNL     1      -3.409   5.718   4.662  1.00  0.00     0.040 A 
ATOM     86  F   UNL     1      -2.372   3.685   4.104  1.00  0.00    -0.206 F 
ATOM     87  C   UNL     1      -3.799   6.658   5.616  1.00  0.00     0.006 A 
ENDBRANCH  59  80
BRANCH  71  88
ATOM     88  C   UNL     1      -4.621  -0.861  10.384  1.00  0.00     0.057 A 
ATOM     89  C   UNL     1      -5.832  -1.160   9.748  1.00  0.00     0.134 A 
ATOM     90  C   UNL     1      -4.623  -0.844  11.787  1.00  0.00     0.134 A 
ATOM     91  F   UNL     1      -5.909  -1.185   8.409  1.00  0.00    -0.206 F 
ATOM     92  C   UNL     1      -7.000  -1.413  10.475  1.00  0.00     0.040 A 
ATOM     93  C   UNL     1      -5.775  -1.125  12.525  1.00  0.00     0.040 A 
ATOM     94  F   UNL     1      -3.498  -0.574  12.467  1.00  0.00    -0.206 F 
ATOM     95  C   UNL     1      -6.971  -1.405  11.868  1.00  0.00     0.006 A 
ENDBRANCH  71  88
ENDBRANCH  45  46
ENDBRANCH  38  40
ENDBRANCH  37  38
ENDBRANCH  36  37
ENDBRANCH  35  36
ENDBRANCH  34  35
ENDBRANCH  33  34
ENDBRANCH   1  33
TORSDOF 20
