REMARK SMILES C[C@@H](CO)CS[C@@H](C)C[C@@](C)([NH3+])C(=O)OCCOCCOC(=O)c1ccc(-c2c3nc(c(-c4c(F)cccc4F)c4ccc([nH]4)c(-c4c(F)cccc4F)c4nc(c(-c5c(F)cccc5F)c5ccc2[nH]5)C=C4)C=C3)cc1
REMARK SMILES IDX 16 1 15 2 13 3 14 4 10 5 11 6 9 7 7 8 8 9 6 10 5 11 2 12
REMARK SMILES IDX 1 13 3 14 4 15 12 17 17 21 18 22 19 23 20 24 21 25 22 26
REMARK SMILES IDX 23 27 24 28 25 29 77 30 26 31 76 32 27 33 28 34 29 35 70 36
REMARK SMILES IDX 30 37 75 38 69 39 71 40 31 41 74 42 68 43 67 44 32 46 58 47
REMARK SMILES IDX 41 48 57 49 42 50 45 51 56 52 72 53 43 54 44 55 55 57 73 58
REMARK SMILES IDX 46 59 33 60 34 61 39 62 35 63 36 64 38 65 40 66 37 67 59 68
REMARK SMILES IDX 60 69 65 70 61 71 62 72 64 73 66 74 63 75 47 76 48 77 53 78
REMARK SMILES IDX 49 79 50 80 52 81 54 82 51 83
REMARK H PARENT 4 16 12 18 12 19 12 20 71 45 45 56
REMARK Flexibility Score: inf
ROOT
ATOM      1  C   UNL     1      -0.544   0.127   4.913  1.00  0.00     0.261 C 
ENDROOT
BRANCH   1   2
ATOM      2  O   UNL     1       0.170  -0.938   4.273  1.00  0.00    -0.459 OA
BRANCH   2   3
ATOM      3  C   UNL     1      -0.584  -1.800   3.537  1.00  0.00     0.367 C 
ATOM      4  O   UNL     1      -1.780  -1.998   3.720  1.00  0.00    -0.245 OA
BRANCH   3   5
ATOM      5  C   UNL     1       0.272  -2.565   2.492  1.00  0.00     0.191 C 
ATOM      6  C   UNL     1       0.199  -4.044   2.914  1.00  0.00     0.092 C 
BRANCH   5   7
ATOM      7  C   UNL     1      -0.152  -2.378   1.003  1.00  0.00     0.094 C 
BRANCH   7   8
ATOM      8  C   UNL     1      -1.438  -1.609   0.602  1.00  0.00     0.050 C 
ATOM      9  C   UNL     1      -1.659  -1.717  -0.909  1.00  0.00     0.019 C 
BRANCH   8  10
ATOM     10  S   UNL     1      -1.593   0.120   1.237  1.00  0.00    -0.158 SA
BRANCH  10  11
ATOM     11  C   UNL     1      -1.208   1.264  -0.146  1.00  0.00     0.075 C 
BRANCH  11  12
ATOM     12  C   UNL     1       0.239   1.786  -0.127  1.00  0.00     0.021 C 
ATOM     13  C   UNL     1       1.224   0.782  -0.723  1.00  0.00     0.011 C 
BRANCH  12  14
ATOM     14  C   UNL     1       0.358   3.133  -0.851  1.00  0.00     0.160 C 
BRANCH  14  15
ATOM     15  O   UNL     1       0.001   3.022  -2.220  1.00  0.00    -0.396 OA
ATOM     16  H   UNL     1       0.599   2.397  -2.660  1.00  0.00     0.210 HD
ENDBRANCH  14  15
ENDBRANCH  12  14
ENDBRANCH  11  12
ENDBRANCH  10  11
ENDBRANCH   8  10
ENDBRANCH   7   8
ENDBRANCH   5   7
BRANCH   5  17
ATOM     17  N   UNL     1       1.724  -2.204   2.575  1.00  0.00    -0.344 N 
ATOM     18  H   UNL     1       2.246  -2.729   1.873  1.00  0.00     0.345 HD
ATOM     19  H   UNL     1       2.079  -2.433   3.504  1.00  0.00     0.345 HD
ATOM     20  H   UNL     1       1.837  -1.204   2.406  1.00  0.00     0.345 HD
ENDBRANCH   5  17
ENDBRANCH   3   5
ENDBRANCH   2   3
ENDBRANCH   1   2
BRANCH   1  21
ATOM     21  C   UNL     1       0.273   1.423   4.834  1.00  0.00     0.202 C 
BRANCH  21  22
ATOM     22  O   UNL     1       0.744   1.775   3.530  1.00  0.00    -0.374 OA
BRANCH  22  23
ATOM     23  C   UNL     1       1.805   0.945   3.042  1.00  0.00     0.202 C 
BRANCH  23  24
ATOM     24  C   UNL     1       2.985   1.780   2.545  1.00  0.00     0.261 C 
BRANCH  24  25
ATOM     25  O   UNL     1       3.855   2.008   3.665  1.00  0.00    -0.460 OA
BRANCH  25  26
ATOM     26  C   UNL     1       3.441   3.000   4.486  1.00  0.00     0.338 C 
ATOM     27  O   UNL     1       2.795   3.987   4.174  1.00  0.00    -0.246 OA
BRANCH  26  28
ATOM     28  C   UNL     1       3.713   2.600   5.886  1.00  0.00     0.060 A 
ATOM     29  C   UNL     1       2.880   3.129   6.880  1.00  0.00     0.016 A 
ATOM     30  C   UNL     1       4.721   1.688   6.225  1.00  0.00     0.016 A 
ATOM     31  C   UNL     1       3.085   2.796   8.215  1.00  0.00     0.010 A 
ATOM     32  C   UNL     1       4.927   1.352   7.563  1.00  0.00     0.010 A 
ATOM     33  C   UNL     1       4.136   1.939   8.564  1.00  0.00    -0.014 A 
BRANCH  33  34
ATOM     34  C   UNL     1       4.534   1.823   9.983  1.00  0.00     0.031 A 
ATOM     35  C   UNL     1       5.680   2.665  10.465  1.00  0.00     0.074 A 
ATOM     36  C   UNL     1       3.870   1.015  10.826  1.00  0.00     0.049 A 
ATOM     37  N   UNL     1       6.222   2.731  11.653  1.00  0.00    -0.248 NA
ATOM     38  C   UNL     1       6.303   3.554   9.469  1.00  0.00     0.031 C 
ATOM     39  C   UNL     1       2.724   0.179  10.473  1.00  0.00     0.029 A 
ATOM     40  N   UNL     1       4.072   0.766  12.159  1.00  0.00    -0.354 N 
ATOM     41  C   UNL     1       7.247   3.662  11.545  1.00  0.00     0.074 A 
ATOM     42  C   UNL     1       7.278   4.108  10.171  1.00  0.00     0.031 C 
ATOM     43  C   UNL     1       2.328  -0.499  11.564  1.00  0.00     0.029 A 
ATOM     44  C   UNL     1       3.209  -0.165  12.682  1.00  0.00     0.049 A 
ATOM     45  H   UNL     1       4.770   1.213  12.691  1.00  0.00     0.167 HD
ATOM     46  C   UNL     1       8.080   4.113  12.511  1.00  0.00     0.037 A 
ATOM     47  C   UNL     1       3.154  -0.694  13.919  1.00  0.00     0.037 A 
ATOM     48  C   UNL     1       8.042   3.663  13.876  1.00  0.00     0.049 A 
ATOM     49  C   UNL     1       4.134  -0.222  14.961  1.00  0.00     0.074 A 
ATOM     50  C   UNL     1       8.828   4.067  14.939  1.00  0.00     0.029 A 
ATOM     51  N   UNL     1       7.171   2.700  14.362  1.00  0.00    -0.354 N 
ATOM     52  N   UNL     1       5.080   0.681  14.860  1.00  0.00    -0.248 NA
ATOM     53  C   UNL     1       4.035  -0.839  16.292  1.00  0.00     0.031 C 
ATOM     54  C   UNL     1       8.466   3.311  16.058  1.00  0.00     0.029 A 
ATOM     55  C   UNL     1       7.418   2.476  15.705  1.00  0.00     0.049 A 
ATOM     56  H   UNL     1       6.479   2.243  13.831  1.00  0.00     0.167 HD
ATOM     57  C   UNL     1       5.669   0.762  16.116  1.00  0.00     0.074 A 
ATOM     58  C   UNL     1       4.964  -0.176  16.966  1.00  0.00     0.031 C 
ATOM     59  C   UNL     1       6.698   1.541  16.532  1.00  0.00     0.037 A 
BRANCH  46  60
ATOM     60  C   UNL     1       9.116   5.121  12.112  1.00  0.00     0.057 A 
ATOM     61  C   UNL     1       8.780   6.442  11.786  1.00  0.00     0.134 A 
ATOM     62  C   UNL     1      10.471   4.769  12.068  1.00  0.00     0.134 A 
ATOM     63  F   UNL     1       7.499   6.838  11.788  1.00  0.00    -0.206 F 
ATOM     64  C   UNL     1       9.753   7.370  11.409  1.00  0.00     0.040 A 
ATOM     65  C   UNL     1      11.455   5.695  11.718  1.00  0.00     0.040 A 
ATOM     66  F   UNL     1      10.861   3.521  12.366  1.00  0.00    -0.206 F 
ATOM     67  C   UNL     1      11.096   6.999  11.381  1.00  0.00     0.006 A 
ENDBRANCH  46  60
BRANCH  47  68
ATOM     68  C   UNL     1       2.146  -1.736  14.240  1.00  0.00     0.057 A 
ATOM     69  C   UNL     1       1.092  -1.482  15.125  1.00  0.00     0.134 A 
ATOM     70  C   UNL     1       2.225  -3.019  13.684  1.00  0.00     0.134 A 
ATOM     71  F   UNL     1       0.975  -0.280  15.708  1.00  0.00    -0.206 F 
ATOM     72  C   UNL     1       0.164  -2.470  15.460  1.00  0.00     0.040 A 
ATOM     73  C   UNL     1       1.290  -4.009  13.991  1.00  0.00     0.040 A 
ATOM     74  F   UNL     1       3.210  -3.327  12.828  1.00  0.00    -0.206 F 
ATOM     75  C   UNL     1       0.259  -3.737  14.888  1.00  0.00     0.006 A 
ENDBRANCH  47  68
BRANCH  59  76
ATOM     76  C   UNL     1       7.099   1.439  17.975  1.00  0.00     0.057 A 
ATOM     77  C   UNL     1       7.774   0.321  18.479  1.00  0.00     0.134 A 
ATOM     78  C   UNL     1       6.847   2.497  18.859  1.00  0.00     0.134 A 
ATOM     79  F   UNL     1       8.036  -0.730  17.687  1.00  0.00    -0.206 F 
ATOM     80  C   UNL     1       8.164   0.249  19.818  1.00  0.00     0.040 A 
ATOM     81  C   UNL     1       7.257   2.448  20.191  1.00  0.00     0.040 A 
ATOM     82  F   UNL     1       6.215   3.602  18.436  1.00  0.00    -0.206 F 
ATOM     83  C   UNL     1       7.912   1.318  20.675  1.00  0.00     0.006 A 
ENDBRANCH  59  76
ENDBRANCH  33  34
ENDBRANCH  26  28
ENDBRANCH  25  26
ENDBRANCH  24  25
ENDBRANCH  23  24
ENDBRANCH  22  23
ENDBRANCH  21  22
ENDBRANCH   1  21
TORSDOF 22
