REMARK SMILES CC(C)(C)OC(=O)N1CCC[C@H]1C(=O)N[C@@H](Cc1ccccc1)C(=O)OCCOCCOC(=O)c1ccc(-c2c3nc(c(-c4c(F)cccc4F)c4ccc([nH]4)c(-c4c(F)cccc4F)c4nc(c(-c5c(F)cccc5F)c5ccc2[nH]5)C=C4)C=C3)cc1
REMARK SMILES IDX 27 1 26 2 24 3 25 4 16 5 15 6 13 7 14 8 12 10 8 11 9 12
REMARK SMILES IDX 10 13 11 14 6 15 7 16 5 17 2 18 1 19 3 20 4 21 17 22 18 23
REMARK SMILES IDX 19 24 23 25 20 26 22 27 21 28 28 29 29 30 30 31 31 32 32 33
REMARK SMILES IDX 33 34 34 35 35 36 36 37 88 38 37 39 87 40 38 41 39 42 40 43
REMARK SMILES IDX 81 44 41 45 86 46 80 47 82 48 42 49 85 50 79 51 78 52 43 54
REMARK SMILES IDX 69 55 52 56 68 57 53 58 56 59 67 60 83 61 54 62 55 63 66 65
REMARK SMILES IDX 84 66 57 67 44 68 45 69 50 70 46 71 47 72 49 73 51 74 48 75
REMARK SMILES IDX 70 76 71 77 76 78 72 79 73 80 75 81 77 82 74 83 58 84 59 85
REMARK SMILES IDX 64 86 60 87 61 88 63 89 65 90 62 91
REMARK H PARENT 15 9 82 53 56 64
REMARK Flexibility Score: inf
ROOT
ATOM      1  C   UNL     1       3.571  -5.401   3.859  1.00  0.00     0.261 C 
ENDROOT
BRANCH   1   2
ATOM      2  O   UNL     1       2.425  -5.753   3.072  1.00  0.00    -0.462 OA
BRANCH   2   3
ATOM      3  C   UNL     1       1.663  -4.687   2.710  1.00  0.00     0.329 C 
ATOM      4  O   UNL     1       1.878  -3.537   3.081  1.00  0.00    -0.250 OA
BRANCH   3   5
ATOM      5  C   UNL     1       0.437  -5.052   1.869  1.00  0.00     0.196 C 
BRANCH   5   6
ATOM      6  N   UNL     1       0.436  -6.349   1.189  1.00  0.00    -0.341 N 
ATOM      7  C   UNL     1       0.347  -6.699  -0.122  1.00  0.00     0.243 C 
ATOM      8  O   UNL     1       0.211  -7.915  -0.330  1.00  0.00    -0.273 OA
ATOM      9  H   UNL     1       0.515  -7.117   1.800  1.00  0.00     0.164 HD
BRANCH   7  10
ATOM     10  C   UNL     1       0.305  -5.715  -1.343  1.00  0.00     0.178 C 
ATOM     11  N   UNL     1       0.810  -4.348  -1.228  1.00  0.00    -0.296 N 
ATOM     12  C   UNL     1       2.115  -4.210  -1.835  1.00  0.00     0.124 C 
ATOM     13  C   UNL     1       2.063  -5.196  -2.985  1.00  0.00     0.024 C 
ATOM     14  C   UNL     1       1.173  -6.327  -2.471  1.00  0.00     0.037 C 
BRANCH  11  15
ATOM     15  C   UNL     1       0.020  -3.305  -0.802  1.00  0.00     0.410 C 
ATOM     16  O   UNL     1      -1.163  -3.461  -0.519  1.00  0.00    -0.224 OA
BRANCH  15  17
ATOM     17  O   UNL     1       0.738  -2.175  -0.590  1.00  0.00    -0.444 OA
BRANCH  17  18
ATOM     18  C   UNL     1       0.266  -1.045   0.206  1.00  0.00     0.106 C 
ATOM     19  C   UNL     1       0.899   0.190  -0.442  1.00  0.00     0.056 C 
ATOM     20  C   UNL     1       0.820  -1.169   1.628  1.00  0.00     0.056 C 
ATOM     21  C   UNL     1      -1.253  -0.864   0.278  1.00  0.00     0.056 C 
ENDBRANCH  17  18
ENDBRANCH  15  17
ENDBRANCH  11  15
ENDBRANCH   7  10
ENDBRANCH   5   6
BRANCH   5  22
ATOM     22  C   UNL     1      -0.849  -4.825   2.687  1.00  0.00     0.072 C 
BRANCH  22  23
ATOM     23  C   UNL     1      -0.924  -5.700   3.917  1.00  0.00    -0.045 A 
ATOM     24  C   UNL     1      -0.162  -5.390   5.055  1.00  0.00     0.004 A 
ATOM     25  C   UNL     1      -1.697  -6.865   3.914  1.00  0.00     0.004 A 
ATOM     26  C   UNL     1      -0.106  -6.269   6.133  1.00  0.00     0.000 A 
ATOM     27  C   UNL     1      -1.667  -7.727   5.011  1.00  0.00     0.000 A 
ATOM     28  C   UNL     1      -0.855  -7.441   6.108  1.00  0.00     0.000 A 
ENDBRANCH  22  23
ENDBRANCH   5  22
ENDBRANCH   3   5
ENDBRANCH   2   3
ENDBRANCH   1   2
BRANCH   1  29
ATOM     29  C   UNL     1       4.902  -5.710   3.170  1.00  0.00     0.202 C 
BRANCH  29  30
ATOM     30  O   UNL     1       5.060  -5.378   1.799  1.00  0.00    -0.374 OA
BRANCH  30  31
ATOM     31  C   UNL     1       4.208  -5.992   0.839  1.00  0.00     0.202 C 
BRANCH  31  32
ATOM     32  C   UNL     1       4.130  -7.524   0.730  1.00  0.00     0.261 C 
BRANCH  32  33
ATOM     33  O   UNL     1       3.778  -8.188   1.953  1.00  0.00    -0.460 OA
BRANCH  33  34
ATOM     34  C   UNL     1       4.758  -8.970   2.468  1.00  0.00     0.338 C 
ATOM     35  O   UNL     1       5.871  -9.169   2.011  1.00  0.00    -0.246 OA
BRANCH  34  36
ATOM     36  C   UNL     1       4.375  -9.424   3.813  1.00  0.00     0.060 A 
ATOM     37  C   UNL     1       5.134  -8.970   4.900  1.00  0.00     0.016 A 
ATOM     38  C   UNL     1       3.367 -10.371   3.989  1.00  0.00     0.016 A 
ATOM     39  C   UNL     1       4.902  -9.480   6.171  1.00  0.00     0.010 A 
ATOM     40  C   UNL     1       3.149 -10.898   5.264  1.00  0.00     0.010 A 
ATOM     41  C   UNL     1       3.936 -10.476   6.351  1.00  0.00    -0.014 A 
BRANCH  41  42
ATOM     42  C   UNL     1       3.858 -11.174   7.653  1.00  0.00     0.031 A 
ATOM     43  C   UNL     1       4.521 -12.513   7.801  1.00  0.00     0.074 A 
ATOM     44  C   UNL     1       3.241 -10.595   8.696  1.00  0.00     0.049 A 
ATOM     45  N   UNL     1       4.547 -13.316   8.833  1.00  0.00    -0.248 NA
ATOM     46  C   UNL     1       5.255 -13.014   6.628  1.00  0.00     0.031 C 
ATOM     47  C   UNL     1       2.614  -9.274   8.679  1.00  0.00     0.029 A 
ATOM     48  N   UNL     1       3.040 -11.050   9.973  1.00  0.00    -0.354 N 
ATOM     49  C   UNL     1       5.288 -14.420   8.432  1.00  0.00     0.074 A 
ATOM     50  C   UNL     1       5.672 -14.197   7.055  1.00  0.00     0.031 C 
ATOM     51  C   UNL     1       2.086  -9.029   9.890  1.00  0.00     0.029 A 
ATOM     52  C   UNL     1       2.304 -10.190  10.750  1.00  0.00     0.049 A 
ATOM     53  H   UNL     1       3.389 -11.909  10.302  1.00  0.00     0.167 HD
ATOM     54  C   UNL     1       5.622 -15.517   9.152  1.00  0.00     0.037 A 
ATOM     55  C   UNL     1       1.836 -10.341  12.003  1.00  0.00     0.037 A 
ATOM     56  C   UNL     1       5.231 -15.730  10.521  1.00  0.00     0.049 A 
ATOM     57  C   UNL     1       2.148 -11.609  12.754  1.00  0.00     0.074 A 
ATOM     58  C   UNL     1       5.529 -16.800  11.346  1.00  0.00     0.029 A 
ATOM     59  N   UNL     1       4.448 -14.857  11.262  1.00  0.00    -0.354 N 
ATOM     60  N   UNL     1       2.864 -12.641  12.376  1.00  0.00    -0.248 NA
ATOM     61  C   UNL     1       1.585 -11.733  14.106  1.00  0.00     0.031 C 
ATOM     62  C   UNL     1       4.876 -16.602  12.567  1.00  0.00     0.029 A 
ATOM     63  C   UNL     1       4.224 -15.380  12.525  1.00  0.00     0.049 A 
ATOM     64  H   UNL     1       4.103 -13.994  10.938  1.00  0.00     0.167 HD
ATOM     65  C   UNL     1       2.862 -13.522  13.450  1.00  0.00     0.074 A 
ATOM     66  C   UNL     1       2.085 -12.896  14.500  1.00  0.00     0.031 C 
ATOM     67  C   UNL     1       3.450 -14.739  13.559  1.00  0.00     0.037 A 
BRANCH  54  68
ATOM     68  C   UNL     1       6.417 -16.587   8.459  1.00  0.00     0.057 A 
ATOM     69  C   UNL     1       7.760 -16.405   8.106  1.00  0.00     0.134 A 
ATOM     70  C   UNL     1       5.835 -17.827   8.166  1.00  0.00     0.134 A 
ATOM     71  F   UNL     1       8.375 -15.236   8.344  1.00  0.00    -0.206 F 
ATOM     72  C   UNL     1       8.489 -17.410   7.465  1.00  0.00     0.040 A 
ATOM     73  C   UNL     1       6.561 -18.849   7.552  1.00  0.00     0.040 A 
ATOM     74  F   UNL     1       4.554 -18.070   8.480  1.00  0.00    -0.206 F 
ATOM     75  C   UNL     1       7.891 -18.639   7.193  1.00  0.00     0.006 A 
ENDBRANCH  54  68
BRANCH  55  76
ATOM     76  C   UNL     1       1.005  -9.276  12.619  1.00  0.00     0.057 A 
ATOM     77  C   UNL     1       1.468  -8.533  13.710  1.00  0.00     0.134 A 
ATOM     78  C   UNL     1      -0.279  -8.986  12.140  1.00  0.00     0.134 A 
ATOM     79  F   UNL     1       2.680  -8.777  14.228  1.00  0.00    -0.206 F 
ATOM     80  C   UNL     1       0.678  -7.553  14.315  1.00  0.00     0.040 A 
ATOM     81  C   UNL     1      -1.068  -7.990  12.716  1.00  0.00     0.040 A 
ATOM     82  F   UNL     1      -0.780  -9.659  11.093  1.00  0.00    -0.206 F 
ATOM     83  C   UNL     1      -0.592  -7.276  13.813  1.00  0.00     0.006 A 
ENDBRANCH  55  76
BRANCH  67  84
ATOM     84  C   UNL     1       3.308 -15.458  14.871  1.00  0.00     0.057 A 
ATOM     85  C   UNL     1       2.092 -16.018  15.282  1.00  0.00     0.134 A 
ATOM     86  C   UNL     1       4.416 -15.630  15.712  1.00  0.00     0.134 A 
ATOM     87  F   UNL     1       0.990 -15.878  14.530  1.00  0.00    -0.206 F 
ATOM     88  C   UNL     1       1.977 -16.701  16.494  1.00  0.00     0.040 A 
ATOM     89  C   UNL     1       4.320 -16.338  16.910  1.00  0.00     0.040 A 
ATOM     90  F   UNL     1       5.613 -15.129  15.373  1.00  0.00    -0.206 F 
ATOM     91  C   UNL     1       3.095 -16.870  17.308  1.00  0.00     0.006 A 
ENDBRANCH  67  84
ENDBRANCH  41  42
ENDBRANCH  34  36
ENDBRANCH  33  34
ENDBRANCH  32  33
ENDBRANCH  31  32
ENDBRANCH  30  31
ENDBRANCH  29  30
ENDBRANCH   1  29
TORSDOF 21
