REMARK SMILES NC(=O)c1ccc(N[C@H]2C=C[C@@H](C(=O)OCCOCCOC(=O)c3ccc(-c4c5nc(c(-c6c(F)cccc6F)c6ccc([nH]6)c(-c6c(F)cccc6F)c6nc(c(-c7c(F)cccc7F)c7ccc4[nH]7)C=C6)C=C5)cc3)C2)cc1Cl
REMARK SMILES IDX 17 1 16 2 15 3 13 4 14 5 12 6 9 7 10 8 78 9 11 10 8 11 7 13
REMARK SMILES IDX 4 14 5 15 80 16 6 17 79 18 81 19 2 20 1 21 3 24 18 25 19 26
REMARK SMILES IDX 20 27 21 28 22 29 23 30 24 31 25 32 77 33 26 34 76 35 27 36
REMARK SMILES IDX 28 37 29 38 70 39 30 40 75 41 69 42 71 43 31 44 74 45 68 46
REMARK SMILES IDX 67 47 32 49 58 50 41 51 57 52 42 53 45 54 56 55 72 56 43 57
REMARK SMILES IDX 44 58 55 60 73 61 46 62 33 63 34 64 39 65 35 66 36 67 38 68
REMARK SMILES IDX 40 69 37 70 59 71 60 72 65 73 61 74 62 75 64 76 66 77 63 78
REMARK SMILES IDX 47 79 48 80 53 81 49 82 50 83 52 84 54 85 51 86
REMARK H PARENT 8 12 1 22 1 23 71 48 45 59
REMARK Flexibility Score: inf
ROOT
ATOM      1  C   UNL     1       0.427   2.330   6.761  1.00  0.00     0.202 C 
ENDROOT
BRANCH   1   2
ATOM      2  C   UNL     1      -0.456   3.423   6.155  1.00  0.00     0.261 C 
BRANCH   2   3
ATOM      3  O   UNL     1       0.359   4.397   5.483  1.00  0.00    -0.463 OA
BRANCH   3   4
ATOM      4  C   UNL     1       0.107   5.697   5.778  1.00  0.00     0.312 C 
ATOM      5  O   UNL     1      -0.864   6.089   6.417  1.00  0.00    -0.252 OA
BRANCH   4   6
ATOM      6  C   UNL     1       1.161   6.654   5.226  1.00  0.00     0.124 C 
ATOM      7  C   UNL     1       2.725   6.799   3.347  1.00  0.00     0.103 C 
ATOM      8  C   UNL     1       1.438   7.483   3.040  1.00  0.00    -0.006 C 
ATOM      9  C   UNL     1       2.465   6.058   4.661  1.00  0.00     0.048 C 
ATOM     10  C   UNL     1       0.588   7.422   4.071  1.00  0.00    -0.014 C 
BRANCH   7  11
ATOM     11  N   UNL     1       3.172   5.954   2.257  1.00  0.00    -0.379 N 
ATOM     12  H   UNL     1       4.065   6.169   1.903  1.00  0.00     0.161 HD
BRANCH  11  13
ATOM     13  C   UNL     1       2.539   4.896   1.641  1.00  0.00     0.036 A 
ATOM     14  C   UNL     1       1.336   2.735   0.244  1.00  0.00     0.058 A 
ATOM     15  C   UNL     1       0.714   3.309   1.358  1.00  0.00     0.017 A 
ATOM     16  C   UNL     1       2.578   3.225  -0.160  1.00  0.00     0.055 A 
ATOM     17  C   UNL     1       1.311   4.372   2.039  1.00  0.00     0.026 A 
ATOM     18  C   UNL     1       3.166   4.289   0.542  1.00  0.00     0.047 A 
ATOM     19  Cl  UNL     1       3.447   2.632  -1.532  1.00  0.00    -0.083 Cl
BRANCH  14  20
ATOM     20  C   UNL     1       0.569   1.674  -0.443  1.00  0.00     0.250 C 
ATOM     21  N   UNL     1       1.259   0.658  -1.030  1.00  0.00    -0.366 N 
ATOM     22  H   UNL     1       0.775  -0.062  -1.495  1.00  0.00     0.159 HD
ATOM     23  H   UNL     1       2.243   0.643  -0.990  1.00  0.00     0.159 HD
ATOM     24  O   UNL     1      -0.657   1.702  -0.434  1.00  0.00    -0.269 OA
ENDBRANCH  14  20
ENDBRANCH  11  13
ENDBRANCH   7  11
ENDBRANCH   4   6
ENDBRANCH   3   4
ENDBRANCH   2   3
ENDBRANCH   1   2
BRANCH   1  25
ATOM     25  O   UNL     1       1.299   2.756   7.810  1.00  0.00    -0.374 OA
BRANCH  25  26
ATOM     26  C   UNL     1       2.481   3.461   7.430  1.00  0.00     0.202 C 
BRANCH  26  27
ATOM     27  C   UNL     1       3.643   2.608   6.906  1.00  0.00     0.261 C 
BRANCH  27  28
ATOM     28  O   UNL     1       3.321   1.919   5.685  1.00  0.00    -0.460 OA
BRANCH  28  29
ATOM     29  C   UNL     1       3.176   0.578   5.814  1.00  0.00     0.338 C 
ATOM     30  O   UNL     1       3.351  -0.090   6.824  1.00  0.00    -0.246 OA
BRANCH  29  31
ATOM     31  C   UNL     1       2.625  -0.009   4.579  1.00  0.00     0.060 A 
ATOM     32  C   UNL     1       1.520  -0.863   4.699  1.00  0.00     0.016 A 
ATOM     33  C   UNL     1       3.240   0.180   3.341  1.00  0.00     0.016 A 
ATOM     34  C   UNL     1       1.058  -1.579   3.594  1.00  0.00     0.010 A 
ATOM     35  C   UNL     1       2.780  -0.545   2.236  1.00  0.00     0.010 A 
ATOM     36  C   UNL     1       1.712  -1.457   2.364  1.00  0.00    -0.014 A 
BRANCH  36  37
ATOM     37  C   UNL     1       1.405  -2.374   1.236  1.00  0.00     0.031 A 
ATOM     38  C   UNL     1       2.396  -3.450   0.889  1.00  0.00     0.074 A 
ATOM     39  C   UNL     1       0.297  -2.231   0.489  1.00  0.00     0.049 A 
ATOM     40  N   UNL     1       2.473  -4.193  -0.184  1.00  0.00    -0.248 NA
ATOM     41  C   UNL     1       3.435  -3.725   1.894  1.00  0.00     0.031 C 
ATOM     42  C   UNL     1      -0.785  -1.287   0.744  1.00  0.00     0.029 A 
ATOM     43  N   UNL     1      -0.043  -2.822  -0.707  1.00  0.00    -0.354 N 
ATOM     44  C   UNL     1       3.545  -5.049   0.030  1.00  0.00     0.074 A 
ATOM     45  C   UNL     1       4.134  -4.682   1.301  1.00  0.00     0.031 C 
ATOM     46  C   UNL     1      -1.603  -1.267  -0.322  1.00  0.00     0.029 A 
ATOM     47  C   UNL     1      -1.082  -2.177  -1.337  1.00  0.00     0.049 A 
ATOM     48  H   UNL     1       0.407  -3.618  -1.072  1.00  0.00     0.167 HD
ATOM     49  C   UNL     1       3.973  -6.075  -0.742  1.00  0.00     0.037 A 
ATOM     50  C   UNL     1      -1.498  -2.239  -2.616  1.00  0.00     0.037 A 
ATOM     51  C   UNL     1       3.391  -6.437  -2.007  1.00  0.00     0.049 A 
ATOM     52  C   UNL     1      -0.870  -3.217  -3.562  1.00  0.00     0.074 A 
ATOM     53  C   UNL     1       3.715  -7.495  -2.838  1.00  0.00     0.029 A 
ATOM     54  N   UNL     1       2.371  -5.737  -2.630  1.00  0.00    -0.354 N 
ATOM     55  N   UNL     1       0.124  -4.043  -3.352  1.00  0.00    -0.248 NA
ATOM     56  C   UNL     1      -1.440  -3.292  -4.915  1.00  0.00     0.031 C 
ATOM     57  C   UNL     1       2.918  -7.409  -3.986  1.00  0.00     0.029 A 
ATOM     58  C   UNL     1       2.071  -6.323  -3.848  1.00  0.00     0.049 A 
ATOM     59  H   UNL     1       1.925  -4.941  -2.261  1.00  0.00     0.167 HD
ATOM     60  C   UNL     1       0.243  -4.794  -4.515  1.00  0.00     0.074 A 
ATOM     61  C   UNL     1      -0.743  -4.288  -5.445  1.00  0.00     0.031 C 
ATOM     62  C   UNL     1       1.071  -5.838  -4.763  1.00  0.00     0.037 A 
BRANCH  49  63
ATOM     63  C   UNL     1       5.118  -6.893  -0.225  1.00  0.00     0.057 A 
ATOM     64  C   UNL     1       4.959  -7.769   0.858  1.00  0.00     0.134 A 
ATOM     65  C   UNL     1       6.377  -6.837  -0.832  1.00  0.00     0.134 A 
ATOM     66  F   UNL     1       3.779  -7.861   1.490  1.00  0.00    -0.206 F 
ATOM     67  C   UNL     1       6.019  -8.541   1.334  1.00  0.00     0.040 A 
ATOM     68  C   UNL     1       7.439  -7.622  -0.381  1.00  0.00     0.040 A 
ATOM     69  F   UNL     1       6.594  -6.024  -1.877  1.00  0.00    -0.206 F 
ATOM     70  C   UNL     1       7.263  -8.473   0.709  1.00  0.00     0.006 A 
ENDBRANCH  49  63
BRANCH  50  71
ATOM     71  C   UNL     1      -2.512  -1.276  -3.104  1.00  0.00     0.057 A 
ATOM     72  C   UNL     1      -3.840  -1.652  -3.318  1.00  0.00     0.134 A 
ATOM     73  C   UNL     1      -2.151   0.044  -3.398  1.00  0.00     0.134 A 
ATOM     74  F   UNL     1      -4.228  -2.915  -3.092  1.00  0.00    -0.206 F 
ATOM     75  C   UNL     1      -4.779  -0.746  -3.814  1.00  0.00     0.040 A 
ATOM     76  C   UNL     1      -3.084   0.966  -3.871  1.00  0.00     0.040 A 
ATOM     77  F   UNL     1      -0.878   0.441  -3.255  1.00  0.00    -0.206 F 
ATOM     78  C   UNL     1      -4.402   0.569  -4.085  1.00  0.00     0.006 A 
ENDBRANCH  50  71
BRANCH  62  79
ATOM     79  C   UNL     1       0.872  -6.583  -6.048  1.00  0.00     0.057 A 
ATOM     80  C   UNL     1       1.295  -6.080  -7.282  1.00  0.00     0.134 A 
ATOM     81  C   UNL     1       0.272  -7.851  -6.033  1.00  0.00     0.134 A 
ATOM     82  F   UNL     1       1.857  -4.866  -7.365  1.00  0.00    -0.206 F 
ATOM     83  C   UNL     1       1.117  -6.807  -8.461  1.00  0.00     0.040 A 
ATOM     84  C   UNL     1       0.111  -8.596  -7.201  1.00  0.00     0.040 A 
ATOM     85  F   UNL     1      -0.153  -8.390  -4.880  1.00  0.00    -0.206 F 
ATOM     86  C   UNL     1       0.531  -8.072  -8.421  1.00  0.00     0.006 A 
ENDBRANCH  62  79
ENDBRANCH  36  37
ENDBRANCH  29  31
ENDBRANCH  28  29
ENDBRANCH  27  28
ENDBRANCH  26  27
ENDBRANCH  25  26
ENDBRANCH   1  25
TORSDOF 17
