REMARK SMILES C[C@@]([NH3+])(C(=O)Nc1cc(C(=O)OCCOCCOC(=O)c2ccc(-c3c4nc(c(-c5c(F)cccc5F)c5ccc([nH]5)c(-c5c(F)cccc5F)c5nc(c(-c6c(F)cccc6F)c6ccc3[nH]6)C=C5)C=C4)cc2)ccc1F)C(F)(F)F
REMARK SMILES IDX 14 1 13 2 12 3 10 4 11 5 9 6 7 7 8 8 77 9 76 10 78 11 75 12
REMARK SMILES IDX 6 13 4 14 5 15 2 17 1 18 3 19 79 23 80 24 81 25 82 26 15 27
REMARK SMILES IDX 16 28 17 29 18 30 19 31 20 32 21 33 22 34 74 35 23 36 73 37
REMARK SMILES IDX 24 38 25 39 26 40 67 41 27 42 72 43 66 44 68 45 28 46 71 47
REMARK SMILES IDX 65 48 64 49 29 51 55 52 38 53 54 54 39 55 42 56 53 57 69 58
REMARK SMILES IDX 40 59 41 60 52 62 70 63 43 64 30 65 31 66 36 67 32 68 33 69
REMARK SMILES IDX 35 70 37 71 34 72 56 73 57 74 62 75 58 76 59 77 61 78 63 79
REMARK SMILES IDX 60 80 44 81 45 82 50 83 46 84 47 85 49 86 51 87 48 88
REMARK H PARENT 6 16 3 20 3 21 3 22 68 50 42 61
REMARK Flexibility Score: inf
ROOT
ATOM      1  C   UNL     1      -2.133   0.190  -8.445  1.00  0.00     0.202 C 
ENDROOT
BRANCH   1   2
ATOM      2  C   UNL     1      -0.842   0.907  -8.036  1.00  0.00     0.261 C 
BRANCH   2   3
ATOM      3  O   UNL     1      -0.332   0.395  -6.797  1.00  0.00    -0.460 OA
BRANCH   3   4
ATOM      4  C   UNL     1      -0.378   1.258  -5.754  1.00  0.00     0.338 C 
ATOM      5  O   UNL     1      -0.650   2.447  -5.795  1.00  0.00    -0.246 OA
BRANCH   4   6
ATOM      6  C   UNL     1      -0.248   0.500  -4.488  1.00  0.00     0.062 A 
ATOM      7  C   UNL     1      -0.838   0.332  -2.154  1.00  0.00     0.078 A 
ATOM      8  C   UNL     1      -0.928   1.002  -3.369  1.00  0.00     0.045 A 
ATOM      9  C   UNL     1      -0.181  -0.898  -2.094  1.00  0.00     0.146 A 
ATOM     10  C   UNL     1       0.481  -1.414  -3.204  1.00  0.00     0.042 A 
ATOM     11  F   UNL     1      -0.205  -1.623  -0.966  1.00  0.00    -0.205 F 
ATOM     12  C   UNL     1       0.465  -0.705  -4.405  1.00  0.00     0.019 A 
BRANCH   7  13
ATOM     13  N   UNL     1      -1.467   0.886  -1.036  1.00  0.00    -0.318 N 
ATOM     14  C   UNL     1      -0.893   1.358   0.121  1.00  0.00     0.295 C 
ATOM     15  O   UNL     1      -1.680   1.700   1.010  1.00  0.00    -0.267 OA
ATOM     16  H   UNL     1      -2.449   0.946  -1.082  1.00  0.00     0.170 HD
BRANCH  14  17
ATOM     17  C   UNL     1       0.643   1.581   0.251  1.00  0.00     0.267 C 
ATOM     18  C   UNL     1       1.451   0.285   0.362  1.00  0.00     0.100 C 
BRANCH  17  19
ATOM     19  N   UNL     1       1.136   2.342  -0.963  1.00  0.00    -0.337 N 
ATOM     20  H   UNL     1       0.975   1.785  -1.802  1.00  0.00     0.345 HD
ATOM     21  H   UNL     1       2.134   2.529  -0.865  1.00  0.00     0.345 HD
ATOM     22  H   UNL     1       0.630   3.225  -1.039  1.00  0.00     0.345 HD
ENDBRANCH  17  19
BRANCH  17  23
ATOM     23  C   UNL     1       0.856   2.370   1.573  1.00  0.00     0.453 C 
ATOM     24  F   UNL     1       0.499   1.676   2.673  1.00  0.00    -0.164 F 
ATOM     25  F   UNL     1       2.180   2.667   1.712  1.00  0.00    -0.164 F 
ATOM     26  F   UNL     1       0.211   3.559   1.570  1.00  0.00    -0.164 F 
ENDBRANCH  17  23
ENDBRANCH  14  17
ENDBRANCH   7  13
ENDBRANCH   4   6
ENDBRANCH   3   4
ENDBRANCH   2   3
ENDBRANCH   1   2
BRANCH   1  27
ATOM     27  O   UNL     1      -3.259   0.303  -7.577  1.00  0.00    -0.374 OA
BRANCH  27  28
ATOM     28  C   UNL     1      -3.268  -0.473  -6.380  1.00  0.00     0.202 C 
BRANCH  28  29
ATOM     29  C   UNL     1      -3.506  -1.985  -6.494  1.00  0.00     0.261 C 
BRANCH  29  30
ATOM     30  O   UNL     1      -2.501  -2.664  -7.264  1.00  0.00    -0.460 OA
BRANCH  30  31
ATOM     31  C   UNL     1      -2.922  -3.107  -8.475  1.00  0.00     0.338 C 
ATOM     32  O   UNL     1      -4.042  -3.025  -8.949  1.00  0.00    -0.246 OA
BRANCH  31  33
ATOM     33  C   UNL     1      -1.764  -3.569  -9.261  1.00  0.00     0.060 A 
ATOM     34  C   UNL     1      -1.488  -2.915 -10.469  1.00  0.00     0.016 A 
ATOM     35  C   UNL     1      -1.005  -4.666  -8.854  1.00  0.00     0.016 A 
ATOM     36  C   UNL     1      -0.455  -3.369 -11.286  1.00  0.00     0.010 A 
ATOM     37  C   UNL     1       0.024  -5.127  -9.682  1.00  0.00     0.010 A 
ATOM     38  C   UNL     1       0.292  -4.493 -10.909  1.00  0.00    -0.014 A 
BRANCH  38  39
ATOM     39  C   UNL     1       1.310  -5.054 -11.829  1.00  0.00     0.031 A 
ATOM     40  C   UNL     1       1.000  -6.301 -12.605  1.00  0.00     0.074 A 
ATOM     41  C   UNL     1       2.505  -4.451 -11.965  1.00  0.00     0.049 A 
ATOM     42  N   UNL     1       1.779  -7.000 -13.391  1.00  0.00    -0.248 NA
ATOM     43  C   UNL     1      -0.365  -6.835 -12.480  1.00  0.00     0.031 C 
ATOM     44  C   UNL     1       2.904  -3.214 -11.296  1.00  0.00     0.029 A 
ATOM     45  N   UNL     1       3.607  -4.808 -12.701  1.00  0.00    -0.354 N 
ATOM     46  C   UNL     1       1.004  -8.059 -13.845  1.00  0.00     0.074 A 
ATOM     47  C   UNL     1      -0.299  -7.927 -13.229  1.00  0.00     0.031 C 
ATOM     48  C   UNL     1       4.168  -2.921 -11.642  1.00  0.00     0.029 A 
ATOM     49  C   UNL     1       4.681  -3.971 -12.520  1.00  0.00     0.049 A 
ATOM     50  H   UNL     1       3.626  -5.588 -13.300  1.00  0.00     0.167 HD
ATOM     51  C   UNL     1       1.351  -9.046 -14.704  1.00  0.00     0.037 A 
ATOM     52  C   UNL     1       5.944  -4.057 -12.983  1.00  0.00     0.037 A 
ATOM     53  C   UNL     1       2.647  -9.164 -15.321  1.00  0.00     0.049 A 
ATOM     54  C   UNL     1       6.327  -5.209 -13.873  1.00  0.00     0.074 A 
ATOM     55  C   UNL     1       3.078 -10.111 -16.233  1.00  0.00     0.029 A 
ATOM     56  N   UNL     1       3.719  -8.318 -15.084  1.00  0.00    -0.354 N 
ATOM     57  N   UNL     1       5.582  -6.192 -14.316  1.00  0.00    -0.248 NA
ATOM     58  C   UNL     1       7.726  -5.269 -14.324  1.00  0.00     0.031 C 
ATOM     59  C   UNL     1       4.429  -9.877 -16.498  1.00  0.00     0.029 A 
ATOM     60  C   UNL     1       4.823  -8.746 -15.802  1.00  0.00     0.049 A 
ATOM     61  H   UNL     1       3.698  -7.531 -14.493  1.00  0.00     0.167 HD
ATOM     62  C   UNL     1       6.411  -6.973 -15.112  1.00  0.00     0.074 A 
ATOM     63  C   UNL     1       7.715  -6.343 -15.102  1.00  0.00     0.031 C 
ATOM     64  C   UNL     1       6.116  -8.110 -15.788  1.00  0.00     0.037 A 
BRANCH  51  65
ATOM     65  C   UNL     1       0.329 -10.097 -15.025  1.00  0.00     0.057 A 
ATOM     66  C   UNL     1       0.507 -11.418 -14.592  1.00  0.00     0.134 A 
ATOM     67  C   UNL     1      -0.776  -9.829 -15.843  1.00  0.00     0.134 A 
ATOM     68  F   UNL     1       1.549 -11.743 -13.812  1.00  0.00    -0.206 F 
ATOM     69  C   UNL     1      -0.364 -12.437 -14.978  1.00  0.00     0.040 A 
ATOM     70  C   UNL     1      -1.669 -10.835 -16.214  1.00  0.00     0.040 A 
ATOM     71  F   UNL     1      -1.010  -8.583 -16.284  1.00  0.00    -0.206 F 
ATOM     72  C   UNL     1      -1.456 -12.147 -15.792  1.00  0.00     0.006 A 
ENDBRANCH  51  65
BRANCH  52  73
ATOM     73  C   UNL     1       6.938  -3.025 -12.595  1.00  0.00     0.057 A 
ATOM     74  C   UNL     1       7.390  -2.908 -11.274  1.00  0.00     0.134 A 
ATOM     75  C   UNL     1       7.444  -2.117 -13.531  1.00  0.00     0.134 A 
ATOM     76  F   UNL     1       6.943  -3.746 -10.328  1.00  0.00    -0.206 F 
ATOM     77  C   UNL     1       8.288  -1.910 -10.893  1.00  0.00     0.040 A 
ATOM     78  C   UNL     1       8.364  -1.131 -13.170  1.00  0.00     0.040 A 
ATOM     79  F   UNL     1       7.067  -2.192 -14.816  1.00  0.00    -0.206 F 
ATOM     80  C   UNL     1       8.780  -1.019 -11.844  1.00  0.00     0.006 A 
ENDBRANCH  52  73
BRANCH  64  81
ATOM     81  C   UNL     1       7.209  -8.756 -16.591  1.00  0.00     0.057 A 
ATOM     82  C   UNL     1       7.149  -8.776 -17.991  1.00  0.00     0.134 A 
ATOM     83  C   UNL     1       8.261  -9.447 -15.980  1.00  0.00     0.134 A 
ATOM     84  F   UNL     1       6.159  -8.144 -18.640  1.00  0.00    -0.206 F 
ATOM     85  C   UNL     1       8.081  -9.482 -18.753  1.00  0.00     0.040 A 
ATOM     86  C   UNL     1       9.216 -10.133 -16.732  1.00  0.00     0.040 A 
ATOM     87  F   UNL     1       8.382  -9.459 -14.644  1.00  0.00    -0.206 F 
ATOM     88  C   UNL     1       9.120 -10.163 -18.122  1.00  0.00     0.006 A 
ENDBRANCH  64  81
ENDBRANCH  38  39
ENDBRANCH  31  33
ENDBRANCH  30  31
ENDBRANCH  29  30
ENDBRANCH  28  29
ENDBRANCH  27  28
ENDBRANCH   1  27
TORSDOF 18
