REMARK SMILES C[C@H]1[C@H](C(=O)OCCOCCOC(=O)c2ccc(-c3c4nc(c(-c5c(F)cccc5F)c5ccc([nH]5)c(-c5c(F)cccc5F)c5nc(c(-c6c(F)cccc6F)c6ccc3[nH]6)C=C5)C=C4)cc2)CC[N@@H+]1Cc1cnn(-c2ccccc2)c1
REMARK SMILES IDX 8 1 7 2 6 3 4 4 5 5 3 6 1 7 2 8 71 9 69 10 70 11 72 13 73 14
REMARK SMILES IDX 74 15 83 16 75 17 76 18 77 19 78 20 82 21 79 22 81 23 80 24
REMARK SMILES IDX 9 25 10 26 11 27 12 28 13 29 14 30 15 31 16 32 68 33 17 34
REMARK SMILES IDX 67 35 18 36 19 37 20 38 61 39 21 40 66 41 60 42 62 43 22 44
REMARK SMILES IDX 65 45 59 46 58 47 23 49 49 50 32 51 48 52 33 53 36 54 47 55
REMARK SMILES IDX 63 56 34 57 35 58 46 60 64 61 37 62 24 63 25 64 30 65 26 66
REMARK SMILES IDX 27 67 29 68 31 69 28 70 50 71 51 72 56 73 52 74 53 75 55 76
REMARK SMILES IDX 57 77 54 78 38 79 39 80 44 81 40 82 41 83 43 84 45 85 42 86
REMARK H PARENT 71 12 62 48 36 59
REMARK Flexibility Score: inf
ROOT
ATOM      1  C   UNL     1       0.617   3.795   3.384  1.00  0.00     0.202 C 
ENDROOT
BRANCH   1   2
ATOM      2  C   UNL     1      -0.684   3.650   2.584  1.00  0.00     0.261 C 
BRANCH   2   3
ATOM      3  O   UNL     1      -0.649   2.436   1.808  1.00  0.00    -0.463 OA
BRANCH   3   4
ATOM      4  C   UNL     1      -0.794   2.564   0.465  1.00  0.00     0.315 C 
ATOM      5  O   UNL     1      -1.093   3.605  -0.109  1.00  0.00    -0.252 OA
BRANCH   4   6
ATOM      6  C   UNL     1      -0.563   1.268  -0.284  1.00  0.00     0.162 C 
ATOM      7  C   UNL     1       1.679   0.095  -0.408  1.00  0.00     0.076 C 
ATOM      8  C   UNL     1       0.370   0.238   0.380  1.00  0.00     0.195 C 
ATOM      9  N   UNL     1      -0.323  -1.057   0.316  1.00  0.00    -0.328 N 
ATOM     10  C   UNL     1      -1.878   0.540  -0.503  1.00  0.00     0.083 C 
ATOM     11  C   UNL     1      -1.483  -0.921  -0.557  1.00  0.00     0.263 C 
ATOM     12  H   UNL     1       0.308  -1.737  -0.107  1.00  0.00     0.348 HD
BRANCH   9  13
ATOM     13  C   UNL     1      -0.548  -1.728   1.597  1.00  0.00     0.302 C 
BRANCH  13  14
ATOM     14  C   UNL     1      -1.436  -1.000   2.550  1.00  0.00     0.045 A 
ATOM     15  C   UNL     1      -2.844  -1.016   2.609  1.00  0.00     0.145 A 
ATOM     16  C   UNL     1      -1.084  -0.227   3.640  1.00  0.00     0.124 A 
ATOM     17  N   UNL     1      -3.336  -0.334   3.642  1.00  0.00    -0.176 NA
ATOM     18  N   UNL     1      -2.248   0.199   4.250  1.00  0.00    -0.240 N 
BRANCH  18  19
ATOM     19  C   UNL     1      -2.391   1.090   5.350  1.00  0.00     0.065 A 
ATOM     20  C   UNL     1      -3.627   1.204   6.002  1.00  0.00     0.028 A 
ATOM     21  C   UNL     1      -1.318   1.872   5.787  1.00  0.00     0.028 A 
ATOM     22  C   UNL     1      -3.777   2.087   7.077  1.00  0.00     0.002 A 
ATOM     23  C   UNL     1      -1.485   2.785   6.833  1.00  0.00     0.002 A 
ATOM     24  C   UNL     1      -2.708   2.882   7.487  1.00  0.00     0.000 A 
ENDBRANCH  18  19
ENDBRANCH  13  14
ENDBRANCH   9  13
ENDBRANCH   4   6
ENDBRANCH   3   4
ENDBRANCH   2   3
ENDBRANCH   1   2
BRANCH   1  25
ATOM     25  O   UNL     1       1.760   4.186   2.621  1.00  0.00    -0.374 OA
BRANCH  25  26
ATOM     26  C   UNL     1       2.368   3.168   1.830  1.00  0.00     0.202 C 
BRANCH  26  27
ATOM     27  C   UNL     1       3.379   2.268   2.550  1.00  0.00     0.261 C 
BRANCH  27  28
ATOM     28  O   UNL     1       2.813   1.565   3.673  1.00  0.00    -0.460 OA
BRANCH  28  29
ATOM     29  C   UNL     1       3.216   2.030   4.883  1.00  0.00     0.338 C 
ATOM     30  O   UNL     1       4.006   2.938   5.090  1.00  0.00    -0.246 OA
BRANCH  29  31
ATOM     31  C   UNL     1       2.477   1.371   5.985  1.00  0.00     0.060 A 
ATOM     32  C   UNL     1       2.143   2.166   7.087  1.00  0.00     0.016 A 
ATOM     33  C   UNL     1       2.147   0.009   5.984  1.00  0.00     0.016 A 
ATOM     34  C   UNL     1       1.504   1.604   8.192  1.00  0.00     0.010 A 
ATOM     35  C   UNL     1       1.509  -0.557   7.101  1.00  0.00     0.010 A 
ATOM     36  C   UNL     1       1.204   0.234   8.220  1.00  0.00    -0.014 A 
BRANCH  36  37
ATOM     37  C   UNL     1       0.761  -0.351   9.514  1.00  0.00     0.031 A 
ATOM     38  C   UNL     1       1.812  -0.695  10.527  1.00  0.00     0.074 A 
ATOM     39  C   UNL     1      -0.537  -0.486   9.836  1.00  0.00     0.049 A 
ATOM     40  N   UNL     1       1.677  -1.027  11.783  1.00  0.00    -0.248 NA
ATOM     41  C   UNL     1       3.203  -0.666  10.049  1.00  0.00     0.031 C 
ATOM     42  C   UNL     1      -1.649  -0.233   8.934  1.00  0.00     0.029 A 
ATOM     43  N   UNL     1      -1.143  -0.840  11.018  1.00  0.00    -0.354 N 
ATOM     44  C   UNL     1       2.965  -1.239  12.252  1.00  0.00     0.074 A 
ATOM     45  C   UNL     1       3.865  -1.023  11.138  1.00  0.00     0.031 C 
ATOM     46  C   UNL     1      -2.805  -0.368   9.605  1.00  0.00     0.029 A 
ATOM     47  C   UNL     1      -2.516  -0.749  10.983  1.00  0.00     0.049 A 
ATOM     48  H   UNL     1      -0.642  -1.131  11.815  1.00  0.00     0.167 HD
ATOM     49  C   UNL     1       3.364  -1.589  13.496  1.00  0.00     0.037 A 
ATOM     50  C   UNL     1      -3.432  -0.939  11.954  1.00  0.00     0.037 A 
ATOM     51  C   UNL     1       2.468  -1.862  14.588  1.00  0.00     0.049 A 
ATOM     52  C   UNL     1      -2.963  -1.339  13.329  1.00  0.00     0.074 A 
ATOM     53  C   UNL     1       2.775  -2.256  15.878  1.00  0.00     0.029 A 
ATOM     54  N   UNL     1       1.085  -1.789  14.510  1.00  0.00    -0.354 N 
ATOM     55  N   UNL     1      -1.739  -1.485  13.778  1.00  0.00    -0.248 NA
ATOM     56  C   UNL     1      -4.004  -1.615  14.331  1.00  0.00     0.031 C 
ATOM     57  C   UNL     1       1.575  -2.470  16.566  1.00  0.00     0.029 A 
ATOM     58  C   UNL     1       0.522  -2.151  15.723  1.00  0.00     0.049 A 
ATOM     59  H   UNL     1       0.578  -1.520  13.710  1.00  0.00     0.167 HD
ATOM     60  C   UNL     1      -1.862  -1.858  15.111  1.00  0.00     0.074 A 
ATOM     61  C   UNL     1      -3.279  -1.879  15.409  1.00  0.00     0.031 C 
ATOM     62  C   UNL     1      -0.891  -2.168  16.004  1.00  0.00     0.037 A 
BRANCH  49  63
ATOM     63  C   UNL     1       4.839  -1.746  13.707  1.00  0.00     0.057 A 
ATOM     64  C   UNL     1       5.704  -0.644  13.723  1.00  0.00     0.134 A 
ATOM     65  C   UNL     1       5.405  -3.017  13.860  1.00  0.00     0.134 A 
ATOM     66  F   UNL     1       5.226   0.598  13.553  1.00  0.00    -0.206 F 
ATOM     67  C   UNL     1       7.085  -0.803  13.853  1.00  0.00     0.040 A 
ATOM     68  C   UNL     1       6.781  -3.187  14.018  1.00  0.00     0.040 A 
ATOM     69  F   UNL     1       4.632  -4.114  13.847  1.00  0.00    -0.206 F 
ATOM     70  C   UNL     1       7.625  -2.079  14.004  1.00  0.00     0.006 A 
ENDBRANCH  49  63
BRANCH  50  71
ATOM     71  C   UNL     1      -4.885  -0.750  11.685  1.00  0.00     0.057 A 
ATOM     72  C   UNL     1      -5.617   0.259  12.325  1.00  0.00     0.134 A 
ATOM     73  C   UNL     1      -5.591  -1.603  10.828  1.00  0.00     0.134 A 
ATOM     74  F   UNL     1      -5.009   1.096  13.179  1.00  0.00    -0.206 F 
ATOM     75  C   UNL     1      -6.996   0.395  12.146  1.00  0.00     0.040 A 
ATOM     76  C   UNL     1      -6.963  -1.459  10.615  1.00  0.00     0.040 A 
ATOM     77  F   UNL     1      -4.956  -2.594  10.185  1.00  0.00    -0.206 F 
ATOM     78  C   UNL     1      -7.673  -0.464  11.284  1.00  0.00     0.006 A 
ENDBRANCH  50  71
BRANCH  62  79
ATOM     79  C   UNL     1      -1.329  -2.535  17.394  1.00  0.00     0.057 A 
ATOM     80  C   UNL     1      -1.991  -3.739  17.671  1.00  0.00     0.134 A 
ATOM     81  C   UNL     1      -1.059  -1.684  18.473  1.00  0.00     0.134 A 
ATOM     82  F   UNL     1      -2.290  -4.594  16.681  1.00  0.00    -0.206 F 
ATOM     83  C   UNL     1      -2.397  -4.067  18.965  1.00  0.00     0.040 A 
ATOM     84  C   UNL     1      -1.433  -2.016  19.776  1.00  0.00     0.040 A 
ATOM     85  F   UNL     1      -0.419  -0.521  18.281  1.00  0.00    -0.206 F 
ATOM     86  C   UNL     1      -2.112  -3.207  20.024  1.00  0.00     0.006 A 
ENDBRANCH  62  79
ENDBRANCH  36  37
ENDBRANCH  29  31
ENDBRANCH  28  29
ENDBRANCH  27  28
ENDBRANCH  26  27
ENDBRANCH  25  26
ENDBRANCH   1  25
TORSDOF 17
