REMARK SMILES CC(C)CSc1cc2c(cc1Cl)C=C(C(=O)OCCOCCOC(=O)c1ccc(-c3c4nc(c(-c5c(F)cccc5F)c5ccc([nH]5)c(-c5c(F)cccc5F)c5nc(c(-c6c(F)cccc6F)c6ccc3[nH]6)C=C5)C=C4)cc1)[C@H](C(F)(F)F)O2
REMARK SMILES IDX 19 1 18 2 17 3 15 4 16 5 14 6 6 7 7 8 11 9 8 10 10 11 12 12
REMARK SMILES IDX 9 13 85 14 13 15 80 16 5 17 4 18 2 19 1 20 3 21 81 22 82 23
REMARK SMILES IDX 83 24 84 25 20 26 21 27 22 28 23 29 24 30 25 31 26 32 27 33
REMARK SMILES IDX 79 34 28 35 78 36 29 37 30 38 31 39 72 40 32 41 77 42 71 43
REMARK SMILES IDX 73 44 33 45 76 46 70 47 69 48 34 50 60 51 43 52 59 53 44 54
REMARK SMILES IDX 47 55 58 56 74 57 45 58 46 59 57 61 75 62 48 63 35 64 36 65
REMARK SMILES IDX 41 66 37 67 38 68 40 69 42 70 39 71 61 72 62 73 67 74 63 75
REMARK SMILES IDX 64 76 66 77 68 78 65 79 49 80 50 81 55 82 51 83 52 84 54 85
REMARK SMILES IDX 56 86 53 87
REMARK H PARENT 73 49 47 60
REMARK Flexibility Score: inf
ROOT
ATOM      1  C   UNL     1       1.236  -0.121  10.229  1.00  0.00     0.202 C 
ENDROOT
BRANCH   1   2
ATOM      2  C   UNL     1       2.398   0.257   9.306  1.00  0.00     0.261 C 
BRANCH   2   3
ATOM      3  O   UNL     1       1.918   0.895   8.111  1.00  0.00    -0.460 OA
BRANCH   3   4
ATOM      4  C   UNL     1       2.043   0.162   6.986  1.00  0.00     0.338 C 
ATOM      5  O   UNL     1       2.682  -0.871   6.860  1.00  0.00    -0.246 OA
BRANCH   4   6
ATOM      6  C   UNL     1       1.177   0.708   5.925  1.00  0.00     0.087 C 
ATOM      7  C   UNL     1      -1.232   1.081   1.535  1.00  0.00     0.030 A 
ATOM      8  C   UNL     1      -0.581   1.996   2.385  1.00  0.00     0.063 A 
ATOM      9  C   UNL     1      -1.444  -0.228   1.998  1.00  0.00     0.055 A 
ATOM     10  C   UNL     1      -0.048   1.586   3.608  1.00  0.00     0.129 A 
ATOM     11  C   UNL     1      -0.888  -0.642   3.213  1.00  0.00     0.033 A 
ATOM     12  Cl  UNL     1      -2.383  -1.401   1.145  1.00  0.00    -0.083 Cl
ATOM     13  C   UNL     1      -0.160   0.254   3.998  1.00  0.00     0.019 A 
ATOM     14  O   UNL     1       0.652   2.520   4.324  1.00  0.00    -0.475 OA
ATOM     15  C   UNL     1       0.583  -0.212   5.152  1.00  0.00     0.027 C 
ATOM     16  C   UNL     1       1.025   2.189   5.697  1.00  0.00     0.316 C 
BRANCH   7  17
ATOM     17  S   UNL     1      -1.686   1.719  -0.076  1.00  0.00    -0.124 SA
BRANCH  17  18
ATOM     18  C   UNL     1      -0.897   0.545  -1.252  1.00  0.00     0.078 C 
BRANCH  18  19
ATOM     19  C   UNL     1       0.640   0.563  -1.379  1.00  0.00    -0.007 C 
ATOM     20  C   UNL     1       1.385   0.076  -0.136  1.00  0.00     0.008 C 
ATOM     21  C   UNL     1       1.043  -0.331  -2.562  1.00  0.00     0.008 C 
ENDBRANCH  18  19
ENDBRANCH  17  18
ENDBRANCH   7  17
BRANCH  16  22
ATOM     22  C   UNL     1       0.053   2.883   6.675  1.00  0.00     0.430 C 
ATOM     23  F   UNL     1      -1.082   2.169   6.866  1.00  0.00    -0.167 F 
ATOM     24  F   UNL     1       0.613   3.088   7.891  1.00  0.00    -0.167 F 
ATOM     25  F   UNL     1      -0.318   4.106   6.222  1.00  0.00    -0.167 F 
ENDBRANCH  16  22
ENDBRANCH   4   6
ENDBRANCH   3   4
ENDBRANCH   2   3
ENDBRANCH   1   2
BRANCH   1  26
ATOM     26  O   UNL     1       0.303  -1.070   9.712  1.00  0.00    -0.374 OA
BRANCH  26  27
ATOM     27  C   UNL     1      -0.726  -0.583   8.850  1.00  0.00     0.202 C 
BRANCH  27  28
ATOM     28  C   UNL     1      -1.906   0.141   9.510  1.00  0.00     0.261 C 
BRANCH  28  29
ATOM     29  O   UNL     1      -1.516   1.415  10.050  1.00  0.00    -0.460 OA
BRANCH  29  30
ATOM     30  C   UNL     1      -1.448   1.474  11.401  1.00  0.00     0.338 C 
ATOM     31  O   UNL     1      -1.744   0.593  12.194  1.00  0.00    -0.246 OA
BRANCH  30  32
ATOM     32  C   UNL     1      -0.758   2.717  11.807  1.00  0.00     0.060 A 
ATOM     33  C   UNL     1      -1.063   3.951  11.230  1.00  0.00     0.016 A 
ATOM     34  C   UNL     1       0.213   2.627  12.813  1.00  0.00     0.016 A 
ATOM     35  C   UNL     1      -0.416   5.101  11.690  1.00  0.00     0.010 A 
ATOM     36  C   UNL     1       0.850   3.779  13.278  1.00  0.00     0.010 A 
ATOM     37  C   UNL     1       0.527   5.028  12.732  1.00  0.00    -0.014 A 
BRANCH  37  38
ATOM     38  C   UNL     1       1.087   6.276  13.311  1.00  0.00     0.031 A 
ATOM     39  C   UNL     1       2.515   6.676  13.086  1.00  0.00     0.074 A 
ATOM     40  C   UNL     1       0.282   7.059  14.055  1.00  0.00     0.049 A 
ATOM     41  N   UNL     1       3.123   7.786  13.426  1.00  0.00    -0.248 NA
ATOM     42  C   UNL     1       3.376   5.703  12.400  1.00  0.00     0.031 C 
ATOM     43  C   UNL     1      -1.110   6.754  14.392  1.00  0.00     0.029 A 
ATOM     44  N   UNL     1       0.510   8.275  14.648  1.00  0.00    -0.354 N 
ATOM     45  C   UNL     1       4.429   7.659  12.973  1.00  0.00     0.074 A 
ATOM     46  C   UNL     1       4.542   6.335  12.393  1.00  0.00     0.031 C 
ATOM     47  C   UNL     1      -1.625   7.776  15.092  1.00  0.00     0.029 A 
ATOM     48  C   UNL     1      -0.595   8.793  15.279  1.00  0.00     0.049 A 
ATOM     49  H   UNL     1       1.382   8.732  14.623  1.00  0.00     0.167 HD
ATOM     50  C   UNL     1       5.434   8.569  13.016  1.00  0.00     0.037 A 
ATOM     51  C   UNL     1      -0.761   9.961  15.926  1.00  0.00     0.037 A 
ATOM     52  C   UNL     1       5.329   9.871  13.625  1.00  0.00     0.049 A 
ATOM     53  C   UNL     1       0.388  10.928  16.006  1.00  0.00     0.074 A 
ATOM     54  C   UNL     1       6.284  10.873  13.696  1.00  0.00     0.029 A 
ATOM     55  N   UNL     1       4.207  10.348  14.289  1.00  0.00    -0.354 N 
ATOM     56  N   UNL     1       1.590  10.835  15.490  1.00  0.00    -0.248 NA
ATOM     57  C   UNL     1       0.149  12.172  16.751  1.00  0.00     0.031 C 
ATOM     58  C   UNL     1       5.760  11.929  14.451  1.00  0.00     0.029 A 
ATOM     59  C   UNL     1       4.456  11.615  14.796  1.00  0.00     0.049 A 
ATOM     60  H   UNL     1       3.359   9.858  14.386  1.00  0.00     0.167 HD
ATOM     61  C   UNL     1       2.237  12.021  15.818  1.00  0.00     0.074 A 
ATOM     62  C   UNL     1       1.286  12.824  16.558  1.00  0.00     0.031 C 
ATOM     63  C   UNL     1       3.504  12.409  15.532  1.00  0.00     0.037 A 
BRANCH  50  64
ATOM     64  C   UNL     1       6.741   8.178  12.383  1.00  0.00     0.057 A 
ATOM     65  C   UNL     1       7.888   7.978  13.161  1.00  0.00     0.134 A 
ATOM     66  C   UNL     1       6.869   8.024  10.996  1.00  0.00     0.134 A 
ATOM     67  F   UNL     1       7.842   8.121  14.494  1.00  0.00    -0.206 F 
ATOM     68  C   UNL     1       9.112   7.633  12.584  1.00  0.00     0.040 A 
ATOM     69  C   UNL     1       8.080   7.650  10.409  1.00  0.00     0.040 A 
ATOM     70  F   UNL     1       5.809   8.194  10.191  1.00  0.00    -0.206 F 
ATOM     71  C   UNL     1       9.207   7.458  11.204  1.00  0.00     0.006 A 
ENDBRANCH  50  64
BRANCH  51  72
ATOM     72  C   UNL     1      -2.072  10.303  16.535  1.00  0.00     0.057 A 
ATOM     73  C   UNL     1      -2.560   9.616  17.652  1.00  0.00     0.134 A 
ATOM     74  C   UNL     1      -2.844  11.362  16.041  1.00  0.00     0.134 A 
ATOM     75  F   UNL     1      -1.873   8.586  18.168  1.00  0.00    -0.206 F 
ATOM     76  C   UNL     1      -3.764   9.973  18.261  1.00  0.00     0.040 A 
ATOM     77  C   UNL     1      -4.034  11.750  16.659  1.00  0.00     0.040 A 
ATOM     78  F   UNL     1      -2.422  12.070  14.983  1.00  0.00    -0.206 F 
ATOM     79  C   UNL     1      -4.497  11.052  17.773  1.00  0.00     0.006 A 
ENDBRANCH  51  72
BRANCH  63  80
ATOM     80  C   UNL     1       3.916  13.783  15.985  1.00  0.00     0.057 A 
ATOM     81  C   UNL     1       4.149  14.800  15.050  1.00  0.00     0.134 A 
ATOM     82  C   UNL     1       4.078  14.105  17.340  1.00  0.00     0.134 A 
ATOM     83  F   UNL     1       4.022  14.561  13.736  1.00  0.00    -0.206 F 
ATOM     84  C   UNL     1       4.521  16.086  15.445  1.00  0.00     0.040 A 
ATOM     85  C   UNL     1       4.416  15.397  17.748  1.00  0.00     0.040 A 
ATOM     86  F   UNL     1       3.856  13.184  18.290  1.00  0.00    -0.206 F 
ATOM     87  C   UNL     1       4.643  16.391  16.799  1.00  0.00     0.006 A 
ENDBRANCH  63  80
ENDBRANCH  37  38
ENDBRANCH  30  32
ENDBRANCH  29  30
ENDBRANCH  28  29
ENDBRANCH  27  28
ENDBRANCH  26  27
ENDBRANCH   1  26
TORSDOF 18
