REMARK SMILES Cc1occc1C(=O)NN1C(=O)/C(=C\c2ccc(O[C@H](C)C(=O)OCCOCCOC(=O)c3ccc(-c4c5nc(c(-c6c(F)cccc6F)c6ccc([nH]6)c(-c6c(F)cccc6F)c6nc(c(-c7c(F)cccc7F)c7ccc4[nH]7)C=C6)C=C5)cc3)cc2)SC1=S
REMARK SMILES IDX 25 1 24 2 22 3 23 4 20 5 21 6 19 7 18 8 15 9 16 10 88 11
REMARK SMILES IDX 17 12 87 13 14 14 10 15 11 16 90 17 12 18 13 19 89 20 91 21
REMARK SMILES IDX 9 22 7 23 8 24 6 26 1 27 2 28 3 29 4 30 5 31 26 32 27 33
REMARK SMILES IDX 28 34 29 35 30 36 31 37 32 38 33 39 34 40 86 41 35 42 85 43
REMARK SMILES IDX 36 44 37 45 38 46 79 47 39 48 84 49 78 50 80 51 40 52 83 53
REMARK SMILES IDX 77 54 76 55 41 57 67 58 50 59 66 60 51 61 54 62 65 63 81 64
REMARK SMILES IDX 52 65 53 66 64 68 82 69 55 70 42 71 43 72 48 73 44 74 45 75
REMARK SMILES IDX 47 76 49 77 46 78 68 79 69 80 74 81 70 82 71 83 73 84 75 85
REMARK SMILES IDX 72 86 56 87 57 88 62 89 58 90 59 91 61 92 63 93 60 94
REMARK H PARENT 9 25 80 56 54 67
REMARK Flexibility Score: inf
ROOT
ATOM      1  C   UNL     1       4.914  -2.212  -8.014  1.00  0.00     0.261 C 
ENDROOT
BRANCH   1   2
ATOM      2  O   UNL     1       5.232  -3.212  -7.032  1.00  0.00    -0.461 OA
BRANCH   2   3
ATOM      3  C   UNL     1       5.243  -4.495  -7.492  1.00  0.00     0.347 C 
ATOM      4  O   UNL     1       5.042  -4.825  -8.655  1.00  0.00    -0.248 OA
BRANCH   3   5
ATOM      5  C   UNL     1       5.545  -5.499  -6.386  1.00  0.00     0.279 C 
ATOM      6  C   UNL     1       6.937  -5.377  -5.767  1.00  0.00     0.066 C 
BRANCH   5   7
ATOM      7  O   UNL     1       4.423  -5.651  -5.527  1.00  0.00    -0.479 OA
BRANCH   7   8
ATOM      8  C   UNL     1       4.236  -5.008  -4.351  1.00  0.00     0.120 A 
ATOM      9  C   UNL     1       3.773  -4.194  -1.700  1.00  0.00    -0.024 A 
ATOM     10  C   UNL     1       4.782  -3.600  -2.466  1.00  0.00     0.012 A 
ATOM     11  C   UNL     1       2.886  -5.065  -2.332  1.00  0.00     0.012 A 
ATOM     12  C   UNL     1       4.997  -3.990  -3.794  1.00  0.00     0.047 A 
ATOM     13  C   UNL     1       3.140  -5.492  -3.635  1.00  0.00     0.047 A 
BRANCH   9  14
ATOM     14  C   UNL     1       3.727  -3.922  -0.257  1.00  0.00     0.029 C 
ATOM     15  N   UNL     1       3.272  -6.904   1.779  1.00  0.00    -0.198 N 
ATOM     16  C   UNL     1       3.591  -6.336   0.557  1.00  0.00     0.285 C 
ATOM     17  C   UNL     1       3.449  -6.135   2.908  1.00  0.00     0.168 C 
ATOM     18  O   UNL     1       3.815  -6.974  -0.461  1.00  0.00    -0.266 OA
ATOM     19  C   UNL     1       3.687  -4.853   0.711  1.00  0.00     0.082 C 
ATOM     20  S   UNL     1       3.730  -4.464   2.403  1.00  0.00    -0.052 SA
ATOM     21  S   UNL     1       3.434  -6.623   4.500  1.00  0.00    -0.050 S 
BRANCH  15  22
ATOM     22  N   UNL     1       3.086  -8.281   1.794  1.00  0.00    -0.254 N 
ATOM     23  C   UNL     1       1.902  -8.969   1.927  1.00  0.00     0.273 C 
ATOM     24  O   UNL     1       1.939 -10.178   1.686  1.00  0.00    -0.267 OA
ATOM     25  H   UNL     1       3.898  -8.829   1.697  1.00  0.00     0.192 HD
BRANCH  23  26
ATOM     26  C   UNL     1       0.674  -8.369   2.439  1.00  0.00     0.082 A 
ATOM     27  C   UNL     1       0.306  -5.912   1.468  1.00  0.00     0.088 C 
ATOM     28  C   UNL     1       0.062  -7.136   2.255  1.00  0.00     0.113 A 
ATOM     29  O   UNL     1      -1.105  -7.077   2.964  1.00  0.00    -0.469 OA
ATOM     30  C   UNL     1      -1.295  -8.277   3.552  1.00  0.00     0.196 A 
ATOM     31  C   UNL     1      -0.255  -9.112   3.248  1.00  0.00     0.056 A 
ENDBRANCH  23  26
ENDBRANCH  15  22
ENDBRANCH   9  14
ENDBRANCH   7   8
ENDBRANCH   5   7
ENDBRANCH   3   5
ENDBRANCH   2   3
ENDBRANCH   1   2
BRANCH   1  32
ATOM     32  C   UNL     1       6.115  -1.322  -8.341  1.00  0.00     0.202 C 
BRANCH  32  33
ATOM     33  O   UNL     1       7.215  -1.946  -8.999  1.00  0.00    -0.374 OA
BRANCH  33  34
ATOM     34  C   UNL     1       8.087  -2.748  -8.206  1.00  0.00     0.202 C 
BRANCH  34  35
ATOM     35  C   UNL     1       9.104  -2.000  -7.335  1.00  0.00     0.261 C 
BRANCH  35  36
ATOM     36  O   UNL     1       8.472  -1.200  -6.318  1.00  0.00    -0.460 OA
BRANCH  36  37
ATOM     37  C   UNL     1       8.595   0.136  -6.496  1.00  0.00     0.338 C 
ATOM     38  O   UNL     1       9.246   0.712  -7.360  1.00  0.00    -0.246 OA
BRANCH  37  39
ATOM     39  C   UNL     1       7.688   0.864  -5.593  1.00  0.00     0.060 A 
ATOM     40  C   UNL     1       6.814   1.794  -6.171  1.00  0.00     0.016 A 
ATOM     41  C   UNL     1       7.752   0.718  -4.205  1.00  0.00     0.016 A 
ATOM     42  C   UNL     1       6.040   2.622  -5.362  1.00  0.00     0.010 A 
ATOM     43  C   UNL     1       6.979   1.558  -3.393  1.00  0.00     0.010 A 
ATOM     44  C   UNL     1       6.149   2.538  -3.967  1.00  0.00    -0.014 A 
BRANCH  44  45
ATOM     45  C   UNL     1       5.512   3.581  -3.126  1.00  0.00     0.031 A 
ATOM     46  C   UNL     1       6.351   4.722  -2.616  1.00  0.00     0.074 A 
ATOM     47  C   UNL     1       4.194   3.541  -2.859  1.00  0.00     0.049 A 
ATOM     48  N   UNL     1       6.009   5.727  -1.851  1.00  0.00    -0.248 NA
ATOM     49  C   UNL     1       7.764   4.732  -3.027  1.00  0.00     0.031 C 
ATOM     50  C   UNL     1       3.265   2.518  -3.334  1.00  0.00     0.029 A 
ATOM     51  N   UNL     1       3.411   4.391  -2.119  1.00  0.00    -0.354 N 
ATOM     52  C   UNL     1       7.160   6.488  -1.690  1.00  0.00     0.074 A 
ATOM     53  C   UNL     1       8.219   5.813  -2.409  1.00  0.00     0.031 C 
ATOM     54  C   UNL     1       2.035   2.796  -2.866  1.00  0.00     0.029 A 
ATOM     55  C   UNL     1       2.097   3.998  -2.037  1.00  0.00     0.049 A 
ATOM     56  H   UNL     1       3.757   5.205  -1.687  1.00  0.00     0.167 HD
ATOM     57  C   UNL     1       7.318   7.652  -1.016  1.00  0.00     0.037 A 
ATOM     58  C   UNL     1       1.069   4.538  -1.354  1.00  0.00     0.037 A 
ATOM     59  C   UNL     1       6.267   8.328  -0.303  1.00  0.00     0.049 A 
ATOM     60  C   UNL     1       1.292   5.790  -0.546  1.00  0.00     0.074 A 
ATOM     61  C   UNL     1       6.331   9.512   0.411  1.00  0.00     0.029 A 
ATOM     62  N   UNL     1       4.959   7.877  -0.213  1.00  0.00    -0.354 N 
ATOM     63  N   UNL     1       2.382   6.505  -0.410  1.00  0.00    -0.248 NA
ATOM     64  C   UNL     1       0.138   6.309   0.203  1.00  0.00     0.031 C 
ATOM     65  C   UNL     1       5.071   9.758   0.966  1.00  0.00     0.029 A 
ATOM     66  C   UNL     1       4.212   8.750   0.560  1.00  0.00     0.049 A 
ATOM     67  H   UNL     1       4.613   7.059  -0.637  1.00  0.00     0.167 HD
ATOM     68  C   UNL     1       2.038   7.572   0.411  1.00  0.00     0.074 A 
ATOM     69  C   UNL     1       0.635   7.418   0.734  1.00  0.00     0.031 C 
ATOM     70  C   UNL     1       2.813   8.590   0.859  1.00  0.00     0.037 A 
BRANCH  57  71
ATOM     71  C   UNL     1       8.686   8.267  -1.005  1.00  0.00     0.057 A 
ATOM     72  C   UNL     1       9.215   8.905  -2.134  1.00  0.00     0.134 A 
ATOM     73  C   UNL     1       9.461   8.265   0.161  1.00  0.00     0.134 A 
ATOM     74  F   UNL     1       8.528   8.929  -3.286  1.00  0.00    -0.206 F 
ATOM     75  C   UNL     1      10.473   9.510  -2.106  1.00  0.00     0.040 A 
ATOM     76  C   UNL     1      10.710   8.886   0.208  1.00  0.00     0.040 A 
ATOM     77  F   UNL     1       9.010   7.673   1.278  1.00  0.00    -0.206 F 
ATOM     78  C   UNL     1      11.220   9.509  -0.930  1.00  0.00     0.006 A 
ENDBRANCH  57  71
BRANCH  58  79
ATOM     79  C   UNL     1      -0.269   3.893  -1.381  1.00  0.00     0.057 A 
ATOM     80  C   UNL     1      -1.362   4.512  -1.998  1.00  0.00     0.134 A 
ATOM     81  C   UNL     1      -0.496   2.666  -0.747  1.00  0.00     0.134 A 
ATOM     82  F   UNL     1      -1.213   5.701  -2.599  1.00  0.00    -0.206 F 
ATOM     83  C   UNL     1      -2.638   3.947  -1.962  1.00  0.00     0.040 A 
ATOM     84  C   UNL     1      -1.761   2.076  -0.726  1.00  0.00     0.040 A 
ATOM     85  F   UNL     1       0.510   2.021  -0.137  1.00  0.00    -0.206 F 
ATOM     86  C   UNL     1      -2.838   2.723  -1.327  1.00  0.00     0.006 A 
ENDBRANCH  58  79
BRANCH  70  87
ATOM     87  C   UNL     1       2.155   9.635   1.711  1.00  0.00     0.057 A 
ATOM     88  C   UNL     1       1.785   9.383   3.038  1.00  0.00     0.134 A 
ATOM     89  C   UNL     1       1.924  10.922   1.208  1.00  0.00     0.134 A 
ATOM     90  F   UNL     1       1.968   8.167   3.575  1.00  0.00    -0.206 F 
ATOM     91  C   UNL     1       1.190  10.368   3.828  1.00  0.00     0.040 A 
ATOM     92  C   UNL     1       1.353  11.922   1.996  1.00  0.00     0.040 A 
ATOM     93  F   UNL     1       2.264  11.232  -0.052  1.00  0.00    -0.206 F 
ATOM     94  C   UNL     1       0.978  11.644   3.309  1.00  0.00     0.006 A 
ENDBRANCH  70  87
ENDBRANCH  44  45
ENDBRANCH  37  39
ENDBRANCH  36  37
ENDBRANCH  35  36
ENDBRANCH  34  35
ENDBRANCH  33  34
ENDBRANCH  32  33
ENDBRANCH   1  32
TORSDOF 19
