REMARK SMILES C[C@H](Sc1ccccn1)C(=O)N[C@H](C(=O)OCCOCCOC(=O)c1ccc(-c2c3nc(c(-c4c(F)cccc4F)c4ccc([nH]4)c(-c4c(F)cccc4F)c4nc(c(-c5c(F)cccc5F)c5ccc2[nH]5)C=C4)C=C3)cc1)c1ccc(F)cc1
REMARK SMILES IDX 18 1 17 2 16 3 14 4 15 5 13 6 12 7 10 8 11 9 2 11 1 12 3 13
REMARK SMILES IDX 4 14 5 15 9 16 6 17 8 18 7 19 79 20 80 21 85 22 81 23 84 24
REMARK SMILES IDX 82 25 83 26 19 27 20 28 21 29 22 30 23 31 24 32 25 33 26 34
REMARK SMILES IDX 78 35 27 36 77 37 28 38 29 39 30 40 71 41 31 42 76 43 70 44
REMARK SMILES IDX 72 45 32 46 75 47 69 48 68 49 33 51 59 52 42 53 58 54 43 55
REMARK SMILES IDX 46 56 57 57 73 58 44 59 45 60 56 62 74 63 47 64 34 65 35 66
REMARK SMILES IDX 40 67 36 68 37 69 39 70 41 71 38 72 60 73 61 74 66 75 62 76
REMARK SMILES IDX 63 77 65 78 67 79 64 80 48 81 49 82 54 83 50 84 51 85 53 86
REMARK SMILES IDX 55 87 52 88
REMARK H PARENT 12 10 72 50 46 61
REMARK Flexibility Score: inf
ROOT
ATOM      1  C   UNL     1      -2.513   0.489   2.966  1.00  0.00     0.202 C 
ENDROOT
BRANCH   1   2
ATOM      2  C   UNL     1      -2.559  -0.248   1.615  1.00  0.00     0.261 C 
BRANCH   2   3
ATOM      3  O   UNL     1      -1.890   0.396   0.535  1.00  0.00    -0.461 OA
BRANCH   3   4
ATOM      4  C   UNL     1      -2.589   1.448   0.011  1.00  0.00     0.333 C 
ATOM      5  O   UNL     1      -3.677   1.832   0.414  1.00  0.00    -0.249 OA
BRANCH   4   6
ATOM      6  C   UNL     1      -1.808   2.071  -1.147  1.00  0.00     0.223 C 
BRANCH   6   7
ATOM      7  N   UNL     1      -2.038   1.415  -2.437  1.00  0.00    -0.338 N 
ATOM      8  C   UNL     1      -3.122   1.099  -3.185  1.00  0.00     0.234 C 
ATOM      9  O   UNL     1      -2.867   0.550  -4.266  1.00  0.00    -0.274 OA
ATOM     10  H   UNL     1      -1.197   1.136  -2.865  1.00  0.00     0.164 HD
BRANCH   8  11
ATOM     11  C   UNL     1      -4.586   1.331  -2.785  1.00  0.00     0.139 C 
ATOM     12  C   UNL     1      -4.891   2.778  -2.457  1.00  0.00     0.030 C 
BRANCH  11  13
ATOM     13  S   UNL     1      -5.162  -0.074  -1.726  1.00  0.00    -0.093 SA
BRANCH  13  14
ATOM     14  C   UNL     1      -6.264   0.605  -0.501  1.00  0.00     0.097 A 
ATOM     15  C   UNL     1      -7.258   1.534  -0.778  1.00  0.00     0.035 A 
ATOM     16  N   UNL     1      -6.102   0.091   0.744  1.00  0.00    -0.250 NA
ATOM     17  C   UNL     1      -8.045   2.022   0.267  1.00  0.00     0.004 A 
ATOM     18  C   UNL     1      -6.876   0.578   1.739  1.00  0.00     0.112 A 
ATOM     19  C   UNL     1      -7.847   1.543   1.555  1.00  0.00     0.020 A 
ENDBRANCH  13  14
ENDBRANCH  11  13
ENDBRANCH   8  11
ENDBRANCH   6   7
BRANCH   6  20
ATOM     20  C   UNL     1      -1.741   3.599  -1.191  1.00  0.00    -0.014 A 
ATOM     21  C   UNL     1      -0.626   4.221  -1.790  1.00  0.00     0.009 A 
ATOM     22  C   UNL     1      -2.703   4.436  -0.595  1.00  0.00     0.009 A 
ATOM     23  C   UNL     1      -0.492   5.615  -1.796  1.00  0.00     0.039 A 
ATOM     24  C   UNL     1      -2.585   5.827  -0.626  1.00  0.00     0.039 A 
ATOM     25  C   UNL     1      -1.479   6.405  -1.224  1.00  0.00     0.123 A 
ATOM     26  F   UNL     1      -1.357   7.738  -1.237  1.00  0.00    -0.207 F 
ENDBRANCH   6  20
ENDBRANCH   4   6
ENDBRANCH   3   4
ENDBRANCH   2   3
ENDBRANCH   1   2
BRANCH   1  27
ATOM     27  O   UNL     1      -2.196   1.874   3.023  1.00  0.00    -0.374 OA
BRANCH  27  28
ATOM     28  C   UNL     1      -0.927   2.346   2.584  1.00  0.00     0.202 C 
BRANCH  28  29
ATOM     29  C   UNL     1       0.339   1.775   3.217  1.00  0.00     0.261 C 
BRANCH  29  30
ATOM     30  O   UNL     1       0.499   0.374   2.945  1.00  0.00    -0.460 OA
BRANCH  30  31
ATOM     31  C   UNL     1       0.549  -0.405   4.048  1.00  0.00     0.338 C 
ATOM     32  O   UNL     1       0.497  -0.046   5.219  1.00  0.00    -0.246 OA
BRANCH  31  33
ATOM     33  C   UNL     1       0.517  -1.820   3.667  1.00  0.00     0.060 A 
ATOM     34  C   UNL     1      -0.520  -2.609   4.179  1.00  0.00     0.016 A 
ATOM     35  C   UNL     1       1.554  -2.388   2.926  1.00  0.00     0.016 A 
ATOM     36  C   UNL     1      -0.496  -3.987   3.996  1.00  0.00     0.010 A 
ATOM     37  C   UNL     1       1.584  -3.773   2.754  1.00  0.00     0.010 A 
ATOM     38  C   UNL     1       0.581  -4.578   3.323  1.00  0.00    -0.014 A 
BRANCH  38  39
ATOM     39  C   UNL     1       0.736  -6.048   3.362  1.00  0.00     0.031 A 
ATOM     40  C   UNL     1       1.657  -6.654   4.384  1.00  0.00     0.074 A 
ATOM     41  C   UNL     1       0.039  -6.828   2.520  1.00  0.00     0.049 A 
ATOM     42  N   UNL     1       1.965  -7.909   4.582  1.00  0.00    -0.248 NA
ATOM     43  C   UNL     1       2.318  -5.716   5.307  1.00  0.00     0.031 C 
ATOM     44  C   UNL     1      -0.912  -6.351   1.519  1.00  0.00     0.029 A 
ATOM     45  N   UNL     1       0.032  -8.191   2.373  1.00  0.00    -0.354 N 
ATOM     46  C   UNL     1       2.857  -7.913   5.647  1.00  0.00     0.074 A 
ATOM     47  C   UNL     1       3.064  -6.535   6.034  1.00  0.00     0.031 C 
ATOM     48  C   UNL     1      -1.405  -7.407   0.849  1.00  0.00     0.029 A 
ATOM     49  C   UNL     1      -0.781  -8.627   1.357  1.00  0.00     0.049 A 
ATOM     50  H   UNL     1       0.559  -8.798   2.942  1.00  0.00     0.167 HD
ATOM     51  C   UNL     1       3.444  -8.973   6.250  1.00  0.00     0.037 A 
ATOM     52  C   UNL     1      -0.979  -9.870   0.881  1.00  0.00     0.037 A 
ATOM     53  C   UNL     1       3.233 -10.341   5.859  1.00  0.00     0.049 A 
ATOM     54  C   UNL     1      -0.261 -11.026   1.524  1.00  0.00     0.074 A 
ATOM     55  C   UNL     1       3.767 -11.491   6.414  1.00  0.00     0.029 A 
ATOM     56  N   UNL     1       2.426 -10.743   4.804  1.00  0.00    -0.354 N 
ATOM     57  N   UNL     1       0.564 -11.024   2.544  1.00  0.00    -0.248 NA
ATOM     58  C   UNL     1      -0.505 -12.358   0.953  1.00  0.00     0.031 C 
ATOM     59  C   UNL     1       3.319 -12.585   5.667  1.00  0.00     0.029 A 
ATOM     60  C   UNL     1       2.467 -12.121   4.677  1.00  0.00     0.049 A 
ATOM     61  H   UNL     1       1.902 -10.137   4.231  1.00  0.00     0.167 HD
ATOM     62  C   UNL     1       0.915 -12.352   2.754  1.00  0.00     0.074 A 
ATOM     63  C   UNL     1       0.205 -13.132   1.761  1.00  0.00     0.031 C 
ATOM     64  C   UNL     1       1.748 -12.879   3.685  1.00  0.00     0.037 A 
BRANCH  51  65
ATOM     65  C   UNL     1       4.389  -8.689   7.380  1.00  0.00     0.057 A 
ATOM     66  C   UNL     1       3.937  -8.253   8.633  1.00  0.00     0.134 A 
ATOM     67  C   UNL     1       5.767  -8.879   7.221  1.00  0.00     0.134 A 
ATOM     68  F   UNL     1       2.630  -8.037   8.846  1.00  0.00    -0.206 F 
ATOM     69  C   UNL     1       4.824  -7.996   9.680  1.00  0.00     0.040 A 
ATOM     70  C   UNL     1       6.662  -8.648   8.268  1.00  0.00     0.040 A 
ATOM     71  F   UNL     1       6.266  -9.296   6.048  1.00  0.00    -0.206 F 
ATOM     72  C   UNL     1       6.191  -8.200   9.500  1.00  0.00     0.006 A 
ENDBRANCH  51  65
BRANCH  52  73
ATOM     73  C   UNL     1      -1.886 -10.085  -0.273  1.00  0.00     0.057 A 
ATOM     74  C   UNL     1      -3.111 -10.743  -0.120  1.00  0.00     0.134 A 
ATOM     75  C   UNL     1      -1.544  -9.647  -1.558  1.00  0.00     0.134 A 
ATOM     76  F   UNL     1      -3.484 -11.206   1.082  1.00  0.00    -0.206 F 
ATOM     77  C   UNL     1      -3.958 -10.971  -1.206  1.00  0.00     0.040 A 
ATOM     78  C   UNL     1      -2.391  -9.846  -2.648  1.00  0.00     0.040 A 
ATOM     79  F   UNL     1      -0.383  -9.010  -1.769  1.00  0.00    -0.206 F 
ATOM     80  C   UNL     1      -3.600 -10.517  -2.475  1.00  0.00     0.006 A 
ENDBRANCH  52  73
BRANCH  64  81
ATOM     81  C   UNL     1       1.909 -14.370   3.696  1.00  0.00     0.057 A 
ATOM     82  C   UNL     1       2.644 -15.042   2.712  1.00  0.00     0.134 A 
ATOM     83  C   UNL     1       1.356 -15.138   4.729  1.00  0.00     0.134 A 
ATOM     84  F   UNL     1       3.189 -14.366   1.690  1.00  0.00    -0.206 F 
ATOM     85  C   UNL     1       2.807 -16.428   2.745  1.00  0.00     0.040 A 
ATOM     86  C   UNL     1       1.533 -16.520   4.787  1.00  0.00     0.040 A 
ATOM     87  F   UNL     1       0.648 -14.554   5.708  1.00  0.00    -0.206 F 
ATOM     88  C   UNL     1       2.257 -17.170   3.789  1.00  0.00     0.006 A 
ENDBRANCH  64  81
ENDBRANCH  38  39
ENDBRANCH  31  33
ENDBRANCH  30  31
ENDBRANCH  29  30
ENDBRANCH  28  29
ENDBRANCH  27  28
ENDBRANCH   1  27
TORSDOF 19
