REMARK SMILES CC(C)N(CC(=O)OCCOCCOC(=O)c1ccc(-c2c3nc(c(-c4c(F)cccc4F)c4ccc([nH]4)c(-c4c(F)cccc4F)c4nc(c(-c5c(F)cccc5F)c5ccc2[nH]5)C=C4)C=C3)cc1)C(=O)NC1C(C)(C)C1(C)C
REMARK SMILES IDX 10 1 9 2 8 3 6 4 7 5 5 6 4 7 2 8 1 9 3 10 71 11 72 12 73 13
REMARK SMILES IDX 74 15 75 16 78 17 76 18 77 19 79 20 80 21 11 22 12 23 13 24
REMARK SMILES IDX 14 25 15 26 16 27 17 28 18 29 70 30 19 31 69 32 20 33 21 34
REMARK SMILES IDX 22 35 63 36 23 37 68 38 62 39 64 40 24 41 67 42 61 43 60 44
REMARK SMILES IDX 25 46 51 47 34 48 50 49 35 50 38 51 49 52 65 53 36 54 37 55
REMARK SMILES IDX 48 57 66 58 39 59 26 60 27 61 32 62 28 63 29 64 31 65 33 66
REMARK SMILES IDX 30 67 52 68 53 69 58 70 54 71 55 72 57 73 59 74 56 75 40 76
REMARK SMILES IDX 41 77 46 78 42 79 43 80 45 81 47 82 44 83
REMARK H PARENT 73 14 64 45 38 56
REMARK Flexibility Score: inf
ROOT
ATOM      1  C   UNL     1      -4.022  -1.696  -5.478  1.00  0.00     0.202 C 
ENDROOT
BRANCH   1   2
ATOM      2  C   UNL     1      -2.659  -0.998  -5.585  1.00  0.00     0.261 C 
BRANCH   2   3
ATOM      3  O   UNL     1      -1.895  -0.898  -4.369  1.00  0.00    -0.462 OA
BRANCH   3   4
ATOM      4  C   UNL     1      -1.998   0.341  -3.819  1.00  0.00     0.325 C 
ATOM      5  O   UNL     1      -2.746   1.195  -4.282  1.00  0.00    -0.250 OA
BRANCH   4   6
ATOM      6  C   UNL     1      -0.955   0.673  -2.762  1.00  0.00     0.244 C 
BRANCH   6   7
ATOM      7  N   UNL     1      -0.719  -0.159  -1.596  1.00  0.00    -0.311 N 
BRANCH   7   8
ATOM      8  C   UNL     1       0.711  -0.474  -1.319  1.00  0.00     0.081 C 
ATOM      9  C   UNL     1       1.159  -0.373   0.152  1.00  0.00     0.031 C 
ATOM     10  C   UNL     1       1.135  -1.806  -1.927  1.00  0.00     0.031 C 
ENDBRANCH   7   8
BRANCH   7  11
ATOM     11  C   UNL     1      -1.645  -0.414  -0.634  1.00  0.00     0.318 C 
ATOM     12  O   UNL     1      -1.449  -1.273   0.235  1.00  0.00    -0.249 OA
ATOM     13  N   UNL     1      -2.810   0.242  -0.477  1.00  0.00    -0.334 N 
ATOM     14  H   UNL     1      -3.145   0.038   0.426  1.00  0.00     0.165 HD
BRANCH  13  15
ATOM     15  C   UNL     1      -3.756   1.117  -1.097  1.00  0.00     0.096 C 
ATOM     16  C   UNL     1      -4.026   2.424  -0.341  1.00  0.00    -0.007 C 
ATOM     17  C   UNL     1      -3.867   2.438  -1.855  1.00  0.00    -0.007 C 
ATOM     18  C   UNL     1      -5.388   2.736   0.227  1.00  0.00     0.014 C 
ATOM     19  C   UNL     1      -2.902   2.977   0.524  1.00  0.00     0.014 C 
ATOM     20  C   UNL     1      -2.819   3.403  -2.361  1.00  0.00     0.014 C 
ATOM     21  C   UNL     1      -5.113   2.500  -2.753  1.00  0.00     0.014 C 
ENDBRANCH  13  15
ENDBRANCH   7  11
ENDBRANCH   6   7
ENDBRANCH   4   6
ENDBRANCH   3   4
ENDBRANCH   2   3
ENDBRANCH   1   2
BRANCH   1  22
ATOM     22  O   UNL     1      -4.929  -1.426  -4.424  1.00  0.00    -0.374 OA
BRANCH  22  23
ATOM     23  C   UNL     1      -4.531  -1.630  -3.076  1.00  0.00     0.202 C 
BRANCH  23  24
ATOM     24  C   UNL     1      -3.964  -2.967  -2.575  1.00  0.00     0.261 C 
BRANCH  24  25
ATOM     25  O   UNL     1      -2.890  -3.474  -3.370  1.00  0.00    -0.460 OA
BRANCH  25  26
ATOM     26  C   UNL     1      -3.189  -4.579  -4.091  1.00  0.00     0.338 C 
ATOM     27  O   UNL     1      -4.224  -5.226  -4.085  1.00  0.00    -0.246 OA
BRANCH  26  28
ATOM     28  C   UNL     1      -2.149  -4.732  -5.116  1.00  0.00     0.060 A 
ATOM     29  C   UNL     1      -2.553  -4.675  -6.458  1.00  0.00     0.016 A 
ATOM     30  C   UNL     1      -0.808  -4.889  -4.769  1.00  0.00     0.016 A 
ATOM     31  C   UNL     1      -1.610  -4.761  -7.467  1.00  0.00     0.010 A 
ATOM     32  C   UNL     1       0.134  -5.034  -5.783  1.00  0.00     0.010 A 
ATOM     33  C   UNL     1      -0.274  -4.990  -7.128  1.00  0.00    -0.014 A 
BRANCH  33  34
ATOM     34  C   UNL     1       0.643  -5.414  -8.197  1.00  0.00     0.031 A 
ATOM     35  C   UNL     1       0.795  -6.885  -8.436  1.00  0.00     0.074 A 
ATOM     36  C   UNL     1       1.265  -4.503  -8.959  1.00  0.00     0.049 A 
ATOM     37  N   UNL     1       1.550  -7.511  -9.296  1.00  0.00    -0.248 NA
ATOM     38  C   UNL     1      -0.020  -7.772  -7.587  1.00  0.00     0.031 C 
ATOM     39  C   UNL     1       1.121  -3.053  -8.830  1.00  0.00     0.029 A 
ATOM     40  N   UNL     1       2.148  -4.668  -9.991  1.00  0.00    -0.354 N 
ATOM     41  C   UNL     1       1.308  -8.862  -9.087  1.00  0.00     0.074 A 
ATOM     42  C   UNL     1       0.357  -8.969  -8.005  1.00  0.00     0.031 C 
ATOM     43  C   UNL     1       1.913  -2.457  -9.738  1.00  0.00     0.029 A 
ATOM     44  C   UNL     1       2.639  -3.484 -10.481  1.00  0.00     0.049 A 
ATOM     45  H   UNL     1       2.405  -5.549 -10.347  1.00  0.00     0.167 HD
ATOM     46  C   UNL     1       1.837  -9.916  -9.748  1.00  0.00     0.037 A 
ATOM     47  C   UNL     1       3.595  -3.270 -11.403  1.00  0.00     0.037 A 
ATOM     48  C   UNL     1       2.793  -9.779 -10.813  1.00  0.00     0.049 A 
ATOM     49  C   UNL     1       4.232  -4.461 -12.068  1.00  0.00     0.074 A 
ATOM     50  C   UNL     1       3.392 -10.770 -11.567  1.00  0.00     0.029 A 
ATOM     51  N   UNL     1       3.300  -8.567 -11.261  1.00  0.00    -0.354 N 
ATOM     52  N   UNL     1       3.985  -5.738 -11.888  1.00  0.00    -0.248 NA
ATOM     53  C   UNL     1       5.276  -4.186 -13.062  1.00  0.00     0.031 C 
ATOM     54  C   UNL     1       4.310 -10.160 -12.428  1.00  0.00     0.029 A 
ATOM     55  C   UNL     1       4.235  -8.785 -12.257  1.00  0.00     0.049 A 
ATOM     56  H   UNL     1       3.034  -7.682 -10.921  1.00  0.00     0.167 HD
ATOM     57  C   UNL     1       4.826  -6.418 -12.758  1.00  0.00     0.074 A 
ATOM     58  C   UNL     1       5.577  -5.409 -13.479  1.00  0.00     0.031 C 
ATOM     59  C   UNL     1       4.968  -7.754 -12.949  1.00  0.00     0.037 A 
BRANCH  46  60
ATOM     60  C   UNL     1       1.432 -11.287  -9.296  1.00  0.00     0.057 A 
ATOM     61  C   UNL     1       0.137 -11.787  -9.488  1.00  0.00     0.134 A 
ATOM     62  C   UNL     1       2.354 -12.121  -8.651  1.00  0.00     0.134 A 
ATOM     63  F   UNL     1      -0.803 -11.032 -10.077  1.00  0.00    -0.206 F 
ATOM     64  C   UNL     1      -0.233 -13.054  -9.031  1.00  0.00     0.040 A 
ATOM     65  C   UNL     1       2.005 -13.400  -8.217  1.00  0.00     0.040 A 
ATOM     66  F   UNL     1       3.610 -11.704  -8.430  1.00  0.00    -0.206 F 
ATOM     67  C   UNL     1       0.706 -13.867  -8.400  1.00  0.00     0.006 A 
ENDBRANCH  46  60
BRANCH  47  68
ATOM     68  C   UNL     1       4.022  -1.884 -11.717  1.00  0.00     0.057 A 
ATOM     69  C   UNL     1       3.767  -1.304 -12.964  1.00  0.00     0.134 A 
ATOM     70  C   UNL     1       4.693  -1.100 -10.768  1.00  0.00     0.134 A 
ATOM     71  F   UNL     1       3.145  -2.008 -13.921  1.00  0.00    -0.206 F 
ATOM     72  C   UNL     1       4.173  -0.002 -13.261  1.00  0.00     0.040 A 
ATOM     73  C   UNL     1       5.080   0.212 -11.042  1.00  0.00     0.040 A 
ATOM     74  F   UNL     1       4.963  -1.594  -9.550  1.00  0.00    -0.206 F 
ATOM     75  C   UNL     1       4.826   0.763 -12.296  1.00  0.00     0.006 A 
ENDBRANCH  47  68
BRANCH  59  76
ATOM     76  C   UNL     1       5.956  -8.194 -13.990  1.00  0.00     0.057 A 
ATOM     77  C   UNL     1       7.338  -8.088 -13.790  1.00  0.00     0.134 A 
ATOM     78  C   UNL     1       5.516  -8.785 -15.182  1.00  0.00     0.134 A 
ATOM     79  F   UNL     1       7.822  -7.522 -12.674  1.00  0.00    -0.206 F 
ATOM     80  C   UNL     1       8.248  -8.535 -14.749  1.00  0.00     0.040 A 
ATOM     81  C   UNL     1       6.416  -9.263 -16.134  1.00  0.00     0.040 A 
ATOM     82  F   UNL     1       4.205  -8.927 -15.430  1.00  0.00    -0.206 F 
ATOM     83  C   UNL     1       7.787  -9.133 -15.921  1.00  0.00     0.006 A 
ENDBRANCH  59  76
ENDBRANCH  33  34
ENDBRANCH  26  28
ENDBRANCH  25  26
ENDBRANCH  24  25
ENDBRANCH  23  24
ENDBRANCH  22  23
ENDBRANCH   1  22
TORSDOF 18
