REMARK SMILES COc1cc([C@@H]2[NH2+][C@H](C(=O)OCCOCCOC(=O)c3ccc(-c4c5nc(c(-c6c(F)cccc6F)c6ccc([nH]6)c(-c6c(F)cccc6F)c6nc(c(-c7c(F)cccc7F)c7ccc4[nH]7)C=C6)C=C5)cc3)CS2)ccc1OCc1ccc(Cl)cc1
REMARK SMILES IDX 13 1 12 2 11 3 9 4 10 5 8 6 6 7 7 8 75 9 74 12 5 13 3 14
REMARK SMILES IDX 4 15 78 16 77 17 76 18 2 19 1 20 79 21 80 22 81 23 82 24
REMARK SMILES IDX 87 25 83 26 86 27 84 28 85 29 14 30 15 31 16 32 17 33 18 34
REMARK SMILES IDX 19 35 20 36 21 37 73 38 22 39 72 40 23 41 24 42 25 43 66 44
REMARK SMILES IDX 26 45 71 46 65 47 67 48 27 49 70 50 64 51 63 52 28 54 54 55
REMARK SMILES IDX 37 56 53 57 38 58 41 59 52 60 68 61 39 62 40 63 51 65 69 66
REMARK SMILES IDX 42 67 29 68 30 69 35 70 31 71 32 72 34 73 36 74 33 75 55 76
REMARK SMILES IDX 56 77 61 78 57 79 58 80 60 81 62 82 59 83 43 84 44 85 49 86
REMARK SMILES IDX 45 87 46 88 48 89 50 90 47 91
REMARK H PARENT 7 10 7 11 67 53 41 64
REMARK Flexibility Score: inf
ROOT
ATOM      1  C   UNL     1       4.695   4.899  -4.665  1.00  0.00     0.202 C 
ENDROOT
BRANCH   1   2
ATOM      2  C   UNL     1       4.319   6.229  -4.004  1.00  0.00     0.261 C 
BRANCH   2   3
ATOM      3  O   UNL     1       2.907   6.229  -3.732  1.00  0.00    -0.459 OA
BRANCH   3   4
ATOM      4  C   UNL     1       2.187   7.308  -4.129  1.00  0.00     0.365 C 
ATOM      5  O   UNL     1       2.670   8.371  -4.503  1.00  0.00    -0.245 OA
BRANCH   4   6
ATOM      6  C   UNL     1       0.675   7.077  -4.017  1.00  0.00     0.304 C 
ATOM      7  C   UNL     1      -0.432   5.169  -2.982  1.00  0.00     0.274 C 
ATOM      8  N   UNL     1       0.296   5.639  -4.160  1.00  0.00    -0.319 N 
ATOM      9  S   UNL     1      -1.103   6.599  -2.114  1.00  0.00    -0.087 SA
ATOM     10  H   UNL     1      -0.295   5.530  -4.983  1.00  0.00     0.348 HD
ATOM     11  H   UNL     1       1.148   5.086  -4.256  1.00  0.00     0.348 HD
ATOM     12  C   UNL     1       0.174   7.710  -2.727  1.00  0.00     0.153 C 
BRANCH   7  13
ATOM     13  C   UNL     1       0.406   4.239  -2.121  1.00  0.00     0.024 A 
ATOM     14  C   UNL     1       0.897   1.966  -1.321  1.00  0.00     0.161 A 
ATOM     15  C   UNL     1       0.141   2.855  -2.109  1.00  0.00     0.061 A 
ATOM     16  C   UNL     1       1.961   2.447  -0.556  1.00  0.00     0.161 A 
ATOM     17  C   UNL     1       2.259   3.812  -0.603  1.00  0.00     0.051 A 
ATOM     18  C   UNL     1       1.488   4.695  -1.357  1.00  0.00     0.015 A 
BRANCH  14  19
ATOM     19  O   UNL     1       0.654   0.621  -1.411  1.00  0.00    -0.493 OA
ATOM     20  C   UNL     1      -0.651   0.268  -0.954  1.00  0.00     0.278 C 
ENDBRANCH  14  19
BRANCH  16  21
ATOM     21  O   UNL     1       2.794   1.768   0.287  1.00  0.00    -0.485 OA
BRANCH  21  22
ATOM     22  C   UNL     1       2.401   0.523   0.860  1.00  0.00     0.265 C 
BRANCH  22  23
ATOM     23  C   UNL     1       1.313   0.574   1.908  1.00  0.00    -0.011 A 
ATOM     24  C   UNL     1       0.823   1.774   2.438  1.00  0.00     0.009 A 
ATOM     25  C   UNL     1       0.799  -0.642   2.389  1.00  0.00     0.009 A 
ATOM     26  C   UNL     1      -0.199   1.762   3.387  1.00  0.00     0.021 A 
ATOM     27  C   UNL     1      -0.214  -0.655   3.347  1.00  0.00     0.021 A 
ATOM     28  C   UNL     1      -0.716   0.549   3.834  1.00  0.00     0.041 A 
ATOM     29  Cl  UNL     1      -1.982   0.537   4.997  1.00  0.00    -0.084 Cl
ENDBRANCH  22  23
ENDBRANCH  21  22
ENDBRANCH  16  21
ENDBRANCH   7  13
ENDBRANCH   4   6
ENDBRANCH   3   4
ENDBRANCH   2   3
ENDBRANCH   1   2
BRANCH   1  30
ATOM     30  O   UNL     1       4.376   4.836  -6.060  1.00  0.00    -0.374 OA
BRANCH  30  31
ATOM     31  C   UNL     1       3.007   4.582  -6.371  1.00  0.00     0.202 C 
BRANCH  31  32
ATOM     32  C   UNL     1       2.619   3.104  -6.476  1.00  0.00     0.261 C 
BRANCH  32  33
ATOM     33  O   UNL     1       2.940   2.355  -5.295  1.00  0.00    -0.460 OA
BRANCH  33  34
ATOM     34  C   UNL     1       4.115   1.686  -5.356  1.00  0.00     0.338 C 
ATOM     35  O   UNL     1       4.877   1.611  -6.312  1.00  0.00    -0.246 OA
BRANCH  34  36
ATOM     36  C   UNL     1       4.438   1.101  -4.044  1.00  0.00     0.060 A 
ATOM     37  C   UNL     1       5.731   1.272  -3.538  1.00  0.00     0.016 A 
ATOM     38  C   UNL     1       3.513   0.321  -3.355  1.00  0.00     0.016 A 
ATOM     39  C   UNL     1       6.111   0.640  -2.350  1.00  0.00     0.010 A 
ATOM     40  C   UNL     1       3.901  -0.311  -2.169  1.00  0.00     0.010 A 
ATOM     41  C   UNL     1       5.206  -0.175  -1.657  1.00  0.00    -0.014 A 
BRANCH  41  42
ATOM     42  C   UNL     1       5.638  -0.948  -0.454  1.00  0.00     0.031 A 
ATOM     43  C   UNL     1       5.626  -2.457  -0.485  1.00  0.00     0.074 A 
ATOM     44  C   UNL     1       5.999  -0.324   0.687  1.00  0.00     0.049 A 
ATOM     45  N   UNL     1       5.919  -3.311   0.465  1.00  0.00    -0.248 NA
ATOM     46  C   UNL     1       5.195  -3.090  -1.742  1.00  0.00     0.031 C 
ATOM     47  C   UNL     1       5.991   1.123   0.908  1.00  0.00     0.029 A 
ATOM     48  N   UNL     1       6.404  -0.839   1.897  1.00  0.00    -0.354 N 
ATOM     49  C   UNL     1       5.691  -4.572  -0.073  1.00  0.00     0.074 A 
ATOM     50  C   UNL     1       5.171  -4.371  -1.408  1.00  0.00     0.031 C 
ATOM     51  C   UNL     1       6.353   1.378   2.178  1.00  0.00     0.029 A 
ATOM     52  C   UNL     1       6.626   0.117   2.861  1.00  0.00     0.049 A 
ATOM     53  H   UNL     1       6.524  -1.802   2.058  1.00  0.00     0.167 HD
ATOM     54  C   UNL     1       5.931  -5.790   0.469  1.00  0.00     0.037 A 
ATOM     55  C   UNL     1       7.008  -0.008   4.147  1.00  0.00     0.037 A 
ATOM     56  C   UNL     1       6.521  -6.009   1.762  1.00  0.00     0.049 A 
ATOM     57  C   UNL     1       7.312  -1.369   4.712  1.00  0.00     0.074 A 
ATOM     58  C   UNL     1       6.917  -7.204   2.339  1.00  0.00     0.029 A 
ATOM     59  N   UNL     1       6.810  -5.010   2.677  1.00  0.00    -0.354 N 
ATOM     60  N   UNL     1       7.205  -2.545   4.145  1.00  0.00    -0.248 NA
ATOM     61  C   UNL     1       7.823  -1.415   6.092  1.00  0.00     0.031 C 
ATOM     62  C   UNL     1       7.422  -6.931   3.615  1.00  0.00     0.029 A 
ATOM     63  C   UNL     1       7.369  -5.563   3.817  1.00  0.00     0.049 A 
ATOM     64  H   UNL     1       6.643  -4.050   2.537  1.00  0.00     0.167 HD
ATOM     65  C   UNL     1       7.684  -3.460   5.076  1.00  0.00     0.074 A 
ATOM     66  C   UNL     1       8.079  -2.705   6.245  1.00  0.00     0.031 C 
ATOM     67  C   UNL     1       7.792  -4.806   4.966  1.00  0.00     0.037 A 
BRANCH  54  68
ATOM     68  C   UNL     1       5.588  -6.995  -0.358  1.00  0.00     0.057 A 
ATOM     69  C   UNL     1       6.337  -7.348  -1.489  1.00  0.00     0.134 A 
ATOM     70  C   UNL     1       4.527  -7.834   0.004  1.00  0.00     0.134 A 
ATOM     71  F   UNL     1       7.361  -6.581  -1.892  1.00  0.00    -0.206 F 
ATOM     72  C   UNL     1       6.024  -8.476  -2.248  1.00  0.00     0.040 A 
ATOM     73  C   UNL     1       4.221  -8.980  -0.732  1.00  0.00     0.040 A 
ATOM     74  F   UNL     1       3.777  -7.558   1.081  1.00  0.00    -0.206 F 
ATOM     75  C   UNL     1       4.967  -9.300  -1.866  1.00  0.00     0.006 A 
ENDBRANCH  54  68
BRANCH  55  76
ATOM     76  C   UNL     1       7.177   1.194   5.002  1.00  0.00     0.057 A 
ATOM     77  C   UNL     1       8.452   1.645   5.366  1.00  0.00     0.134 A 
ATOM     78  C   UNL     1       6.075   1.873   5.532  1.00  0.00     0.134 A 
ATOM     79  F   UNL     1       9.545   1.014   4.910  1.00  0.00    -0.206 F 
ATOM     80  C   UNL     1       8.627   2.706   6.254  1.00  0.00     0.040 A 
ATOM     81  C   UNL     1       6.235   2.950   6.406  1.00  0.00     0.040 A 
ATOM     82  F   UNL     1       4.829   1.488   5.221  1.00  0.00    -0.206 F 
ATOM     83  C   UNL     1       7.514   3.362   6.778  1.00  0.00     0.006 A 
ENDBRANCH  55  76
BRANCH  67  84
ATOM     84  C   UNL     1       8.428  -5.543   6.107  1.00  0.00     0.057 A 
ATOM     85  C   UNL     1       7.772  -5.732   7.330  1.00  0.00     0.134 A 
ATOM     86  C   UNL     1       9.714  -6.083   5.973  1.00  0.00     0.134 A 
ATOM     87  F   UNL     1       6.545  -5.227   7.528  1.00  0.00    -0.206 F 
ATOM     88  C   UNL     1       8.383  -6.408   8.388  1.00  0.00     0.040 A 
ATOM     89  C   UNL     1      10.325  -6.782   7.014  1.00  0.00     0.040 A 
ATOM     90  F   UNL     1      10.395  -5.945   4.825  1.00  0.00    -0.206 F 
ATOM     91  C   UNL     1       9.662  -6.939   8.229  1.00  0.00     0.006 A 
ENDBRANCH  67  84
ENDBRANCH  41  42
ENDBRANCH  34  36
ENDBRANCH  33  34
ENDBRANCH  32  33
ENDBRANCH  31  32
ENDBRANCH  30  31
ENDBRANCH   1  30
TORSDOF 19
