REMARK SMILES COc1ccc(C[N@@H+]2C[C@@H](C(=O)OCCOCCOC(=O)c3ccc(-c4c5nc(c(-c6c(F)cccc6F)c6ccc([nH]6)c(-c6c(F)cccc6F)c6nc(c(-c7c(F)cccc7F)c7ccc4[nH]7)C=C6)C=C5)cc3)[C@H](c3ccccc3OC)C2)c(OC)c1
REMARK SMILES IDX 15 1 14 2 13 3 11 4 12 5 10 6 8 7 9 8 85 9 76 11 7 12 6 13
REMARK SMILES IDX 3 14 4 15 89 16 5 17 86 18 2 19 1 20 87 21 88 22 77 23 78 24
REMARK SMILES IDX 82 25 79 26 81 27 80 28 83 29 84 30 16 31 17 32 18 33 19 34
REMARK SMILES IDX 20 35 21 36 22 37 23 38 75 39 24 40 74 41 25 42 26 43 27 44
REMARK SMILES IDX 68 45 28 46 73 47 67 48 69 49 29 50 72 51 66 52 65 53 30 55
REMARK SMILES IDX 56 56 39 57 55 58 40 59 43 60 54 61 70 62 41 63 42 64 53 66
REMARK SMILES IDX 71 67 44 68 31 69 32 70 37 71 33 72 34 73 36 74 38 75 35 76
REMARK SMILES IDX 57 77 58 78 63 79 59 80 60 81 62 82 64 83 61 84 45 85 46 86
REMARK SMILES IDX 51 87 47 88 48 89 50 90 52 91 49 92
REMARK H PARENT 8 10 69 54 43 65
REMARK Flexibility Score: inf
ROOT
ATOM      1  C   UNL     1      -2.887   8.685   0.079  1.00  0.00     0.202 C 
ENDROOT
BRANCH   1   2
ATOM      2  C   UNL     1      -2.215   7.418  -0.450  1.00  0.00     0.261 C 
BRANCH   2   3
ATOM      3  O   UNL     1      -1.279   6.763   0.411  1.00  0.00    -0.463 OA
BRANCH   3   4
ATOM      4  C   UNL     1      -0.003   7.240   0.339  1.00  0.00     0.315 C 
ATOM      5  O   UNL     1       0.311   8.327  -0.126  1.00  0.00    -0.252 OA
BRANCH   4   6
ATOM      6  C   UNL     1       0.960   6.275   0.958  1.00  0.00     0.167 C 
ATOM      7  N   UNL     1       2.289   6.314   2.944  1.00  0.00    -0.330 N 
ATOM      8  C   UNL     1       0.999   6.711   2.425  1.00  0.00     0.278 C 
ATOM      9  C   UNL     1       3.209   6.443   1.802  1.00  0.00     0.272 C 
ATOM     10  H   UNL     1       2.601   6.921   3.702  1.00  0.00     0.348 HD
ATOM     11  C   UNL     1       2.414   6.372   0.431  1.00  0.00     0.098 C 
BRANCH   7  12
ATOM     12  C   UNL     1       2.309   5.053   3.709  1.00  0.00     0.303 C 
BRANCH  12  13
ATOM     13  C   UNL     1       1.845   3.801   2.993  1.00  0.00     0.048 A 
ATOM     14  C   UNL     1       0.925   1.770   1.289  1.00  0.00     0.122 A 
ATOM     15  C   UNL     1       0.016   2.575   1.968  1.00  0.00     0.047 A 
ATOM     16  C   UNL     1       2.292   1.904   1.546  1.00  0.00     0.093 A 
ATOM     17  C   UNL     1       0.469   3.560   2.840  1.00  0.00     0.017 A 
ATOM     18  C   UNL     1       2.756   2.902   2.414  1.00  0.00     0.131 A 
BRANCH  14  19
ATOM     19  O   UNL     1       0.359   0.943   0.359  1.00  0.00    -0.497 OA
ATOM     20  C   UNL     1       1.081  -0.236   0.036  1.00  0.00     0.278 C 
ENDBRANCH  14  19
BRANCH  18  21
ATOM     21  O   UNL     1       4.077   3.119   2.714  1.00  0.00    -0.496 OA
ATOM     22  C   UNL     1       4.995   2.071   2.434  1.00  0.00     0.278 C 
ENDBRANCH  18  21
ENDBRANCH  12  13
ENDBRANCH   7  12
BRANCH  11  23
ATOM     23  C   UNL     1       2.855   5.322  -0.632  1.00  0.00     0.004 A 
ATOM     24  C   UNL     1       3.943   4.473  -0.296  1.00  0.00     0.008 A 
ATOM     25  C   UNL     1       2.357   5.112  -1.943  1.00  0.00     0.122 A 
ATOM     26  C   UNL     1       4.416   3.426  -1.101  1.00  0.00     0.001 A 
ATOM     27  C   UNL     1       2.812   4.011  -2.719  1.00  0.00     0.047 A 
ATOM     28  C   UNL     1       3.816   3.160  -2.305  1.00  0.00     0.004 A 
BRANCH  25  29
ATOM     29  O   UNL     1       1.508   5.773  -2.771  1.00  0.00    -0.496 OA
ATOM     30  C   UNL     1       0.907   6.998  -2.494  1.00  0.00     0.278 C 
ENDBRANCH  25  29
ENDBRANCH  11  23
ENDBRANCH   4   6
ENDBRANCH   3   4
ENDBRANCH   2   3
ENDBRANCH   1   2
BRANCH   1  31
ATOM     31  O   UNL     1      -2.097   9.738   0.610  1.00  0.00    -0.374 OA
BRANCH  31  32
ATOM     32  C   UNL     1      -1.526   9.558   1.905  1.00  0.00     0.202 C 
BRANCH  32  33
ATOM     33  C   UNL     1      -2.441   9.745   3.113  1.00  0.00     0.261 C 
BRANCH  33  34
ATOM     34  O   UNL     1      -3.445   8.719   3.171  1.00  0.00    -0.460 OA
BRANCH  34  35
ATOM     35  C   UNL     1      -4.678   9.130   2.806  1.00  0.00     0.338 C 
ATOM     36  O   UNL     1      -5.030  10.275   2.540  1.00  0.00    -0.246 OA
BRANCH  35  37
ATOM     37  C   UNL     1      -5.545   7.969   2.558  1.00  0.00     0.060 A 
ATOM     38  C   UNL     1      -6.298   7.978   1.375  1.00  0.00     0.016 A 
ATOM     39  C   UNL     1      -5.680   6.933   3.485  1.00  0.00     0.016 A 
ATOM     40  C   UNL     1      -7.263   7.006   1.161  1.00  0.00     0.010 A 
ATOM     41  C   UNL     1      -6.658   5.960   3.274  1.00  0.00     0.010 A 
ATOM     42  C   UNL     1      -7.489   6.033   2.142  1.00  0.00    -0.014 A 
BRANCH  42  43
ATOM     43  C   UNL     1      -8.732   5.238   2.062  1.00  0.00     0.031 A 
ATOM     44  C   UNL     1      -9.915   5.673   2.882  1.00  0.00     0.074 A 
ATOM     45  C   UNL     1      -8.825   4.208   1.206  1.00  0.00     0.049 A 
ATOM     46  N   UNL     1     -11.115   5.158   2.947  1.00  0.00    -0.248 NA
ATOM     47  C   UNL     1      -9.719   6.851   3.745  1.00  0.00     0.031 C 
ATOM     48  C   UNL     1      -7.752   3.741   0.330  1.00  0.00     0.029 A 
ATOM     49  N   UNL     1      -9.878   3.378   0.929  1.00  0.00    -0.354 N 
ATOM     50  C   UNL     1     -11.813   5.944   3.856  1.00  0.00     0.074 A 
ATOM     51  C   UNL     1     -10.895   6.948   4.345  1.00  0.00     0.031 C 
ATOM     52  C   UNL     1      -8.204   2.701  -0.391  1.00  0.00     0.029 A 
ATOM     53  C   UNL     1      -9.583   2.416  -0.004  1.00  0.00     0.049 A 
ATOM     54  H   UNL     1     -10.760   3.463   1.357  1.00  0.00     0.167 HD
ATOM     55  C   UNL     1     -13.108   5.842   4.237  1.00  0.00     0.037 A 
ATOM     56  C   UNL     1     -10.343   1.411  -0.476  1.00  0.00     0.037 A 
ATOM     57  C   UNL     1     -14.011   4.838   3.740  1.00  0.00     0.049 A 
ATOM     58  C   UNL     1     -11.759   1.277   0.016  1.00  0.00     0.074 A 
ATOM     59  C   UNL     1     -15.346   4.648   4.048  1.00  0.00     0.029 A 
ATOM     60  N   UNL     1     -13.664   3.847   2.833  1.00  0.00    -0.354 N 
ATOM     61  N   UNL     1     -12.418   2.034   0.861  1.00  0.00    -0.248 NA
ATOM     62  C   UNL     1     -12.539   0.153  -0.517  1.00  0.00     0.031 C 
ATOM     63  C   UNL     1     -15.791   3.508   3.369  1.00  0.00     0.029 A 
ATOM     64  C   UNL     1     -14.751   3.024   2.592  1.00  0.00     0.049 A 
ATOM     65  H   UNL     1     -12.776   3.744   2.420  1.00  0.00     0.167 HD
ATOM     66  C   UNL     1     -13.694   1.493   0.945  1.00  0.00     0.074 A 
ATOM     67  C   UNL     1     -13.722   0.357   0.044  1.00  0.00     0.031 C 
ATOM     68  C   UNL     1     -14.750   1.894   1.696  1.00  0.00     0.037 A 
BRANCH  55  69
ATOM     69  C   UNL     1     -13.609   6.819   5.262  1.00  0.00     0.057 A 
ATOM     70  C   UNL     1     -13.799   8.176   4.968  1.00  0.00     0.134 A 
ATOM     71  C   UNL     1     -13.927   6.391   6.557  1.00  0.00     0.134 A 
ATOM     72  F   UNL     1     -13.496   8.658   3.752  1.00  0.00    -0.206 F 
ATOM     73  C   UNL     1     -14.264   9.074   5.930  1.00  0.00     0.040 A 
ATOM     74  C   UNL     1     -14.420   7.273   7.519  1.00  0.00     0.040 A 
ATOM     75  F   UNL     1     -13.769   5.105   6.907  1.00  0.00    -0.206 F 
ATOM     76  C   UNL     1     -14.584   8.621   7.209  1.00  0.00     0.006 A 
ENDBRANCH  55  69
BRANCH  56  77
ATOM     77  C   UNL     1      -9.778   0.450  -1.456  1.00  0.00     0.057 A 
ATOM     78  C   UNL     1     -10.243   0.394  -2.774  1.00  0.00     0.134 A 
ATOM     79  C   UNL     1      -8.763  -0.445  -1.092  1.00  0.00     0.134 A 
ATOM     80  F   UNL     1     -11.227   1.211  -3.178  1.00  0.00    -0.206 F 
ATOM     81  C   UNL     1      -9.733  -0.527  -3.691  1.00  0.00     0.040 A 
ATOM     82  C   UNL     1      -8.225  -1.352  -2.005  1.00  0.00     0.040 A 
ATOM     83  F   UNL     1      -8.271  -0.440   0.156  1.00  0.00    -0.206 F 
ATOM     84  C   UNL     1      -8.716  -1.400  -3.308  1.00  0.00     0.006 A 
ENDBRANCH  56  77
BRANCH  68  85
ATOM     85  C   UNL     1     -16.023   1.110   1.554  1.00  0.00     0.057 A 
ATOM     86  C   UNL     1     -16.146  -0.197   2.043  1.00  0.00     0.134 A 
ATOM     87  C   UNL     1     -17.144   1.676   0.933  1.00  0.00     0.134 A 
ATOM     88  F   UNL     1     -15.106  -0.802   2.638  1.00  0.00    -0.206 F 
ATOM     89  C   UNL     1     -17.326  -0.926   1.888  1.00  0.00     0.040 A 
ATOM     90  C   UNL     1     -18.339   0.969   0.800  1.00  0.00     0.040 A 
ATOM     91  F   UNL     1     -17.098   2.928   0.453  1.00  0.00    -0.206 F 
ATOM     92  C   UNL     1     -18.429  -0.340   1.269  1.00  0.00     0.006 A 
ENDBRANCH  68  85
ENDBRANCH  42  43
ENDBRANCH  35  37
ENDBRANCH  34  35
ENDBRANCH  33  34
ENDBRANCH  32  33
ENDBRANCH  31  32
ENDBRANCH   1  31
TORSDOF 20
