REMARK SMILES CC(C)CN(C)S(=O)(=O)c1ccc(C(=O)OCCOCCOC(=O)c2ccc(-c3c4nc(c(-c5c(F)cccc5F)c5ccc([nH]5)c(-c5c(F)cccc5F)c5nc(c(-c6c(F)cccc6F)c6ccc3[nH]6)C=C5)C=C4)cc2)cc1
REMARK SMILES IDX 18 1 17 2 16 3 14 4 15 5 13 6 10 7 11 8 80 9 12 10 79 11
REMARK SMILES IDX 7 12 8 13 9 14 5 15 6 16 4 17 2 18 1 19 3 20 19 21 20 22
REMARK SMILES IDX 21 23 22 24 23 25 24 26 25 27 26 28 78 29 27 30 77 31 28 32
REMARK SMILES IDX 29 33 30 34 71 35 31 36 76 37 70 38 72 39 32 40 75 41 69 42
REMARK SMILES IDX 68 43 33 45 59 46 42 47 58 48 43 49 46 50 57 51 73 52 44 53
REMARK SMILES IDX 45 54 56 56 74 57 47 58 34 59 35 60 40 61 36 62 37 63 39 64
REMARK SMILES IDX 41 65 38 66 60 67 61 68 66 69 62 70 63 71 65 72 67 73 64 74
REMARK SMILES IDX 48 75 49 76 54 77 50 78 51 79 53 80 55 81 52 82
REMARK H PARENT 72 44 46 55
REMARK Flexibility Score: inf
ROOT
ATOM      1  C   UNL     1      -3.012   9.377   3.519  1.00  0.00     0.202 C 
ENDROOT
BRANCH   1   2
ATOM      2  C   UNL     1      -4.116   8.683   2.716  1.00  0.00     0.261 C 
BRANCH   2   3
ATOM      3  O   UNL     1      -3.835   7.284   2.556  1.00  0.00    -0.460 OA
BRANCH   3   4
ATOM      4  C   UNL     1      -3.516   6.901   1.295  1.00  0.00     0.338 C 
ATOM      5  O   UNL     1      -3.584   7.577   0.283  1.00  0.00    -0.246 OA
BRANCH   4   6
ATOM      6  C   UNL     1      -2.915   5.546   1.316  1.00  0.00     0.060 A 
ATOM      7  C   UNL     1      -1.735   3.028   1.236  1.00  0.00     0.082 A 
ATOM      8  C   UNL     1      -1.322   4.005   0.327  1.00  0.00     0.022 A 
ATOM      9  C   UNL     1      -2.706   3.307   2.205  1.00  0.00     0.022 A 
ATOM     10  C   UNL     1      -1.925   5.262   0.362  1.00  0.00     0.017 A 
ATOM     11  C   UNL     1      -3.292   4.574   2.251  1.00  0.00     0.017 A 
BRANCH   7  12
ATOM     12  S   UNL     1      -1.057   1.387   1.126  1.00  0.00     0.242 S 
ATOM     13  O   UNL     1      -1.935   0.500   1.864  1.00  0.00    -0.207 OA
ATOM     14  O   UNL     1       0.339   1.511   1.467  1.00  0.00    -0.207 OA
BRANCH  12  15
ATOM     15  N   UNL     1      -1.220   0.969  -0.549  1.00  0.00    -0.201 NA
ATOM     16  C   UNL     1      -2.630   1.101  -1.036  1.00  0.00     0.124 C 
BRANCH  15  17
ATOM     17  C   UNL     1      -0.722  -0.421  -0.865  1.00  0.00     0.105 C 
BRANCH  17  18
ATOM     18  C   UNL     1       0.717  -0.471  -1.409  1.00  0.00    -0.002 C 
ATOM     19  C   UNL     1       1.782  -0.319  -0.323  1.00  0.00     0.009 C 
ATOM     20  C   UNL     1       0.931  -1.821  -2.111  1.00  0.00     0.009 C 
ENDBRANCH  17  18
ENDBRANCH  15  17
ENDBRANCH  12  15
ENDBRANCH   7  12
ENDBRANCH   4   6
ENDBRANCH   3   4
ENDBRANCH   2   3
ENDBRANCH   1   2
BRANCH   1  21
ATOM     21  O   UNL     1      -1.720   9.390   2.913  1.00  0.00    -0.374 OA
BRANCH  21  22
ATOM     22  C   UNL     1      -0.907   8.228   3.096  1.00  0.00     0.202 C 
BRANCH  22  23
ATOM     23  C   UNL     1      -0.188   8.122   4.446  1.00  0.00     0.261 C 
BRANCH  23  24
ATOM     24  O   UNL     1      -1.111   7.850   5.518  1.00  0.00    -0.460 OA
BRANCH  24  25
ATOM     25  C   UNL     1      -1.278   8.863   6.400  1.00  0.00     0.338 C 
ATOM     26  O   UNL     1      -0.677   9.923   6.436  1.00  0.00    -0.246 OA
BRANCH  25  27
ATOM     27  C   UNL     1      -2.453   8.592   7.250  1.00  0.00     0.060 A 
ATOM     28  C   UNL     1      -3.435   9.588   7.329  1.00  0.00     0.016 A 
ATOM     29  C   UNL     1      -2.565   7.423   8.005  1.00  0.00     0.016 A 
ATOM     30  C   UNL     1      -4.510   9.441   8.203  1.00  0.00     0.010 A 
ATOM     31  C   UNL     1      -3.640   7.280   8.889  1.00  0.00     0.010 A 
ATOM     32  C   UNL     1      -4.598   8.303   9.016  1.00  0.00    -0.014 A 
BRANCH  32  33
ATOM     33  C   UNL     1      -5.611   8.254  10.098  1.00  0.00     0.031 A 
ATOM     34  C   UNL     1      -5.194   8.581  11.505  1.00  0.00     0.074 A 
ATOM     35  C   UNL     1      -6.891   7.947   9.827  1.00  0.00     0.049 A 
ATOM     36  N   UNL     1      -5.903   8.572  12.604  1.00  0.00    -0.248 NA
ATOM     37  C   UNL     1      -3.787   8.967  11.697  1.00  0.00     0.031 C 
ATOM     38  C   UNL     1      -7.425   7.646   8.501  1.00  0.00     0.029 A 
ATOM     39  N   UNL     1      -7.974   7.832  10.662  1.00  0.00    -0.354 N 
ATOM     40  C   UNL     1      -5.029   8.943  13.619  1.00  0.00     0.074 A 
ATOM     41  C   UNL     1      -3.732   9.141  13.009  1.00  0.00     0.031 C 
ATOM     42  C   UNL     1      -8.736   7.368   8.613  1.00  0.00     0.029 A 
ATOM     43  C   UNL     1      -9.123   7.444  10.020  1.00  0.00     0.049 A 
ATOM     44  H   UNL     1      -7.930   8.011  11.629  1.00  0.00     0.167 HD
ATOM     45  C   UNL     1      -5.287   9.111  14.938  1.00  0.00     0.037 A 
ATOM     46  C   UNL     1     -10.343   7.162  10.516  1.00  0.00     0.037 A 
ATOM     47  C   UNL     1      -6.578   8.916  15.543  1.00  0.00     0.049 A 
ATOM     48  C   UNL     1     -10.591   7.295  11.995  1.00  0.00     0.074 A 
ATOM     49  C   UNL     1      -6.946   9.089  16.866  1.00  0.00     0.029 A 
ATOM     50  N   UNL     1      -7.711   8.495  14.864  1.00  0.00    -0.354 N 
ATOM     51  N   UNL     1      -9.766   7.676  12.941  1.00  0.00    -0.248 NA
ATOM     52  C   UNL     1     -11.940   6.961  12.475  1.00  0.00     0.031 C 
ATOM     53  C   UNL     1      -8.290   8.725  16.996  1.00  0.00     0.029 A 
ATOM     54  C   UNL     1      -8.773   8.375  15.745  1.00  0.00     0.049 A 
ATOM     55  H   UNL     1      -7.755   8.309  13.898  1.00  0.00     0.167 HD
ATOM     56  C   UNL     1     -10.501   7.653  14.120  1.00  0.00     0.074 A 
ATOM     57  C   UNL     1     -11.841   7.232  13.769  1.00  0.00     0.031 C 
ATOM     58  C   UNL     1     -10.103   7.957  15.380  1.00  0.00     0.037 A 
BRANCH  45  59
ATOM     59  C   UNL     1      -4.137   9.502  15.820  1.00  0.00     0.057 A 
ATOM     60  C   UNL     1      -3.573  10.783  15.779  1.00  0.00     0.134 A 
ATOM     61  C   UNL     1      -3.603   8.590  16.739  1.00  0.00     0.134 A 
ATOM     62  F   UNL     1      -4.028  11.700  14.911  1.00  0.00    -0.206 F 
ATOM     63  C   UNL     1      -2.502  11.135  16.602  1.00  0.00     0.040 A 
ATOM     64  C   UNL     1      -2.550   8.938  17.585  1.00  0.00     0.040 A 
ATOM     65  F   UNL     1      -4.100   7.347  16.832  1.00  0.00    -0.206 F 
ATOM     66  C   UNL     1      -1.991  10.212  17.514  1.00  0.00     0.006 A 
ENDBRANCH  45  59
BRANCH  46  67
ATOM     67  C   UNL     1     -11.427   6.715   9.606  1.00  0.00     0.057 A 
ATOM     68  C   UNL     1     -12.529   7.531   9.332  1.00  0.00     0.134 A 
ATOM     69  C   UNL     1     -11.389   5.454   8.996  1.00  0.00     0.134 A 
ATOM     70  F   UNL     1     -12.633   8.739   9.905  1.00  0.00    -0.206 F 
ATOM     71  C   UNL     1     -13.563   7.107   8.496  1.00  0.00     0.040 A 
ATOM     72  C   UNL     1     -12.404   5.027   8.139  1.00  0.00     0.040 A 
ATOM     73  F   UNL     1     -10.359   4.625   9.217  1.00  0.00    -0.206 F 
ATOM     74  C   UNL     1     -13.498   5.852   7.892  1.00  0.00     0.006 A 
ENDBRANCH  46  67
BRANCH  58  75
ATOM     75  C   UNL     1     -11.135   7.877  16.468  1.00  0.00     0.057 A 
ATOM     76  C   UNL     1     -11.611   6.651  16.948  1.00  0.00     0.134 A 
ATOM     77  C   UNL     1     -11.627   9.043  17.070  1.00  0.00     0.134 A 
ATOM     78  F   UNL     1     -11.190   5.498  16.406  1.00  0.00    -0.206 F 
ATOM     79  C   UNL     1     -12.556   6.587  17.974  1.00  0.00     0.040 A 
ATOM     80  C   UNL     1     -12.552   8.991  18.114  1.00  0.00     0.040 A 
ATOM     81  F   UNL     1     -11.205  10.250  16.664  1.00  0.00    -0.206 F 
ATOM     82  C   UNL     1     -13.023   7.760  18.565  1.00  0.00     0.006 A 
ENDBRANCH  58  75
ENDBRANCH  32  33
ENDBRANCH  25  27
ENDBRANCH  24  25
ENDBRANCH  23  24
ENDBRANCH  22  23
ENDBRANCH  21  22
ENDBRANCH   1  21
TORSDOF 18
