REMARK SMILES O=C(Cc1ccc(OC[C@H]2Cc3ccccc3S2)cc1)OCCOCCOC(=O)c1ccc(-c2c3nc(c(-c4c(F)cccc4F)c4ccc([nH]4)c(-c4c(F)cccc4F)c4nc(c(-c5c(F)cccc5F)c5ccc2[nH]5)C=C4)C=C3)cc1
REMARK SMILES IDX 23 1 22 2 21 3 2 4 1 5 3 6 4 7 5 8 20 9 6 10 19 11 7 12 8 13
REMARK SMILES IDX 9 14 10 15 11 16 18 17 12 18 17 19 13 20 16 21 14 22 15 23
REMARK SMILES IDX 24 24 25 25 26 26 27 27 28 28 29 29 30 30 31 31 83 32 32 33
REMARK SMILES IDX 82 34 33 35 34 36 35 37 76 38 36 39 81 40 75 41 77 42 37 43
REMARK SMILES IDX 80 44 74 45 73 46 38 48 64 49 47 50 63 51 48 52 51 53 62 54
REMARK SMILES IDX 78 55 49 56 50 57 61 59 79 60 52 61 39 62 40 63 45 64 41 65
REMARK SMILES IDX 42 66 44 67 46 68 43 69 65 70 66 71 71 72 67 73 68 74 70 75
REMARK SMILES IDX 72 76 69 77 53 78 54 79 59 80 55 81 56 82 58 83 60 84 57 85
REMARK H PARENT 77 47 51 58
REMARK Flexibility Score: inf
ROOT
ATOM      1  C   UNL     1      12.438   0.462  -0.008  1.00  0.00     0.202 C 
ENDROOT
BRANCH   1   2
ATOM      2  C   UNL     1      12.779  -1.010  -0.220  1.00  0.00     0.261 C 
BRANCH   2   3
ATOM      3  O   UNL     1      13.970  -1.215  -1.002  1.00  0.00    -0.463 OA
BRANCH   3   4
ATOM      4  C   UNL     1      14.012  -1.430  -2.340  1.00  0.00     0.310 C 
ATOM      5  O   UNL     1      15.101  -1.635  -2.879  1.00  0.00    -0.252 OA
BRANCH   4   6
ATOM      6  C   UNL     1      12.743  -1.370  -3.171  1.00  0.00     0.158 C 
BRANCH   6   7
ATOM      7  C   UNL     1      11.748  -2.455  -2.861  1.00  0.00    -0.037 A 
ATOM      8  C   UNL     1      12.171  -3.776  -2.692  1.00  0.00     0.008 A 
ATOM      9  C   UNL     1      10.410  -2.132  -2.603  1.00  0.00     0.008 A 
ATOM     10  C   UNL     1      11.342  -4.686  -2.042  1.00  0.00     0.047 A 
ATOM     11  C   UNL     1       9.571  -3.065  -1.990  1.00  0.00     0.047 A 
ATOM     12  C   UNL     1      10.084  -4.294  -1.584  1.00  0.00     0.119 A 
BRANCH  12  13
ATOM     13  O   UNL     1       9.516  -5.161  -0.694  1.00  0.00    -0.492 OA
BRANCH  13  14
ATOM     14  C   UNL     1       8.392  -4.739   0.078  1.00  0.00     0.244 C 
BRANCH  14  15
ATOM     15  C   UNL     1       8.663  -3.894   1.338  1.00  0.00     0.094 C 
ATOM     16  C   UNL     1       9.740  -4.395   2.323  1.00  0.00     0.055 C 
ATOM     17  S   UNL     1       9.075  -2.131   1.045  1.00  0.00    -0.119 SA
ATOM     18  C   UNL     1      10.023  -3.223   3.238  1.00  0.00    -0.033 A 
ATOM     19  C   UNL     1       9.785  -1.978   2.647  1.00  0.00     0.011 A 
ATOM     20  C   UNL     1      10.475  -3.281   4.552  1.00  0.00     0.005 A 
ATOM     21  C   UNL     1       9.994  -0.788   3.323  1.00  0.00     0.015 A 
ATOM     22  C   UNL     1      10.650  -2.085   5.261  1.00  0.00     0.000 A 
ATOM     23  C   UNL     1      10.408  -0.848   4.650  1.00  0.00     0.001 A 
ENDBRANCH  14  15
ENDBRANCH  13  14
ENDBRANCH  12  13
ENDBRANCH   6   7
ENDBRANCH   4   6
ENDBRANCH   3   4
ENDBRANCH   2   3
ENDBRANCH   1   2
BRANCH   1  24
ATOM     24  O   UNL     1      12.338   1.256  -1.188  1.00  0.00    -0.374 OA
BRANCH  24  25
ATOM     25  C   UNL     1      13.566   1.815  -1.669  1.00  0.00     0.202 C 
BRANCH  25  26
ATOM     26  C   UNL     1      14.024   3.110  -0.989  1.00  0.00     0.261 C 
BRANCH  26  27
ATOM     27  O   UNL     1      14.458   2.875   0.361  1.00  0.00    -0.460 OA
BRANCH  27  28
ATOM     28  C   UNL     1      13.572   3.242   1.318  1.00  0.00     0.338 C 
ATOM     29  O   UNL     1      12.508   3.813   1.164  1.00  0.00    -0.246 OA
BRANCH  28  30
ATOM     30  C   UNL     1      13.990   2.667   2.611  1.00  0.00     0.060 A 
ATOM     31  C   UNL     1      13.013   2.011   3.369  1.00  0.00     0.016 A 
ATOM     32  C   UNL     1      15.294   2.802   3.092  1.00  0.00     0.016 A 
ATOM     33  C   UNL     1      13.323   1.543   4.640  1.00  0.00     0.010 A 
ATOM     34  C   UNL     1      15.601   2.333   4.372  1.00  0.00     0.010 A 
ATOM     35  C   UNL     1      14.605   1.737   5.163  1.00  0.00    -0.014 A 
BRANCH  35  36
ATOM     36  C   UNL     1      14.842   1.483   6.602  1.00  0.00     0.031 A 
ATOM     37  C   UNL     1      14.851   2.655   7.541  1.00  0.00     0.074 A 
ATOM     38  C   UNL     1      15.003   0.231   7.064  1.00  0.00     0.049 A 
ATOM     39  N   UNL     1      15.115   2.693   8.821  1.00  0.00    -0.248 NA
ATOM     40  C   UNL     1      14.518   3.964   6.954  1.00  0.00     0.031 C 
ATOM     41  C   UNL     1      14.944  -0.985   6.255  1.00  0.00     0.029 A 
ATOM     42  N   UNL     1      15.264  -0.219   8.333  1.00  0.00    -0.354 N 
ATOM     43  C   UNL     1      14.998   4.029   9.187  1.00  0.00     0.074 A 
ATOM     44  C   UNL     1      14.664   4.772   7.993  1.00  0.00     0.031 C 
ATOM     45  C   UNL     1      15.186  -2.045   7.045  1.00  0.00     0.029 A 
ATOM     46  C   UNL     1      15.454  -1.577   8.403  1.00  0.00     0.049 A 
ATOM     47  H   UNL     1      15.309   0.374   9.118  1.00  0.00     0.167 HD
ATOM     48  C   UNL     1      15.152   4.582  10.413  1.00  0.00     0.037 A 
ATOM     49  C   UNL     1      15.836  -2.344   9.442  1.00  0.00     0.037 A 
ATOM     50  C   UNL     1      15.483   3.830  11.595  1.00  0.00     0.049 A 
ATOM     51  C   UNL     1      16.086  -1.694  10.778  1.00  0.00     0.074 A 
ATOM     52  C   UNL     1      15.653   4.288  12.889  1.00  0.00     0.029 A 
ATOM     53  N   UNL     1      15.700   2.460  11.621  1.00  0.00    -0.354 N 
ATOM     54  N   UNL     1      15.968  -0.433  11.121  1.00  0.00    -0.248 NA
ATOM     55  C   UNL     1      16.520  -2.574  11.871  1.00  0.00     0.031 C 
ATOM     56  C   UNL     1      16.027   3.203  13.688  1.00  0.00     0.029 A 
ATOM     57  C   UNL     1      16.029   2.059  12.904  1.00  0.00     0.049 A 
ATOM     58  H   UNL     1      15.631   1.862  10.842  1.00  0.00     0.167 HD
ATOM     59  C   UNL     1      16.282  -0.374  12.473  1.00  0.00     0.074 A 
ATOM     60  C   UNL     1      16.583  -1.728  12.890  1.00  0.00     0.031 C 
ATOM     61  C   UNL     1      16.316   0.702  13.298  1.00  0.00     0.037 A 
BRANCH  48  62
ATOM     62  C   UNL     1      15.001   6.071  10.525  1.00  0.00     0.057 A 
ATOM     63  C   UNL     1      13.760   6.707  10.388  1.00  0.00     0.134 A 
ATOM     64  C   UNL     1      16.114   6.879  10.793  1.00  0.00     0.134 A 
ATOM     65  F   UNL     1      12.657   5.995  10.113  1.00  0.00    -0.206 F 
ATOM     66  C   UNL     1      13.636   8.095  10.489  1.00  0.00     0.040 A 
ATOM     67  C   UNL     1      15.997   8.264  10.925  1.00  0.00     0.040 A 
ATOM     68  F   UNL     1      17.332   6.336  10.937  1.00  0.00    -0.206 F 
ATOM     69  C   UNL     1      14.756   8.876  10.766  1.00  0.00     0.006 A 
ENDBRANCH  48  62
BRANCH  49  70
ATOM     70  C   UNL     1      16.029  -3.805   9.258  1.00  0.00     0.057 A 
ATOM     71  C   UNL     1      15.182  -4.732   9.876  1.00  0.00     0.134 A 
ATOM     72  C   UNL     1      17.075  -4.309   8.476  1.00  0.00     0.134 A 
ATOM     73  F   UNL     1      14.175  -4.312  10.655  1.00  0.00    -0.206 F 
ATOM     74  C   UNL     1      15.379  -6.108   9.737  1.00  0.00     0.040 A 
ATOM     75  C   UNL     1      17.267  -5.681   8.306  1.00  0.00     0.040 A 
ATOM     76  F   UNL     1      17.922  -3.474   7.856  1.00  0.00    -0.206 F 
ATOM     77  C   UNL     1      16.421  -6.585   8.945  1.00  0.00     0.006 A 
ENDBRANCH  49  70
BRANCH  61  78
ATOM     78  C   UNL     1      16.645   0.453  14.742  1.00  0.00     0.057 A 
ATOM     79  C   UNL     1      17.935   0.109  15.162  1.00  0.00     0.134 A 
ATOM     80  C   UNL     1      15.662   0.603  15.729  1.00  0.00     0.134 A 
ATOM     81  F   UNL     1      18.919  -0.062  14.265  1.00  0.00    -0.206 F 
ATOM     82  C   UNL     1      18.232  -0.101  16.510  1.00  0.00     0.040 A 
ATOM     83  C   UNL     1      15.953   0.426  17.082  1.00  0.00     0.040 A 
ATOM     84  F   UNL     1      14.407   0.942  15.396  1.00  0.00    -0.206 F 
ATOM     85  C   UNL     1      17.240   0.066  17.475  1.00  0.00     0.006 A 
ENDBRANCH  61  78
ENDBRANCH  35  36
ENDBRANCH  28  30
ENDBRANCH  27  28
ENDBRANCH  26  27
ENDBRANCH  25  26
ENDBRANCH  24  25
ENDBRANCH   1  24
TORSDOF 18
