REMARK SMILES Cc1cccc(C(=O)Nc2cc(C(=O)OCCOCCOC(=O)c3ccc(-c4c5nc(c(-c6c(F)cccc6F)c6ccc([nH]6)c(-c6c(F)cccc6F)c6nc(c(-c7c(F)cccc7F)c7ccc4[nH]7)C=C6)C=C5)cc3)ccc2N2CC[NH+](CC(=O)NC(C)(C)C)CC2)c1
REMARK SMILES IDX 17 1 16 2 15 3 13 4 14 5 12 6 10 7 11 8 80 9 79 10 78 11
REMARK SMILES IDX 9 12 7 13 8 14 6 16 1 17 2 18 3 19 95 20 4 21 5 22 81 23
REMARK SMILES IDX 82 24 94 25 83 26 93 27 84 28 85 30 86 31 87 32 88 33 89 35
REMARK SMILES IDX 90 36 91 37 92 38 18 39 19 40 20 41 21 42 22 43 23 44 24 45
REMARK SMILES IDX 25 46 77 47 26 48 76 49 27 50 28 51 29 52 70 53 30 54 75 55
REMARK SMILES IDX 69 56 71 57 31 58 74 59 68 60 67 61 32 63 58 64 41 65 57 66
REMARK SMILES IDX 42 67 45 68 56 69 72 70 43 71 44 72 55 74 73 75 46 76 33 77
REMARK SMILES IDX 34 78 39 79 35 80 36 81 38 82 40 83 37 84 59 85 60 86 65 87
REMARK SMILES IDX 61 88 62 89 64 90 66 91 63 92 47 93 48 94 53 95 49 96 50 97
REMARK SMILES IDX 52 98 54 99 51 100
REMARK H PARENT 9 15 84 29 88 34 71 62 45 73
REMARK Flexibility Score: inf
ROOT
ATOM      1  C   UNL     1       2.754   2.768  -4.247  1.00  0.00     0.202 C 
ENDROOT
BRANCH   1   2
ATOM      2  C   UNL     1       2.545   1.520  -3.441  1.00  0.00     0.261 C 
BRANCH   2   3
ATOM      3  O   UNL     1       2.369   1.824  -2.072  1.00  0.00    -0.460 OA
BRANCH   3   4
ATOM      4  C   UNL     1       3.313   2.502  -1.379  1.00  0.00     0.338 C 
ATOM      5  O   UNL     1       4.511   2.348  -1.342  1.00  0.00    -0.246 OA
BRANCH   4   6
ATOM      6  C   UNL     1       2.533   3.581  -0.750  1.00  0.00     0.062 A 
ATOM      7  C   UNL     1       0.361   4.489  -0.313  1.00  0.00     0.065 A 
ATOM      8  C   UNL     1       1.145   3.539  -0.893  1.00  0.00     0.044 A 
ATOM      9  C   UNL     1       0.950   5.615   0.318  1.00  0.00     0.061 A 
ATOM     10  C   UNL     1       2.350   5.655   0.448  1.00  0.00     0.029 A 
ATOM     11  C   UNL     1       3.144   4.619  -0.053  1.00  0.00     0.018 A 
BRANCH   7  12
ATOM     12  N   UNL     1      -1.019   4.207  -0.239  1.00  0.00    -0.320 N 
ATOM     13  C   UNL     1      -1.641   3.067   0.281  1.00  0.00     0.255 C 
ATOM     14  O   UNL     1      -2.871   3.000   0.209  1.00  0.00    -0.269 OA
ATOM     15  H   UNL     1      -1.619   4.900  -0.597  1.00  0.00     0.170 HD
BRANCH  13  16
ATOM     16  C   UNL     1      -0.920   1.979   1.056  1.00  0.00     0.040 A 
ATOM     17  C   UNL     1       2.474   1.184   2.542  1.00  0.00     0.044 C 
ATOM     18  C   UNL     1       0.996   1.072   2.292  1.00  0.00    -0.050 A 
ATOM     19  C   UNL     1       0.323  -0.139   2.469  1.00  0.00     0.003 A 
ATOM     20  C   UNL     1       0.331   2.137   1.669  1.00  0.00     0.017 A 
ATOM     21  C   UNL     1      -0.962  -0.296   1.952  1.00  0.00     0.001 A 
ATOM     22  C   UNL     1      -1.571   0.748   1.238  1.00  0.00     0.014 A 
ENDBRANCH  13  16
ENDBRANCH   7  12
BRANCH   9  23
ATOM     23  N   UNL     1       0.130   6.494   1.001  1.00  0.00    -0.359 N 
ATOM     24  C   UNL     1       0.441   7.876   1.389  1.00  0.00     0.178 C 
ATOM     25  C   UNL     1      -0.582   5.801   2.061  1.00  0.00     0.178 C 
ATOM     26  C   UNL     1      -0.878   8.574   1.883  1.00  0.00     0.284 C 
ATOM     27  C   UNL     1      -1.950   6.450   2.202  1.00  0.00     0.284 C 
ATOM     28  N   UNL     1      -1.827   7.803   2.735  1.00  0.00    -0.324 N 
ATOM     29  H   UNL     1      -2.713   8.304   2.668  1.00  0.00     0.348 HD
BRANCH  28  30
ATOM     30  C   UNL     1      -1.618   7.826   4.202  1.00  0.00     0.363 C 
BRANCH  30  31
ATOM     31  C   UNL     1      -0.487   6.970   4.783  1.00  0.00     0.275 C 
ATOM     32  O   UNL     1       0.656   7.447   4.845  1.00  0.00    -0.268 OA
ATOM     33  N   UNL     1      -0.610   5.684   5.234  1.00  0.00    -0.347 N 
ATOM     34  H   UNL     1       0.237   5.402   5.650  1.00  0.00     0.164 HD
BRANCH  33  35
ATOM     35  C   UNL     1      -1.600   4.562   5.308  1.00  0.00     0.032 C 
ATOM     36  C   UNL     1      -1.429   3.550   4.162  1.00  0.00     0.034 C 
ATOM     37  C   UNL     1      -1.252   3.755   6.578  1.00  0.00     0.034 C 
ATOM     38  C   UNL     1      -3.062   4.992   5.404  1.00  0.00     0.034 C 
ENDBRANCH  33  35
ENDBRANCH  30  31
ENDBRANCH  28  30
ENDBRANCH   9  23
ENDBRANCH   4   6
ENDBRANCH   3   4
ENDBRANCH   2   3
ENDBRANCH   1   2
BRANCH   1  39
ATOM     39  O   UNL     1       4.057   3.208  -3.900  1.00  0.00    -0.374 OA
BRANCH  39  40
ATOM     40  C   UNL     1       4.449   4.462  -4.408  1.00  0.00     0.202 C 
BRANCH  40  41
ATOM     41  C   UNL     1       4.513   4.428  -5.935  1.00  0.00     0.261 C 
BRANCH  41  42
ATOM     42  O   UNL     1       5.392   3.348  -6.341  1.00  0.00    -0.460 OA
BRANCH  42  43
ATOM     43  C   UNL     1       4.791   2.210  -6.795  1.00  0.00     0.338 C 
ATOM     44  O   UNL     1       3.865   2.174  -7.591  1.00  0.00    -0.246 OA
BRANCH  43  45
ATOM     45  C   UNL     1       5.203   1.026  -5.967  1.00  0.00     0.060 A 
ATOM     46  C   UNL     1       4.468  -0.177  -6.041  1.00  0.00     0.016 A 
ATOM     47  C   UNL     1       6.059   1.230  -4.891  1.00  0.00     0.016 A 
ATOM     48  C   UNL     1       4.464  -1.089  -4.963  1.00  0.00     0.010 A 
ATOM     49  C   UNL     1       5.975   0.384  -3.797  1.00  0.00     0.010 A 
ATOM     50  C   UNL     1       5.146  -0.760  -3.787  1.00  0.00    -0.014 A 
BRANCH  50  51
ATOM     51  C   UNL     1       4.852  -1.281  -2.424  1.00  0.00     0.031 A 
ATOM     52  C   UNL     1       5.945  -1.409  -1.426  1.00  0.00     0.074 A 
ATOM     53  C   UNL     1       3.605  -1.154  -1.918  1.00  0.00     0.049 A 
ATOM     54  N   UNL     1       5.800  -1.462  -0.147  1.00  0.00    -0.248 NA
ATOM     55  C   UNL     1       7.329  -1.559  -1.842  1.00  0.00     0.031 C 
ATOM     56  C   UNL     1       3.300  -0.571  -0.606  1.00  0.00     0.029 A 
ATOM     57  N   UNL     1       2.361  -1.262  -2.498  1.00  0.00    -0.354 N 
ATOM     58  C   UNL     1       7.037  -1.457   0.446  1.00  0.00     0.074 A 
ATOM     59  C   UNL     1       7.954  -1.576  -0.662  1.00  0.00     0.031 C 
ATOM     60  C   UNL     1       1.977  -0.469  -0.487  1.00  0.00     0.029 A 
ATOM     61  C   UNL     1       1.351  -1.169  -1.552  1.00  0.00     0.049 A 
ATOM     62  H   UNL     1       2.208  -1.390  -3.463  1.00  0.00     0.167 HD
ATOM     63  C   UNL     1       7.127  -1.343   1.804  1.00  0.00     0.037 A 
ATOM     64  C   UNL     1       0.392  -2.104  -1.343  1.00  0.00     0.037 A 
ATOM     65  C   UNL     1       5.809  -1.566   2.466  1.00  0.00     0.049 A 
ATOM     66  C   UNL     1       0.770  -2.998  -0.155  1.00  0.00     0.074 A 
ATOM     67  C   UNL     1       5.057  -0.963   3.460  1.00  0.00     0.029 A 
ATOM     68  N   UNL     1       4.992  -2.610   2.001  1.00  0.00    -0.354 N 
ATOM     69  N   UNL     1       1.690  -2.726   0.749  1.00  0.00    -0.248 NA
ATOM     70  C   UNL     1       0.186  -4.313   0.062  1.00  0.00     0.031 C 
ATOM     71  C   UNL     1       3.833  -1.698   3.623  1.00  0.00     0.029 A 
ATOM     72  C   UNL     1       3.800  -2.721   2.692  1.00  0.00     0.049 A 
ATOM     73  H   UNL     1       5.244  -3.203   1.257  1.00  0.00     0.167 HD
ATOM     74  C   UNL     1       1.938  -3.826   1.539  1.00  0.00     0.074 A 
ATOM     75  C   UNL     1       0.954  -4.790   1.059  1.00  0.00     0.031 C 
ATOM     76  C   UNL     1       2.947  -3.898   2.478  1.00  0.00     0.037 A 
BRANCH  63  77
ATOM     77  C   UNL     1       8.431  -1.025   2.555  1.00  0.00     0.057 A 
ATOM     78  C   UNL     1       8.481  -0.990   3.965  1.00  0.00     0.134 A 
ATOM     79  C   UNL     1       9.667  -0.672   1.960  1.00  0.00     0.134 A 
ATOM     80  F   UNL     1       7.409  -1.273   4.715  1.00  0.00    -0.206 F 
ATOM     81  C   UNL     1       9.636  -0.644   4.697  1.00  0.00     0.040 A 
ATOM     82  C   UNL     1      10.842  -0.389   2.678  1.00  0.00     0.040 A 
ATOM     83  F   UNL     1       9.819  -0.508   0.645  1.00  0.00    -0.206 F 
ATOM     84  C   UNL     1      10.829  -0.357   4.056  1.00  0.00     0.006 A 
ENDBRANCH  63  77
BRANCH  64  85
ATOM     85  C   UNL     1      -0.342  -2.339  -2.632  1.00  0.00     0.057 A 
ATOM     86  C   UNL     1      -1.109  -1.215  -3.031  1.00  0.00     0.134 A 
ATOM     87  C   UNL     1       0.314  -3.035  -3.656  1.00  0.00     0.134 A 
ATOM     88  F   UNL     1      -1.835  -0.543  -2.123  1.00  0.00    -0.206 F 
ATOM     89  C   UNL     1      -0.930  -0.615  -4.283  1.00  0.00     0.040 A 
ATOM     90  C   UNL     1       0.494  -2.442  -4.920  1.00  0.00     0.040 A 
ATOM     91  F   UNL     1       1.039  -4.124  -3.368  1.00  0.00    -0.206 F 
ATOM     92  C   UNL     1      -0.063  -1.193  -5.205  1.00  0.00     0.006 A 
ENDBRANCH  64  85
BRANCH  76  93
ATOM     93  C   UNL     1       3.318  -5.152   3.274  1.00  0.00     0.057 A 
ATOM     94  C   UNL     1       2.422  -6.161   3.644  1.00  0.00     0.134 A 
ATOM     95  C   UNL     1       4.641  -5.359   3.747  1.00  0.00     0.134 A 
ATOM     96  F   UNL     1       1.100  -6.011   3.492  1.00  0.00    -0.206 F 
ATOM     97  C   UNL     1       2.835  -7.355   4.260  1.00  0.00     0.040 A 
ATOM     98  C   UNL     1       5.053  -6.514   4.418  1.00  0.00     0.040 A 
ATOM     99  F   UNL     1       5.613  -4.452   3.592  1.00  0.00    -0.206 F 
ATOM    100  C   UNL     1       4.158  -7.542   4.636  1.00  0.00     0.006 A 
ENDBRANCH  76  93
ENDBRANCH  50  51
ENDBRANCH  43  45
ENDBRANCH  42  43
ENDBRANCH  41  42
ENDBRANCH  40  41
ENDBRANCH  39  40
ENDBRANCH   1  39
TORSDOF 20
