REMARK SMILES CC[C@@](C)(NS(=O)(=O)Cc1ccccc1)C(=O)OCCOCCOC(=O)c1ccc(-c2c3nc(c(-c4c(F)cccc4F)c4ccc([nH]4)c(-c4c(F)cccc4F)c4nc(c(-c5c(F)cccc5F)c5ccc2[nH]5)C=C4)C=C3)cc1
REMARK SMILES IDX 20 1 19 2 18 3 16 4 17 5 3 6 4 7 2 8 1 9 5 10 6 12 7 13 8 14
REMARK SMILES IDX 9 15 10 16 11 17 15 18 12 19 14 20 13 21 21 22 22 23 23 24
REMARK SMILES IDX 24 25 25 26 26 27 27 28 28 29 80 30 29 31 79 32 30 33 31 34
REMARK SMILES IDX 32 35 73 36 33 37 78 38 72 39 74 40 34 41 77 42 71 43 70 44
REMARK SMILES IDX 35 46 61 47 44 48 60 49 45 50 48 51 59 52 75 53 46 54 47 55
REMARK SMILES IDX 58 57 76 58 49 59 36 60 37 61 42 62 38 63 39 64 41 65 43 66
REMARK SMILES IDX 40 67 62 68 63 69 68 70 64 71 65 72 67 73 69 74 66 75 50 76
REMARK SMILES IDX 51 77 56 78 52 79 53 80 55 81 57 82 54 83
REMARK H PARENT 5 11 74 45 48 56
REMARK Flexibility Score: inf
ROOT
ATOM      1  C   UNL     1       4.933   1.477  -0.243  1.00  0.00     0.202 C 
ENDROOT
BRANCH   1   2
ATOM      2  C   UNL     1       4.649   1.095  -1.714  1.00  0.00     0.261 C 
BRANCH   2   3
ATOM      3  O   UNL     1       3.346   1.517  -2.151  1.00  0.00    -0.462 OA
BRANCH   3   4
ATOM      4  C   UNL     1       2.352   0.595  -2.126  1.00  0.00     0.327 C 
ATOM      5  O   UNL     1       2.554  -0.610  -2.016  1.00  0.00    -0.250 OA
BRANCH   4   6
ATOM      6  C   UNL     1       0.952   1.242  -2.119  1.00  0.00     0.127 C 
ATOM      7  C   UNL     1       0.054   0.454  -3.084  1.00  0.00     0.042 C 
BRANCH   6   8
ATOM      8  C   UNL     1       0.337   1.141  -0.679  1.00  0.00     0.032 C 
ATOM      9  C   UNL     1       0.525  -0.166   0.079  1.00  0.00     0.006 C 
ENDBRANCH   6   8
BRANCH   6  10
ATOM     10  N   UNL     1       0.923   2.717  -2.414  1.00  0.00    -0.198 NA
ATOM     11  H   UNL     1       1.655   3.117  -1.827  1.00  0.00     0.142 HD
BRANCH  10  12
ATOM     12  S   UNL     1       1.120   3.436  -3.899  1.00  0.00     0.216 S 
ATOM     13  O   UNL     1       0.973   2.427  -4.932  1.00  0.00    -0.212 OA
ATOM     14  O   UNL     1       0.220   4.564  -3.863  1.00  0.00    -0.212 OA
BRANCH  12  15
ATOM     15  C   UNL     1       2.797   4.058  -3.990  1.00  0.00     0.189 C 
BRANCH  15  16
ATOM     16  C   UNL     1       3.246   4.829  -2.779  1.00  0.00    -0.032 A 
ATOM     17  C   UNL     1       4.889   4.429  -2.073  1.00  0.00     0.005 A 
ATOM     18  C   UNL     1       2.301   6.225  -2.092  1.00  0.00     0.005 A 
ATOM     19  C   UNL     1       5.554   5.391  -0.666  1.00  0.00     0.000 A 
ATOM     20  C   UNL     1       2.933   7.157  -0.659  1.00  0.00     0.000 A 
ATOM     21  C   UNL     1       4.563   6.735   0.071  1.00  0.00     0.000 A 
ENDBRANCH  15  16
ENDBRANCH  12  15
ENDBRANCH  10  12
ENDBRANCH   6  10
ENDBRANCH   4   6
ENDBRANCH   3   4
ENDBRANCH   2   3
ENDBRANCH   1   2
BRANCH   1  22
ATOM     22  O   UNL     1       4.678   2.831   0.144  1.00  0.00    -0.374 OA
BRANCH  22  23
ATOM     23  C   UNL     1       3.305   3.204   0.274  1.00  0.00     0.202 C 
BRANCH  23  24
ATOM     24  C   UNL     1       3.060   4.726   0.310  1.00  0.00     0.261 C 
BRANCH  24  25
ATOM     25  O   UNL     1       3.708   5.459  -1.075  1.00  0.00    -0.460 OA
BRANCH  25  26
ATOM     26  C   UNL     1       4.538   6.722  -2.152  1.00  0.00     0.338 C 
ATOM     27  O   UNL     1       4.887   7.890  -1.841  1.00  0.00    -0.246 OA
BRANCH  26  28
ATOM     28  C   UNL     1       4.973   6.557  -3.619  1.00  0.00     0.060 A 
ATOM     29  C   UNL     1       6.194   5.946  -3.972  1.00  0.00     0.016 A 
ATOM     30  C   UNL     1       4.236   7.232  -4.599  1.00  0.00     0.016 A 
ATOM     31  C   UNL     1       6.598   5.872  -5.300  1.00  0.00     0.010 A 
ATOM     32  C   UNL     1       4.660   7.201  -5.924  1.00  0.00     0.010 A 
ATOM     33  C   UNL     1       5.843   6.526  -6.273  1.00  0.00    -0.014 A 
BRANCH  33  34
ATOM     34  C   UNL     1       6.409   6.753  -7.614  1.00  0.00     0.031 A 
ATOM     35  C   UNL     1       7.042   8.086  -7.867  1.00  0.00     0.074 A 
ATOM     36  C   UNL     1       6.291   5.833  -8.582  1.00  0.00     0.049 A 
ATOM     37  N   UNL     1       7.338   8.662  -8.999  1.00  0.00    -0.248 NA
ATOM     38  C   UNL     1       7.345   8.893  -6.673  1.00  0.00     0.031 C 
ATOM     39  C   UNL     1       5.742   4.489  -8.414  1.00  0.00     0.029 A 
ATOM     40  N   UNL     1       6.591   5.917  -9.916  1.00  0.00    -0.354 N 
ATOM     41  C   UNL     1       7.797   9.927  -8.656  1.00  0.00     0.074 A 
ATOM     42  C   UNL     1       7.751  10.029  -7.215  1.00  0.00     0.031 C 
ATOM     43  C   UNL     1       5.700   3.886  -9.615  1.00  0.00     0.029 A 
ATOM     44  C   UNL     1       6.172   4.823 -10.632  1.00  0.00     0.049 A 
ATOM     45  H   UNL     1       7.059   6.683 -10.319  1.00  0.00     0.167 HD
ATOM     46  C   UNL     1       8.202  10.917  -9.483  1.00  0.00     0.037 A 
ATOM     47  C   UNL     1       6.126   4.636 -11.965  1.00  0.00     0.037 A 
ATOM     48  C   UNL     1       8.270  10.772 -10.910  1.00  0.00     0.049 A 
ATOM     49  C   UNL     1       6.590   5.746 -12.870  1.00  0.00     0.074 A 
ATOM     50  C   UNL     1       8.707  11.684 -11.852  1.00  0.00     0.029 A 
ATOM     51  N   UNL     1       7.890   9.627 -11.598  1.00  0.00    -0.354 N 
ATOM     52  N   UNL     1       7.016   6.946 -12.553  1.00  0.00    -0.248 NA
ATOM     53  C   UNL     1       6.562   5.481 -14.314  1.00  0.00     0.031 C 
ATOM     54  C   UNL     1       8.565  11.099 -13.115  1.00  0.00     0.029 A 
ATOM     55  C   UNL     1       8.077   9.810 -12.955  1.00  0.00     0.049 A 
ATOM     56  H   UNL     1       7.540   8.807 -11.180  1.00  0.00     0.167 HD
ATOM     57  C   UNL     1       7.326   7.572 -13.752  1.00  0.00     0.074 A 
ATOM     58  C   UNL     1       7.045   6.615 -14.804  1.00  0.00     0.031 C 
ATOM     59  C   UNL     1       7.800   8.824 -13.970  1.00  0.00     0.037 A 
BRANCH  46  60
ATOM     60  C   UNL     1       8.545  12.235  -8.857  1.00  0.00     0.057 A 
ATOM     61  C   UNL     1       9.687  12.413  -8.065  1.00  0.00     0.134 A 
ATOM     62  C   UNL     1       7.700  13.338  -9.030  1.00  0.00     0.134 A 
ATOM     63  F   UNL     1      10.524  11.389  -7.840  1.00  0.00    -0.206 F 
ATOM     64  C   UNL     1       9.958  13.631  -7.439  1.00  0.00     0.040 A 
ATOM     65  C   UNL     1       7.975  14.569  -8.433  1.00  0.00     0.040 A 
ATOM     66  F   UNL     1       6.588  13.236  -9.773  1.00  0.00    -0.206 F 
ATOM     67  C   UNL     1       9.102  14.715  -7.626  1.00  0.00     0.006 A 
ENDBRANCH  46  60
BRANCH  47  68
ATOM     68  C   UNL     1       5.588   3.368 -12.512  1.00  0.00     0.057 A 
ATOM     69  C   UNL     1       6.431   2.417 -13.096  1.00  0.00     0.134 A 
ATOM     70  C   UNL     1       4.222   3.063 -12.441  1.00  0.00     0.134 A 
ATOM     71  F   UNL     1       7.745   2.660 -13.209  1.00  0.00    -0.206 F 
ATOM     72  C   UNL     1       5.937   1.211 -13.597  1.00  0.00     0.040 A 
ATOM     73  C   UNL     1       3.717   1.853 -12.919  1.00  0.00     0.040 A 
ATOM     74  F   UNL     1       3.363   3.931 -11.888  1.00  0.00    -0.206 F 
ATOM     75  C   UNL     1       4.576   0.923 -13.502  1.00  0.00     0.006 A 
ENDBRANCH  47  68
BRANCH  59  76
ATOM     76  C   UNL     1       8.085   9.213 -15.388  1.00  0.00     0.057 A 
ATOM     77  C   UNL     1       7.062   9.561 -16.276  1.00  0.00     0.134 A 
ATOM     78  C   UNL     1       9.407   9.320 -15.839  1.00  0.00     0.134 A 
ATOM     79  F   UNL     1       5.777   9.470 -15.903  1.00  0.00    -0.206 F 
ATOM     80  C   UNL     1       7.344   9.995 -17.572  1.00  0.00     0.040 A 
ATOM     81  C   UNL     1       9.702   9.773 -17.125  1.00  0.00     0.040 A 
ATOM     82  F   UNL     1      10.431   9.010 -15.029  1.00  0.00    -0.206 F 
ATOM     83  C   UNL     1       8.668  10.111 -17.995  1.00  0.00     0.006 A 
ENDBRANCH  59  76
ENDBRANCH  33  34
ENDBRANCH  26  28
ENDBRANCH  25  26
ENDBRANCH  24  25
ENDBRANCH  23  24
ENDBRANCH  22  23
ENDBRANCH   1  22
TORSDOF 19
