REMARK SMILES Cc1sc(NC(=O)[C@@H]2[C@@H](C(=O)OCCOCCOC(=O)c3ccc(-c4c5nc(c(-c6c(F)cccc6F)c6ccc([nH]6)c(-c6c(F)cccc6F)c6nc(c(-c7c(F)cccc7F)c7ccc4[nH]7)C=C6)C=C5)cc3)[C@@H]3C=C[C@H]2C3)c(C#N)c1C
REMARK SMILES IDX 14 1 13 2 12 3 10 4 11 5 9 6 8 7 78 8 75 9 77 10 79 11 76 12
REMARK SMILES IDX 6 13 5 14 7 16 4 17 1 18 2 19 3 20 83 21 80 22 84 23 81 24
REMARK SMILES IDX 82 25 15 26 16 27 17 28 18 29 19 30 20 31 21 32 22 33 74 34
REMARK SMILES IDX 23 35 73 36 24 37 25 38 26 39 67 40 27 41 72 42 66 43 68 44
REMARK SMILES IDX 28 45 71 46 65 47 64 48 29 50 55 51 38 52 54 53 39 54 42 55
REMARK SMILES IDX 53 56 69 57 40 58 41 59 52 61 70 62 43 63 30 64 31 65 36 66
REMARK SMILES IDX 32 67 33 68 35 69 37 70 34 71 56 72 57 73 62 74 58 75 59 76
REMARK SMILES IDX 61 77 63 78 60 79 44 80 45 81 50 82 46 83 47 84 49 85 51 86
REMARK SMILES IDX 48 87
REMARK H PARENT 5 15 68 49 42 60
REMARK Flexibility Score: inf
ROOT
ATOM      1  C   UNL     1       5.757  -1.827   0.254  1.00  0.00     0.202 C 
ENDROOT
BRANCH   1   2
ATOM      2  C   UNL     1       5.231  -2.583  -0.983  1.00  0.00     0.261 C 
BRANCH   2   3
ATOM      3  O   UNL     1       4.188  -3.549  -0.783  1.00  0.00    -0.463 OA
BRANCH   3   4
ATOM      4  C   UNL     1       4.674  -4.684  -0.219  1.00  0.00     0.310 C 
ATOM      5  O   UNL     1       5.831  -4.783   0.179  1.00  0.00    -0.252 OA
BRANCH   4   6
ATOM      6  C   UNL     1       3.705  -5.854  -0.250  1.00  0.00     0.119 C 
ATOM      7  C   UNL     1       2.296  -5.695   0.441  1.00  0.00     0.100 C 
ATOM      8  C   UNL     1       2.392  -6.758   1.599  1.00  0.00     0.025 C 
ATOM      9  C   UNL     1       4.394  -6.936   0.638  1.00  0.00     0.027 C 
ATOM     10  C   UNL     1       2.529  -8.170   1.060  1.00  0.00    -0.027 C 
ATOM     11  C   UNL     1       3.847  -6.575   2.028  1.00  0.00     0.017 C 
ATOM     12  C   UNL     1       3.710  -8.253   0.437  1.00  0.00    -0.027 C 
BRANCH   7  13
ATOM     13  C   UNL     1       1.125  -6.005  -0.506  1.00  0.00     0.229 C 
ATOM     14  N   UNL     1       0.314  -5.116  -1.129  1.00  0.00    -0.316 N 
ATOM     15  H   UNL     1      -0.208  -5.545  -1.845  1.00  0.00     0.170 HD
ATOM     16  O   UNL     1       0.872  -7.172  -0.841  1.00  0.00    -0.274 OA
BRANCH  14  17
ATOM     17  C   UNL     1       0.023  -3.774  -1.029  1.00  0.00     0.113 A 
ATOM     18  C   UNL     1      -0.366  -0.246   0.614  1.00  0.00     0.057 C 
ATOM     19  C   UNL     1      -0.325  -1.451  -0.268  1.00  0.00     0.008 A 
ATOM     20  S   UNL     1       0.554  -2.823   0.258  1.00  0.00    -0.122 S 
ATOM     21  C   UNL     1      -0.938  -1.668  -1.492  1.00  0.00    -0.017 A 
ATOM     22  C   UNL     1      -0.810  -3.054  -1.869  1.00  0.00     0.090 A 
ATOM     23  C   UNL     1      -1.706  -0.654  -2.286  1.00  0.00     0.047 C 
BRANCH  22  24
ATOM     24  C   UNL     1      -1.498  -3.639  -2.989  1.00  0.00     0.103 C 
ATOM     25  N   UNL     1      -2.076  -4.116  -3.871  1.00  0.00    -0.192 NA
ENDBRANCH  22  24
ENDBRANCH  14  17
ENDBRANCH   7  13
ENDBRANCH   4   6
ENDBRANCH   3   4
ENDBRANCH   2   3
ENDBRANCH   1   2
BRANCH   1  26
ATOM     26  O   UNL     1       5.466  -2.276   1.572  1.00  0.00    -0.374 OA
BRANCH  26  27
ATOM     27  C   UNL     1       4.121  -2.343   2.023  1.00  0.00     0.202 C 
BRANCH  27  28
ATOM     28  C   UNL     1       3.439  -1.023   2.332  1.00  0.00     0.261 C 
BRANCH  28  29
ATOM     29  O   UNL     1       3.287  -0.278   1.133  1.00  0.00    -0.460 OA
BRANCH  29  30
ATOM     30  C   UNL     1       4.127   0.771   0.980  1.00  0.00     0.338 C 
ATOM     31  O   UNL     1       5.027   1.117   1.722  1.00  0.00    -0.246 OA
BRANCH  30  32
ATOM     32  C   UNL     1       3.651   1.546  -0.177  1.00  0.00     0.060 A 
ATOM     33  C   UNL     1       3.983   2.897  -0.132  1.00  0.00     0.016 A 
ATOM     34  C   UNL     1       2.539   1.079  -0.886  1.00  0.00     0.016 A 
ATOM     35  C   UNL     1       2.987   3.799  -0.417  1.00  0.00     0.010 A 
ATOM     36  C   UNL     1       1.539   1.980  -1.143  1.00  0.00     0.010 A 
ATOM     37  C   UNL     1       1.730   3.309  -0.774  1.00  0.00    -0.014 A 
BRANCH  37  38
ATOM     38  C   UNL     1       0.642   4.247  -0.929  1.00  0.00     0.031 A 
ATOM     39  C   UNL     1       0.670   4.846  -2.274  1.00  0.00     0.074 A 
ATOM     40  C   UNL     1      -0.323   4.462  -0.016  1.00  0.00     0.049 A 
ATOM     41  N   UNL     1       1.186   5.982  -2.605  1.00  0.00    -0.248 NA
ATOM     42  C   UNL     1       0.361   3.963  -3.410  1.00  0.00     0.031 C 
ATOM     43  C   UNL     1      -0.611   3.735   1.222  1.00  0.00     0.029 A 
ATOM     44  N   UNL     1      -1.320   5.388  -0.065  1.00  0.00    -0.354 N 
ATOM     45  C   UNL     1       1.025   6.044  -3.982  1.00  0.00     0.074 A 
ATOM     46  C   UNL     1       0.831   4.692  -4.421  1.00  0.00     0.031 C 
ATOM     47  C   UNL     1      -1.829   4.110   1.687  1.00  0.00     0.029 A 
ATOM     48  C   UNL     1      -2.339   5.193   0.863  1.00  0.00     0.049 A 
ATOM     49  H   UNL     1      -1.320   6.136  -0.705  1.00  0.00     0.167 HD
ATOM     50  C   UNL     1       0.669   7.212  -4.580  1.00  0.00     0.037 A 
ATOM     51  C   UNL     1      -3.528   5.852   0.872  1.00  0.00     0.037 A 
ATOM     52  C   UNL     1       0.940   8.334  -3.709  1.00  0.00     0.049 A 
ATOM     53  C   UNL     1      -3.346   7.096   0.078  1.00  0.00     0.074 A 
ATOM     54  C   UNL     1       2.061   8.845  -3.082  1.00  0.00     0.029 A 
ATOM     55  N   UNL     1      -0.134   8.899  -3.064  1.00  0.00    -0.354 N 
ATOM     56  N   UNL     1      -2.584   8.086   0.453  1.00  0.00    -0.248 NA
ATOM     57  C   UNL     1      -3.631   7.033  -1.347  1.00  0.00     0.031 C 
ATOM     58  C   UNL     1       1.600   9.323  -1.819  1.00  0.00     0.029 A 
ATOM     59  C   UNL     1       0.219   9.134  -1.763  1.00  0.00     0.049 A 
ATOM     60  H   UNL     1      -1.008   9.101  -3.469  1.00  0.00     0.167 HD
ATOM     61  C   UNL     1      -1.949   8.505  -0.708  1.00  0.00     0.074 A 
ATOM     62  C   UNL     1      -2.689   7.868  -1.796  1.00  0.00     0.031 C 
ATOM     63  C   UNL     1      -0.713   9.083  -0.660  1.00  0.00     0.037 A 
BRANCH  50  64
ATOM     64  C   UNL     1      -0.347   7.288  -5.705  1.00  0.00     0.057 A 
ATOM     65  C   UNL     1      -0.620   8.550  -6.259  1.00  0.00     0.134 A 
ATOM     66  C   UNL     1      -1.272   6.278  -6.058  1.00  0.00     0.134 A 
ATOM     67  F   UNL     1       0.188   9.594  -6.021  1.00  0.00    -0.206 F 
ATOM     68  C   UNL     1      -1.781   8.813  -6.994  1.00  0.00     0.040 A 
ATOM     69  C   UNL     1      -2.408   6.520  -6.831  1.00  0.00     0.040 A 
ATOM     70  F   UNL     1      -1.201   5.019  -5.618  1.00  0.00    -0.206 F 
ATOM     71  C   UNL     1      -2.690   7.800  -7.267  1.00  0.00     0.006 A 
ENDBRANCH  50  64
BRANCH  51  72
ATOM     72  C   UNL     1      -4.878   5.324   1.188  1.00  0.00     0.057 A 
ATOM     73  C   UNL     1      -5.970   6.185   1.388  1.00  0.00     0.134 A 
ATOM     74  C   UNL     1      -5.194   3.967   1.005  1.00  0.00     0.134 A 
ATOM     75  F   UNL     1      -5.779   7.505   1.522  1.00  0.00    -0.206 F 
ATOM     76  C   UNL     1      -7.295   5.726   1.383  1.00  0.00     0.040 A 
ATOM     77  C   UNL     1      -6.512   3.496   1.002  1.00  0.00     0.040 A 
ATOM     78  F   UNL     1      -4.240   3.066   0.726  1.00  0.00    -0.206 F 
ATOM     79  C   UNL     1      -7.570   4.378   1.178  1.00  0.00     0.006 A 
ENDBRANCH  51  72
BRANCH  63  80
ATOM     80  C   UNL     1      -0.187   9.493   0.689  1.00  0.00     0.057 A 
ATOM     81  C   UNL     1       0.143   8.591   1.713  1.00  0.00     0.134 A 
ATOM     82  C   UNL     1       0.137  10.836   0.900  1.00  0.00     0.134 A 
ATOM     83  F   UNL     1      -0.049   7.274   1.563  1.00  0.00    -0.206 F 
ATOM     84  C   UNL     1       0.739   9.015   2.905  1.00  0.00     0.040 A 
ATOM     85  C   UNL     1       0.760  11.269   2.072  1.00  0.00     0.040 A 
ATOM     86  F   UNL     1      -0.104  11.747  -0.056  1.00  0.00    -0.206 F 
ATOM     87  C   UNL     1       1.057  10.359   3.083  1.00  0.00     0.006 A 
ENDBRANCH  63  80
ENDBRANCH  37  38
ENDBRANCH  30  32
ENDBRANCH  29  30
ENDBRANCH  28  29
ENDBRANCH  27  28
ENDBRANCH  26  27
ENDBRANCH   1  26
TORSDOF 17
