REMARK SMILES O=C(C[C@H](Cc1ccc(Cl)cc1)C(=O)Nc1cc(Cl)ccc1Cl)OCCOCCOC(=O)c1ccc(-c2c3nc(c(-c4c(F)cccc4F)c4ccc([nH]4)c(-c4c(F)cccc4F)c4nc(c(-c5c(F)cccc5F)c5ccc2[nH]5)C=C4)C=C3)cc1
REMARK SMILES IDX 26 1 25 2 24 3 2 4 1 5 3 6 4 7 13 8 14 9 15 10 16 12 17 13
REMARK SMILES IDX 22 14 18 15 21 16 23 17 19 18 20 19 5 20 6 21 7 22 12 23
REMARK SMILES IDX 8 24 11 25 9 26 10 27 27 28 28 29 29 30 30 31 31 32 32 33
REMARK SMILES IDX 33 34 34 35 86 36 35 37 85 38 36 39 37 40 38 41 79 42 39 43
REMARK SMILES IDX 84 44 78 45 80 46 40 47 83 48 77 49 76 50 41 52 67 53 50 54
REMARK SMILES IDX 66 55 51 56 54 57 65 58 81 59 52 60 53 61 64 63 82 64 55 65
REMARK SMILES IDX 42 66 43 67 48 68 44 69 45 70 47 71 49 72 46 73 68 74 69 75
REMARK SMILES IDX 74 76 70 77 71 78 73 79 75 80 72 81 56 82 57 83 62 84 58 85
REMARK SMILES IDX 59 86 61 87 63 88 60 89
REMARK H PARENT 15 11 80 51 54 62
REMARK Flexibility Score: inf
ROOT
ATOM      1  C   UNL     1       3.765  -0.793  -1.586  1.00  0.00     0.202 C 
ENDROOT
BRANCH   1   2
ATOM      2  C   UNL     1       4.272   0.503  -0.990  1.00  0.00     0.261 C 
BRANCH   2   3
ATOM      3  O   UNL     1       5.575   0.429  -0.421  1.00  0.00    -0.463 OA
BRANCH   3   4
ATOM      4  C   UNL     1       5.798  -0.028   0.829  1.00  0.00     0.306 C 
ATOM      5  O   UNL     1       6.952  -0.180   1.221  1.00  0.00    -0.252 OA
BRANCH   4   6
ATOM      6  C   UNL     1       4.631  -0.401   1.702  1.00  0.00     0.136 C 
BRANCH   6   7
ATOM      7  C   UNL     1       3.771   0.644   2.439  1.00  0.00     0.094 C 
BRANCH   7   8
ATOM      8  C   UNL     1       4.560   1.765   3.152  1.00  0.00     0.228 C 
ATOM      9  O   UNL     1       4.369   1.930   4.364  1.00  0.00    -0.274 OA
ATOM     10  N   UNL     1       5.550   2.513   2.587  1.00  0.00    -0.324 N 
ATOM     11  H   UNL     1       6.233   2.799   3.235  1.00  0.00     0.169 HD
BRANCH  10  12
ATOM     12  C   UNL     1       5.808   2.964   1.281  1.00  0.00     0.061 A 
ATOM     13  C   UNL     1       4.786   3.419   0.457  1.00  0.00     0.048 A 
ATOM     14  C   UNL     1       7.136   3.037   0.811  1.00  0.00     0.064 A 
ATOM     15  C   UNL     1       5.068   3.814  -0.853  1.00  0.00     0.043 A 
ATOM     16  C   UNL     1       7.403   3.362  -0.524  1.00  0.00     0.024 A 
ATOM     17  Cl  UNL     1       8.475   2.672   1.841  1.00  0.00    -0.082 Cl
ATOM     18  Cl  UNL     1       3.784   4.388  -1.831  1.00  0.00    -0.084 Cl
ATOM     19  C   UNL     1       6.359   3.733  -1.369  1.00  0.00     0.022 A 
ENDBRANCH  10  12
ENDBRANCH   7   8
BRANCH   7  20
ATOM     20  C   UNL     1       2.393   1.099   1.883  1.00  0.00     0.049 C 
BRANCH  20  21
ATOM     21  C   UNL     1       1.528   0.146   1.065  1.00  0.00    -0.047 A 
ATOM     22  C   UNL     1       0.704   0.682   0.054  1.00  0.00     0.005 A 
ATOM     23  C   UNL     1       1.505  -1.243   1.256  1.00  0.00     0.005 A 
ATOM     24  C   UNL     1      -0.028  -0.148  -0.804  1.00  0.00     0.021 A 
ATOM     25  C   UNL     1       0.798  -2.079   0.378  1.00  0.00     0.021 A 
ATOM     26  C   UNL     1       0.046  -1.529  -0.657  1.00  0.00     0.041 A 
ATOM     27  Cl  UNL     1      -0.759  -2.553  -1.779  1.00  0.00    -0.084 Cl
ENDBRANCH  20  21
ENDBRANCH   7  20
ENDBRANCH   6   7
ENDBRANCH   4   6
ENDBRANCH   3   4
ENDBRANCH   2   3
ENDBRANCH   1   2
BRANCH   1  28
ATOM     28  O   UNL     1       4.340  -2.007  -1.139  1.00  0.00    -0.374 OA
BRANCH  28  29
ATOM     29  C   UNL     1       5.612  -2.328  -1.712  1.00  0.00     0.202 C 
BRANCH  29  30
ATOM     30  C   UNL     1       5.604  -2.780  -3.185  1.00  0.00     0.261 C 
BRANCH  30  31
ATOM     31  O   UNL     1       5.190  -1.741  -4.102  1.00  0.00    -0.460 OA
BRANCH  31  32
ATOM     32  C   UNL     1       3.925  -1.855  -4.596  1.00  0.00     0.338 C 
ATOM     33  O   UNL     1       3.158  -2.791  -4.437  1.00  0.00    -0.246 OA
BRANCH  32  34
ATOM     34  C   UNL     1       3.488  -0.543  -5.142  1.00  0.00     0.060 A 
ATOM     35  C   UNL     1       2.262  -0.006  -4.707  1.00  0.00     0.016 A 
ATOM     36  C   UNL     1       4.270   0.159  -6.056  1.00  0.00     0.016 A 
ATOM     37  C   UNL     1       1.800   1.214  -5.212  1.00  0.00     0.010 A 
ATOM     38  C   UNL     1       3.794   1.366  -6.580  1.00  0.00     0.010 A 
ATOM     39  C   UNL     1       2.546   1.887  -6.186  1.00  0.00    -0.014 A 
BRANCH  39  40
ATOM     40  C   UNL     1       1.987   3.042  -6.937  1.00  0.00     0.031 A 
ATOM     41  C   UNL     1       1.426   2.795  -8.306  1.00  0.00     0.074 A 
ATOM     42  C   UNL     1       2.042   4.298  -6.457  1.00  0.00     0.049 A 
ATOM     43  N   UNL     1       1.100   3.654  -9.234  1.00  0.00    -0.248 NA
ATOM     44  C   UNL     1       1.214   1.387  -8.680  1.00  0.00     0.031 C 
ATOM     45  C   UNL     1       2.495   4.659  -5.122  1.00  0.00     0.029 A 
ATOM     46  N   UNL     1       1.754   5.504  -7.050  1.00  0.00    -0.354 N 
ATOM     47  C   UNL     1       0.668   2.893 -10.312  1.00  0.00     0.074 A 
ATOM     48  C   UNL     1       0.780   1.503  -9.926  1.00  0.00     0.031 C 
ATOM     49  C   UNL     1       2.515   5.998  -5.008  1.00  0.00     0.029 A 
ATOM     50  C   UNL     1       2.117   6.589  -6.283  1.00  0.00     0.049 A 
ATOM     51  H   UNL     1       1.332   5.585  -7.935  1.00  0.00     0.167 HD
ATOM     52  C   UNL     1       0.224   3.322 -11.515  1.00  0.00     0.037 A 
ATOM     53  C   UNL     1       2.173   7.900  -6.593  1.00  0.00     0.037 A 
ATOM     54  C   UNL     1       0.105   4.706 -11.886  1.00  0.00     0.049 A 
ATOM     55  C   UNL     1       1.765   8.344  -7.975  1.00  0.00     0.074 A 
ATOM     56  C   UNL     1      -0.384   5.239 -13.066  1.00  0.00     0.029 A 
ATOM     57  N   UNL     1       0.492   5.774 -11.092  1.00  0.00    -0.354 N 
ATOM     58  N   UNL     1       1.322   7.622  -8.977  1.00  0.00    -0.248 NA
ATOM     59  C   UNL     1       1.868   9.780  -8.274  1.00  0.00     0.031 C 
ATOM     60  C   UNL     1      -0.233   6.627 -13.012  1.00  0.00     0.029 A 
ATOM     61  C   UNL     1       0.295   6.962 -11.775  1.00  0.00     0.049 A 
ATOM     62  H   UNL     1       0.852   5.699 -10.180  1.00  0.00     0.167 HD
ATOM     63  C   UNL     1       1.068   8.517 -10.009  1.00  0.00     0.074 A 
ATOM     64  C   UNL     1       1.389   9.836  -9.509  1.00  0.00     0.031 C 
ATOM     65  C   UNL     1       0.613   8.269 -11.261  1.00  0.00     0.037 A 
BRANCH  52  66
ATOM     66  C   UNL     1      -0.135   2.287 -12.536  1.00  0.00     0.057 A 
ATOM     67  C   UNL     1      -1.303   1.521 -12.440  1.00  0.00     0.134 A 
ATOM     68  C   UNL     1       0.668   2.107 -13.669  1.00  0.00     0.134 A 
ATOM     69  F   UNL     1      -2.105   1.635 -11.371  1.00  0.00    -0.206 F 
ATOM     70  C   UNL     1      -1.657   0.609 -13.435  1.00  0.00     0.040 A 
ATOM     71  C   UNL     1       0.313   1.216 -14.681  1.00  0.00     0.040 A 
ATOM     72  F   UNL     1       1.801   2.810 -13.819  1.00  0.00    -0.206 F 
ATOM     73  C   UNL     1      -0.854   0.463 -14.565  1.00  0.00     0.006 A 
ENDBRANCH  52  66
BRANCH  53  74
ATOM     74  C   UNL     1       2.695   8.892  -5.614  1.00  0.00     0.057 A 
ATOM     75  C   UNL     1       1.877   9.902  -5.092  1.00  0.00     0.134 A 
ATOM     76  C   UNL     1       4.043   8.899  -5.230  1.00  0.00     0.134 A 
ATOM     77  F   UNL     1       0.584   9.970  -5.441  1.00  0.00    -0.206 F 
ATOM     78  C   UNL     1       2.384  10.898  -4.253  1.00  0.00     0.040 A 
ATOM     79  C   UNL     1       4.557   9.870  -4.368  1.00  0.00     0.040 A 
ATOM     80  F   UNL     1       4.885   7.964  -5.694  1.00  0.00    -0.206 F 
ATOM     81  C   UNL     1       3.729  10.882  -3.887  1.00  0.00     0.006 A 
ENDBRANCH  53  74
BRANCH  65  82
ATOM     82  C   UNL     1       0.406   9.446 -12.169  1.00  0.00     0.057 A 
ATOM     83  C   UNL     1       1.483  10.146 -12.726  1.00  0.00     0.134 A 
ATOM     84  C   UNL     1      -0.886   9.847 -12.534  1.00  0.00     0.134 A 
ATOM     85  F   UNL     1       2.744   9.821 -12.406  1.00  0.00    -0.206 F 
ATOM     86  C   UNL     1       1.282  11.215 -13.601  1.00  0.00     0.040 A 
ATOM     87  C   UNL     1      -1.099  10.895 -13.431  1.00  0.00     0.040 A 
ATOM     88  F   UNL     1      -1.961   9.212 -12.044  1.00  0.00    -0.206 F 
ATOM     89  C   UNL     1      -0.012  11.585 -13.963  1.00  0.00     0.006 A 
ENDBRANCH  65  82
ENDBRANCH  39  40
ENDBRANCH  32  34
ENDBRANCH  31  32
ENDBRANCH  30  31
ENDBRANCH  29  30
ENDBRANCH  28  29
ENDBRANCH   1  28
TORSDOF 19
