REMARK SMILES Cc1c(CC(=O)N[C@H](CO)C(=O)OCCOCCOC(=O)c2ccc(-c3c4nc(c(-c5c(F)cccc5F)c5ccc([nH]5)c(-c5c(F)cccc5F)c5nc(c(-c6c(F)cccc6F)c6ccc3[nH]6)C=C5)C=C4)cc2)cc(-c2ccc(S(C)(=O)=O)cc2)n1-c1ccc(F)cc1
REMARK SMILES IDX 14 1 13 2 11 3 12 4 8 5 7 6 5 7 6 8 4 10 3 11 1 12 2 13
REMARK SMILES IDX 88 14 76 15 77 16 89 17 90 18 95 19 91 20 94 21 92 22 93 23
REMARK SMILES IDX 78 24 79 25 87 26 80 27 86 28 81 29 82 30 83 31 84 32 85 33
REMARK SMILES IDX 9 34 10 35 15 37 16 38 17 39 18 40 19 41 20 42 21 43 22 44
REMARK SMILES IDX 23 45 75 46 24 47 74 48 25 49 26 50 27 51 68 52 28 53 73 54
REMARK SMILES IDX 67 55 69 56 29 57 72 58 66 59 65 60 30 62 56 63 39 64 55 65
REMARK SMILES IDX 40 66 43 67 54 68 70 69 41 70 42 71 53 73 71 74 44 75 31 76
REMARK SMILES IDX 32 77 37 78 33 79 34 80 36 81 38 82 35 83 57 84 58 85 63 86
REMARK SMILES IDX 59 87 60 88 62 89 64 90 61 91 45 92 46 93 51 94 47 95 48 96
REMARK SMILES IDX 50 97 52 98 49 99
REMARK H PARENT 7 9 10 36 69 61 43 72
REMARK Flexibility Score: inf
ROOT
ATOM      1  C   UNL     1       5.142  -5.242  -4.588  1.00  0.00     0.261 C 
ENDROOT
BRANCH   1   2
ATOM      2  O   UNL     1       4.364  -4.160  -4.044  1.00  0.00    -0.462 OA
BRANCH   2   3
ATOM      3  C   UNL     1       3.153  -4.505  -3.531  1.00  0.00     0.331 C 
ATOM      4  O   UNL     1       2.616  -5.589  -3.736  1.00  0.00    -0.250 OA
BRANCH   3   5
ATOM      5  C   UNL     1       2.474  -3.372  -2.735  1.00  0.00     0.218 C 
BRANCH   5   6
ATOM      6  N   UNL     1       1.256  -2.990  -3.452  1.00  0.00    -0.341 N 
ATOM      7  C   UNL     1      -0.046  -3.194  -3.109  1.00  0.00     0.225 C 
ATOM      8  O   UNL     1      -0.909  -2.808  -3.901  1.00  0.00    -0.275 OA
ATOM      9  H   UNL     1       1.398  -2.517  -4.304  1.00  0.00     0.164 HD
BRANCH   7  10
ATOM     10  C   UNL     1      -0.416  -3.785  -1.757  1.00  0.00     0.137 C 
BRANCH  10  11
ATOM     11  C   UNL     1       0.035  -5.201  -1.548  1.00  0.00    -0.017 A 
ATOM     12  C   UNL     1      -0.941  -6.391  -3.646  1.00  0.00     0.065 C 
ATOM     13  C   UNL     1      -0.150  -6.298  -2.379  1.00  0.00     0.024 A 
ATOM     14  N   UNL     1       0.489  -7.396  -1.806  1.00  0.00    -0.314 N 
ATOM     15  C   UNL     1       0.731  -5.676  -0.402  1.00  0.00     0.033 A 
ATOM     16  C   UNL     1       1.030  -7.014  -0.579  1.00  0.00     0.053 A 
BRANCH  14  17
ATOM     17  C   UNL     1       0.540  -8.707  -2.354  1.00  0.00     0.046 A 
ATOM     18  C   UNL     1       0.116  -9.796  -1.580  1.00  0.00     0.029 A 
ATOM     19  C   UNL     1       1.070  -8.906  -3.635  1.00  0.00     0.029 A 
ATOM     20  C   UNL     1       0.211 -11.087  -2.098  1.00  0.00     0.041 A 
ATOM     21  C   UNL     1       1.172 -10.203  -4.141  1.00  0.00     0.041 A 
ATOM     22  C   UNL     1       0.740 -11.278  -3.371  1.00  0.00     0.123 A 
ATOM     23  F   UNL     1       0.845 -12.521  -3.858  1.00  0.00    -0.207 F 
ENDBRANCH  14  17
BRANCH  16  24
ATOM     24  C   UNL     1       1.840  -7.875   0.294  1.00  0.00    -0.001 A 
ATOM     25  C   UNL     1       2.986  -8.525  -0.189  1.00  0.00     0.011 A 
ATOM     26  C   UNL     1       1.472  -8.052   1.635  1.00  0.00     0.011 A 
ATOM     27  C   UNL     1       3.728  -9.375   0.637  1.00  0.00     0.021 A 
ATOM     28  C   UNL     1       2.208  -8.900   2.468  1.00  0.00     0.021 A 
ATOM     29  C   UNL     1       3.322  -9.570   1.960  1.00  0.00     0.067 A 
BRANCH  29  30
ATOM     30  S   UNL     1       4.276 -10.643   3.008  1.00  0.00     0.175 S 
ATOM     31  C   UNL     1       4.043 -12.258   2.313  1.00  0.00     0.163 C 
ATOM     32  O   UNL     1       5.658 -10.271   2.859  1.00  0.00    -0.224 OA
ATOM     33  O   UNL     1       3.636 -10.647   4.323  1.00  0.00    -0.224 OA
ENDBRANCH  29  30
ENDBRANCH  16  24
ENDBRANCH  10  11
ENDBRANCH   7  10
ENDBRANCH   5   6
BRANCH   5  34
ATOM     34  C   UNL     1       3.304  -2.122  -2.406  1.00  0.00     0.193 C 
BRANCH  34  35
ATOM     35  O   UNL     1       3.994  -2.245  -1.158  1.00  0.00    -0.394 OA
ATOM     36  H   UNL     1       3.349  -2.356  -0.442  1.00  0.00     0.210 HD
ENDBRANCH  34  35
ENDBRANCH   5  34
ENDBRANCH   3   5
ENDBRANCH   2   3
ENDBRANCH   1   2
BRANCH   1  37
ATOM     37  C   UNL     1       6.529  -5.332  -3.928  1.00  0.00     0.202 C 
BRANCH  37  38
ATOM     38  O   UNL     1       6.524  -5.335  -2.501  1.00  0.00    -0.374 OA
BRANCH  38  39
ATOM     39  C   UNL     1       6.394  -4.045  -1.876  1.00  0.00     0.202 C 
BRANCH  39  40
ATOM     40  C   UNL     1       7.640  -3.119  -1.903  1.00  0.00     0.261 C 
BRANCH  40  41
ATOM     41  O   UNL     1       7.499  -1.793  -2.562  1.00  0.00    -0.460 OA
BRANCH  41  42
ATOM     42  C   UNL     1       8.526  -1.395  -3.389  1.00  0.00     0.338 C 
ATOM     43  O   UNL     1       9.355  -2.180  -3.838  1.00  0.00    -0.246 OA
BRANCH  42  44
ATOM     44  C   UNL     1       8.604   0.095  -3.781  1.00  0.00     0.060 A 
ATOM     45  C   UNL     1       8.480   0.448  -5.123  1.00  0.00     0.016 A 
ATOM     46  C   UNL     1       9.118   1.123  -2.959  1.00  0.00     0.016 A 
ATOM     47  C   UNL     1       8.809   1.771  -5.602  1.00  0.00     0.010 A 
ATOM     48  C   UNL     1       9.514   2.455  -3.467  1.00  0.00     0.010 A 
ATOM     49  C   UNL     1       9.380   2.837  -4.818  1.00  0.00    -0.014 A 
BRANCH  49  50
ATOM     50  C   UNL     1      10.219   3.983  -5.629  1.00  0.00     0.031 A 
ATOM     51  C   UNL     1      11.044   3.162  -6.566  1.00  0.00     0.074 A 
ATOM     52  C   UNL     1      10.505   5.356  -5.696  1.00  0.00     0.049 A 
ATOM     53  N   UNL     1      11.821   2.219  -6.104  1.00  0.00    -0.248 NA
ATOM     54  C   UNL     1      10.773   3.088  -8.002  1.00  0.00     0.031 C 
ATOM     55  C   UNL     1      10.037   6.427  -4.798  1.00  0.00     0.029 A 
ATOM     56  N   UNL     1      11.297   6.154  -6.604  1.00  0.00    -0.354 N 
ATOM     57  C   UNL     1      12.386   1.632  -7.207  1.00  0.00     0.074 A 
ATOM     58  C   UNL     1      11.531   2.033  -8.315  1.00  0.00     0.031 C 
ATOM     59  C   UNL     1      10.399   7.670  -5.241  1.00  0.00     0.029 A 
ATOM     60  C   UNL     1      11.207   7.595  -6.458  1.00  0.00     0.049 A 
ATOM     61  H   UNL     1      11.869   5.740  -7.289  1.00  0.00     0.167 HD
ATOM     62  C   UNL     1      13.746   1.531  -7.195  1.00  0.00     0.037 A 
ATOM     63  C   UNL     1      11.773   8.649  -7.185  1.00  0.00     0.037 A 
ATOM     64  C   UNL     1      14.367   2.515  -8.035  1.00  0.00     0.049 A 
ATOM     65  C   UNL     1      12.961   8.110  -7.855  1.00  0.00     0.074 A 
ATOM     66  C   UNL     1      14.130   2.934  -9.328  1.00  0.00     0.029 A 
ATOM     67  N   UNL     1      15.058   3.529  -7.407  1.00  0.00    -0.354 N 
ATOM     68  N   UNL     1      14.082   7.947  -7.222  1.00  0.00    -0.248 NA
ATOM     69  C   UNL     1      13.006   7.851  -9.291  1.00  0.00     0.031 C 
ATOM     70  C   UNL     1      14.241   4.341  -9.280  1.00  0.00     0.029 A 
ATOM     71  C   UNL     1      14.882   4.705  -8.103  1.00  0.00     0.049 A 
ATOM     72  H   UNL     1      15.595   3.428  -6.588  1.00  0.00     0.167 HD
ATOM     73  C   UNL     1      14.757   7.086  -8.023  1.00  0.00     0.074 A 
ATOM     74  C   UNL     1      14.216   7.292  -9.352  1.00  0.00     0.031 C 
ATOM     75  C   UNL     1      15.181   5.945  -7.430  1.00  0.00     0.037 A 
BRANCH  62  76
ATOM     76  C   UNL     1      14.306   1.043  -5.893  1.00  0.00     0.057 A 
ATOM     77  C   UNL     1      14.749  -0.277  -5.798  1.00  0.00     0.134 A 
ATOM     78  C   UNL     1      14.260   1.791  -4.702  1.00  0.00     0.134 A 
ATOM     79  F   UNL     1      14.863  -1.034  -6.901  1.00  0.00    -0.206 F 
ATOM     80  C   UNL     1      15.070  -0.852  -4.566  1.00  0.00     0.040 A 
ATOM     81  C   UNL     1      14.527   1.215  -3.461  1.00  0.00     0.040 A 
ATOM     82  F   UNL     1      13.941   3.095  -4.721  1.00  0.00    -0.206 F 
ATOM     83  C   UNL     1      14.924  -0.117  -3.390  1.00  0.00     0.006 A 
ENDBRANCH  62  76
BRANCH  63  84
ATOM     84  C   UNL     1      11.738  10.194  -7.421  1.00  0.00     0.057 A 
ATOM     85  C   UNL     1      12.880  10.907  -7.941  1.00  0.00     0.134 A 
ATOM     86  C   UNL     1      10.559  10.938  -7.509  1.00  0.00     0.134 A 
ATOM     87  F   UNL     1      14.117  10.392  -7.902  1.00  0.00    -0.206 F 
ATOM     88  C   UNL     1      12.827  12.158  -8.589  1.00  0.00     0.040 A 
ATOM     89  C   UNL     1      10.501  12.220  -8.132  1.00  0.00     0.040 A 
ATOM     90  F   UNL     1       9.405  10.427  -7.064  1.00  0.00    -0.206 F 
ATOM     91  C   UNL     1      11.623  12.815  -8.709  1.00  0.00     0.006 A 
ENDBRANCH  63  84
BRANCH  75  92
ATOM     92  C   UNL     1      15.774   6.072  -6.037  1.00  0.00     0.057 A 
ATOM     93  C   UNL     1      15.221   6.748  -4.925  1.00  0.00     0.134 A 
ATOM     94  C   UNL     1      17.046   5.521  -5.834  1.00  0.00     0.134 A 
ATOM     95  F   UNL     1      13.968   7.224  -4.918  1.00  0.00    -0.206 F 
ATOM     96  C   UNL     1      15.936   6.938  -3.734  1.00  0.00     0.040 A 
ATOM     97  C   UNL     1      17.743   5.654  -4.630  1.00  0.00     0.040 A 
ATOM     98  F   UNL     1      17.640   4.825  -6.815  1.00  0.00    -0.206 F 
ATOM     99  C   UNL     1      17.201   6.389  -3.583  1.00  0.00     0.006 A 
ENDBRANCH  75  92
ENDBRANCH  49  50
ENDBRANCH  42  44
ENDBRANCH  41  42
ENDBRANCH  40  41
ENDBRANCH  39  40
ENDBRANCH  38  39
ENDBRANCH  37  38
ENDBRANCH   1  37
TORSDOF 22
