REMARK SMILES O=C(Cc1cccc(Cl)c1)N[C@H]1CCCCC[C@@H]1C(=O)OCCOCCOC(=O)c1ccc(-c2c3nc(c(-c4c(F)cccc4F)c4ccc([nH]4)c(-c4c(F)cccc4F)c4nc(c(-c5c(F)cccc5F)c5ccc2[nH]5)C=C4)C=C3)cc1
REMARK SMILES IDX 23 1 22 2 21 3 19 4 20 5 18 6 12 7 11 8 1 9 2 10 3 12 4 13
REMARK SMILES IDX 5 14 10 15 6 16 8 17 7 18 9 19 13 20 14 21 17 23 16 24 15 25
REMARK SMILES IDX 24 27 25 28 26 29 27 30 28 31 29 32 30 33 31 34 83 35 32 36
REMARK SMILES IDX 82 37 33 38 34 39 35 40 76 41 36 42 81 43 75 44 77 45 37 46
REMARK SMILES IDX 80 47 74 48 73 49 38 51 64 52 47 53 63 54 48 55 51 56 62 57
REMARK SMILES IDX 78 58 49 59 50 60 61 62 79 63 52 64 39 65 40 66 45 67 41 68
REMARK SMILES IDX 42 69 44 70 46 71 43 72 65 73 66 74 71 75 67 76 68 77 70 78
REMARK SMILES IDX 72 79 69 80 53 81 54 82 59 83 55 84 56 85 58 86 60 87 57 88
REMARK H PARENT 11 11 77 50 51 61
REMARK Flexibility Score: 100.00
ROOT
ATOM      1  C   UNL     1       0.368  -1.410  -2.780  1.00  0.00     0.202 C 
ENDROOT
BRANCH   1   2
ATOM      2  C   UNL     1       1.608  -2.286  -2.584  1.00  0.00     0.261 C 
BRANCH   2   3
ATOM      3  O   UNL     1       1.490  -3.010  -1.348  1.00  0.00    -0.463 OA
BRANCH   3   4
ATOM      4  C   UNL     1       2.469  -2.795  -0.427  1.00  0.00     0.311 C 
ATOM      5  O   UNL     1       3.536  -2.238  -0.650  1.00  0.00    -0.252 OA
BRANCH   4   6
ATOM      6  C   UNL     1       2.043  -3.326   0.938  1.00  0.00     0.121 C 
BRANCH   6   7
ATOM      7  C   UNL     1       2.334  -2.227   1.994  1.00  0.00     0.096 C 
BRANCH   7   8
ATOM      8  N   UNL     1       1.149  -1.510   2.503  1.00  0.00    -0.352 N 
ATOM      9  O   UNL     1      -0.208  -3.261   3.110  1.00  0.00    -0.275 OA
ATOM     10  C   UNL     1       0.029  -2.059   3.089  1.00  0.00     0.224 C 
ATOM     11  H   UNL     1       1.161  -0.529   2.415  1.00  0.00     0.163 HD
BRANCH  10  12
ATOM     12  C   UNL     1      -0.948  -1.035   3.657  1.00  0.00     0.135 C 
BRANCH  12  13
ATOM     13  C   UNL     1      -0.454  -0.327   4.899  1.00  0.00    -0.037 A 
ATOM     14  C   UNL     1       0.351   0.820   4.803  1.00  0.00     0.004 A 
ATOM     15  C   UNL     1      -0.806  -0.798   6.173  1.00  0.00     0.024 A 
ATOM     16  C   UNL     1       0.805   1.472   5.951  1.00  0.00     0.002 A 
ATOM     17  C   UNL     1      -0.365  -0.129   7.317  1.00  0.00     0.041 A 
ATOM     18  C   UNL     1       0.444   0.999   7.211  1.00  0.00     0.020 A 
ATOM     19  Cl  UNL     1      -0.836  -0.694   8.874  1.00  0.00    -0.084 Cl
ENDBRANCH  12  13
ENDBRANCH  10  12
ENDBRANCH   7   8
BRANCH   7  20
ATOM     20  C   UNL     1       3.304  -2.574   3.135  1.00  0.00     0.026 C 
BRANCH  20  21
ATOM     21  C   UNL     1       2.892  -3.683   4.096  1.00  0.00     0.002 CG0
ATOM     22  G   UNL     1       3.133  -5.092   3.573  1.00  0.00     0.000 G0
ENDBRANCH  20  21
ENDBRANCH   7  20
ENDBRANCH   6   7
BRANCH   6  23
ATOM     23  C   UNL     1       2.757  -4.672   1.092  1.00  0.00     0.017 C 
BRANCH  23  24
ATOM     24  C   UNL     1       2.344  -5.462   2.326  1.00  0.00     0.001 C 
BRANCH  24  25
ATOM     25  C   UNL     1       3.133  -5.092   3.573  1.00  0.00     0.000 CG0
ATOM     26  G   UNL     1       2.892  -3.683   4.096  1.00  0.00     0.000 G0
ENDBRANCH  24  25
ENDBRANCH  23  24
ENDBRANCH   6  23
ENDBRANCH   4   6
ENDBRANCH   3   4
ENDBRANCH   2   3
ENDBRANCH   1   2
BRANCH   1  27
ATOM     27  O   UNL     1       0.281  -0.287  -1.896  1.00  0.00    -0.374 OA
BRANCH  27  28
ATOM     28  C   UNL     1      -0.173  -0.550  -0.568  1.00  0.00     0.202 C 
BRANCH  28  29
ATOM     29  C   UNL     1      -1.691  -0.591  -0.382  1.00  0.00     0.261 C 
BRANCH  29  30
ATOM     30  O   UNL     1      -2.273  -1.710  -1.068  1.00  0.00    -0.460 OA
BRANCH  30  31
ATOM     31  C   UNL     1      -2.993  -1.383  -2.161  1.00  0.00     0.338 C 
ATOM     32  O   UNL     1      -3.277  -0.256  -2.551  1.00  0.00    -0.246 OA
BRANCH  31  33
ATOM     33  C   UNL     1      -3.283  -2.586  -2.958  1.00  0.00     0.060 A 
ATOM     34  C   UNL     1      -3.046  -2.505  -4.335  1.00  0.00     0.016 A 
ATOM     35  C   UNL     1      -3.843  -3.737  -2.398  1.00  0.00     0.016 A 
ATOM     36  C   UNL     1      -3.440  -3.544  -5.169  1.00  0.00     0.010 A 
ATOM     37  C   UNL     1      -4.242  -4.782  -3.239  1.00  0.00     0.010 A 
ATOM     38  C   UNL     1      -4.085  -4.666  -4.631  1.00  0.00    -0.014 A 
BRANCH  38  39
ATOM     39  C   UNL     1      -4.737  -5.617  -5.560  1.00  0.00     0.031 A 
ATOM     40  C   UNL     1      -6.208  -5.471  -5.836  1.00  0.00     0.074 A 
ATOM     41  C   UNL     1      -4.013  -6.539  -6.216  1.00  0.00     0.049 A 
ATOM     42  N   UNL     1      -6.963  -6.120  -6.685  1.00  0.00    -0.248 NA
ATOM     43  C   UNL     1      -6.923  -4.451  -5.053  1.00  0.00     0.031 C 
ATOM     44  C   UNL     1      -2.575  -6.751  -6.059  1.00  0.00     0.029 A 
ATOM     45  N   UNL     1      -4.390  -7.456  -7.163  1.00  0.00    -0.354 N 
ATOM     46  C   UNL     1      -8.237  -5.585  -6.543  1.00  0.00     0.074 A 
ATOM     47  C   UNL     1      -8.163  -4.587  -5.498  1.00  0.00     0.031 C 
ATOM     48  C   UNL     1      -2.186  -7.728  -6.896  1.00  0.00     0.029 A 
ATOM     49  C   UNL     1      -3.350  -8.218  -7.633  1.00  0.00     0.049 A 
ATOM     50  H   UNL     1      -5.318  -7.559  -7.476  1.00  0.00     0.167 HD
ATOM     51  C   UNL     1      -9.364  -5.886  -7.231  1.00  0.00     0.037 A 
ATOM     52  C   UNL     1      -3.341  -9.197  -8.558  1.00  0.00     0.037 A 
ATOM     53  C   UNL     1      -9.438  -6.882  -8.267  1.00  0.00     0.049 A 
ATOM     54  C   UNL     1      -4.621  -9.560  -9.260  1.00  0.00     0.074 A 
ATOM     55  C   UNL     1     -10.528  -7.251  -9.035  1.00  0.00     0.029 A 
ATOM     56  N   UNL     1      -8.375  -7.676  -8.672  1.00  0.00    -0.354 N 
ATOM     57  N   UNL     1      -5.811  -9.023  -9.146  1.00  0.00    -0.248 NA
ATOM     58  C   UNL     1      -4.551 -10.665 -10.228  1.00  0.00     0.031 C 
ATOM     59  C   UNL     1     -10.135  -8.300  -9.875  1.00  0.00     0.029 A 
ATOM     60  C   UNL     1      -8.789  -8.551  -9.662  1.00  0.00     0.049 A 
ATOM     61  H   UNL     1      -7.461  -7.624  -8.309  1.00  0.00     0.167 HD
ATOM     62  C   UNL     1      -6.623  -9.699 -10.047  1.00  0.00     0.074 A 
ATOM     63  C   UNL     1      -5.787 -10.681 -10.706  1.00  0.00     0.031 C 
ATOM     64  C   UNL     1      -7.942  -9.520 -10.311  1.00  0.00     0.037 A 
BRANCH  51  65
ATOM     65  C   UNL     1     -10.611  -5.140  -6.858  1.00  0.00     0.057 A 
ATOM     66  C   UNL     1     -10.787  -3.786  -7.175  1.00  0.00     0.134 A 
ATOM     67  C   UNL     1     -11.650  -5.783  -6.174  1.00  0.00     0.134 A 
ATOM     68  F   UNL     1      -9.823  -3.107  -7.815  1.00  0.00    -0.206 F 
ATOM     69  C   UNL     1     -11.938  -3.092  -6.798  1.00  0.00     0.040 A 
ATOM     70  C   UNL     1     -12.816  -5.106  -5.813  1.00  0.00     0.040 A 
ATOM     71  F   UNL     1     -11.547  -7.079  -5.842  1.00  0.00    -0.206 F 
ATOM     72  C   UNL     1     -12.959  -3.754  -6.118  1.00  0.00     0.006 A 
ENDBRANCH  51  65
BRANCH  52  73
ATOM     73  C   UNL     1      -2.072  -9.886  -8.895  1.00  0.00     0.057 A 
ATOM     74  C   UNL     1      -1.448  -9.687 -10.131  1.00  0.00     0.134 A 
ATOM     75  C   UNL     1      -1.459 -10.766  -7.995  1.00  0.00     0.134 A 
ATOM     76  F   UNL     1      -2.000  -8.872 -11.042  1.00  0.00    -0.206 F 
ATOM     77  C   UNL     1      -0.265 -10.348 -10.467  1.00  0.00     0.040 A 
ATOM     78  C   UNL     1      -0.265 -11.417  -8.309  1.00  0.00     0.040 A 
ATOM     79  F   UNL     1      -2.008 -10.998  -6.794  1.00  0.00    -0.206 F 
ATOM     80  C   UNL     1       0.333 -11.212  -9.552  1.00  0.00     0.006 A 
ENDBRANCH  52  73
BRANCH  64  81
ATOM     81  C   UNL     1      -8.547 -10.379 -11.382  1.00  0.00     0.057 A 
ATOM     82  C   UNL     1      -8.801 -11.741 -11.183  1.00  0.00     0.134 A 
ATOM     83  C   UNL     1      -8.903  -9.828 -12.620  1.00  0.00     0.134 A 
ATOM     84  F   UNL     1      -8.473 -12.332 -10.024  1.00  0.00    -0.206 F 
ATOM     85  C   UNL     1      -9.362 -12.532 -12.188  1.00  0.00     0.040 A 
ATOM     86  C   UNL     1      -9.487 -10.602 -13.622  1.00  0.00     0.040 A 
ATOM     87  F   UNL     1      -8.694  -8.526 -12.871  1.00  0.00    -0.206 F 
ATOM     88  C   UNL     1      -9.711 -11.961 -13.410  1.00  0.00     0.006 A 
ENDBRANCH  64  81
ENDBRANCH  38  39
ENDBRANCH  31  33
ENDBRANCH  30  31
ENDBRANCH  29  30
ENDBRANCH  28  29
ENDBRANCH  27  28
ENDBRANCH   1  27
TORSDOF 17
