REMARK SMILES Cc1cc(=O)oc2cc(O[C@@H](C)C(=O)N[C@H](CC(C)C)C(=O)OCCOCCOC(=O)c3ccc(-c4c5nc(c(-c6c(F)cccc6F)c6ccc([nH]6)c(-c6c(F)cccc6F)c6nc(c(-c7c(F)cccc7F)c7ccc4[nH]7)C=C6)C=C5)cc3)ccc12
REMARK SMILES IDX 25 1 24 2 23 3 21 4 22 5 16 6 15 7 13 8 14 9 11 11 12 12
REMARK SMILES IDX 10 13 9 14 1 15 2 16 3 17 88 18 4 19 7 20 87 21 5 22 6 23
REMARK SMILES IDX 8 24 86 25 17 26 18 27 19 28 20 29 26 30 27 31 28 32 29 33
REMARK SMILES IDX 30 34 31 35 32 36 33 37 85 38 34 39 84 40 35 41 36 42 37 43
REMARK SMILES IDX 78 44 38 45 83 46 77 47 79 48 39 49 82 50 76 51 75 52 40 54
REMARK SMILES IDX 66 55 49 56 65 57 50 58 53 59 64 60 80 61 51 62 52 63 63 65
REMARK SMILES IDX 81 66 54 67 41 68 42 69 47 70 43 71 44 72 46 73 48 74 45 75
REMARK SMILES IDX 67 76 68 77 73 78 69 79 70 80 72 81 74 82 71 83 55 84 56 85
REMARK SMILES IDX 61 86 57 87 58 88 60 89 62 90 59 91
REMARK H PARENT 15 10 79 53 53 64
REMARK Flexibility Score: inf
ROOT
ATOM      1  C   UNL     1      -3.254   4.064  -0.369  1.00  0.00     0.202 C 
ENDROOT
BRANCH   1   2
ATOM      2  C   UNL     1      -2.796   2.690   0.348  1.00  0.00     0.261 C 
BRANCH   2   3
ATOM      3  O   UNL     1      -1.730   2.696   1.451  1.00  0.00    -0.462 OA
BRANCH   3   4
ATOM      4  C   UNL     1      -0.365   2.526   1.487  1.00  0.00     0.328 C 
ATOM      5  O   UNL     1       0.431   3.462   1.606  1.00  0.00    -0.250 OA
BRANCH   4   6
ATOM      6  C   UNL     1       0.263   1.260   1.985  1.00  0.00     0.192 C 
BRANCH   6   7
ATOM      7  N   UNL     1      -0.558   0.171   1.565  1.00  0.00    -0.339 N 
ATOM      8  C   UNL     1      -0.598  -0.178   0.224  1.00  0.00     0.261 C 
ATOM      9  O   UNL     1      -0.883  -1.365   0.003  1.00  0.00    -0.271 OA
ATOM     10  H   UNL     1      -1.092  -0.330   2.224  1.00  0.00     0.164 HD
BRANCH   8  11
ATOM     11  C   UNL     1      -0.389   0.886  -1.082  1.00  0.00     0.258 C 
ATOM     12  C   UNL     1       0.377   0.169  -2.195  1.00  0.00     0.064 C 
BRANCH  11  13
ATOM     13  O   UNL     1      -0.439   2.286  -1.415  1.00  0.00    -0.481 OA
BRANCH  13  14
ATOM     14  C   UNL     1       0.403   3.325  -1.171  1.00  0.00     0.124 A 
ATOM     15  C   UNL     1       1.757   7.749   1.359  1.00  0.00     0.045 C 
ATOM     16  C   UNL     1       2.505   6.634   0.665  1.00  0.00    -0.033 A 
ATOM     17  C   UNL     1       3.828   6.466   0.712  1.00  0.00     0.098 A 
ATOM     18  C   UNL     1       1.783   5.608  -0.073  1.00  0.00     0.021 A 
ATOM     19  C   UNL     1       4.509   5.346   0.029  1.00  0.00     0.336 A 
ATOM     20  C   UNL     1       2.403   4.624  -0.859  1.00  0.00     0.142 A 
ATOM     21  C   UNL     1       0.448   5.489   0.094  1.00  0.00     0.016 A 
ATOM     22  O   UNL     1       5.682   5.095   0.284  1.00  0.00    -0.246 OA
ATOM     23  O   UNL     1       3.807   4.637  -0.939  1.00  0.00    -0.423 OA
ATOM     24  C   UNL     1       1.730   3.506  -1.453  1.00  0.00     0.094 A 
ATOM     25  C   UNL     1      -0.182   4.405  -0.503  1.00  0.00     0.047 A 
ENDBRANCH  13  14
ENDBRANCH  11  13
ENDBRANCH   8  11
ENDBRANCH   6   7
BRANCH   6  26
ATOM     26  C   UNL     1       0.595   1.686   3.481  1.00  0.00     0.040 C 
BRANCH  26  27
ATOM     27  C   UNL     1       2.106   1.815   3.930  1.00  0.00    -0.015 C 
ATOM     28  C   UNL     1       3.191   1.446   2.914  1.00  0.00     0.007 C 
ATOM     29  C   UNL     1       2.472   3.230   4.455  1.00  0.00     0.007 C 
ENDBRANCH  26  27
ENDBRANCH   6  26
ENDBRANCH   4   6
ENDBRANCH   3   4
ENDBRANCH   2   3
ENDBRANCH   1   2
BRANCH   1  30
ATOM     30  O   UNL     1      -2.718   4.252  -1.694  1.00  0.00    -0.374 OA
BRANCH  30  31
ATOM     31  C   UNL     1      -2.196   5.477  -2.268  1.00  0.00     0.202 C 
BRANCH  31  32
ATOM     32  C   UNL     1      -1.799   6.804  -1.556  1.00  0.00     0.261 C 
BRANCH  32  33
ATOM     33  O   UNL     1      -2.121   6.880  -0.174  1.00  0.00    -0.460 OA
BRANCH  33  34
ATOM     34  C   UNL     1      -3.231   7.598   0.094  1.00  0.00     0.338 C 
ATOM     35  O   UNL     1      -3.875   8.269  -0.669  1.00  0.00    -0.246 OA
BRANCH  34  36
ATOM     36  C   UNL     1      -3.697   7.223   1.441  1.00  0.00     0.060 A 
ATOM     37  C   UNL     1      -5.013   6.767   1.489  1.00  0.00     0.016 A 
ATOM     38  C   UNL     1      -2.929   7.347   2.603  1.00  0.00     0.016 A 
ATOM     39  C   UNL     1      -5.620   6.566   2.714  1.00  0.00     0.010 A 
ATOM     40  C   UNL     1      -3.542   7.125   3.844  1.00  0.00     0.010 A 
ATOM     41  C   UNL     1      -4.911   6.809   3.899  1.00  0.00    -0.014 A 
BRANCH  41  42
ATOM     42  C   UNL     1      -5.713   6.927   5.141  1.00  0.00     0.031 A 
ATOM     43  C   UNL     1      -6.020   8.299   5.683  1.00  0.00     0.074 A 
ATOM     44  C   UNL     1      -6.328   5.844   5.650  1.00  0.00     0.049 A 
ATOM     45  N   UNL     1      -6.848   8.648   6.635  1.00  0.00    -0.248 NA
ATOM     46  C   UNL     1      -5.314   9.431   5.060  1.00  0.00     0.031 C 
ATOM     47  C   UNL     1      -6.161   4.474   5.164  1.00  0.00     0.029 A 
ATOM     48  N   UNL     1      -7.256   5.736   6.654  1.00  0.00    -0.354 N 
ATOM     49  C   UNL     1      -6.766  10.033   6.718  1.00  0.00     0.074 A 
ATOM     50  C   UNL     1      -5.774  10.458   5.757  1.00  0.00     0.031 C 
ATOM     51  C   UNL     1      -6.989   3.667   5.847  1.00  0.00     0.029 A 
ATOM     52  C   UNL     1      -7.715   4.455   6.840  1.00  0.00     0.049 A 
ATOM     53  H   UNL     1      -7.563   6.503   7.189  1.00  0.00     0.167 HD
ATOM     54  C   UNL     1      -7.470  10.878   7.507  1.00  0.00     0.037 A 
ATOM     55  C   UNL     1      -8.618   3.974   7.715  1.00  0.00     0.037 A 
ATOM     56  C   UNL     1      -8.463  10.455   8.459  1.00  0.00     0.049 A 
ATOM     57  C   UNL     1      -9.320   4.926   8.646  1.00  0.00     0.074 A 
ATOM     58  C   UNL     1      -9.226  11.233   9.310  1.00  0.00     0.029 A 
ATOM     59  N   UNL     1      -8.827   9.136   8.687  1.00  0.00    -0.354 N 
ATOM     60  N   UNL     1      -9.239   6.233   8.710  1.00  0.00    -0.248 NA
ATOM     61  C   UNL     1     -10.245   4.334   9.622  1.00  0.00     0.031 C 
ATOM     62  C   UNL     1     -10.009  10.382  10.097  1.00  0.00     0.029 A 
ATOM     63  C   UNL     1      -9.782   9.077   9.688  1.00  0.00     0.049 A 
ATOM     64  H   UNL     1      -8.460   8.358   8.209  1.00  0.00     0.167 HD
ATOM     65  C   UNL     1     -10.119   6.621   9.713  1.00  0.00     0.074 A 
ATOM     66  C   UNL     1     -10.738   5.412  10.215  1.00  0.00     0.031 C 
ATOM     67  C   UNL     1     -10.392   7.866  10.176  1.00  0.00     0.037 A 
BRANCH  54  68
ATOM     68  C   UNL     1      -7.169  12.345   7.394  1.00  0.00     0.057 A 
ATOM     69  C   UNL     1      -7.528  13.095   6.265  1.00  0.00     0.134 A 
ATOM     70  C   UNL     1      -6.537  13.024   8.444  1.00  0.00     0.134 A 
ATOM     71  F   UNL     1      -8.120  12.504   5.216  1.00  0.00    -0.206 F 
ATOM     72  C   UNL     1      -7.248  14.460   6.176  1.00  0.00     0.040 A 
ATOM     73  C   UNL     1      -6.279  14.394   8.379  1.00  0.00     0.040 A 
ATOM     74  F   UNL     1      -6.169  12.368   9.555  1.00  0.00    -0.206 F 
ATOM     75  C   UNL     1      -6.629  15.115   7.239  1.00  0.00     0.006 A 
ENDBRANCH  54  68
BRANCH  55  76
ATOM     76  C   UNL     1      -8.902   2.517   7.763  1.00  0.00     0.057 A 
ATOM     77  C   UNL     1     -10.155   2.001   7.412  1.00  0.00     0.134 A 
ATOM     78  C   UNL     1      -7.926   1.605   8.186  1.00  0.00     0.134 A 
ATOM     79  F   UNL     1     -11.138   2.824   7.019  1.00  0.00    -0.206 F 
ATOM     80  C   UNL     1     -10.433   0.636   7.500  1.00  0.00     0.040 A 
ATOM     81  C   UNL     1      -8.181   0.235   8.250  1.00  0.00     0.040 A 
ATOM     82  F   UNL     1      -6.704   2.034   8.534  1.00  0.00    -0.206 F 
ATOM     83  C   UNL     1      -9.442  -0.252   7.915  1.00  0.00     0.006 A 
ENDBRANCH  55  76
BRANCH  67  84
ATOM     84  C   UNL     1     -11.430   7.989  11.256  1.00  0.00     0.057 A 
ATOM     85  C   UNL     1     -11.198   7.542  12.563  1.00  0.00     0.134 A 
ATOM     86  C   UNL     1     -12.664   8.598  10.992  1.00  0.00     0.134 A 
ATOM     87  F   UNL     1     -10.042   6.940  12.882  1.00  0.00    -0.206 F 
ATOM     88  C   UNL     1     -12.168   7.668  13.560  1.00  0.00     0.040 A 
ATOM     89  C   UNL     1     -13.628   8.760  11.988  1.00  0.00     0.040 A 
ATOM     90  F   UNL     1     -12.947   9.061   9.765  1.00  0.00    -0.206 F 
ATOM     91  C   UNL     1     -13.384   8.286  13.275  1.00  0.00     0.006 A 
ENDBRANCH  67  84
ENDBRANCH  41  42
ENDBRANCH  34  36
ENDBRANCH  33  34
ENDBRANCH  32  33
ENDBRANCH  31  32
ENDBRANCH  30  31
ENDBRANCH   1  30
TORSDOF 20
