REMARK SMILES COC(=O)[C@H]1CCN(C(=O)N2C[C@@H](C)[C@@H](C(=O)OCCOCCOC(=O)c3ccc(-c4c5nc(c(-c6c(F)cccc6F)c6ccc([nH]6)c(-c6c(F)cccc6F)c6nc(c(-c7c(F)cccc7F)c7ccc4[nH]7)C=C6)C=C5)cc3)C2)C1
REMARK SMILES IDX 20 1 19 2 18 3 16 4 17 5 15 6 11 7 12 8 81 9 13 10 14 11
REMARK SMILES IDX 9 12 10 13 8 14 5 15 6 16 82 17 7 18 3 19 4 20 2 21 1 22
REMARK SMILES IDX 21 23 22 24 23 25 24 26 25 27 26 28 27 29 28 30 80 31 29 32
REMARK SMILES IDX 79 33 30 34 31 35 32 36 73 37 33 38 78 39 72 40 74 41 34 42
REMARK SMILES IDX 77 43 71 44 70 45 35 47 61 48 44 49 60 50 45 51 48 52 59 53
REMARK SMILES IDX 75 54 46 55 47 56 58 58 76 59 49 60 36 61 37 62 42 63 38 64
REMARK SMILES IDX 39 65 41 66 43 67 40 68 62 69 63 70 68 71 64 72 65 73 67 74
REMARK SMILES IDX 69 75 66 76 50 77 51 78 56 79 52 80 53 81 55 82 57 83 54 84
REMARK H PARENT 74 46 48 57
REMARK Flexibility Score: inf
ROOT
ATOM      1  C   UNL     1      -9.630   0.821   6.643  1.00  0.00     0.202 C 
ENDROOT
BRANCH   1   2
ATOM      2  C   UNL     1      -9.706   1.032   5.130  1.00  0.00     0.261 C 
BRANCH   2   3
ATOM      3  O   UNL     1      -8.610   0.366   4.469  1.00  0.00    -0.463 OA
BRANCH   3   4
ATOM      4  C   UNL     1      -7.717   1.173   3.850  1.00  0.00     0.311 C 
ATOM      5  O   UNL     1      -7.881   2.377   3.693  1.00  0.00    -0.252 OA
BRANCH   4   6
ATOM      6  C   UNL     1      -6.520   0.428   3.282  1.00  0.00     0.123 C 
ATOM      7  N   UNL     1      -4.227   0.669   3.895  1.00  0.00    -0.323 N 
ATOM      8  C   UNL     1      -4.760  -0.360   4.758  1.00  0.00     0.125 C 
ATOM      9  C   UNL     1      -5.323   1.409   3.304  1.00  0.00     0.137 C 
ATOM     10  C   UNL     1      -5.933  -0.863   3.927  1.00  0.00     0.021 C 
ATOM     11  C   UNL     1      -6.819  -1.860   4.648  1.00  0.00     0.010 C 
BRANCH   7  12
ATOM     12  C   UNL     1      -2.961   1.187   3.922  1.00  0.00     0.320 C 
ATOM     13  O   UNL     1      -2.765   2.401   3.881  1.00  0.00    -0.248 OA
BRANCH  12  14
ATOM     14  N   UNL     1      -1.920   0.293   3.921  1.00  0.00    -0.324 N 
ATOM     15  C   UNL     1       0.329  -0.449   3.761  1.00  0.00     0.120 C 
ATOM     16  C   UNL     1      -0.624  -1.636   3.910  1.00  0.00     0.039 C 
ATOM     17  C   UNL     1      -0.547   0.765   4.057  1.00  0.00     0.136 C 
ATOM     18  C   UNL     1      -1.929  -1.063   3.400  1.00  0.00     0.122 C 
BRANCH  15  19
ATOM     19  C   UNL     1       1.506  -0.518   4.695  1.00  0.00     0.310 C 
ATOM     20  O   UNL     1       1.570  -1.211   5.700  1.00  0.00    -0.252 OA
BRANCH  19  21
ATOM     21  O   UNL     1       2.503   0.291   4.238  1.00  0.00    -0.469 OA
ATOM     22  C   UNL     1       3.700   0.225   5.014  1.00  0.00     0.282 C 
ENDBRANCH  19  21
ENDBRANCH  15  19
ENDBRANCH  12  14
ENDBRANCH   7  12
ENDBRANCH   4   6
ENDBRANCH   3   4
ENDBRANCH   2   3
ENDBRANCH   1   2
BRANCH   1  23
ATOM     23  O   UNL     1      -8.578   1.504   7.325  1.00  0.00    -0.374 OA
BRANCH  23  24
ATOM     24  C   UNL     1      -7.284   0.909   7.268  1.00  0.00     0.202 C 
BRANCH  24  25
ATOM     25  C   UNL     1      -7.010  -0.229   8.262  1.00  0.00     0.261 C 
BRANCH  25  26
ATOM     26  O   UNL     1      -7.865  -1.366   8.039  1.00  0.00    -0.460 OA
BRANCH  26  27
ATOM     27  C   UNL     1      -8.887  -1.486   8.919  1.00  0.00     0.338 C 
ATOM     28  O   UNL     1      -9.074  -0.818   9.925  1.00  0.00    -0.246 OA
BRANCH  27  29
ATOM     29  C   UNL     1      -9.898  -2.429   8.399  1.00  0.00     0.060 A 
ATOM     30  C   UNL     1     -11.236  -2.013   8.438  1.00  0.00     0.016 A 
ATOM     31  C   UNL     1      -9.568  -3.700   7.923  1.00  0.00     0.016 A 
ATOM     32  C   UNL     1     -12.253  -2.886   8.061  1.00  0.00     0.010 A 
ATOM     33  C   UNL     1     -10.593  -4.578   7.548  1.00  0.00     0.010 A 
ATOM     34  C   UNL     1     -11.941  -4.189   7.653  1.00  0.00    -0.014 A 
BRANCH  34  35
ATOM     35  C   UNL     1     -13.035  -5.179   7.487  1.00  0.00     0.031 A 
ATOM     36  C   UNL     1     -13.277  -6.189   8.577  1.00  0.00     0.074 A 
ATOM     37  C   UNL     1     -13.838  -5.149   6.409  1.00  0.00     0.049 A 
ATOM     38  N   UNL     1     -14.164  -7.151   8.637  1.00  0.00    -0.248 NA
ATOM     39  C   UNL     1     -12.402  -6.104   9.757  1.00  0.00     0.031 C 
ATOM     40  C   UNL     1     -13.739  -4.192   5.308  1.00  0.00     0.029 A 
ATOM     41  N   UNL     1     -14.898  -5.951   6.064  1.00  0.00    -0.354 N 
ATOM     42  C   UNL     1     -13.950  -7.785   9.855  1.00  0.00     0.074 A 
ATOM     43  C   UNL     1     -12.827  -7.125  10.485  1.00  0.00     0.031 C 
ATOM     44  C   UNL     1     -14.699  -4.464   4.407  1.00  0.00     0.029 A 
ATOM     45  C   UNL     1     -15.456  -5.634   4.850  1.00  0.00     0.049 A 
ATOM     46  H   UNL     1     -15.228  -6.683   6.634  1.00  0.00     0.167 HD
ATOM     47  C   UNL     1     -14.636  -8.816  10.405  1.00  0.00     0.037 A 
ATOM     48  C   UNL     1     -16.449  -6.233   4.164  1.00  0.00     0.037 A 
ATOM     49  C   UNL     1     -15.754  -9.470   9.779  1.00  0.00     0.049 A 
ATOM     50  C   UNL     1     -17.139  -7.433   4.759  1.00  0.00     0.074 A 
ATOM     51  C   UNL     1     -16.524 -10.514  10.264  1.00  0.00     0.029 A 
ATOM     52  N   UNL     1     -16.258  -9.151   8.527  1.00  0.00    -0.354 N 
ATOM     53  N   UNL     1     -16.945  -8.011   5.920  1.00  0.00    -0.248 NA
ATOM     54  C   UNL     1     -18.190  -8.065   3.946  1.00  0.00     0.031 C 
ATOM     55  C   UNL     1     -17.455 -10.864   9.281  1.00  0.00     0.029 A 
ATOM     56  C   UNL     1     -17.307  -9.998   8.210  1.00  0.00     0.049 A 
ATOM     57  H   UNL     1     -15.920  -8.429   7.950  1.00  0.00     0.167 HD
ATOM     58  C   UNL     1     -17.866  -9.049   5.990  1.00  0.00     0.074 A 
ATOM     59  C   UNL     1     -18.628  -9.015   4.760  1.00  0.00     0.031 C 
ATOM     60  C   UNL     1     -18.064  -9.950   6.984  1.00  0.00     0.037 A 
BRANCH  47  61
ATOM     61  C   UNL     1     -14.177  -9.318  11.744  1.00  0.00     0.057 A 
ATOM     62  C   UNL     1     -14.352  -8.572  12.918  1.00  0.00     0.134 A 
ATOM     63  C   UNL     1     -13.586 -10.582  11.866  1.00  0.00     0.134 A 
ATOM     64  F   UNL     1     -14.899  -7.348  12.870  1.00  0.00    -0.206 F 
ATOM     65  C   UNL     1     -13.934  -9.056  14.159  1.00  0.00     0.040 A 
ATOM     66  C   UNL     1     -13.191 -11.089  13.105  1.00  0.00     0.040 A 
ATOM     67  F   UNL     1     -13.394 -11.352  10.784  1.00  0.00    -0.206 F 
ATOM     68  C   UNL     1     -13.359 -10.321  14.256  1.00  0.00     0.006 A 
ENDBRANCH  47  61
BRANCH  48  69
ATOM     69  C   UNL     1     -16.846  -5.721   2.827  1.00  0.00     0.057 A 
ATOM     70  C   UNL     1     -18.102  -5.139   2.614  1.00  0.00     0.134 A 
ATOM     71  C   UNL     1     -15.991  -5.826   1.724  1.00  0.00     0.134 A 
ATOM     72  F   UNL     1     -18.976  -5.032   3.625  1.00  0.00    -0.206 F 
ATOM     73  C   UNL     1     -18.499  -4.699   1.350  1.00  0.00     0.040 A 
ATOM     74  C   UNL     1     -16.363  -5.364   0.461  1.00  0.00     0.040 A 
ATOM     75  F   UNL     1     -14.774  -6.373   1.859  1.00  0.00    -0.206 F 
ATOM     76  C   UNL     1     -17.626  -4.806   0.270  1.00  0.00     0.006 A 
ENDBRANCH  48  69
BRANCH  60  77
ATOM     77  C   UNL     1     -19.171 -10.949   6.805  1.00  0.00     0.057 A 
ATOM     78  C   UNL     1     -19.082 -12.000   5.884  1.00  0.00     0.134 A 
ATOM     79  C   UNL     1     -20.324 -10.885   7.600  1.00  0.00     0.134 A 
ATOM     80  F   UNL     1     -18.011 -12.114   5.083  1.00  0.00    -0.206 F 
ATOM     81  C   UNL     1     -20.108 -12.937   5.743  1.00  0.00     0.040 A 
ATOM     82  C   UNL     1     -21.342 -11.832   7.490  1.00  0.00     0.040 A 
ATOM     83  F   UNL     1     -20.470  -9.910   8.511  1.00  0.00    -0.206 F 
ATOM     84  C   UNL     1     -21.239 -12.859   6.554  1.00  0.00     0.006 A 
ENDBRANCH  60  77
ENDBRANCH  34  35
ENDBRANCH  27  29
ENDBRANCH  26  27
ENDBRANCH  25  26
ENDBRANCH  24  25
ENDBRANCH  23  24
ENDBRANCH   1  23
TORSDOF 18
