REMARK SMILES O=C(/C=C/c1c(Cl)cccc1Cl)NCC(=O)OCCOCCOC(=O)c1ccc(-c2c3nc(c(-c4c(F)cccc4F)c4ccc([nH]4)c(-c4c(F)cccc4F)c4nc(c(-c5c(F)cccc5F)c5ccc2[nH]5)C=C4)C=C3)cc1
REMARK SMILES IDX 19 1 18 2 17 3 15 4 16 5 14 6 13 7 1 8 2 9 3 11 4 12 5 13
REMARK SMILES IDX 6 14 11 15 7 16 8 17 10 18 12 19 9 20 20 21 21 22 22 23
REMARK SMILES IDX 23 24 24 25 25 26 26 27 27 28 79 29 28 30 78 31 29 32 30 33
REMARK SMILES IDX 31 34 72 35 32 36 77 37 71 38 73 39 33 40 76 41 70 42 69 43
REMARK SMILES IDX 34 45 60 46 43 47 59 48 44 49 47 50 58 51 74 52 45 53 46 54
REMARK SMILES IDX 57 56 75 57 48 58 35 59 36 60 41 61 37 62 38 63 40 64 42 65
REMARK SMILES IDX 39 66 61 67 62 68 67 69 63 70 64 71 66 72 68 73 65 74 49 75
REMARK SMILES IDX 50 76 55 77 51 78 52 79 54 80 56 81 53 82
REMARK H PARENT 13 10 73 44 47 55
REMARK Flexibility Score: inf
ROOT
ATOM      1  C   UNL     1       3.573  -0.634  -5.541  1.00  0.00     0.202 C 
ENDROOT
BRANCH   1   2
ATOM      2  C   UNL     1       2.137  -0.813  -5.042  1.00  0.00     0.261 C 
BRANCH   2   3
ATOM      3  O   UNL     1       2.085  -0.736  -3.607  1.00  0.00    -0.462 OA
BRANCH   3   4
ATOM      4  C   UNL     1       1.298  -1.670  -3.004  1.00  0.00     0.325 C 
ATOM      5  O   UNL     1       0.529  -2.420  -3.595  1.00  0.00    -0.250 OA
BRANCH   4   6
ATOM      6  C   UNL     1       1.603  -1.815  -1.514  1.00  0.00     0.239 C 
BRANCH   6   7
ATOM      7  N   UNL     1       2.448  -0.805  -0.890  1.00  0.00    -0.342 N 
ATOM      8  O   UNL     1       0.698   0.399  -0.053  1.00  0.00    -0.270 OA
ATOM      9  C   UNL     1       1.904   0.199  -0.142  1.00  0.00     0.244 C 
ATOM     10  H   UNL     1       3.425  -0.848  -1.009  1.00  0.00     0.164 HD
BRANCH   9  11
ATOM     11  C   UNL     1       2.846   1.077   0.599  1.00  0.00     0.072 C 
ATOM     12  C   UNL     1       4.125   0.809   0.909  1.00  0.00     0.017 C 
BRANCH  12  13
ATOM     13  C   UNL     1       4.912   1.728   1.763  1.00  0.00     0.012 A 
ATOM     14  C   UNL     1       4.601   1.922   3.125  1.00  0.00     0.049 A 
ATOM     15  C   UNL     1       6.005   2.442   1.238  1.00  0.00     0.049 A 
ATOM     16  Cl  UNL     1       3.356   1.020   3.925  1.00  0.00    -0.084 Cl
ATOM     17  C   UNL     1       5.316   2.838   3.907  1.00  0.00     0.021 A 
ATOM     18  C   UNL     1       6.713   3.364   2.020  1.00  0.00     0.021 A 
ATOM     19  Cl  UNL     1       6.553   2.207  -0.386  1.00  0.00    -0.084 Cl
ATOM     20  C   UNL     1       6.362   3.570   3.352  1.00  0.00     0.003 A 
ENDBRANCH  12  13
ENDBRANCH   9  11
ENDBRANCH   6   7
ENDBRANCH   4   6
ENDBRANCH   3   4
ENDBRANCH   2   3
ENDBRANCH   1   2
BRANCH   1  21
ATOM     21  O   UNL     1       4.501  -1.646  -5.146  1.00  0.00    -0.374 OA
BRANCH  21  22
ATOM     22  C   UNL     1       4.921  -1.667  -3.783  1.00  0.00     0.202 C 
BRANCH  22  23
ATOM     23  C   UNL     1       5.908  -0.574  -3.352  1.00  0.00     0.261 C 
BRANCH  23  24
ATOM     24  O   UNL     1       5.353   0.749  -3.458  1.00  0.00    -0.460 OA
BRANCH  24  25
ATOM     25  C   UNL     1       5.991   1.560  -4.335  1.00  0.00     0.338 C 
ATOM     26  O   UNL     1       7.009   1.308  -4.970  1.00  0.00    -0.246 OA
BRANCH  25  27
ATOM     27  C   UNL     1       5.207   2.782  -4.584  1.00  0.00     0.060 A 
ATOM     28  C   UNL     1       4.869   3.079  -5.911  1.00  0.00     0.016 A 
ATOM     29  C   UNL     1       4.886   3.673  -3.559  1.00  0.00     0.016 A 
ATOM     30  C   UNL     1       4.245   4.286  -6.220  1.00  0.00     0.010 A 
ATOM     31  C   UNL     1       4.271   4.890  -3.871  1.00  0.00     0.010 A 
ATOM     32  C   UNL     1       3.973   5.214  -5.205  1.00  0.00    -0.014 A 
BRANCH  32  33
ATOM     33  C   UNL     1       3.467   6.562  -5.553  1.00  0.00     0.031 A 
ATOM     34  C   UNL     1       4.428   7.713  -5.644  1.00  0.00     0.074 A 
ATOM     35  C   UNL     1       2.158   6.753  -5.793  1.00  0.00     0.049 A 
ATOM     36  N   UNL     1       4.189   8.973  -5.904  1.00  0.00    -0.248 NA
ATOM     37  C   UNL     1       5.847   7.404  -5.411  1.00  0.00     0.031 C 
ATOM     38  C   UNL     1       1.133   5.712  -5.757  1.00  0.00     0.029 A 
ATOM     39  N   UNL     1       1.469   7.897  -6.106  1.00  0.00    -0.354 N 
ATOM     40  C   UNL     1       5.425   9.607  -5.867  1.00  0.00     0.074 A 
ATOM     41  C   UNL     1       6.408   8.599  -5.531  1.00  0.00     0.031 C 
ATOM     42  C   UNL     1      -0.060   6.268  -6.027  1.00  0.00     0.029 A 
ATOM     43  C   UNL     1       0.115   7.705  -6.227  1.00  0.00     0.049 A 
ATOM     44  H   UNL     1       1.903   8.771  -6.232  1.00  0.00     0.167 HD
ATOM     45  C   UNL     1       5.713  10.910  -6.102  1.00  0.00     0.037 A 
ATOM     46  C   UNL     1      -0.871   8.593  -6.453  1.00  0.00     0.037 A 
ATOM     47  C   UNL     1       4.735  11.913  -6.432  1.00  0.00     0.049 A 
ATOM     48  C   UNL     1      -0.532  10.046  -6.641  1.00  0.00     0.074 A 
ATOM     49  C   UNL     1       4.935  13.253  -6.716  1.00  0.00     0.029 A 
ATOM     50  N   UNL     1       3.370  11.687  -6.513  1.00  0.00    -0.354 N 
ATOM     51  N   UNL     1       0.642  10.629  -6.639  1.00  0.00    -0.248 NA
ATOM     52  C   UNL     1      -1.658  10.966  -6.863  1.00  0.00     0.031 C 
ATOM     53  C   UNL     1       3.686  13.847  -6.925  1.00  0.00     0.029 A 
ATOM     54  C   UNL     1       2.712  12.868  -6.814  1.00  0.00     0.049 A 
ATOM     55  H   UNL     1       2.932  10.815  -6.377  1.00  0.00     0.167 HD
ATOM     56  C   UNL     1       0.400  11.975  -6.879  1.00  0.00     0.074 A 
ATOM     57  C   UNL     1      -1.032  12.122  -7.036  1.00  0.00     0.031 C 
ATOM     58  C   UNL     1       1.285  12.999  -6.964  1.00  0.00     0.037 A 
BRANCH  45  59
ATOM     59  C   UNL     1       7.149  11.329  -5.991  1.00  0.00     0.057 A 
ATOM     60  C   UNL     1       8.094  10.986  -6.966  1.00  0.00     0.134 A 
ATOM     61  C   UNL     1       7.583  12.116  -4.918  1.00  0.00     0.134 A 
ATOM     62  F   UNL     1       7.745  10.223  -8.013  1.00  0.00    -0.206 F 
ATOM     63  C   UNL     1       9.425  11.397  -6.868  1.00  0.00     0.040 A 
ATOM     64  C   UNL     1       8.905  12.551  -4.819  1.00  0.00     0.040 A 
ATOM     65  F   UNL     1       6.727  12.482  -3.952  1.00  0.00    -0.206 F 
ATOM     66  C   UNL     1       9.832  12.187  -5.795  1.00  0.00     0.006 A 
ENDBRANCH  45  59
BRANCH  46  67
ATOM     67  C   UNL     1      -2.281   8.134  -6.500  1.00  0.00     0.057 A 
ATOM     68  C   UNL     1      -2.997   8.116  -7.702  1.00  0.00     0.134 A 
ATOM     69  C   UNL     1      -2.948   7.717  -5.343  1.00  0.00     0.134 A 
ATOM     70  F   UNL     1      -2.418   8.528  -8.839  1.00  0.00    -0.206 F 
ATOM     71  C   UNL     1      -4.332   7.710  -7.750  1.00  0.00     0.040 A 
ATOM     72  C   UNL     1      -4.275   7.287  -5.380  1.00  0.00     0.040 A 
ATOM     73  F   UNL     1      -2.316   7.714  -4.160  1.00  0.00    -0.206 F 
ATOM     74  C   UNL     1      -4.972   7.288  -6.586  1.00  0.00     0.006 A 
ENDBRANCH  46  67
BRANCH  58  75
ATOM     75  C   UNL     1       0.731  14.361  -7.258  1.00  0.00     0.057 A 
ATOM     76  C   UNL     1       0.039  15.100  -6.290  1.00  0.00     0.134 A 
ATOM     77  C   UNL     1       0.922  14.955  -8.513  1.00  0.00     0.134 A 
ATOM     78  F   UNL     1      -0.188  14.582  -5.074  1.00  0.00    -0.206 F 
ATOM     79  C   UNL     1      -0.462  16.373  -6.566  1.00  0.00     0.040 A 
ATOM     80  C   UNL     1       0.446  16.236  -8.793  1.00  0.00     0.040 A 
ATOM     81  F   UNL     1       1.583  14.303  -9.481  1.00  0.00    -0.206 F 
ATOM     82  C   UNL     1      -0.253  16.947  -7.819  1.00  0.00     0.006 A 
ENDBRANCH  58  75
ENDBRANCH  32  33
ENDBRANCH  25  27
ENDBRANCH  24  25
ENDBRANCH  23  24
ENDBRANCH  22  23
ENDBRANCH  21  22
ENDBRANCH   1  21
TORSDOF 17
