REMARK SMILES CN(CC(N)=O)c1ccccc1/C=C/C(=O)OCCOCCOC(=O)c1ccc(-c2c3nc(c(-c4c(F)cccc4F)c4ccc([nH]4)c(-c4c(F)cccc4F)c4nc(c(-c5c(F)cccc5F)c5ccc2[nH]5)C=C4)C=C3)cc1
REMARK SMILES IDX 19 1 18 2 17 3 15 4 16 5 14 6 13 7 12 8 7 9 8 10 9 11 11 12
REMARK SMILES IDX 10 13 2 14 1 15 3 16 4 17 5 18 6 19 20 22 21 23 22 24 23 25
REMARK SMILES IDX 24 26 25 27 26 28 27 29 79 30 28 31 78 32 29 33 30 34 31 35
REMARK SMILES IDX 72 36 32 37 77 38 71 39 73 40 33 41 76 42 70 43 69 44 34 46
REMARK SMILES IDX 60 47 43 48 59 49 44 50 47 51 58 52 74 53 45 54 46 55 57 57
REMARK SMILES IDX 75 58 48 59 35 60 36 61 41 62 37 63 38 64 40 65 42 66 39 67
REMARK SMILES IDX 61 68 62 69 67 70 63 71 64 72 66 73 68 74 65 75 49 76 50 77
REMARK SMILES IDX 55 78 51 79 52 80 54 81 56 82 53 83
REMARK H PARENT 5 20 5 21 73 45 47 56
REMARK Flexibility Score: inf
ROOT
ATOM      1  C   UNL     1       7.078   1.182  -0.494  1.00  0.00     0.202 C 
ENDROOT
BRANCH   1   2
ATOM      2  C   UNL     1       6.176   0.749  -1.649  1.00  0.00     0.261 C 
BRANCH   2   3
ATOM      3  O   UNL     1       5.080  -0.048  -1.168  1.00  0.00    -0.460 OA
BRANCH   3   4
ATOM      4  C   UNL     1       5.029  -1.308  -1.656  1.00  0.00     0.330 C 
ATOM      5  O   UNL     1       5.749  -1.784  -2.522  1.00  0.00    -0.247 OA
BRANCH   4   6
ATOM      6  C   UNL     1       3.984  -2.121  -1.010  1.00  0.00     0.094 C 
ATOM      7  C   UNL     1       3.281  -1.816   0.093  1.00  0.00     0.018 C 
BRANCH   7   8
ATOM      8  C   UNL     1       2.279  -2.764   0.623  1.00  0.00    -0.002 A 
ATOM      9  C   UNL     1       0.963  -2.382   0.974  1.00  0.00     0.044 A 
ATOM     10  C   UNL     1       0.080  -3.413   1.354  1.00  0.00     0.026 A 
ATOM     11  C   UNL     1       0.480  -4.746   1.468  1.00  0.00     0.002 A 
ATOM     12  C   UNL     1       2.688  -4.106   0.800  1.00  0.00     0.010 A 
ATOM     13  C   UNL     1       1.797  -5.090   1.219  1.00  0.00     0.001 A 
BRANCH   9  14
ATOM     14  N   UNL     1       0.505  -1.070   0.953  1.00  0.00    -0.365 N 
ATOM     15  C   UNL     1       0.553  -0.288  -0.272  1.00  0.00     0.144 C 
BRANCH  14  16
ATOM     16  C   UNL     1      -0.176  -0.497   2.123  1.00  0.00     0.215 C 
BRANCH  16  17
ATOM     17  C   UNL     1      -1.682  -0.788   2.151  1.00  0.00     0.236 C 
ATOM     18  N   UNL     1      -2.124  -1.517   3.224  1.00  0.00    -0.368 N 
ATOM     19  O   UNL     1      -2.474  -0.420   1.288  1.00  0.00    -0.273 OA
ATOM     20  H   UNL     1      -1.488  -1.811   3.915  1.00  0.00     0.159 HD
ATOM     21  H   UNL     1      -3.078  -1.748   3.303  1.00  0.00     0.159 HD
ENDBRANCH  16  17
ENDBRANCH  14  16
ENDBRANCH   9  14
ENDBRANCH   7   8
ENDBRANCH   4   6
ENDBRANCH   3   4
ENDBRANCH   2   3
ENDBRANCH   1   2
BRANCH   1  22
ATOM     22  O   UNL     1       7.772   0.126   0.170  1.00  0.00    -0.374 OA
BRANCH  22  23
ATOM     23  C   UNL     1       7.041  -0.605   1.156  1.00  0.00     0.202 C 
BRANCH  23  24
ATOM     24  C   UNL     1       6.929   0.066   2.531  1.00  0.00     0.261 C 
BRANCH  24  25
ATOM     25  O   UNL     1       6.096   1.240   2.490  1.00  0.00    -0.460 OA
BRANCH  25  26
ATOM     26  C   UNL     1       6.753   2.414   2.635  1.00  0.00     0.338 C 
ATOM     27  O   UNL     1       7.941   2.575   2.879  1.00  0.00    -0.246 OA
BRANCH  26  28
ATOM     28  C   UNL     1       5.863   3.536   2.284  1.00  0.00     0.060 A 
ATOM     29  C   UNL     1       6.337   4.476   1.359  1.00  0.00     0.016 A 
ATOM     30  C   UNL     1       4.617   3.706   2.893  1.00  0.00     0.016 A 
ATOM     31  C   UNL     1       5.589   5.616   1.076  1.00  0.00     0.010 A 
ATOM     32  C   UNL     1       3.871   4.856   2.613  1.00  0.00     0.010 A 
ATOM     33  C   UNL     1       4.369   5.832   1.730  1.00  0.00    -0.014 A 
BRANCH  33  34
ATOM     34  C   UNL     1       3.686   7.141   1.596  1.00  0.00     0.031 A 
ATOM     35  C   UNL     1       3.846   8.163   2.687  1.00  0.00     0.074 A 
ATOM     36  C   UNL     1       2.949   7.425   0.509  1.00  0.00     0.049 A 
ATOM     37  N   UNL     1       3.314   9.354   2.793  1.00  0.00    -0.248 NA
ATOM     38  C   UNL     1       4.719   7.790   3.810  1.00  0.00     0.031 C 
ATOM     39  C   UNL     1       2.743   6.531  -0.629  1.00  0.00     0.029 A 
ATOM     40  N   UNL     1       2.227   8.548   0.192  1.00  0.00    -0.354 N 
ATOM     41  C   UNL     1       3.781   9.869   3.996  1.00  0.00     0.074 A 
ATOM     42  C   UNL     1       4.614   8.850   4.598  1.00  0.00     0.031 C 
ATOM     43  C   UNL     1       1.937   7.137  -1.517  1.00  0.00     0.029 A 
ATOM     44  C   UNL     1       1.548   8.447  -0.996  1.00  0.00     0.049 A 
ATOM     45  H   UNL     1       2.199   9.350   0.763  1.00  0.00     0.167 HD
ATOM     46  C   UNL     1       3.544  11.084   4.546  1.00  0.00     0.037 A 
ATOM     47  C   UNL     1       0.695   9.306  -1.586  1.00  0.00     0.037 A 
ATOM     48  C   UNL     1       2.717  12.098   3.946  1.00  0.00     0.049 A 
ATOM     49  C   UNL     1       0.398  10.626  -0.929  1.00  0.00     0.074 A 
ATOM     50  C   UNL     1       2.440  13.372   4.410  1.00  0.00     0.029 A 
ATOM     51  N   UNL     1       2.027  11.948   2.752  1.00  0.00    -0.354 N 
ATOM     52  N   UNL     1       0.869  11.117   0.192  1.00  0.00    -0.248 NA
ATOM     53  C   UNL     1      -0.546  11.515  -1.622  1.00  0.00     0.031 C 
ATOM     54  C   UNL     1       1.543  13.975   3.523  1.00  0.00     0.029 A 
ATOM     55  C   UNL     1       1.301  13.097   2.479  1.00  0.00     0.049 A 
ATOM     56  H   UNL     1       2.049  11.145   2.184  1.00  0.00     0.167 HD
ATOM     57  C   UNL     1       0.301  12.378   0.327  1.00  0.00     0.074 A 
ATOM     58  C   UNL     1      -0.542  12.581  -0.833  1.00  0.00     0.031 C 
ATOM     59  C   UNL     1       0.467  13.286   1.319  1.00  0.00     0.037 A 
BRANCH  46  60
ATOM     60  C   UNL     1       4.168  11.368   5.880  1.00  0.00     0.057 A 
ATOM     61  C   UNL     1       5.546  11.580   6.025  1.00  0.00     0.134 A 
ATOM     62  C   UNL     1       3.378  11.446   7.034  1.00  0.00     0.134 A 
ATOM     63  F   UNL     1       6.361  11.504   4.962  1.00  0.00    -0.206 F 
ATOM     64  C   UNL     1       6.118  11.831   7.274  1.00  0.00     0.040 A 
ATOM     65  C   UNL     1       3.935  11.723   8.283  1.00  0.00     0.040 A 
ATOM     66  F   UNL     1       2.052  11.257   6.965  1.00  0.00    -0.206 F 
ATOM     67  C   UNL     1       5.311  11.909   8.407  1.00  0.00     0.006 A 
ENDBRANCH  46  60
BRANCH  47  68
ATOM     68  C   UNL     1       0.052   8.937  -2.872  1.00  0.00     0.057 A 
ATOM     69  C   UNL     1       0.400   9.576  -4.067  1.00  0.00     0.134 A 
ATOM     70  C   UNL     1      -0.927   7.938  -2.934  1.00  0.00     0.134 A 
ATOM     71  F   UNL     1       1.314  10.557  -4.066  1.00  0.00    -0.206 F 
ATOM     72  C   UNL     1      -0.209   9.241  -5.278  1.00  0.00     0.040 A 
ATOM     73  C   UNL     1      -1.527   7.577  -4.141  1.00  0.00     0.040 A 
ATOM     74  F   UNL     1      -1.303   7.288  -1.823  1.00  0.00    -0.206 F 
ATOM     75  C   UNL     1      -1.171   8.233  -5.317  1.00  0.00     0.006 A 
ENDBRANCH  47  68
BRANCH  59  76
ATOM     76  C   UNL     1      -0.252  14.597   1.181  1.00  0.00     0.057 A 
ATOM     77  C   UNL     1      -1.636  14.705   1.366  1.00  0.00     0.134 A 
ATOM     78  C   UNL     1       0.458  15.773   0.905  1.00  0.00     0.134 A 
ATOM     79  F   UNL     1      -2.375  13.615   1.622  1.00  0.00    -0.206 F 
ATOM     80  C   UNL     1      -2.292  15.933   1.260  1.00  0.00     0.040 A 
ATOM     81  C   UNL     1      -0.183  17.010   0.822  1.00  0.00     0.040 A 
ATOM     82  F   UNL     1       1.787  15.740   0.726  1.00  0.00    -0.206 F 
ATOM     83  C   UNL     1      -1.563  17.091   0.994  1.00  0.00     0.006 A 
ENDBRANCH  59  76
ENDBRANCH  33  34
ENDBRANCH  26  28
ENDBRANCH  25  26
ENDBRANCH  24  25
ENDBRANCH  23  24
ENDBRANCH  22  23
ENDBRANCH   1  22
TORSDOF 18
