REMARK SMILES O=C(OCCOCCOC(=O)[C@H]1CC=CC[C@@H]1C(=O)Nc1ccccc1C(=O)NCc1ccco1)c1ccc(-c2c3nc(c(-c4c(F)cccc4F)c4ccc([nH]4)c(-c4c(F)cccc4F)c4nc(c(-c5c(F)cccc5F)c5ccc2[nH]5)C=C4)C=C3)cc1
REMARK SMILES IDX 7 1 6 2 5 3 4 4 3 5 2 6 1 7 36 8 37 9 89 10 38 11 88 12
REMARK SMILES IDX 39 13 40 14 41 15 82 16 42 17 87 18 81 19 83 20 43 21 86 22
REMARK SMILES IDX 80 23 79 24 44 26 70 27 53 28 69 29 54 30 57 31 68 32 84 33
REMARK SMILES IDX 55 34 56 35 67 37 85 38 58 39 45 40 46 41 51 42 47 43 48 44
REMARK SMILES IDX 50 45 52 46 49 47 71 48 72 49 77 50 73 51 74 52 76 53 78 54
REMARK SMILES IDX 75 55 59 56 60 57 65 58 61 59 62 60 64 61 66 62 63 63 8 64
REMARK SMILES IDX 9 65 10 66 11 67 12 68 13 69 17 70 14 71 16 72 15 73 18 74
REMARK SMILES IDX 19 75 20 76 21 78 22 79 26 80 23 81 25 82 24 83 27 84 28 85
REMARK SMILES IDX 29 86 30 88 31 89 32 90 35 91 33 92 34 93
REMARK H PARENT 83 25 57 36 20 77 29 87
REMARK Flexibility Score: inf
ROOT
ATOM      1  C   UNL     1       2.171   2.268   0.442  1.00  0.00     0.202 C 
ENDROOT
BRANCH   1   2
ATOM      2  O   UNL     1       3.312   1.466   0.781  1.00  0.00    -0.374 OA
BRANCH   2   3
ATOM      3  C   UNL     1       3.588   0.389  -0.106  1.00  0.00     0.202 C 
BRANCH   3   4
ATOM      4  C   UNL     1       2.937  -0.954   0.224  1.00  0.00     0.261 C 
BRANCH   4   5
ATOM      5  O   UNL     1       1.510  -0.844   0.410  1.00  0.00    -0.460 OA
BRANCH   5   6
ATOM      6  C   UNL     1       0.876  -1.201   1.575  1.00  0.00     0.338 C 
ATOM      7  O   UNL     1      -0.305  -1.461   1.633  1.00  0.00    -0.246 OA
BRANCH   6   8
ATOM      8  C   UNL     1       1.732  -1.224   2.782  1.00  0.00     0.060 A 
ATOM      9  C   UNL     1       2.462  -0.088   3.066  1.00  0.00     0.016 A 
ATOM     10  C   UNL     1       1.931  -2.381   3.520  1.00  0.00     0.016 A 
ATOM     11  C   UNL     1       3.595  -0.177   3.843  1.00  0.00     0.010 A 
ATOM     12  C   UNL     1       2.932  -2.389   4.505  1.00  0.00     0.010 A 
ATOM     13  C   UNL     1       3.809  -1.295   4.648  1.00  0.00    -0.014 A 
BRANCH  13  14
ATOM     14  C   UNL     1       4.937  -1.286   5.621  1.00  0.00     0.031 A 
ATOM     15  C   UNL     1       5.843  -2.478   5.729  1.00  0.00     0.074 A 
ATOM     16  C   UNL     1       5.181  -0.203   6.392  1.00  0.00     0.049 A 
ATOM     17  N   UNL     1       6.607  -2.841   6.724  1.00  0.00    -0.248 NA
ATOM     18  C   UNL     1       5.873  -3.400   4.582  1.00  0.00     0.031 C 
ATOM     19  C   UNL     1       4.452   1.070   6.345  1.00  0.00     0.029 A 
ATOM     20  N   UNL     1       6.133   0.016   7.356  1.00  0.00    -0.354 N 
ATOM     21  C   UNL     1       7.116  -4.084   6.375  1.00  0.00     0.074 A 
ATOM     22  C   UNL     1       6.614  -4.393   5.054  1.00  0.00     0.031 C 
ATOM     23  C   UNL     1       5.048   1.960   7.146  1.00  0.00     0.029 A 
ATOM     24  C   UNL     1       6.065   1.269   7.917  1.00  0.00     0.049 A 
ATOM     25  H   UNL     1       6.800  -0.659   7.620  1.00  0.00     0.167 HD
ATOM     26  C   UNL     1       7.902  -4.895   7.122  1.00  0.00     0.037 A 
ATOM     27  C   UNL     1       6.671   1.785   9.001  1.00  0.00     0.037 A 
ATOM     28  C   UNL     1       8.441  -4.513   8.402  1.00  0.00     0.049 A 
ATOM     29  C   UNL     1       7.529   0.874   9.821  1.00  0.00     0.074 A 
ATOM     30  C   UNL     1       9.183  -5.263   9.297  1.00  0.00     0.029 A 
ATOM     31  N   UNL     1       8.325  -3.241   8.946  1.00  0.00    -0.354 N 
ATOM     32  N   UNL     1       7.837  -0.382   9.604  1.00  0.00    -0.248 NA
ATOM     33  C   UNL     1       8.073   1.427  11.066  1.00  0.00     0.031 C 
ATOM     34  C   UNL     1       9.510  -4.444  10.386  1.00  0.00     0.029 A 
ATOM     35  C   UNL     1       8.996  -3.177  10.154  1.00  0.00     0.049 A 
ATOM     36  H   UNL     1       7.837  -2.493   8.532  1.00  0.00     0.167 HD
ATOM     37  C   UNL     1       8.596  -0.778  10.691  1.00  0.00     0.074 A 
ATOM     38  C   UNL     1       8.733   0.384  11.549  1.00  0.00     0.031 C 
ATOM     39  C   UNL     1       9.115  -1.998  10.972  1.00  0.00     0.037 A 
BRANCH  26  40
ATOM     40  C   UNL     1       8.150  -6.281   6.606  1.00  0.00     0.057 A 
ATOM     41  C   UNL     1       9.012  -6.545   5.535  1.00  0.00     0.134 A 
ATOM     42  C   UNL     1       7.496  -7.375   7.190  1.00  0.00     0.134 A 
ATOM     43  F   UNL     1       9.651  -5.542   4.915  1.00  0.00    -0.206 F 
ATOM     44  C   UNL     1       9.196  -7.842   5.048  1.00  0.00     0.040 A 
ATOM     45  C   UNL     1       7.688  -8.678   6.726  1.00  0.00     0.040 A 
ATOM     46  F   UNL     1       6.654  -7.195   8.219  1.00  0.00    -0.206 F 
ATOM     47  C   UNL     1       8.534  -8.913   5.646  1.00  0.00     0.006 A 
ENDBRANCH  26  40
BRANCH  27  48
ATOM     48  C   UNL     1       6.380   3.180   9.426  1.00  0.00     0.057 A 
ATOM     49  C   UNL     1       7.366   4.170   9.374  1.00  0.00     0.134 A 
ATOM     50  C   UNL     1       5.103   3.567   9.857  1.00  0.00     0.134 A 
ATOM     51  F   UNL     1       8.615   3.861   8.997  1.00  0.00    -0.206 F 
ATOM     52  C   UNL     1       7.092   5.493   9.729  1.00  0.00     0.040 A 
ATOM     53  C   UNL     1       4.806   4.891  10.179  1.00  0.00     0.040 A 
ATOM     54  F   UNL     1       4.110   2.668   9.929  1.00  0.00    -0.206 F 
ATOM     55  C   UNL     1       5.804   5.859  10.120  1.00  0.00     0.006 A 
ENDBRANCH  27  48
BRANCH  39  56
ATOM     56  C   UNL     1       9.897  -2.104  12.241  1.00  0.00     0.057 A 
ATOM     57  C   UNL     1       9.263  -2.189  13.486  1.00  0.00     0.134 A 
ATOM     58  C   UNL     1      11.296  -2.118  12.213  1.00  0.00     0.134 A 
ATOM     59  F   UNL     1       7.925  -2.158  13.572  1.00  0.00    -0.206 F 
ATOM     60  C   UNL     1       9.999  -2.266  14.668  1.00  0.00     0.040 A 
ATOM     61  C   UNL     1      12.041  -2.212  13.387  1.00  0.00     0.040 A 
ATOM     62  F   UNL     1      11.955  -2.035  11.047  1.00  0.00    -0.206 F 
ATOM     63  C   UNL     1      11.392  -2.281  14.619  1.00  0.00     0.006 A 
ENDBRANCH  39  56
ENDBRANCH  13  14
ENDBRANCH   6   8
ENDBRANCH   5   6
ENDBRANCH   4   5
ENDBRANCH   3   4
ENDBRANCH   2   3
ENDBRANCH   1   2
BRANCH   1  64
ATOM     64  C   UNL     1       2.567   3.740   0.560  1.00  0.00     0.261 C 
BRANCH  64  65
ATOM     65  O   UNL     1       3.289   4.076  -0.633  1.00  0.00    -0.463 OA
BRANCH  65  66
ATOM     66  C   UNL     1       4.611   3.781  -0.637  1.00  0.00     0.310 C 
ATOM     67  O   UNL     1       5.313   3.762   0.367  1.00  0.00    -0.252 OA
BRANCH  66  68
ATOM     68  C   UNL     1       5.135   3.480  -2.045  1.00  0.00     0.116 C 
ATOM     69  C   UNL     1       6.022   2.216  -1.942  1.00  0.00     0.043 C 
ATOM     70  C   UNL     1       4.044   3.438  -3.146  1.00  0.00     0.097 C 
ATOM     71  C   UNL     1       5.609   1.024  -2.748  1.00  0.00    -0.030 C 
ATOM     72  C   UNL     1       3.489   2.054  -3.518  1.00  0.00     0.041 C 
ATOM     73  C   UNL     1       4.479   0.945  -3.453  1.00  0.00    -0.030 C 
BRANCH  70  74
ATOM     74  C   UNL     1       4.171   4.304  -4.396  1.00  0.00     0.228 C 
ATOM     75  O   UNL     1       3.127   4.637  -4.984  1.00  0.00    -0.274 OA
ATOM     76  N   UNL     1       5.302   4.777  -4.969  1.00  0.00    -0.325 N 
ATOM     77  H   UNL     1       5.147   5.274  -5.805  1.00  0.00     0.169 HD
BRANCH  76  78
ATOM     78  C   UNL     1       6.642   4.696  -4.601  1.00  0.00     0.054 A 
ATOM     79  C   UNL     1       7.165   5.927  -4.144  1.00  0.00     0.027 A 
ATOM     80  C   UNL     1       7.468   3.564  -4.665  1.00  0.00     0.063 A 
ATOM     81  C   UNL     1       8.448   6.022  -3.615  1.00  0.00     0.002 A 
ATOM     82  C   UNL     1       8.767   3.694  -4.107  1.00  0.00     0.016 A 
ATOM     83  C   UNL     1       9.244   4.892  -3.570  1.00  0.00     0.001 A 
BRANCH  80  84
ATOM     84  C   UNL     1       7.213   2.201  -5.237  1.00  0.00     0.253 C 
ATOM     85  O   UNL     1       7.929   1.270  -4.849  1.00  0.00    -0.269 OA
ATOM     86  N   UNL     1       6.300   1.869  -6.192  1.00  0.00    -0.345 N 
ATOM     87  H   UNL     1       6.354   0.920  -6.449  1.00  0.00     0.164 HD
BRANCH  86  88
ATOM     88  C   UNL     1       5.274   2.577  -6.914  1.00  0.00     0.191 C 
BRANCH  88  89
ATOM     89  C   UNL     1       4.804   1.768  -8.071  1.00  0.00     0.122 A 
ATOM     90  C   UNL     1       4.098   2.093  -9.211  1.00  0.00     0.047 A 
ATOM     91  O   UNL     1       5.024   0.418  -8.031  1.00  0.00    -0.467 OA
ATOM     92  C   UNL     1       3.896   0.882  -9.915  1.00  0.00     0.042 A 
ATOM     93  C   UNL     1       4.477  -0.106  -9.157  1.00  0.00     0.195 A 
ENDBRANCH  88  89
ENDBRANCH  86  88
ENDBRANCH  80  84
ENDBRANCH  76  78
ENDBRANCH  70  74
ENDBRANCH  66  68
ENDBRANCH  65  66
ENDBRANCH  64  65
ENDBRANCH   1  64
TORSDOF 19
