REMARK SMILES COc1ccc([C@@H](CC(=O)OCCOCCOC(=O)c2ccc(-c3c4nc(c(-c5c(F)cccc5F)c5ccc([nH]5)c(-c5c(F)cccc5F)c5nc(c(-c6c(F)cccc6F)c6ccc3[nH]6)C=C5)C=C4)cc2)C2CCCCC2)cc1Cl
REMARK SMILES IDX 13 1 12 2 11 3 9 4 10 5 8 6 7 7 6 8 3 9 4 10 81 11 5 12
REMARK SMILES IDX 80 13 82 14 2 15 1 16 74 17 75 18 79 19 76 20 78 21 77 22
REMARK SMILES IDX 14 23 15 24 16 25 17 26 18 27 19 28 20 29 21 30 73 31 22 32
REMARK SMILES IDX 72 33 23 34 24 35 25 36 66 37 26 38 71 39 65 40 67 41 27 42
REMARK SMILES IDX 70 43 64 44 63 45 28 47 54 48 37 49 53 50 38 51 41 52 52 53
REMARK SMILES IDX 68 54 39 55 40 56 51 58 69 59 42 60 29 61 30 62 35 63 31 64
REMARK SMILES IDX 32 65 34 66 36 67 33 68 55 69 56 70 61 71 57 72 58 73 60 74
REMARK SMILES IDX 62 75 59 76 43 77 44 78 49 79 45 80 46 81 48 82 50 83 47 84
REMARK H PARENT 67 46 41 57
REMARK Flexibility Score: inf
ROOT
ATOM      1  C   UNL     1      -2.433   3.993   6.057  1.00  0.00     0.202 C 
ENDROOT
BRANCH   1   2
ATOM      2  C   UNL     1      -0.978   4.471   6.033  1.00  0.00     0.261 C 
BRANCH   2   3
ATOM      3  O   UNL     1      -0.025   3.384   5.999  1.00  0.00    -0.463 OA
BRANCH   3   4
ATOM      4  C   UNL     1       0.791   3.242   7.067  1.00  0.00     0.306 C 
ATOM      5  O   UNL     1       0.636   3.827   8.135  1.00  0.00    -0.252 OA
BRANCH   4   6
ATOM      6  C   UNL     1       2.042   2.439   6.781  1.00  0.00     0.131 C 
BRANCH   6   7
ATOM      7  C   UNL     1       2.076   1.081   6.046  1.00  0.00     0.033 C 
BRANCH   7   8
ATOM      8  C   UNL     1       1.832   1.142   4.542  1.00  0.00    -0.042 A 
ATOM      9  C   UNL     1       1.489   1.206   1.740  1.00  0.00     0.137 A 
ATOM     10  C   UNL     1       0.407   1.425   2.587  1.00  0.00     0.048 A 
ATOM     11  C   UNL     1       2.756   0.988   2.278  1.00  0.00     0.083 A 
ATOM     12  C   UNL     1       0.574   1.370   3.974  1.00  0.00     0.008 A 
ATOM     13  C   UNL     1       2.922   0.957   3.667  1.00  0.00     0.028 A 
ATOM     14  Cl  UNL     1       4.144   0.764   1.279  1.00  0.00    -0.080 Cl
BRANCH   9  15
ATOM     15  O   UNL     1       1.261   1.289   0.393  1.00  0.00    -0.495 OA
ATOM     16  C   UNL     1       1.031  -0.007  -0.163  1.00  0.00     0.278 C 
ENDBRANCH   9  15
ENDBRANCH   7   8
BRANCH   7  17
ATOM     17  C   UNL     1       1.469  -0.145   6.807  1.00  0.00    -0.003 C 
ATOM     18  C   UNL     1      -0.059  -0.215   6.856  1.00  0.00     0.004 C 
ATOM     19  C   UNL     1       2.041  -1.471   6.250  1.00  0.00     0.004 C 
ATOM     20  C   UNL     1      -0.566  -1.446   7.609  1.00  0.00     0.000 C 
ATOM     21  C   UNL     1       1.522  -2.696   7.000  1.00  0.00     0.000 C 
ATOM     22  C   UNL     1      -0.000  -2.732   7.018  1.00  0.00     0.000 C 
ENDBRANCH   7  17
ENDBRANCH   6   7
ENDBRANCH   4   6
ENDBRANCH   3   4
ENDBRANCH   2   3
ENDBRANCH   1   2
BRANCH   1  23
ATOM     23  O   UNL     1      -2.967   3.772   7.364  1.00  0.00    -0.374 OA
BRANCH  23  24
ATOM     24  C   UNL     1      -2.563   2.571   8.022  1.00  0.00     0.202 C 
BRANCH  24  25
ATOM     25  C   UNL     1      -3.332   1.336   7.549  1.00  0.00     0.261 C 
BRANCH  25  26
ATOM     26  O   UNL     1      -2.986   1.046   6.185  1.00  0.00    -0.460 OA
BRANCH  26  27
ATOM     27  C   UNL     1      -3.821   0.189   5.569  1.00  0.00     0.338 C 
ATOM     28  O   UNL     1      -4.669  -0.529   6.085  1.00  0.00    -0.246 OA
BRANCH  27  29
ATOM     29  C   UNL     1      -3.670   0.369   4.120  1.00  0.00     0.060 A 
ATOM     30  C   UNL     1      -4.502   1.296   3.485  1.00  0.00     0.016 A 
ATOM     31  C   UNL     1      -2.780  -0.414   3.385  1.00  0.00     0.016 A 
ATOM     32  C   UNL     1      -4.485   1.399   2.094  1.00  0.00     0.010 A 
ATOM     33  C   UNL     1      -2.753  -0.292   1.989  1.00  0.00     0.010 A 
ATOM     34  C   UNL     1      -3.634   0.585   1.331  1.00  0.00    -0.014 A 
BRANCH  34  35
ATOM     35  C   UNL     1      -3.785   0.567  -0.149  1.00  0.00     0.031 A 
ATOM     36  C   UNL     1      -4.488  -0.592  -0.809  1.00  0.00     0.074 A 
ATOM     37  C   UNL     1      -3.377   1.605  -0.903  1.00  0.00     0.049 A 
ATOM     38  N   UNL     1      -4.832  -0.747  -2.063  1.00  0.00    -0.248 NA
ATOM     39  C   UNL     1      -4.849  -1.725   0.056  1.00  0.00     0.031 C 
ATOM     40  C   UNL     1      -2.682   2.792  -0.409  1.00  0.00     0.029 A 
ATOM     41  N   UNL     1      -3.509   1.831  -2.253  1.00  0.00    -0.354 N 
ATOM     42  C   UNL     1      -5.456  -1.985  -2.134  1.00  0.00     0.074 A 
ATOM     43  C   UNL     1      -5.398  -2.564  -0.810  1.00  0.00     0.031 C 
ATOM     44  C   UNL     1      -2.469   3.632  -1.437  1.00  0.00     0.029 A 
ATOM     45  C   UNL     1      -3.004   3.041  -2.662  1.00  0.00     0.049 A 
ATOM     46  H   UNL     1      -3.927   1.186  -2.868  1.00  0.00     0.167 HD
ATOM     47  C   UNL     1      -6.049  -2.581  -3.195  1.00  0.00     0.037 A 
ATOM     48  C   UNL     1      -2.985   3.613  -3.882  1.00  0.00     0.037 A 
ATOM     49  C   UNL     1      -6.134  -2.016  -4.514  1.00  0.00     0.049 A 
ATOM     50  C   UNL     1      -3.616   2.913  -5.055  1.00  0.00     0.074 A 
ATOM     51  C   UNL     1      -6.759  -2.536  -5.636  1.00  0.00     0.029 A 
ATOM     52  N   UNL     1      -5.575  -0.807  -4.893  1.00  0.00    -0.354 N 
ATOM     53  N   UNL     1      -4.261   1.772  -5.090  1.00  0.00    -0.248 NA
ATOM     54  C   UNL     1      -3.524   3.588  -6.360  1.00  0.00     0.031 C 
ATOM     55  C   UNL     1      -6.546  -1.658  -6.703  1.00  0.00     0.029 A 
ATOM     56  C   UNL     1      -5.818  -0.576  -6.237  1.00  0.00     0.049 A 
ATOM     57  H   UNL     1      -5.079  -0.202  -4.295  1.00  0.00     0.167 HD
ATOM     58  C   UNL     1      -4.671   1.608  -6.409  1.00  0.00     0.074 A 
ATOM     59  C   UNL     1      -4.213   2.768  -7.141  1.00  0.00     0.031 C 
ATOM     60  C   UNL     1      -5.367   0.584  -6.960  1.00  0.00     0.037 A 
BRANCH  47  61
ATOM     61  C   UNL     1      -6.666  -3.928  -2.967  1.00  0.00     0.057 A 
ATOM     62  C   UNL     1      -7.878  -4.071  -2.281  1.00  0.00     0.134 A 
ATOM     63  C   UNL     1      -6.061  -5.085  -3.469  1.00  0.00     0.134 A 
ATOM     64  F   UNL     1      -8.498  -2.999  -1.765  1.00  0.00    -0.206 F 
ATOM     65  C   UNL     1      -8.460  -5.324  -2.087  1.00  0.00     0.040 A 
ATOM     66  C   UNL     1      -6.643  -6.342  -3.299  1.00  0.00     0.040 A 
ATOM     67  F   UNL     1      -4.900  -5.013  -4.138  1.00  0.00    -0.206 F 
ATOM     68  C   UNL     1      -7.844  -6.463  -2.602  1.00  0.00     0.006 A 
ENDBRANCH  47  61
BRANCH  48  69
ATOM     69  C   UNL     1      -2.359   4.946  -4.067  1.00  0.00     0.057 A 
ATOM     70  C   UNL     1      -3.137   6.083  -4.311  1.00  0.00     0.134 A 
ATOM     71  C   UNL     1      -0.969   5.103  -4.045  1.00  0.00     0.134 A 
ATOM     72  F   UNL     1      -4.473   5.986  -4.371  1.00  0.00    -0.206 F 
ATOM     73  C   UNL     1      -2.554   7.330  -4.542  1.00  0.00     0.040 A 
ATOM     74  C   UNL     1      -0.374   6.348  -4.254  1.00  0.00     0.040 A 
ATOM     75  F   UNL     1      -0.172   4.048  -3.823  1.00  0.00    -0.206 F 
ATOM     76  C   UNL     1      -1.167   7.464  -4.511  1.00  0.00     0.006 A 
ENDBRANCH  48  69
BRANCH  60  77
ATOM     77  C   UNL     1      -5.700   0.677  -8.419  1.00  0.00     0.057 A 
ATOM     78  C   UNL     1      -4.733   0.469  -9.409  1.00  0.00     0.134 A 
ATOM     79  C   UNL     1      -7.012   0.932  -8.838  1.00  0.00     0.134 A 
ATOM     80  F   UNL     1      -3.456   0.232  -9.073  1.00  0.00    -0.206 F 
ATOM     81  C   UNL     1      -5.055   0.525 -10.767  1.00  0.00     0.040 A 
ATOM     82  C   UNL     1      -7.351   0.970 -10.192  1.00  0.00     0.040 A 
ATOM     83  F   UNL     1      -7.988   1.132  -7.940  1.00  0.00    -0.206 F 
ATOM     84  C   UNL     1      -6.370   0.770 -11.161  1.00  0.00     0.006 A 
ENDBRANCH  60  77
ENDBRANCH  34  35
ENDBRANCH  27  29
ENDBRANCH  26  27
ENDBRANCH  25  26
ENDBRANCH  24  25
ENDBRANCH  23  24
ENDBRANCH   1  23
TORSDOF 18
