REMARK SMILES C[C@@H](Cn1nnnc1C1C(C)(C)C1(C)C)C(=O)OCCOCCOC(=O)c1ccc(-c2c3nc(c(-c4c(F)cccc4F)c4ccc([nH]4)c(-c4c(F)cccc4F)c4nc(c(-c5c(F)cccc5F)c5ccc2[nH]5)C=C4)C=C3)cc1
REMARK SMILES IDX 20 1 19 2 18 3 16 4 17 5 2 6 1 7 3 8 4 9 5 10 8 11 6 12 7 13
REMARK SMILES IDX 9 14 10 15 13 16 11 17 12 18 14 19 15 20 21 21 22 22 23 23
REMARK SMILES IDX 24 24 25 25 26 26 27 27 28 28 80 29 29 30 79 31 30 32 31 33
REMARK SMILES IDX 32 34 73 35 33 36 78 37 72 38 74 39 34 40 77 41 71 42 70 43
REMARK SMILES IDX 35 45 61 46 44 47 60 48 45 49 48 50 59 51 75 52 46 53 47 54
REMARK SMILES IDX 58 56 76 57 49 58 36 59 37 60 42 61 38 62 39 63 41 64 43 65
REMARK SMILES IDX 40 66 62 67 63 68 68 69 64 70 65 71 67 72 69 73 66 74 50 75
REMARK SMILES IDX 51 76 56 77 52 78 53 79 55 80 57 81 54 82
REMARK H PARENT 74 44 48 55
REMARK Flexibility Score: inf
ROOT
ATOM      1  C   UNL     1      -3.776   0.772   0.308  1.00  0.00     0.202 C 
ENDROOT
BRANCH   1   2
ATOM      2  C   UNL     1      -2.882   1.709  -0.501  1.00  0.00     0.261 C 
BRANCH   2   3
ATOM      3  O   UNL     1      -1.524   1.246  -0.577  1.00  0.00    -0.463 OA
BRANCH   3   4
ATOM      4  C   UNL     1      -0.649   1.865   0.249  1.00  0.00     0.310 C 
ATOM      5  O   UNL     1      -0.936   2.741   1.056  1.00  0.00    -0.252 OA
BRANCH   4   6
ATOM      6  C   UNL     1       0.770   1.386   0.069  1.00  0.00     0.118 C 
ATOM      7  C   UNL     1       0.915  -0.124  -0.076  1.00  0.00     0.022 C 
BRANCH   6   8
ATOM      8  C   UNL     1       1.440   2.211  -1.028  1.00  0.00     0.163 C 
BRANCH   8   9
ATOM      9  N   UNL     1       0.804   2.193  -2.317  1.00  0.00    -0.228 N 
ATOM     10  N   UNL     1       0.724   1.004  -2.949  1.00  0.00    -0.045 NA
ATOM     11  C   UNL     1       0.236   3.170  -3.099  1.00  0.00     0.155 A 
ATOM     12  N   UNL     1       0.002   1.225  -4.029  1.00  0.00    -0.024 NA
ATOM     13  N   UNL     1      -0.315   2.547  -4.131  1.00  0.00    -0.114 NA
BRANCH  11  14
ATOM     14  C   UNL     1       0.163   4.700  -3.092  1.00  0.00     0.072 C 
ATOM     15  C   UNL     1       0.146   5.747  -1.988  1.00  0.00    -0.019 C 
ATOM     16  C   UNL     1       1.428   5.524  -2.809  1.00  0.00    -0.019 C 
ATOM     17  C   UNL     1      -0.637   7.025  -2.243  1.00  0.00     0.012 C 
ATOM     18  C   UNL     1      -0.035   5.311  -0.560  1.00  0.00     0.012 C 
ATOM     19  C   UNL     1       2.672   4.995  -2.131  1.00  0.00     0.012 C 
ATOM     20  C   UNL     1       1.809   6.453  -3.948  1.00  0.00     0.012 C 
ENDBRANCH  11  14
ENDBRANCH   8   9
ENDBRANCH   6   8
ENDBRANCH   4   6
ENDBRANCH   3   4
ENDBRANCH   2   3
ENDBRANCH   1   2
BRANCH   1  21
ATOM     21  O   UNL     1      -3.530   0.638   1.706  1.00  0.00    -0.374 OA
BRANCH  21  22
ATOM     22  C   UNL     1      -2.357  -0.007   2.184  1.00  0.00     0.202 C 
BRANCH  22  23
ATOM     23  C   UNL     1      -2.179  -1.495   1.936  1.00  0.00     0.261 C 
BRANCH  23  24
ATOM     24  O   UNL     1      -2.139  -1.819   0.554  1.00  0.00    -0.460 OA
BRANCH  24  25
ATOM     25  C   UNL     1      -3.283  -2.394   0.112  1.00  0.00     0.338 C 
ATOM     26  O   UNL     1      -4.377  -2.350   0.641  1.00  0.00    -0.246 OA
BRANCH  25  27
ATOM     27  C   UNL     1      -2.961  -3.294  -0.999  1.00  0.00     0.060 A 
ATOM     28  C   UNL     1      -3.999  -4.133  -1.401  1.00  0.00     0.016 A 
ATOM     29  C   UNL     1      -1.625  -3.534  -1.357  1.00  0.00     0.016 A 
ATOM     30  C   UNL     1      -3.670  -5.346  -1.952  1.00  0.00     0.010 A 
ATOM     31  C   UNL     1      -1.297  -4.754  -1.899  1.00  0.00     0.010 A 
ATOM     32  C   UNL     1      -2.317  -5.676  -2.108  1.00  0.00    -0.014 A 
BRANCH  32  33
ATOM     33  C   UNL     1      -2.021  -6.964  -2.692  1.00  0.00     0.031 A 
ATOM     34  C   UNL     1      -2.357  -6.976  -4.129  1.00  0.00     0.074 A 
ATOM     35  C   UNL     1      -1.489  -8.000  -2.020  1.00  0.00     0.049 A 
ATOM     36  N   UNL     1      -3.401  -7.509  -4.667  1.00  0.00    -0.248 NA
ATOM     37  C   UNL     1      -1.593  -6.096  -5.027  1.00  0.00     0.031 C 
ATOM     38  C   UNL     1      -0.896  -8.018  -0.683  1.00  0.00     0.029 A 
ATOM     39  N   UNL     1      -1.310  -9.278  -2.451  1.00  0.00    -0.354 N 
ATOM     40  C   UNL     1      -3.296  -7.227  -6.022  1.00  0.00     0.074 A 
ATOM     41  C   UNL     1      -2.316  -6.182  -6.144  1.00  0.00     0.031 C 
ATOM     42  C   UNL     1      -0.226  -9.184  -0.509  1.00  0.00     0.029 A 
ATOM     43  C   UNL     1      -0.461 -10.043  -1.659  1.00  0.00     0.049 A 
ATOM     44  H   UNL     1      -1.747  -9.633  -3.259  1.00  0.00     0.167 HD
ATOM     45  C   UNL     1      -3.801  -8.096  -6.936  1.00  0.00     0.037 A 
ATOM     46  C   UNL     1       0.041 -11.263  -1.983  1.00  0.00     0.037 A 
ATOM     47  C   UNL     1      -4.752  -8.992  -6.320  1.00  0.00     0.049 A 
ATOM     48  C   UNL     1      -0.825 -11.831  -3.049  1.00  0.00     0.074 A 
ATOM     49  C   UNL     1      -5.947  -8.835  -5.646  1.00  0.00     0.029 A 
ATOM     50  N   UNL     1      -4.305 -10.254  -6.012  1.00  0.00    -0.354 N 
ATOM     51  N   UNL     1      -2.047 -12.235  -2.849  1.00  0.00    -0.248 NA
ATOM     52  C   UNL     1      -0.489 -11.519  -4.430  1.00  0.00     0.031 C 
ATOM     53  C   UNL     1      -5.931  -9.827  -4.621  1.00  0.00     0.029 A 
ATOM     54  C   UNL     1      -4.768 -10.583  -4.767  1.00  0.00     0.049 A 
ATOM     55  H   UNL     1      -3.747 -10.824  -6.589  1.00  0.00     0.167 HD
ATOM     56  C   UNL     1      -2.747 -11.792  -3.960  1.00  0.00     0.074 A 
ATOM     57  C   UNL     1      -1.721 -11.441  -4.941  1.00  0.00     0.031 C 
ATOM     58  C   UNL     1      -4.071 -11.473  -3.867  1.00  0.00     0.037 A 
BRANCH  45  59
ATOM     59  C   UNL     1      -3.104  -8.434  -8.232  1.00  0.00     0.057 A 
ATOM     60  C   UNL     1      -3.739  -9.316  -9.123  1.00  0.00     0.134 A 
ATOM     61  C   UNL     1      -1.739  -8.195  -8.501  1.00  0.00     0.134 A 
ATOM     62  F   UNL     1      -5.033  -9.634  -8.973  1.00  0.00    -0.206 F 
ATOM     63  C   UNL     1      -3.045  -9.983 -10.140  1.00  0.00     0.040 A 
ATOM     64  C   UNL     1      -1.051  -8.815  -9.545  1.00  0.00     0.040 A 
ATOM     65  F   UNL     1      -0.962  -7.439  -7.718  1.00  0.00    -0.206 F 
ATOM     66  C   UNL     1      -1.694  -9.741 -10.347  1.00  0.00     0.006 A 
ENDBRANCH  45  59
BRANCH  46  67
ATOM     67  C   UNL     1       1.368 -11.853  -1.681  1.00  0.00     0.057 A 
ATOM     68  C   UNL     1       1.618 -13.218  -1.898  1.00  0.00     0.134 A 
ATOM     69  C   UNL     1       2.499 -11.047  -1.470  1.00  0.00     0.134 A 
ATOM     70  F   UNL     1       0.609 -14.065  -2.148  1.00  0.00    -0.206 F 
ATOM     71  C   UNL     1       2.917 -13.743  -1.942  1.00  0.00     0.040 A 
ATOM     72  C   UNL     1       3.801 -11.560  -1.506  1.00  0.00     0.040 A 
ATOM     73  F   UNL     1       2.386  -9.720  -1.317  1.00  0.00    -0.206 F 
ATOM     74  C   UNL     1       4.016 -12.909  -1.760  1.00  0.00     0.006 A 
ENDBRANCH  46  67
BRANCH  58  75
ATOM     75  C   UNL     1      -4.814 -11.906  -2.633  1.00  0.00     0.057 A 
ATOM     76  C   UNL     1      -4.522 -11.472  -1.331  1.00  0.00     0.134 A 
ATOM     77  C   UNL     1      -5.960 -12.692  -2.797  1.00  0.00     0.134 A 
ATOM     78  F   UNL     1      -3.501 -10.640  -1.085  1.00  0.00    -0.206 F 
ATOM     79  C   UNL     1      -5.316 -11.842  -0.239  1.00  0.00     0.040 A 
ATOM     80  C   UNL     1      -6.781 -13.036  -1.723  1.00  0.00     0.040 A 
ATOM     81  F   UNL     1      -6.328 -13.102  -4.022  1.00  0.00    -0.206 F 
ATOM     82  C   UNL     1      -6.454 -12.620  -0.435  1.00  0.00     0.006 A 
ENDBRANCH  58  75
ENDBRANCH  32  33
ENDBRANCH  25  27
ENDBRANCH  24  25
ENDBRANCH  23  24
ENDBRANCH  22  23
ENDBRANCH  21  22
ENDBRANCH   1  21
TORSDOF 17
