REMARK SMILES Cc1cccc(Cl)c1Nc1ccccc1CC(=O)OCCOCCOC(=O)c1ccc(-c2c3nc(c(-c4c(F)cccc4F)c4ccc([nH]4)c(-c4c(F)cccc4F)c4nc(c(-c5c(F)cccc5F)c5ccc2[nH]5)C=C4)C=C3)cc1
REMARK SMILES IDX 21 1 20 2 19 3 17 4 18 5 16 6 15 7 10 8 11 9 12 10 14 11
REMARK SMILES IDX 13 12 9 13 8 15 1 16 2 17 3 18 4 19 6 20 5 21 7 22 22 23
REMARK SMILES IDX 23 24 24 25 25 26 26 27 27 28 28 29 29 30 81 31 30 32 80 33
REMARK SMILES IDX 31 34 32 35 33 36 74 37 34 38 79 39 73 40 75 41 35 42 78 43
REMARK SMILES IDX 72 44 71 45 36 47 62 48 45 49 61 50 46 51 49 52 60 53 76 54
REMARK SMILES IDX 47 55 48 56 59 58 77 59 50 60 37 61 38 62 43 63 39 64 40 65
REMARK SMILES IDX 42 66 44 67 41 68 63 69 64 70 69 71 65 72 66 73 68 74 70 75
REMARK SMILES IDX 67 76 51 77 52 78 57 79 53 80 54 81 56 82 58 83 55 84
REMARK H PARENT 9 14 75 46 49 57
REMARK Flexibility Score: inf
ROOT
ATOM      1  C   UNL     1       2.118   3.809  -5.508  1.00  0.00     0.202 C 
ENDROOT
BRANCH   1   2
ATOM      2  C   UNL     1       0.938   3.064  -4.874  1.00  0.00     0.261 C 
BRANCH   2   3
ATOM      3  O   UNL     1       1.178   2.684  -3.505  1.00  0.00    -0.463 OA
BRANCH   3   4
ATOM      4  C   UNL     1       1.264   1.345  -3.287  1.00  0.00     0.310 C 
ATOM      5  O   UNL     1       1.091   0.495  -4.159  1.00  0.00    -0.252 OA
BRANCH   4   6
ATOM      6  C   UNL     1       1.571   0.936  -1.869  1.00  0.00     0.160 C 
BRANCH   6   7
ATOM      7  C   UNL     1       2.037   1.968  -0.859  1.00  0.00    -0.013 A 
ATOM      8  C   UNL     1       1.214   2.497   0.160  1.00  0.00     0.042 A 
ATOM      9  C   UNL     1       1.737   3.495   1.008  1.00  0.00     0.026 A 
ATOM     10  C   UNL     1       3.062   3.918   0.909  1.00  0.00     0.002 A 
ATOM     11  C   UNL     1       3.386   2.374  -0.905  1.00  0.00     0.006 A 
ATOM     12  C   UNL     1       3.895   3.339  -0.035  1.00  0.00     0.000 A 
BRANCH   8  13
ATOM     13  N   UNL     1      -0.056   1.987   0.501  1.00  0.00    -0.354 N 
ATOM     14  H   UNL     1      -0.726   2.673   0.724  1.00  0.00     0.167 HD
BRANCH  13  15
ATOM     15  C   UNL     1      -0.534   0.654   0.578  1.00  0.00     0.060 A 
ATOM     16  C   UNL     1      -2.834   1.530  -0.094  1.00  0.00     0.046 C 
ATOM     17  C   UNL     1      -1.873   0.406   0.188  1.00  0.00    -0.026 A 
ATOM     18  C   UNL     1      -2.315  -0.916   0.002  1.00  0.00     0.005 A 
ATOM     19  C   UNL     1      -1.463  -1.994   0.226  1.00  0.00     0.002 A 
ATOM     20  C   UNL     1       0.286  -0.461   0.884  1.00  0.00     0.064 A 
ATOM     21  C   UNL     1      -0.173  -1.768   0.688  1.00  0.00     0.023 A 
ATOM     22  Cl  UNL     1       1.871  -0.312   1.571  1.00  0.00    -0.082 Cl
ENDBRANCH  13  15
ENDBRANCH   8  13
ENDBRANCH   6   7
ENDBRANCH   4   6
ENDBRANCH   3   4
ENDBRANCH   2   3
ENDBRANCH   1   2
BRANCH   1  23
ATOM     23  O   UNL     1       3.363   3.118  -5.584  1.00  0.00    -0.374 OA
BRANCH  23  24
ATOM     24  C   UNL     1       4.101   2.979  -4.371  1.00  0.00     0.202 C 
BRANCH  24  25
ATOM     25  C   UNL     1       4.814   4.233  -3.850  1.00  0.00     0.261 C 
BRANCH  25  26
ATOM     26  O   UNL     1       3.884   5.260  -3.459  1.00  0.00    -0.460 OA
BRANCH  26  27
ATOM     27  C   UNL     1       3.988   6.410  -4.161  1.00  0.00     0.338 C 
ATOM     28  O   UNL     1       4.852   6.704  -4.979  1.00  0.00    -0.246 OA
BRANCH  27  29
ATOM     29  C   UNL     1       2.794   7.250  -3.962  1.00  0.00     0.060 A 
ATOM     30  C   UNL     1       2.121   7.683  -5.112  1.00  0.00     0.016 A 
ATOM     31  C   UNL     1       2.392   7.686  -2.697  1.00  0.00     0.016 A 
ATOM     32  C   UNL     1       1.089   8.610  -5.009  1.00  0.00     0.010 A 
ATOM     33  C   UNL     1       1.360   8.627  -2.597  1.00  0.00     0.010 A 
ATOM     34  C   UNL     1       0.736   9.126  -3.755  1.00  0.00    -0.014 A 
BRANCH  34  35
ATOM     35  C   UNL     1      -0.162  10.304  -3.694  1.00  0.00     0.031 A 
ATOM     36  C   UNL     1       0.445  11.675  -3.565  1.00  0.00     0.074 A 
ATOM     37  C   UNL     1      -1.493  10.165  -3.820  1.00  0.00     0.049 A 
ATOM     38  N   UNL     1      -0.142  12.844  -3.518  1.00  0.00    -0.248 NA
ATOM     39  C   UNL     1       1.914  11.736  -3.481  1.00  0.00     0.031 C 
ATOM     40  C   UNL     1      -2.196   8.896  -3.994  1.00  0.00     0.029 A 
ATOM     41  N   UNL     1      -2.490  11.107  -3.824  1.00  0.00    -0.354 N 
ATOM     42  C   UNL     1       0.881  13.776  -3.400  1.00  0.00     0.074 A 
ATOM     43  C   UNL     1       2.124  13.037  -3.349  1.00  0.00     0.031 C 
ATOM     44  C   UNL     1      -3.515   9.138  -4.085  1.00  0.00     0.029 A 
ATOM     45  C   UNL     1      -3.749  10.575  -3.952  1.00  0.00     0.049 A 
ATOM     46  H   UNL     1      -2.319  12.074  -3.743  1.00  0.00     0.167 HD
ATOM     47  C   UNL     1       0.794  15.126  -3.350  1.00  0.00     0.037 A 
ATOM     48  C   UNL     1      -4.953  11.180  -3.948  1.00  0.00     0.037 A 
ATOM     49  C   UNL     1      -0.441  15.861  -3.404  1.00  0.00     0.049 A 
ATOM     50  C   UNL     1      -5.028  12.678  -3.825  1.00  0.00     0.074 A 
ATOM     51  C   UNL     1      -0.633  17.232  -3.374  1.00  0.00     0.029 A 
ATOM     52  N   UNL     1      -1.698  15.283  -3.493  1.00  0.00    -0.354 N 
ATOM     53  N   UNL     1      -4.053  13.551  -3.736  1.00  0.00    -0.248 NA
ATOM     54  C   UNL     1      -6.371  13.277  -3.805  1.00  0.00     0.031 C 
ATOM     55  C   UNL     1      -2.009  17.481  -3.400  1.00  0.00     0.029 A 
ATOM     56  C   UNL     1      -2.672  16.268  -3.494  1.00  0.00     0.049 A 
ATOM     57  H   UNL     1      -1.873  14.316  -3.547  1.00  0.00     0.167 HD
ATOM     58  C   UNL     1      -4.661  14.799  -3.678  1.00  0.00     0.074 A 
ATOM     59  C   UNL     1      -6.090  14.571  -3.752  1.00  0.00     0.031 C 
ATOM     60  C   UNL     1      -4.089  16.024  -3.575  1.00  0.00     0.037 A 
BRANCH  47  61
ATOM     61  C   UNL     1       2.075  15.895  -3.209  1.00  0.00     0.057 A 
ATOM     62  C   UNL     1       2.983  16.022  -4.269  1.00  0.00     0.134 A 
ATOM     63  C   UNL     1       2.391  16.539  -2.007  1.00  0.00     0.134 A 
ATOM     64  F   UNL     1       2.746  15.416  -5.442  1.00  0.00    -0.206 F 
ATOM     65  C   UNL     1       4.169  16.744  -4.130  1.00  0.00     0.040 A 
ATOM     66  C   UNL     1       3.563  17.284  -1.863  1.00  0.00     0.040 A 
ATOM     67  F   UNL     1       1.563  16.461  -0.954  1.00  0.00    -0.206 F 
ATOM     68  C   UNL     1       4.459  17.383  -2.926  1.00  0.00     0.006 A 
ENDBRANCH  47  61
BRANCH  48  69
ATOM     69  C   UNL     1      -6.191  10.368  -4.058  1.00  0.00     0.057 A 
ATOM     70  C   UNL     1      -6.992  10.415  -5.204  1.00  0.00     0.134 A 
ATOM     71  C   UNL     1      -6.610   9.539  -3.011  1.00  0.00     0.134 A 
ATOM     72  F   UNL     1      -6.656  11.209  -6.231  1.00  0.00    -0.206 F 
ATOM     73  C   UNL     1      -8.174   9.678  -5.300  1.00  0.00     0.040 A 
ATOM     74  C   UNL     1      -7.776   8.778  -3.102  1.00  0.00     0.040 A 
ATOM     75  F   UNL     1      -5.886   9.450  -1.885  1.00  0.00    -0.206 F 
ATOM     76  C   UNL     1      -8.566   8.851  -4.248  1.00  0.00     0.006 A 
ENDBRANCH  48  69
BRANCH  60  77
ATOM     77  C   UNL     1      -5.004  17.213  -3.568  1.00  0.00     0.057 A 
ATOM     78  C   UNL     1      -5.790  17.534  -2.455  1.00  0.00     0.134 A 
ATOM     79  C   UNL     1      -5.066  18.070  -4.674  1.00  0.00     0.134 A 
ATOM     80  F   UNL     1      -5.785  16.747  -1.369  1.00  0.00    -0.206 F 
ATOM     81  C   UNL     1      -6.620  18.657  -2.449  1.00  0.00     0.040 A 
ATOM     82  C   UNL     1      -5.873  19.208  -4.671  1.00  0.00     0.040 A 
ATOM     83  F   UNL     1      -4.331  17.824  -5.769  1.00  0.00    -0.206 F 
ATOM     84  C   UNL     1      -6.658  19.501  -3.557  1.00  0.00     0.006 A 
ENDBRANCH  60  77
ENDBRANCH  34  35
ENDBRANCH  27  29
ENDBRANCH  26  27
ENDBRANCH  25  26
ENDBRANCH  24  25
ENDBRANCH  23  24
ENDBRANCH   1  23
TORSDOF 17
