REMARK SMILES CC(C)Cc1ccc([C@H](C)C(=O)OCCOCCOC(=O)c2ccc(-c3c4nc(c(-c5c(F)cccc5F)c5ccc([nH]5)c(-c5c(F)cccc5F)c5nc(c(-c6c(F)cccc6F)c6ccc3[nH]6)C=C5)C=C4)cc2)cc1
REMARK SMILES IDX 15 1 14 2 13 3 11 4 12 5 9 6 10 7 8 8 5 9 6 10 77 11 7 12
REMARK SMILES IDX 76 13 4 14 2 15 1 16 3 17 16 18 17 19 18 20 19 21 20 22
REMARK SMILES IDX 21 23 22 24 23 25 75 26 24 27 74 28 25 29 26 30 27 31 68 32
REMARK SMILES IDX 28 33 73 34 67 35 69 36 29 37 72 38 66 39 65 40 30 42 56 43
REMARK SMILES IDX 39 44 55 45 40 46 43 47 54 48 70 49 41 50 42 51 53 53 71 54
REMARK SMILES IDX 44 55 31 56 32 57 37 58 33 59 34 60 36 61 38 62 35 63 57 64
REMARK SMILES IDX 58 65 63 66 59 67 60 68 62 69 64 70 61 71 45 72 46 73 51 74
REMARK SMILES IDX 47 75 48 76 50 77 52 78 49 79
REMARK H PARENT 69 41 43 52
REMARK Flexibility Score: inf
ROOT
ATOM      1  C   UNL     1       1.024   1.381  -6.673  1.00  0.00     0.202 C 
ENDROOT
BRANCH   1   2
ATOM      2  C   UNL     1      -0.289   2.164  -6.627  1.00  0.00     0.261 C 
BRANCH   2   3
ATOM      3  O   UNL     1      -1.139   1.697  -5.568  1.00  0.00    -0.463 OA
BRANCH   3   4
ATOM      4  C   UNL     1      -2.328   1.161  -5.960  1.00  0.00     0.313 C 
ATOM      5  O   UNL     1      -2.739   1.163  -7.115  1.00  0.00    -0.252 OA
BRANCH   4   6
ATOM      6  C   UNL     1      -3.073   0.482  -4.808  1.00  0.00     0.126 C 
ATOM      7  C   UNL     1      -2.398   0.555  -3.440  1.00  0.00     0.025 C 
BRANCH   6   8
ATOM      8  C   UNL     1      -4.510   0.955  -4.726  1.00  0.00    -0.034 A 
ATOM      9  C   UNL     1      -7.194   1.772  -4.847  1.00  0.00    -0.048 A 
ATOM     10  C   UNL     1      -6.871   0.429  -4.622  1.00  0.00     0.004 A 
ATOM     11  C   UNL     1      -6.166   2.717  -4.927  1.00  0.00     0.004 A 
ATOM     12  C   UNL     1      -5.540   0.020  -4.571  1.00  0.00     0.005 A 
ATOM     13  C   UNL     1      -4.835   2.314  -4.849  1.00  0.00     0.005 A 
BRANCH   9  14
ATOM     14  C   UNL     1      -8.625   2.176  -5.095  1.00  0.00     0.038 C 
BRANCH  14  15
ATOM     15  C   UNL     1      -9.018   2.112  -6.588  1.00  0.00    -0.013 C 
ATOM     16  C   UNL     1      -8.914   0.700  -7.174  1.00  0.00     0.008 C 
ATOM     17  C   UNL     1     -10.445   2.632  -6.766  1.00  0.00     0.008 C 
ENDBRANCH  14  15
ENDBRANCH   9  14
ENDBRANCH   6   8
ENDBRANCH   4   6
ENDBRANCH   3   4
ENDBRANCH   2   3
ENDBRANCH   1   2
BRANCH   1  18
ATOM     18  O   UNL     1       0.927  -0.008  -6.984  1.00  0.00    -0.374 OA
BRANCH  18  19
ATOM     19  C   UNL     1       0.410  -0.891  -5.990  1.00  0.00     0.202 C 
BRANCH  19  20
ATOM     20  C   UNL     1       1.298  -1.149  -4.768  1.00  0.00     0.261 C 
BRANCH  20  21
ATOM     21  O   UNL     1       1.448   0.026  -3.951  1.00  0.00    -0.460 OA
BRANCH  21  22
ATOM     22  C   UNL     1       2.727   0.434  -3.786  1.00  0.00     0.338 C 
ATOM     23  O   UNL     1       3.743  -0.140  -4.170  1.00  0.00    -0.246 OA
BRANCH  22  24
ATOM     24  C   UNL     1       2.782   1.786  -3.208  1.00  0.00     0.060 A 
ATOM     25  C   UNL     1       3.511   2.750  -3.914  1.00  0.00     0.016 A 
ATOM     26  C   UNL     1       2.274   2.067  -1.938  1.00  0.00     0.016 A 
ATOM     27  C   UNL     1       3.816   3.969  -3.316  1.00  0.00     0.010 A 
ATOM     28  C   UNL     1       2.587   3.292  -1.334  1.00  0.00     0.010 A 
ATOM     29  C   UNL     1       3.411   4.219  -1.998  1.00  0.00    -0.014 A 
BRANCH  29  30
ATOM     30  C   UNL     1       4.063   5.332  -1.265  1.00  0.00     0.031 A 
ATOM     31  C   UNL     1       5.267   5.024  -0.414  1.00  0.00     0.074 A 
ATOM     32  C   UNL     1       3.667   6.606  -1.433  1.00  0.00     0.049 A 
ATOM     33  N   UNL     1       6.052   5.838   0.245  1.00  0.00    -0.248 NA
ATOM     34  C   UNL     1       5.641   3.604  -0.298  1.00  0.00     0.031 C 
ATOM     35  C   UNL     1       2.550   7.041  -2.269  1.00  0.00     0.029 A 
ATOM     36  N   UNL     1       4.180   7.769  -0.918  1.00  0.00    -0.354 N 
ATOM     37  C   UNL     1       7.013   5.032   0.844  1.00  0.00     0.074 A 
ATOM     38  C   UNL     1       6.691   3.663   0.506  1.00  0.00     0.031 C 
ATOM     39  C   UNL     1       2.469   8.383  -2.219  1.00  0.00     0.029 A 
ATOM     40  C   UNL     1       3.517   8.896  -1.337  1.00  0.00     0.049 A 
ATOM     41  H   UNL     1       4.951   7.794  -0.306  1.00  0.00     0.167 HD
ATOM     42  C   UNL     1       8.081   5.396   1.593  1.00  0.00     0.037 A 
ATOM     43  C   UNL     1       3.736  10.192  -1.044  1.00  0.00     0.037 A 
ATOM     44  C   UNL     1       8.406   6.754   1.936  1.00  0.00     0.049 A 
ATOM     45  C   UNL     1       4.889  10.568  -0.152  1.00  0.00     0.074 A 
ATOM     46  C   UNL     1       9.458   7.224   2.703  1.00  0.00     0.029 A 
ATOM     47  N   UNL     1       7.679   7.862   1.530  1.00  0.00    -0.354 N 
ATOM     48  N   UNL     1       5.796   9.799   0.398  1.00  0.00    -0.248 NA
ATOM     49  C   UNL     1       5.052  11.998   0.150  1.00  0.00     0.031 C 
ATOM     50  C   UNL     1       9.348   8.617   2.788  1.00  0.00     0.029 A 
ATOM     51  C   UNL     1       8.251   9.015   2.041  1.00  0.00     0.049 A 
ATOM     52  H   UNL     1       6.875   7.834   0.963  1.00  0.00     0.167 HD
ATOM     53  C   UNL     1       6.657  10.651   1.080  1.00  0.00     0.074 A 
ATOM     54  C   UNL     1       6.165  11.997   0.871  1.00  0.00     0.031 C 
ATOM     55  C   UNL     1       7.759  10.348   1.808  1.00  0.00     0.037 A 
BRANCH  42  56
ATOM     56  C   UNL     1       8.961   4.295   2.106  1.00  0.00     0.057 A 
ATOM     57  C   UNL     1       9.829   3.593   1.260  1.00  0.00     0.134 A 
ATOM     58  C   UNL     1       8.941   3.935   3.458  1.00  0.00     0.134 A 
ATOM     59  F   UNL     1       9.880   3.878  -0.050  1.00  0.00    -0.206 F 
ATOM     60  C   UNL     1      10.629   2.553   1.737  1.00  0.00     0.040 A 
ATOM     61  C   UNL     1       9.753   2.913   3.952  1.00  0.00     0.040 A 
ATOM     62  F   UNL     1       8.133   4.569   4.321  1.00  0.00    -0.206 F 
ATOM     63  C   UNL     1      10.595   2.214   3.088  1.00  0.00     0.006 A 
ENDBRANCH  42  56
BRANCH  43  64
ATOM     64  C   UNL     1       2.856  11.241  -1.616  1.00  0.00     0.057 A 
ATOM     65  C   UNL     1       3.323  12.122  -2.597  1.00  0.00     0.134 A 
ATOM     66  C   UNL     1       1.537  11.402  -1.176  1.00  0.00     0.134 A 
ATOM     67  F   UNL     1       4.586  12.032  -3.040  1.00  0.00    -0.206 F 
ATOM     68  C   UNL     1       2.514  13.137  -3.111  1.00  0.00     0.040 A 
ATOM     69  C   UNL     1       0.711  12.398  -1.697  1.00  0.00     0.040 A 
ATOM     70  F   UNL     1       1.032  10.589  -0.237  1.00  0.00    -0.206 F 
ATOM     71  C   UNL     1       1.202  13.274  -2.663  1.00  0.00     0.006 A 
ENDBRANCH  43  64
BRANCH  55  72
ATOM     72  C   UNL     1       8.536  11.491   2.390  1.00  0.00     0.057 A 
ATOM     73  C   UNL     1       8.073  12.216   3.495  1.00  0.00     0.134 A 
ATOM     74  C   UNL     1       9.783  11.846   1.859  1.00  0.00     0.134 A 
ATOM     75  F   UNL     1       6.881  11.932   4.043  1.00  0.00    -0.206 F 
ATOM     76  C   UNL     1       8.812  13.268   4.037  1.00  0.00     0.040 A 
ATOM     77  C   UNL     1      10.541  12.881   2.406  1.00  0.00     0.040 A 
ATOM     78  F   UNL     1      10.287  11.185   0.806  1.00  0.00    -0.206 F 
ATOM     79  C   UNL     1      10.053  13.600   3.495  1.00  0.00     0.006 A 
ENDBRANCH  55  72
ENDBRANCH  29  30
ENDBRANCH  22  24
ENDBRANCH  21  22
ENDBRANCH  20  21
ENDBRANCH  19  20
ENDBRANCH  18  19
ENDBRANCH   1  18
TORSDOF 17
