REMARK SMILES CC1CCN(C(=O)Nc2nccnc2C(=O)OCCOCCOC(=O)c2ccc(-c3c4nc(c(-c5c(F)cccc5F)c5ccc([nH]5)c(-c5c(F)cccc5F)c5nc(c(-c6c(F)cccc6F)c6ccc3[nH]6)C=C5)C=C4)cc2)CC1
REMARK SMILES IDX 21 1 20 2 19 3 18 4 17 5 15 6 16 7 14 8 9 9 10 10 11 11
REMARK SMILES IDX 13 12 12 13 8 14 1 15 2 16 3 17 81 18 4 19 80 20 5 21 6 22
REMARK SMILES IDX 7 23 22 25 23 26 24 27 25 28 26 29 27 30 79 31 28 32 78 33
REMARK SMILES IDX 29 34 30 35 31 36 72 37 32 38 77 39 71 40 73 41 33 42 76 43
REMARK SMILES IDX 70 44 69 45 34 47 60 48 43 49 59 50 44 51 47 52 58 53 74 54
REMARK SMILES IDX 45 55 46 56 57 58 75 59 48 60 35 61 36 62 41 63 37 64 38 65
REMARK SMILES IDX 40 66 42 67 39 68 61 69 62 70 67 71 63 72 64 73 66 74 68 75
REMARK SMILES IDX 65 76 49 77 50 78 55 79 51 80 52 81 54 82 56 83 53 84
REMARK H PARENT 8 24 73 46 47 57
REMARK Flexibility Score: inf
ROOT
ATOM      1  C   UNL     1       6.162  -2.995   1.272  1.00  0.00     0.202 C 
ENDROOT
BRANCH   1   2
ATOM      2  O   UNL     1       7.433  -3.090   0.627  1.00  0.00    -0.374 OA
BRANCH   2   3
ATOM      3  C   UNL     1       7.704  -2.160  -0.420  1.00  0.00     0.202 C 
BRANCH   3   4
ATOM      4  C   UNL     1       7.150  -2.538  -1.795  1.00  0.00     0.261 C 
BRANCH   4   5
ATOM      5  O   UNL     1       5.710  -2.586  -1.769  1.00  0.00    -0.458 OA
BRANCH   5   6
ATOM      6  C   UNL     1       5.175  -3.823  -1.946  1.00  0.00     0.360 C 
ATOM      7  O   UNL     1       5.809  -4.811  -2.288  1.00  0.00    -0.244 OA
BRANCH   6   8
ATOM      8  C   UNL     1       3.716  -3.877  -1.609  1.00  0.00     0.191 A 
ATOM      9  C   UNL     1       2.870  -2.771  -1.406  1.00  0.00     0.167 A 
ATOM     10  N   UNL     1       1.544  -2.981  -1.230  1.00  0.00    -0.235 NA
ATOM     11  C   UNL     1       1.108  -4.257  -1.118  1.00  0.00     0.133 A 
ATOM     12  N   UNL     1       3.263  -5.167  -1.481  1.00  0.00    -0.244 NA
ATOM     13  C   UNL     1       1.958  -5.331  -1.209  1.00  0.00     0.132 A 
BRANCH   9  14
ATOM     14  N   UNL     1       3.354  -1.453  -1.380  1.00  0.00    -0.290 N 
ATOM     15  C   UNL     1      -2.490   0.094  -0.066  1.00  0.00     0.008 C 
ATOM     16  C   UNL     1      -1.046   0.212   0.421  1.00  0.00    -0.011 C 
ATOM     17  C   UNL     1      -0.293   1.296  -0.375  1.00  0.00     0.025 C 
ATOM     18  C   UNL     1      -0.326  -1.143   0.318  1.00  0.00     0.025 C 
ATOM     19  C   UNL     1       1.213   1.304  -0.095  1.00  0.00     0.121 C 
ATOM     20  C   UNL     1       1.149  -0.989   0.691  1.00  0.00     0.121 C 
ATOM     21  N   UNL     1       1.778  -0.043  -0.223  1.00  0.00    -0.324 N 
ATOM     22  C   UNL     1       2.841  -0.242  -1.061  1.00  0.00     0.323 C 
ATOM     23  O   UNL     1       3.463   0.720  -1.533  1.00  0.00    -0.248 OA
ATOM     24  H   UNL     1       4.295  -1.396  -1.662  1.00  0.00     0.173 HD
ENDBRANCH   9  14
ENDBRANCH   6   8
ENDBRANCH   5   6
ENDBRANCH   4   5
ENDBRANCH   3   4
ENDBRANCH   2   3
ENDBRANCH   1   2
BRANCH   1  25
ATOM     25  C   UNL     1       6.027  -1.885   2.320  1.00  0.00     0.261 C 
BRANCH  25  26
ATOM     26  O   UNL     1       5.994  -0.583   1.708  1.00  0.00    -0.460 OA
BRANCH  26  27
ATOM     27  C   UNL     1       7.090   0.180   1.921  1.00  0.00     0.338 C 
ATOM     28  O   UNL     1       8.049  -0.084   2.635  1.00  0.00    -0.246 OA
BRANCH  27  29
ATOM     29  C   UNL     1       7.078   1.341   1.012  1.00  0.00     0.060 A 
ATOM     30  C   UNL     1       8.240   1.601   0.272  1.00  0.00     0.016 A 
ATOM     31  C   UNL     1       5.975   2.192   0.924  1.00  0.00     0.016 A 
ATOM     32  C   UNL     1       8.321   2.742  -0.523  1.00  0.00     0.010 A 
ATOM     33  C   UNL     1       6.063   3.342   0.135  1.00  0.00     0.010 A 
ATOM     34  C   UNL     1       7.247   3.639  -0.564  1.00  0.00    -0.014 A 
BRANCH  34  35
ATOM     35  C   UNL     1       7.405   4.956  -1.222  1.00  0.00     0.031 A 
ATOM     36  C   UNL     1       7.706   6.160  -0.376  1.00  0.00     0.074 A 
ATOM     37  C   UNL     1       7.272   5.081  -2.553  1.00  0.00     0.049 A 
ATOM     38  N   UNL     1       7.799   7.418  -0.723  1.00  0.00    -0.248 NA
ATOM     39  C   UNL     1       7.924   5.910   1.057  1.00  0.00     0.031 C 
ATOM     40  C   UNL     1       7.008   3.984  -3.480  1.00  0.00     0.029 A 
ATOM     41  N   UNL     1       7.323   6.197  -3.349  1.00  0.00    -0.354 N 
ATOM     42  C   UNL     1       8.072   8.112   0.449  1.00  0.00     0.074 A 
ATOM     43  C   UNL     1       8.106   7.138   1.520  1.00  0.00     0.031 C 
ATOM     44  C   UNL     1       6.896   4.485  -4.722  1.00  0.00     0.029 A 
ATOM     45  C   UNL     1       7.046   5.938  -4.668  1.00  0.00     0.049 A 
ATOM     46  H   UNL     1       7.537   7.095  -3.008  1.00  0.00     0.167 HD
ATOM     47  C   UNL     1       8.277   9.440   0.617  1.00  0.00     0.037 A 
ATOM     48  C   UNL     1       6.898   6.783  -5.706  1.00  0.00     0.037 A 
ATOM     49  C   UNL     1       8.236  10.406  -0.449  1.00  0.00     0.049 A 
ATOM     50  C   UNL     1       7.070   8.262  -5.489  1.00  0.00     0.074 A 
ATOM     51  C   UNL     1       8.457  11.771  -0.388  1.00  0.00     0.029 A 
ATOM     52  N   UNL     1       7.942  10.107  -1.772  1.00  0.00    -0.354 N 
ATOM     53  N   UNL     1       7.354   8.908  -4.384  1.00  0.00    -0.248 NA
ATOM     54  C   UNL     1       6.903   9.128  -6.665  1.00  0.00     0.031 C 
ATOM     55  C   UNL     1       8.248  12.305  -1.664  1.00  0.00     0.029 A 
ATOM     56  C   UNL     1       7.949  11.266  -2.531  1.00  0.00     0.049 A 
ATOM     57  H   UNL     1       7.755   9.205  -2.119  1.00  0.00     0.167 HD
ATOM     58  C   UNL     1       7.422  10.251  -4.734  1.00  0.00     0.074 A 
ATOM     59  C   UNL     1       7.158  10.326  -6.156  1.00  0.00     0.031 C 
ATOM     60  C   UNL     1       7.684  11.325  -3.947  1.00  0.00     0.037 A 
BRANCH  47  61
ATOM     61  C   UNL     1       8.529   9.921   2.016  1.00  0.00     0.057 A 
ATOM     62  C   UNL     1       9.724   9.645   2.693  1.00  0.00     0.134 A 
ATOM     63  C   UNL     1       7.560  10.671   2.695  1.00  0.00     0.134 A 
ATOM     64  F   UNL     1      10.686   8.919   2.105  1.00  0.00    -0.206 F 
ATOM     65  C   UNL     1       9.933  10.069   4.007  1.00  0.00     0.040 A 
ATOM     66  C   UNL     1       7.769  11.123   3.999  1.00  0.00     0.040 A 
ATOM     67  F   UNL     1       6.395  10.975   2.104  1.00  0.00    -0.206 F 
ATOM     68  C   UNL     1       8.954  10.814   4.662  1.00  0.00     0.006 A 
ENDBRANCH  47  61
BRANCH  48  69
ATOM     69  C   UNL     1       6.551   6.244  -7.043  1.00  0.00     0.057 A 
ATOM     70  C   UNL     1       7.487   6.224  -8.082  1.00  0.00     0.134 A 
ATOM     71  C   UNL     1       5.280   5.718  -7.307  1.00  0.00     0.134 A 
ATOM     72  F   UNL     1       8.712   6.736  -7.896  1.00  0.00    -0.206 F 
ATOM     73  C   UNL     1       7.171   5.705  -9.339  1.00  0.00     0.040 A 
ATOM     74  C   UNL     1       4.958   5.175  -8.551  1.00  0.00     0.040 A 
ATOM     75  F   UNL     1       4.339   5.710  -6.351  1.00  0.00    -0.206 F 
ATOM     76  C   UNL     1       5.905   5.170  -9.573  1.00  0.00     0.006 A 
ENDBRANCH  48  69
BRANCH  60  77
ATOM     77  C   UNL     1       7.730  12.670  -4.612  1.00  0.00     0.057 A 
ATOM     78  C   UNL     1       6.570  13.324  -5.043  1.00  0.00     0.134 A 
ATOM     79  C   UNL     1       8.950  13.339  -4.779  1.00  0.00     0.134 A 
ATOM     80  F   UNL     1       5.371  12.733  -4.923  1.00  0.00    -0.206 F 
ATOM     81  C   UNL     1       6.623  14.587  -5.636  1.00  0.00     0.040 A 
ATOM     82  C   UNL     1       9.013  14.612  -5.347  1.00  0.00     0.040 A 
ATOM     83  F   UNL     1      10.098  12.772  -4.380  1.00  0.00    -0.206 F 
ATOM     84  C   UNL     1       7.847  15.238  -5.782  1.00  0.00     0.006 A 
ENDBRANCH  60  77
ENDBRANCH  34  35
ENDBRANCH  27  29
ENDBRANCH  26  27
ENDBRANCH  25  26
ENDBRANCH   1  25
TORSDOF 15
