REMARK SMILES C[C@H]1[C@@H](C(=O)OCCOCCOC(=O)c2ccc(-c3c4nc(c(-c5c(F)cccc5F)c5ccc([nH]5)c(-c5c(F)cccc5F)c5nc(c(-c6c(F)cccc6F)c6ccc3[nH]6)C=C5)C=C4)cc2)CCN1C(=O)c1cc2cc(F)ccc2s1
REMARK SMILES IDX 9 1 8 2 7 3 6 4 4 5 5 6 3 7 1 8 2 9 71 10 69 11 70 12 72 13
REMARK SMILES IDX 73 14 74 15 75 16 83 17 76 18 82 19 77 20 81 21 78 22 80 23
REMARK SMILES IDX 79 24 10 25 11 26 12 27 13 28 14 29 15 30 16 31 68 32 17 33
REMARK SMILES IDX 67 34 18 35 19 36 20 37 61 38 21 39 66 40 60 41 62 42 22 43
REMARK SMILES IDX 65 44 59 45 58 46 23 48 49 49 32 50 48 51 33 52 36 53 47 54
REMARK SMILES IDX 63 55 34 56 35 57 46 59 64 60 37 61 24 62 25 63 30 64 26 65
REMARK SMILES IDX 27 66 29 67 31 68 28 69 50 70 51 71 56 72 52 73 53 74 55 75
REMARK SMILES IDX 57 76 54 77 38 78 39 79 44 80 40 81 41 82 43 83 45 84 42 85
REMARK H PARENT 62 47 36 58
REMARK Flexibility Score: inf
ROOT
ATOM      1  O   UNL     1      -0.054   2.194  -4.070  1.00  0.00    -0.374 OA
ENDROOT
BRANCH   1   2
ATOM      2  C   UNL     1       1.287   2.543  -3.708  1.00  0.00     0.202 C 
BRANCH   2   3
ATOM      3  C   UNL     1       1.423   3.208  -2.337  1.00  0.00     0.261 C 
BRANCH   3   4
ATOM      4  O   UNL     1       1.287   2.205  -1.310  1.00  0.00    -0.463 OA
BRANCH   4   5
ATOM      5  C   UNL     1       0.744   2.622  -0.149  1.00  0.00     0.311 C 
ATOM      6  O   UNL     1       0.485   3.795   0.105  1.00  0.00    -0.252 OA
BRANCH   5   7
ATOM      7  C   UNL     1       0.354   1.502   0.797  1.00  0.00     0.123 C 
ATOM      8  C   UNL     1       2.122  -0.179  -0.199  1.00  0.00     0.032 C 
ATOM      9  C   UNL     1       0.967   0.079   0.757  1.00  0.00     0.096 C 
ATOM     10  N   UNL     1      -0.175  -0.821   0.558  1.00  0.00    -0.334 N 
ATOM     11  C   UNL     1      -1.169   1.302   0.728  1.00  0.00     0.039 C 
ATOM     12  C   UNL     1      -1.371  -0.097   0.200  1.00  0.00     0.121 C 
BRANCH  10  13
ATOM     13  C   UNL     1      -0.323  -2.073   1.133  1.00  0.00     0.264 C 
ATOM     14  O   UNL     1      -1.397  -2.406   1.637  1.00  0.00    -0.268 OA
BRANCH  13  15
ATOM     15  C   UNL     1       0.749  -3.040   1.037  1.00  0.00     0.093 A 
ATOM     16  C   UNL     1       1.237  -3.822   2.067  1.00  0.00     0.034 A 
ATOM     17  S   UNL     1       0.959  -3.858  -0.458  1.00  0.00    -0.130 S 
ATOM     18  C   UNL     1       1.024  -5.210   1.731  1.00  0.00    -0.004 A 
ATOM     19  C   UNL     1       0.781  -5.371   0.360  1.00  0.00     0.035 A 
ATOM     20  C   UNL     1       0.892  -6.339   2.572  1.00  0.00     0.048 A 
ATOM     21  C   UNL     1       0.397  -6.608  -0.190  1.00  0.00     0.022 A 
ATOM     22  C   UNL     1       0.433  -7.540   2.035  1.00  0.00     0.123 A 
ATOM     23  C   UNL     1       0.180  -7.679   0.680  1.00  0.00     0.041 A 
ATOM     24  F   UNL     1       0.187  -8.568   2.857  1.00  0.00    -0.207 F 
ENDBRANCH  13  15
ENDBRANCH  10  13
ENDBRANCH   5   7
ENDBRANCH   4   5
ENDBRANCH   3   4
ENDBRANCH   2   3
ENDBRANCH   1   2
BRANCH   1  25
ATOM     25  C   UNL     1      -0.650   1.110  -3.362  1.00  0.00     0.202 C 
BRANCH  25  26
ATOM     26  C   UNL     1      -0.343  -0.286  -3.913  1.00  0.00     0.261 C 
BRANCH  26  27
ATOM     27  O   UNL     1       1.063  -0.581  -3.879  1.00  0.00    -0.460 OA
BRANCH  27  28
ATOM     28  C   UNL     1       1.667  -0.555  -5.087  1.00  0.00     0.338 C 
ATOM     29  O   UNL     1       1.127  -0.402  -6.181  1.00  0.00    -0.246 OA
BRANCH  28  30
ATOM     30  C   UNL     1       3.133  -0.593  -4.945  1.00  0.00     0.060 A 
ATOM     31  C   UNL     1       3.870   0.285  -5.749  1.00  0.00     0.016 A 
ATOM     32  C   UNL     1       3.785  -1.519  -4.124  1.00  0.00     0.016 A 
ATOM     33  C   UNL     1       5.255   0.185  -5.801  1.00  0.00     0.010 A 
ATOM     34  C   UNL     1       5.181  -1.621  -4.180  1.00  0.00     0.010 A 
ATOM     35  C   UNL     1       5.915  -0.804  -5.059  1.00  0.00    -0.014 A 
BRANCH  35  36
ATOM     36  C   UNL     1       7.339  -1.079  -5.370  1.00  0.00     0.031 A 
ATOM     37  C   UNL     1       7.668  -2.183  -6.340  1.00  0.00     0.074 A 
ATOM     38  C   UNL     1       8.316  -0.296  -4.883  1.00  0.00     0.049 A 
ATOM     39  N   UNL     1       8.825  -2.521  -6.851  1.00  0.00    -0.248 NA
ATOM     40  C   UNL     1       6.542  -3.012  -6.799  1.00  0.00     0.031 C 
ATOM     41  C   UNL     1       8.124   0.819  -3.958  1.00  0.00     0.029 A 
ATOM     42  N   UNL     1       9.668  -0.313  -5.117  1.00  0.00    -0.354 N 
ATOM     43  C   UNL     1       8.564  -3.591  -7.698  1.00  0.00     0.074 A 
ATOM     44  C   UNL     1       7.148  -3.874  -7.601  1.00  0.00     0.031 C 
ATOM     45  C   UNL     1       9.317   1.388  -3.709  1.00  0.00     0.029 A 
ATOM     46  C   UNL     1      10.354   0.672  -4.451  1.00  0.00     0.049 A 
ATOM     47  H   UNL     1      10.105  -0.969  -5.707  1.00  0.00     0.167 HD
ATOM     48  C   UNL     1       9.421  -4.268  -8.499  1.00  0.00     0.037 A 
ATOM     49  C   UNL     1      11.668   0.966  -4.448  1.00  0.00     0.037 A 
ATOM     50  C   UNL     1      10.828  -3.992  -8.599  1.00  0.00     0.049 A 
ATOM     51  C   UNL     1      12.608   0.173  -5.316  1.00  0.00     0.074 A 
ATOM     52  C   UNL     1      11.777  -4.617  -9.389  1.00  0.00     0.029 A 
ATOM     53  N   UNL     1      11.490  -3.008  -7.880  1.00  0.00    -0.354 N 
ATOM     54  N   UNL     1      12.342  -0.812  -6.140  1.00  0.00    -0.248 NA
ATOM     55  C   UNL     1      14.030   0.542  -5.262  1.00  0.00     0.031 C 
ATOM     56  C   UNL     1      13.021  -4.033  -9.122  1.00  0.00     0.029 A 
ATOM     57  C   UNL     1      12.838  -3.020  -8.195  1.00  0.00     0.049 A 
ATOM     58  H   UNL     1      11.064  -2.393  -7.241  1.00  0.00     0.167 HD
ATOM     59  C   UNL     1      13.556  -1.161  -6.721  1.00  0.00     0.074 A 
ATOM     60  C   UNL     1      14.556  -0.274  -6.163  1.00  0.00     0.031 C 
ATOM     61  C   UNL     1      13.819  -2.127  -7.634  1.00  0.00     0.037 A 
BRANCH  48  62
ATOM     62  C   UNL     1       8.851  -5.385  -9.321  1.00  0.00     0.057 A 
ATOM     63  C   UNL     1       8.059  -5.137 -10.450  1.00  0.00     0.134 A 
ATOM     64  C   UNL     1       9.113  -6.720  -8.992  1.00  0.00     0.134 A 
ATOM     65  F   UNL     1       7.758  -3.880 -10.807  1.00  0.00    -0.206 F 
ATOM     66  C   UNL     1       7.528  -6.181 -11.210  1.00  0.00     0.040 A 
ATOM     67  C   UNL     1       8.605  -7.771  -9.758  1.00  0.00     0.040 A 
ATOM     68  F   UNL     1       9.866  -7.024  -7.925  1.00  0.00    -0.206 F 
ATOM     69  C   UNL     1       7.806  -7.503 -10.867  1.00  0.00     0.006 A 
ENDBRANCH  48  62
BRANCH  49  70
ATOM     70  C   UNL     1      12.177   2.076  -3.606  1.00  0.00     0.057 A 
ATOM     71  C   UNL     1      12.634   3.270  -4.176  1.00  0.00     0.134 A 
ATOM     72  C   UNL     1      12.238   1.959  -2.213  1.00  0.00     0.134 A 
ATOM     73  F   UNL     1      12.621   3.431  -5.507  1.00  0.00    -0.206 F 
ATOM     74  C   UNL     1      13.148   4.303  -3.390  1.00  0.00     0.040 A 
ATOM     75  C   UNL     1      12.729   2.991  -1.414  1.00  0.00     0.040 A 
ATOM     76  F   UNL     1      11.814   0.839  -1.609  1.00  0.00    -0.206 F 
ATOM     77  C   UNL     1      13.192   4.166  -2.004  1.00  0.00     0.006 A 
ENDBRANCH  49  70
BRANCH  61  78
ATOM     78  C   UNL     1      15.236  -2.256  -8.106  1.00  0.00     0.057 A 
ATOM     79  C   UNL     1      16.235  -2.813  -7.297  1.00  0.00     0.134 A 
ATOM     80  C   UNL     1      15.600  -1.845  -9.395  1.00  0.00     0.134 A 
ATOM     81  F   UNL     1      15.953  -3.215  -6.049  1.00  0.00    -0.206 F 
ATOM     82  C   UNL     1      17.551  -2.936  -7.746  1.00  0.00     0.040 A 
ATOM     83  C   UNL     1      16.907  -1.983  -9.862  1.00  0.00     0.040 A 
ATOM     84  F   UNL     1      14.688  -1.311 -10.222  1.00  0.00    -0.206 F 
ATOM     85  C   UNL     1      17.889  -2.525  -9.034  1.00  0.00     0.006 A 
ENDBRANCH  61  78
ENDBRANCH  35  36
ENDBRANCH  28  30
ENDBRANCH  27  28
ENDBRANCH  26  27
ENDBRANCH  25  26
ENDBRANCH   1  25
TORSDOF 16
