REMARK SMILES CC(C)Cc1ccc(-c2cc(Cl)cc3c2O[C@@H](C(F)(F)F)C(C(=O)OCCOCCOC(=O)c2ccc(-c4c5nc(c(-c6c(F)cccc6F)c6ccc([nH]6)c(-c6c(F)cccc6F)c6nc(c(-c7c(F)cccc7F)c7ccc4[nH]7)C=C6)C=C5)cc2)=C3)cc1
REMARK SMILES IDX 27 1 26 2 25 3 23 4 24 5 22 6 9 7 10 8 15 9 11 10 14 11
REMARK SMILES IDX 16 12 12 13 13 14 88 15 17 16 8 17 5 18 6 19 90 20 7 21
REMARK SMILES IDX 89 22 4 23 2 24 1 25 3 26 18 27 19 28 20 29 21 30 28 31
REMARK SMILES IDX 29 32 30 33 31 34 32 35 33 36 34 37 35 38 87 39 36 40 86 41
REMARK SMILES IDX 37 42 38 43 39 44 80 45 40 46 85 47 79 48 81 49 41 50 84 51
REMARK SMILES IDX 78 52 77 53 42 55 68 56 51 57 67 58 52 59 55 60 66 61 82 62
REMARK SMILES IDX 53 63 54 64 65 66 83 67 56 68 43 69 44 70 49 71 45 72 46 73
REMARK SMILES IDX 48 74 50 75 47 76 69 77 70 78 75 79 71 80 72 81 74 82 76 83
REMARK SMILES IDX 73 84 57 85 58 86 63 87 59 88 60 89 62 90 64 91 61 92
REMARK H PARENT 81 54 55 65
REMARK Flexibility Score: inf
ROOT
ATOM      1  C   UNL     1      -2.721   9.655  -5.624  1.00  0.00     0.202 C 
ENDROOT
BRANCH   1   2
ATOM      2  C   UNL     1      -4.087   9.288  -6.226  1.00  0.00     0.261 C 
BRANCH   2   3
ATOM      3  O   UNL     1      -4.835   8.374  -5.410  1.00  0.00    -0.460 OA
BRANCH   3   4
ATOM      4  C   UNL     1      -5.628   7.509  -6.070  1.00  0.00     0.338 C 
ATOM      5  O   UNL     1      -5.864   7.540  -7.270  1.00  0.00    -0.246 OA
BRANCH   4   6
ATOM      6  C   UNL     1      -6.069   6.384  -5.210  1.00  0.00     0.087 C 
ATOM      7  C   UNL     1      -3.134   4.630  -2.827  1.00  0.00     0.026 A 
ATOM      8  C   UNL     1      -1.933   5.002  -3.475  1.00  0.00     0.033 A 
ATOM      9  C   UNL     1      -4.316   4.992  -3.518  1.00  0.00     0.135 A 
ATOM     10  C   UNL     1      -1.916   5.315  -4.834  1.00  0.00     0.042 A 
ATOM     11  C   UNL     1      -4.292   5.056  -4.925  1.00  0.00     0.019 A 
ATOM     12  O   UNL     1      -5.221   5.891  -2.886  1.00  0.00    -0.475 OA
ATOM     13  Cl  UNL     1      -0.425   5.678  -5.604  1.00  0.00    -0.084 Cl
ATOM     14  C   UNL     1      -3.082   5.242  -5.583  1.00  0.00     0.032 A 
ATOM     15  C   UNL     1      -5.565   5.223  -5.660  1.00  0.00     0.027 C 
ATOM     16  C   UNL     1      -6.340   6.417  -3.720  1.00  0.00     0.316 C 
BRANCH   7  17
ATOM     17  C   UNL     1      -2.950   3.351  -2.029  1.00  0.00    -0.015 A 
ATOM     18  C   UNL     1      -1.875   0.793  -1.160  1.00  0.00    -0.048 A 
ATOM     19  C   UNL     1      -1.432   1.998  -0.611  1.00  0.00     0.004 A 
ATOM     20  C   UNL     1      -2.952   0.881  -2.059  1.00  0.00     0.004 A 
ATOM     21  C   UNL     1      -1.954   3.245  -1.036  1.00  0.00     0.009 A 
ATOM     22  C   UNL     1      -3.481   2.127  -2.481  1.00  0.00     0.009 A 
BRANCH  18  23
ATOM     23  C   UNL     1      -1.327  -0.571  -0.743  1.00  0.00     0.038 C 
BRANCH  23  24
ATOM     24  C   UNL     1       0.200  -0.883  -0.807  1.00  0.00    -0.013 C 
ATOM     25  C   UNL     1       1.062  -0.060   0.152  1.00  0.00     0.008 C 
ATOM     26  C   UNL     1       0.439  -2.373  -0.478  1.00  0.00     0.008 C 
ENDBRANCH  23  24
ENDBRANCH  18  23
ENDBRANCH   7  17
BRANCH  16  27
ATOM     27  C   UNL     1      -7.033   7.709  -3.226  1.00  0.00     0.430 C 
ATOM     28  F   UNL     1      -8.302   7.752  -3.723  1.00  0.00    -0.167 F 
ATOM     29  F   UNL     1      -7.152   7.738  -1.879  1.00  0.00    -0.167 F 
ATOM     30  F   UNL     1      -6.439   8.859  -3.597  1.00  0.00    -0.167 F 
ENDBRANCH  16  27
ENDBRANCH   4   6
ENDBRANCH   3   4
ENDBRANCH   2   3
ENDBRANCH   1   2
BRANCH   1  31
ATOM     31  O   UNL     1      -2.164   8.802  -4.634  1.00  0.00    -0.374 OA
BRANCH  31  32
ATOM     32  C   UNL     1      -2.830   8.705  -3.377  1.00  0.00     0.202 C 
BRANCH  32  33
ATOM     33  C   UNL     1      -2.851   9.936  -2.466  1.00  0.00     0.261 C 
BRANCH  33  34
ATOM     34  O   UNL     1      -3.492  11.078  -3.058  1.00  0.00    -0.460 OA
BRANCH  34  35
ATOM     35  C   UNL     1      -2.680  12.142  -3.262  1.00  0.00     0.338 C 
ATOM     36  O   UNL     1      -1.488  12.238  -2.998  1.00  0.00    -0.246 OA
BRANCH  35  37
ATOM     37  C   UNL     1      -3.403  13.177  -4.012  1.00  0.00     0.060 A 
ATOM     38  C   UNL     1      -2.950  13.505  -5.296  1.00  0.00     0.016 A 
ATOM     39  C   UNL     1      -4.463  13.871  -3.428  1.00  0.00     0.016 A 
ATOM     40  C   UNL     1      -3.555  14.542  -6.002  1.00  0.00     0.010 A 
ATOM     41  C   UNL     1      -5.061  14.918  -4.133  1.00  0.00     0.010 A 
ATOM     42  C   UNL     1      -4.600  15.268  -5.415  1.00  0.00    -0.014 A 
BRANCH  42  43
ATOM     43  C   UNL     1      -5.172  16.441  -6.113  1.00  0.00     0.031 A 
ATOM     44  C   UNL     1      -4.783  17.824  -5.680  1.00  0.00     0.074 A 
ATOM     45  C   UNL     1      -6.053  16.263  -7.112  1.00  0.00     0.049 A 
ATOM     46  N   UNL     1      -5.231  18.980  -6.097  1.00  0.00    -0.248 NA
ATOM     47  C   UNL     1      -3.755  17.915  -4.633  1.00  0.00     0.031 C 
ATOM     48  C   UNL     1      -6.486  14.966  -7.629  1.00  0.00     0.029 A 
ATOM     49  N   UNL     1      -6.758  17.177  -7.852  1.00  0.00    -0.354 N 
ATOM     50  C   UNL     1      -4.554  19.937  -5.353  1.00  0.00     0.074 A 
ATOM     51  C   UNL     1      -3.681  19.225  -4.444  1.00  0.00     0.031 C 
ATOM     52  C   UNL     1      -7.404  15.166  -8.588  1.00  0.00     0.029 A 
ATOM     53  C   UNL     1      -7.650  16.600  -8.722  1.00  0.00     0.049 A 
ATOM     54  H   UNL     1      -6.636  18.150  -7.768  1.00  0.00     0.167 HD
ATOM     55  C   UNL     1      -4.656  21.286  -5.424  1.00  0.00     0.037 A 
ATOM     56  C   UNL     1      -8.586  17.165  -9.508  1.00  0.00     0.037 A 
ATOM     57  C   UNL     1      -5.533  21.981  -6.331  1.00  0.00     0.049 A 
ATOM     58  C   UNL     1      -8.727  18.661  -9.526  1.00  0.00     0.074 A 
ATOM     59  C   UNL     1      -5.672  23.345  -6.521  1.00  0.00     0.029 A 
ATOM     60  N   UNL     1      -6.438  21.365  -7.184  1.00  0.00    -0.354 N 
ATOM     61  N   UNL     1      -8.047  19.563  -8.858  1.00  0.00    -0.248 NA
ATOM     62  C   UNL     1      -9.763  19.220 -10.405  1.00  0.00     0.031 C 
ATOM     63  C   UNL     1      -6.708  23.555  -7.438  1.00  0.00     0.029 A 
ATOM     64  C   UNL     1      -7.173  22.321  -7.867  1.00  0.00     0.049 A 
ATOM     65  H   UNL     1      -6.543  20.392  -7.288  1.00  0.00     0.167 HD
ATOM     66  C   UNL     1      -8.564  20.794  -9.242  1.00  0.00     0.074 A 
ATOM     67  C   UNL     1      -9.599  20.523 -10.220  1.00  0.00     0.031 C 
ATOM     68  C   UNL     1      -8.215  22.036  -8.823  1.00  0.00     0.037 A 
BRANCH  55  69
ATOM     69  C   UNL     1      -3.831  22.094  -4.463  1.00  0.00     0.057 A 
ATOM     70  C   UNL     1      -2.435  22.172  -4.557  1.00  0.00     0.134 A 
ATOM     71  C   UNL     1      -4.448  22.818  -3.434  1.00  0.00     0.134 A 
ATOM     72  F   UNL     1      -1.778  21.495  -5.511  1.00  0.00    -0.206 F 
ATOM     73  C   UNL     1      -1.681  22.913  -3.643  1.00  0.00     0.040 A 
ATOM     74  C   UNL     1      -3.708  23.586  -2.533  1.00  0.00     0.040 A 
ATOM     75  F   UNL     1      -5.781  22.793  -3.289  1.00  0.00    -0.206 F 
ATOM     76  C   UNL     1      -2.319  23.627  -2.631  1.00  0.00     0.006 A 
ENDBRANCH  55  69
BRANCH  56  77
ATOM     77  C   UNL     1      -9.480  16.298 -10.315  1.00  0.00     0.057 A 
ATOM     78  C   UNL     1      -9.379  16.245 -11.709  1.00  0.00     0.134 A 
ATOM     79  C   UNL     1     -10.443  15.482  -9.706  1.00  0.00     0.134 A 
ATOM     80  F   UNL     1      -8.492  17.019 -12.351  1.00  0.00    -0.206 F 
ATOM     81  C   UNL     1     -10.204  15.414 -12.469  1.00  0.00     0.040 A 
ATOM     82  C   UNL     1     -11.256  14.628 -10.451  1.00  0.00     0.040 A 
ATOM     83  F   UNL     1     -10.588  15.485  -8.372  1.00  0.00    -0.206 F 
ATOM     84  C   UNL     1     -11.140  14.595 -11.839  1.00  0.00     0.006 A 
ENDBRANCH  56  77
BRANCH  68  85
ATOM     85  C   UNL     1      -8.957  23.197  -9.422  1.00  0.00     0.057 A 
ATOM     86  C   UNL     1     -10.293  23.464  -9.098  1.00  0.00     0.134 A 
ATOM     87  C   UNL     1      -8.316  24.081 -10.300  1.00  0.00     0.134 A 
ATOM     88  F   UNL     1     -10.970  22.649  -8.275  1.00  0.00    -0.206 F 
ATOM     89  C   UNL     1     -10.972  24.556  -9.643  1.00  0.00     0.040 A 
ATOM     90  C   UNL     1      -8.975  25.192 -10.827  1.00  0.00     0.040 A 
ATOM     91  F   UNL     1      -7.034  23.890 -10.645  1.00  0.00    -0.206 F 
ATOM     92  C   UNL     1     -10.310  25.428 -10.504  1.00  0.00     0.006 A 
ENDBRANCH  68  85
ENDBRANCH  42  43
ENDBRANCH  35  37
ENDBRANCH  34  35
ENDBRANCH  33  34
ENDBRANCH  32  33
ENDBRANCH  31  32
ENDBRANCH   1  31
TORSDOF 18
