REMARK SMILES O=C(OCCOCCOC(=O)c1cc(NC(=S)NC(=O)c2ccccc2F)ccc1Cl)c1ccc(-c2c3nc(c(-c4c(F)cccc4F)c4ccc([nH]4)c(-c4c(F)cccc4F)c4nc(c(-c5c(F)cccc5F)c5ccc2[nH]5)C=C4)C=C3)cc1
REMARK SMILES IDX 7 1 6 2 5 3 4 4 3 5 2 6 1 7 32 8 33 9 85 10 34 11 84 12
REMARK SMILES IDX 35 13 36 14 37 15 78 16 38 17 83 18 77 19 79 20 39 21 82 22
REMARK SMILES IDX 76 23 75 24 40 26 66 27 49 28 65 29 50 30 53 31 64 32 80 33
REMARK SMILES IDX 51 34 52 35 63 37 81 38 54 39 41 40 42 41 47 42 43 43 44 44
REMARK SMILES IDX 46 45 48 46 45 47 67 48 68 49 73 50 69 51 70 52 72 53 74 54
REMARK SMILES IDX 71 55 55 56 56 57 61 58 57 59 58 60 60 61 62 62 59 63 8 64
REMARK SMILES IDX 9 65 10 66 11 67 12 68 13 69 30 70 14 71 29 72 31 73 28 74
REMARK SMILES IDX 15 75 16 77 17 78 18 79 19 80 20 82 21 83 22 84 26 85 23 86
REMARK SMILES IDX 25 87 27 88 24 89
REMARK H PARENT 79 25 53 36 15 76 18 81
REMARK Flexibility Score: inf
ROOT
ATOM      1  C   UNL     1       2.079  -1.766   1.164  1.00  0.00     0.202 C 
ENDROOT
BRANCH   1   2
ATOM      2  O   UNL     1       3.379  -1.486   0.672  1.00  0.00    -0.374 OA
BRANCH   2   3
ATOM      3  C   UNL     1       3.971  -0.265   1.106  1.00  0.00     0.202 C 
BRANCH   3   4
ATOM      4  C   UNL     1       3.766   0.977   0.242  1.00  0.00     0.261 C 
BRANCH   4   5
ATOM      5  O   UNL     1       2.398   1.098  -0.143  1.00  0.00    -0.460 OA
BRANCH   5   6
ATOM      6  C   UNL     1       1.874   0.528  -1.256  1.00  0.00     0.338 C 
ATOM      7  O   UNL     1       0.662   0.554  -1.445  1.00  0.00    -0.246 OA
BRANCH   6   8
ATOM      8  C   UNL     1       2.751  -0.061  -2.304  1.00  0.00     0.060 A 
ATOM      9  C   UNL     1       3.853  -0.869  -2.029  1.00  0.00     0.016 A 
ATOM     10  C   UNL     1       2.411   0.155  -3.640  1.00  0.00     0.016 A 
ATOM     11  C   UNL     1       4.638  -1.416  -3.001  1.00  0.00     0.010 A 
ATOM     12  C   UNL     1       3.139  -0.478  -4.647  1.00  0.00     0.010 A 
ATOM     13  C   UNL     1       4.231  -1.288  -4.308  1.00  0.00    -0.014 A 
BRANCH  13  14
ATOM     14  C   UNL     1       5.041  -2.013  -5.276  1.00  0.00     0.031 A 
ATOM     15  C   UNL     1       5.926  -1.214  -6.154  1.00  0.00     0.074 A 
ATOM     16  C   UNL     1       5.058  -3.358  -5.222  1.00  0.00     0.049 A 
ATOM     17  N   UNL     1       6.576  -1.597  -7.209  1.00  0.00    -0.248 NA
ATOM     18  C   UNL     1       6.101   0.209  -5.803  1.00  0.00     0.031 C 
ATOM     19  C   UNL     1       4.356  -4.181  -4.223  1.00  0.00     0.029 A 
ATOM     20  N   UNL     1       5.703  -4.273  -6.001  1.00  0.00    -0.354 N 
ATOM     21  C   UNL     1       7.176  -0.450  -7.696  1.00  0.00     0.074 A 
ATOM     22  C   UNL     1       6.842   0.640  -6.812  1.00  0.00     0.031 C 
ATOM     23  C   UNL     1       4.610  -5.475  -4.459  1.00  0.00     0.029 A 
ATOM     24  C   UNL     1       5.386  -5.571  -5.684  1.00  0.00     0.049 A 
ATOM     25  H   UNL     1       6.332  -4.027  -6.718  1.00  0.00     0.167 HD
ATOM     26  C   UNL     1       7.916  -0.353  -8.817  1.00  0.00     0.037 A 
ATOM     27  C   UNL     1       5.627  -6.699  -6.374  1.00  0.00     0.037 A 
ATOM     28  C   UNL     1       8.226  -1.495  -9.628  1.00  0.00     0.049 A 
ATOM     29  C   UNL     1       6.364  -6.545  -7.674  1.00  0.00     0.074 A 
ATOM     30  C   UNL     1       8.934  -1.544 -10.809  1.00  0.00     0.029 A 
ATOM     31  N   UNL     1       7.840  -2.796  -9.323  1.00  0.00    -0.354 N 
ATOM     32  N   UNL     1       6.862  -5.453  -8.208  1.00  0.00    -0.248 NA
ATOM     33  C   UNL     1       6.548  -7.751  -8.484  1.00  0.00     0.031 C 
ATOM     34  C   UNL     1       8.925  -2.868 -11.251  1.00  0.00     0.029 A 
ATOM     35  C   UNL     1       8.269  -3.656 -10.313  1.00  0.00     0.049 A 
ATOM     36  H   UNL     1       7.336  -3.064  -8.521  1.00  0.00     0.167 HD
ATOM     37  C   UNL     1       7.430  -5.838  -9.410  1.00  0.00     0.074 A 
ATOM     38  C   UNL     1       7.230  -7.272  -9.517  1.00  0.00     0.031 C 
ATOM     39  C   UNL     1       8.053  -5.083 -10.348  1.00  0.00     0.037 A 
BRANCH  26  40
ATOM     40  C   UNL     1       8.344   1.009  -9.253  1.00  0.00     0.057 A 
ATOM     41  C   UNL     1       7.750   1.597 -10.377  1.00  0.00     0.134 A 
ATOM     42  C   UNL     1       9.342   1.732  -8.592  1.00  0.00     0.134 A 
ATOM     43  F   UNL     1       6.768   0.966 -11.038  1.00  0.00    -0.206 F 
ATOM     44  C   UNL     1       8.158   2.844 -10.848  1.00  0.00     0.040 A 
ATOM     45  C   UNL     1       9.742   2.992  -9.039  1.00  0.00     0.040 A 
ATOM     46  F   UNL     1       9.918   1.241  -7.484  1.00  0.00    -0.206 F 
ATOM     47  C   UNL     1       9.159   3.545 -10.179  1.00  0.00     0.006 A 
ENDBRANCH  26  40
BRANCH  27  48
ATOM     48  C   UNL     1       5.090  -8.001  -5.904  1.00  0.00     0.057 A 
ATOM     49  C   UNL     1       3.710  -8.231  -5.793  1.00  0.00     0.134 A 
ATOM     50  C   UNL     1       5.940  -9.048  -5.534  1.00  0.00     0.134 A 
ATOM     51  F   UNL     1       2.833  -7.272  -6.125  1.00  0.00    -0.206 F 
ATOM     52  C   UNL     1       3.198  -9.439  -5.315  1.00  0.00     0.040 A 
ATOM     53  C   UNL     1       5.442 -10.274  -5.083  1.00  0.00     0.040 A 
ATOM     54  F   UNL     1       7.270  -8.902  -5.626  1.00  0.00    -0.206 F 
ATOM     55  C   UNL     1       4.067 -10.469  -4.966  1.00  0.00     0.006 A 
ENDBRANCH  27  48
BRANCH  39  56
ATOM     56  C   UNL     1       8.582  -5.792 -11.552  1.00  0.00     0.057 A 
ATOM     57  C   UNL     1       9.964  -5.906 -11.749  1.00  0.00     0.134 A 
ATOM     58  C   UNL     1       7.732  -6.216 -12.578  1.00  0.00     0.134 A 
ATOM     59  F   UNL     1      10.823  -5.498 -10.803  1.00  0.00    -0.206 F 
ATOM     60  C   UNL     1      10.485  -6.379 -12.950  1.00  0.00     0.040 A 
ATOM     61  C   UNL     1       8.242  -6.721 -13.772  1.00  0.00     0.040 A 
ATOM     62  F   UNL     1       6.400  -6.139 -12.436  1.00  0.00    -0.206 F 
ATOM     63  C   UNL     1       9.622  -6.785 -13.967  1.00  0.00     0.006 A 
ENDBRANCH  39  56
ENDBRANCH  13  14
ENDBRANCH   6   8
ENDBRANCH   5   6
ENDBRANCH   4   5
ENDBRANCH   3   4
ENDBRANCH   2   3
ENDBRANCH   1   2
BRANCH   1  64
ATOM     64  C   UNL     1       2.207  -2.714   2.344  1.00  0.00     0.261 C 
BRANCH  64  65
ATOM     65  O   UNL     1       3.041  -2.072   3.331  1.00  0.00    -0.460 OA
BRANCH  65  66
ATOM     66  C   UNL     1       4.279  -2.597   3.532  1.00  0.00     0.339 C 
ATOM     67  O   UNL     1       4.703  -3.602   2.992  1.00  0.00    -0.246 OA
BRANCH  66  68
ATOM     68  C   UNL     1       4.972  -1.691   4.585  1.00  0.00     0.080 A 
ATOM     69  C   UNL     1       6.796  -0.869   4.912  1.00  0.00     0.043 A 
ATOM     70  C   UNL     1       3.821  -1.550   5.996  1.00  0.00     0.055 A 
ATOM     71  C   UNL     1       7.178   0.029   6.303  1.00  0.00     0.041 A 
ATOM     72  C   UNL     1       4.380  -0.697   7.462  1.00  0.00     0.023 A 
ATOM     73  Cl  UNL     1       2.263  -2.281   6.085  1.00  0.00    -0.083 Cl
ATOM     74  C   UNL     1       5.999   0.069   7.592  1.00  0.00     0.028 A 
BRANCH  71  75
ATOM     75  N   UNL     1       8.117   1.028   5.979  1.00  0.00    -0.332 N 
ATOM     76  H   UNL     1       8.448   1.541   6.751  1.00  0.00     0.169 HD
BRANCH  75  77
ATOM     77  C   UNL     1       8.655   1.412   4.767  1.00  0.00     0.177 C 
ATOM     78  S   UNL     1       9.848   2.599   4.841  1.00  0.00    -0.040 S 
BRANCH  77  79
ATOM     79  N   UNL     1       8.324   0.972   3.444  1.00  0.00    -0.299 N 
ATOM     80  C   UNL     1       7.554   0.178   2.444  1.00  0.00     0.260 C 
ATOM     81  H   UNL     1       8.958   1.474   2.882  1.00  0.00     0.172 HD
ATOM     82  O   UNL     1       7.840   0.244   1.251  1.00  0.00    -0.269 OA
BRANCH  80  83
ATOM     83  C   UNL     1       6.393  -0.697   2.861  1.00  0.00     0.075 A 
ATOM     84  C   UNL     1       6.891  -2.348   3.372  1.00  0.00     0.017 A 
ATOM     85  C   UNL     1       5.461   0.381   3.846  1.00  0.00     0.135 A 
ATOM     86  C   UNL     1       6.685  -2.936   5.053  1.00  0.00     0.001 A 
ATOM     87  C   UNL     1       5.200  -0.043   5.525  1.00  0.00     0.040 A 
ATOM     88  F   UNL     1       5.248   1.648   3.460  1.00  0.00    -0.206 F 
ATOM     89  C   UNL     1       5.903  -1.808   6.248  1.00  0.00     0.003 A 
ENDBRANCH  80  83
ENDBRANCH  77  79
ENDBRANCH  75  77
ENDBRANCH  71  75
ENDBRANCH  66  68
ENDBRANCH  65  66
ENDBRANCH  64  65
ENDBRANCH   1  64
TORSDOF 18
