REMARK SMILES CC#CC[C@H](C(=O)OCCOCCOC(=O)c1ccc(-c2c3nc(c(-c4c(F)cccc4F)c4ccc([nH]4)c(-c4c(F)cccc4F)c4nc(c(-c5c(F)cccc5F)c5ccc2[nH]5)C=C4)C=C3)cc1)c1cccc(Br)c1
REMARK SMILES IDX 11 1 10 2 9 3 8 4 6 5 7 6 5 7 4 8 3 9 1 10 2 11 71 12 72 13
REMARK SMILES IDX 77 14 73 15 75 16 74 17 76 18 12 19 13 20 14 21 15 22 16 23
REMARK SMILES IDX 17 24 18 25 70 26 19 27 69 28 20 29 21 30 22 31 63 32 23 33
REMARK SMILES IDX 68 34 62 35 64 36 24 37 67 38 61 39 60 40 25 42 51 43 34 44
REMARK SMILES IDX 50 45 35 46 38 47 49 48 65 49 36 50 37 51 48 53 66 54 39 55
REMARK SMILES IDX 26 56 27 57 32 58 28 59 29 60 31 61 33 62 30 63 52 64 53 65
REMARK SMILES IDX 58 66 54 67 55 68 57 69 59 70 56 71 40 72 41 73 46 74 42 75
REMARK SMILES IDX 43 76 45 77 47 78 44 79
REMARK H PARENT 64 41 38 52
REMARK Flexibility Score: inf
ROOT
ATOM      1  O   UNL     1      -1.757  -0.623   1.951  1.00  0.00    -0.374 OA
ENDROOT
BRANCH   1   2
ATOM      2  C   UNL     1      -2.252  -0.334   3.258  1.00  0.00     0.202 C 
BRANCH   2   3
ATOM      3  C   UNL     1      -1.333   0.493   4.159  1.00  0.00     0.261 C 
BRANCH   3   4
ATOM      4  O   UNL     1      -1.298   1.877   3.751  1.00  0.00    -0.463 OA
BRANCH   4   5
ATOM      5  C   UNL     1      -0.059   2.434   3.605  1.00  0.00     0.314 C 
ATOM      6  O   UNL     1       0.998   1.836   3.776  1.00  0.00    -0.252 OA
BRANCH   5   7
ATOM      7  C   UNL     1      -0.133   3.925   3.287  1.00  0.00     0.141 C 
BRANCH   7   8
ATOM      8  C   UNL     1      -0.935   4.164   1.980  1.00  0.00     0.109 C 
BRANCH   8   9
ATOM      9  C   UNL     1      -0.153   3.675   0.772  1.00  0.00    -0.102 C 
ATOM     10  C   UNL     1       1.298   2.766  -1.474  1.00  0.00     0.107 C 
ATOM     11  C   UNL     1       0.517   3.255  -0.265  1.00  0.00    -0.107 C 
ENDBRANCH   8   9
ENDBRANCH   7   8
BRANCH   7  12
ATOM     12  C   UNL     1      -0.561   4.781   4.487  1.00  0.00    -0.032 A 
ATOM     13  C   UNL     1      -0.559   6.183   4.375  1.00  0.00     0.005 A 
ATOM     14  C   UNL     1      -0.853   4.231   5.751  1.00  0.00     0.020 A 
ATOM     15  C   UNL     1      -0.857   6.999   5.472  1.00  0.00     0.001 A 
ATOM     16  C   UNL     1      -1.154   5.051   6.843  1.00  0.00     0.018 A 
ATOM     17  C   UNL     1      -1.157   6.433   6.709  1.00  0.00     0.016 A 
ATOM     18  Br  UNL     1      -1.541   4.269   8.523  1.00  0.00    -0.051 Br
ENDBRANCH   7  12
ENDBRANCH   5   7
ENDBRANCH   4   5
ENDBRANCH   3   4
ENDBRANCH   2   3
ENDBRANCH   1   2
BRANCH   1  19
ATOM     19  C   UNL     1      -1.577   0.478   1.063  1.00  0.00     0.202 C 
BRANCH  19  20
ATOM     20  C   UNL     1      -2.859   1.077   0.470  1.00  0.00     0.261 C 
BRANCH  20  21
ATOM     21  O   UNL     1      -3.689   1.702   1.468  1.00  0.00    -0.460 OA
BRANCH  21  22
ATOM     22  C   UNL     1      -4.939   1.192   1.571  1.00  0.00     0.338 C 
ATOM     23  O   UNL     1      -5.449   0.324   0.877  1.00  0.00    -0.246 OA
BRANCH  22  24
ATOM     24  C   UNL     1      -5.611   1.720   2.770  1.00  0.00     0.060 A 
ATOM     25  C   UNL     1      -5.989   0.803   3.759  1.00  0.00     0.016 A 
ATOM     26  C   UNL     1      -5.979   3.063   2.869  1.00  0.00     0.016 A 
ATOM     27  C   UNL     1      -6.770   1.219   4.835  1.00  0.00     0.010 A 
ATOM     28  C   UNL     1      -6.773   3.477   3.946  1.00  0.00     0.010 A 
ATOM     29  C   UNL     1      -7.198   2.550   4.915  1.00  0.00    -0.014 A 
BRANCH  29  30
ATOM     30  C   UNL     1      -8.192   2.934   5.947  1.00  0.00     0.031 A 
ATOM     31  C   UNL     1      -9.648   3.008   5.578  1.00  0.00     0.074 A 
ATOM     32  C   UNL     1      -7.804   3.177   7.212  1.00  0.00     0.049 A 
ATOM     33  N   UNL     1     -10.675   3.342   6.317  1.00  0.00    -0.248 NA
ATOM     34  C   UNL     1      -9.992   2.656   4.191  1.00  0.00     0.031 C 
ATOM     35  C   UNL     1      -6.430   3.095   7.703  1.00  0.00     0.029 A 
ATOM     36  N   UNL     1      -8.536   3.547   8.312  1.00  0.00    -0.354 N 
ATOM     37  C   UNL     1     -11.786   3.242   5.487  1.00  0.00     0.074 A 
ATOM     38  C   UNL     1     -11.305   2.841   4.183  1.00  0.00     0.031 C 
ATOM     39  C   UNL     1      -6.415   3.417   9.008  1.00  0.00     0.029 A 
ATOM     40  C   UNL     1      -7.772   3.759   9.433  1.00  0.00     0.049 A 
ATOM     41  H   UNL     1      -9.515   3.651   8.299  1.00  0.00     0.167 HD
ATOM     42  C   UNL     1     -13.088   3.457   5.789  1.00  0.00     0.037 A 
ATOM     43  C   UNL     1      -8.124   4.204  10.655  1.00  0.00     0.037 A 
ATOM     44  C   UNL     1     -13.566   3.854   7.087  1.00  0.00     0.049 A 
ATOM     45  C   UNL     1      -9.568   4.522  10.940  1.00  0.00     0.074 A 
ATOM     46  C   UNL     1     -14.871   4.065   7.498  1.00  0.00     0.029 A 
ATOM     47  N   UNL     1     -12.755   4.112   8.181  1.00  0.00    -0.354 N 
ATOM     48  N   UNL     1     -10.613   4.396  10.158  1.00  0.00    -0.248 NA
ATOM     49  C   UNL     1      -9.880   5.054  12.275  1.00  0.00     0.031 C 
ATOM     50  C   UNL     1     -14.845   4.500   8.828  1.00  0.00     0.029 A 
ATOM     51  C   UNL     1     -13.528   4.517   9.257  1.00  0.00     0.049 A 
ATOM     52  H   UNL     1     -11.775   4.021   8.192  1.00  0.00     0.167 HD
ATOM     53  C   UNL     1     -11.704   4.815  10.909  1.00  0.00     0.074 A 
ATOM     54  C   UNL     1     -11.198   5.184  12.214  1.00  0.00     0.031 C 
ATOM     55  C   UNL     1     -13.009   4.888  10.549  1.00  0.00     0.037 A 
BRANCH  42  56
ATOM     56  C   UNL     1     -14.091   3.292   4.686  1.00  0.00     0.057 A 
ATOM     57  C   UNL     1     -14.459   2.030   4.202  1.00  0.00     0.134 A 
ATOM     58  C   UNL     1     -14.728   4.409   4.130  1.00  0.00     0.134 A 
ATOM     59  F   UNL     1     -13.878   0.921   4.685  1.00  0.00    -0.206 F 
ATOM     60  C   UNL     1     -15.411   1.886   3.191  1.00  0.00     0.040 A 
ATOM     61  C   UNL     1     -15.698   4.276   3.135  1.00  0.00     0.040 A 
ATOM     62  F   UNL     1     -14.426   5.646   4.553  1.00  0.00    -0.206 F 
ATOM     63  C   UNL     1     -16.038   3.011   2.659  1.00  0.00     0.006 A 
ENDBRANCH  42  56
BRANCH  43  64
ATOM     64  C   UNL     1      -7.086   4.405  11.696  1.00  0.00     0.057 A 
ATOM     65  C   UNL     1      -7.025   3.590  12.831  1.00  0.00     0.134 A 
ATOM     66  C   UNL     1      -6.137   5.430  11.585  1.00  0.00     0.134 A 
ATOM     67  F   UNL     1      -7.922   2.608  13.005  1.00  0.00    -0.206 F 
ATOM     68  C   UNL     1      -6.065   3.791  13.824  1.00  0.00     0.040 A 
ATOM     69  C   UNL     1      -5.157   5.628  12.558  1.00  0.00     0.040 A 
ATOM     70  F   UNL     1      -6.146   6.249  10.523  1.00  0.00    -0.206 F 
ATOM     71  C   UNL     1      -5.123   4.809  13.685  1.00  0.00     0.006 A 
ENDBRANCH  43  64
BRANCH  55  72
ATOM     72  C   UNL     1     -13.983   5.377  11.579  1.00  0.00     0.057 A 
ATOM     73  C   UNL     1     -14.061   6.730  11.932  1.00  0.00     0.134 A 
ATOM     74  C   UNL     1     -14.889   4.496  12.185  1.00  0.00     0.134 A 
ATOM     75  F   UNL     1     -13.213   7.621  11.398  1.00  0.00    -0.206 F 
ATOM     76  C   UNL     1     -14.996   7.188  12.862  1.00  0.00     0.040 A 
ATOM     77  C   UNL     1     -15.843   4.946  13.098  1.00  0.00     0.040 A 
ATOM     78  F   UNL     1     -14.873   3.189  11.883  1.00  0.00    -0.206 F 
ATOM     79  C   UNL     1     -15.896   6.295  13.442  1.00  0.00     0.006 A 
ENDBRANCH  55  72
ENDBRANCH  29  30
ENDBRANCH  22  24
ENDBRANCH  21  22
ENDBRANCH  20  21
ENDBRANCH  19  20
ENDBRANCH   1  19
TORSDOF 17
