REMARK SMILES O=C(OCCOCCOC(=O)[C@H]1C[N@H+](Cc2ccc(Cl)c(Cl)c2)CC12CCCCC2)c1ccc(-c2c3nc(c(-c4c(F)cccc4F)c4ccc([nH]4)c(-c4c(F)cccc4F)c4nc(c(-c5c(F)cccc5F)c5ccc2[nH]5)C=C4)C=C3)cc1
REMARK SMILES IDX 6 1 5 2 4 3 3 4 2 5 1 6 31 7 32 8 84 9 33 10 83 11 34 12
REMARK SMILES IDX 35 13 36 14 77 15 37 16 82 17 76 18 78 19 38 20 81 21 75 22
REMARK SMILES IDX 74 23 39 25 65 26 48 27 64 28 49 29 52 30 63 31 79 32 50 33
REMARK SMILES IDX 51 34 62 36 80 37 53 38 40 39 41 40 46 41 42 42 43 43 45 44
REMARK SMILES IDX 47 45 44 46 66 47 67 48 72 49 68 50 69 51 71 52 73 53 70 54
REMARK SMILES IDX 54 55 55 56 60 57 56 58 57 59 59 60 61 61 58 62 7 63 8 64
REMARK SMILES IDX 9 65 10 66 11 67 12 68 13 69 25 70 14 71 24 72 26 73 30 74
REMARK SMILES IDX 27 76 29 77 28 78 15 79 16 80 17 81 23 82 18 83 21 84 19 85
REMARK SMILES IDX 22 86 20 87
REMARK H PARENT 78 24 52 35 14 75
REMARK Flexibility Score: inf
ROOT
ATOM      1  O   UNL     1       3.202  -0.744  -1.477  1.00  0.00    -0.374 OA
ENDROOT
BRANCH   1   2
ATOM      2  C   UNL     1       3.809  -0.890  -0.213  1.00  0.00     0.202 C 
BRANCH   2   3
ATOM      3  C   UNL     1       3.342   0.100   0.843  1.00  0.00     0.261 C 
BRANCH   3   4
ATOM      4  O   UNL     1       1.930   0.324   0.729  1.00  0.00    -0.460 OA
BRANCH   4   5
ATOM      5  C   UNL     1       1.395   1.266  -0.095  1.00  0.00     0.338 C 
ATOM      6  O   UNL     1       0.186   1.338  -0.278  1.00  0.00    -0.246 OA
BRANCH   5   7
ATOM      7  C   UNL     1       2.283   2.301  -0.672  1.00  0.00     0.060 A 
ATOM      8  C   UNL     1       3.289   1.990  -1.583  1.00  0.00     0.016 A 
ATOM      9  C   UNL     1       2.074   3.634  -0.334  1.00  0.00     0.016 A 
ATOM     10  C   UNL     1       4.223   2.908  -1.980  1.00  0.00     0.010 A 
ATOM     11  C   UNL     1       2.873   4.612  -0.925  1.00  0.00     0.010 A 
ATOM     12  C   UNL     1       3.950   4.238  -1.750  1.00  0.00    -0.014 A 
BRANCH  12  13
ATOM     13  C   UNL     1       4.811   5.216  -2.418  1.00  0.00     0.031 A 
ATOM     14  C   UNL     1       5.590   6.140  -1.560  1.00  0.00     0.074 A 
ATOM     15  C   UNL     1       4.897   5.211  -3.762  1.00  0.00     0.049 A 
ATOM     16  N   UNL     1       6.164   7.262  -1.875  1.00  0.00    -0.248 NA
ATOM     17  C   UNL     1       5.709   5.762  -0.141  1.00  0.00     0.031 C 
ATOM     18  C   UNL     1       4.274   4.225  -4.659  1.00  0.00     0.029 A 
ATOM     19  N   UNL     1       5.547   6.057  -4.615  1.00  0.00    -0.354 N 
ATOM     20  C   UNL     1       6.637   7.774  -0.677  1.00  0.00     0.074 A 
ATOM     21  C   UNL     1       6.296   6.833   0.366  1.00  0.00     0.031 C 
ATOM     22  C   UNL     1       4.589   4.514  -5.928  1.00  0.00     0.029 A 
ATOM     23  C   UNL     1       5.312   5.773  -5.939  1.00  0.00     0.049 A 
ATOM     24  H   UNL     1       6.125   6.794  -4.312  1.00  0.00     0.167 HD
ATOM     25  C   UNL     1       7.269   8.953  -0.495  1.00  0.00     0.037 A 
ATOM     26  C   UNL     1       5.577   6.508  -7.032  1.00  0.00     0.037 A 
ATOM     27  C   UNL     1       7.579   9.827  -1.593  1.00  0.00     0.049 A 
ATOM     28  C   UNL     1       6.216   7.845  -6.803  1.00  0.00     0.074 A 
ATOM     29  C   UNL     1       8.170  11.073  -1.576  1.00  0.00     0.029 A 
ATOM     30  N   UNL     1       7.313   9.522  -2.928  1.00  0.00    -0.354 N 
ATOM     31  N   UNL     1       6.572   8.401  -5.667  1.00  0.00    -0.248 NA
ATOM     32  C   UNL     1       6.469   8.668  -7.987  1.00  0.00     0.031 C 
ATOM     33  C   UNL     1       8.218  11.541  -2.894  1.00  0.00     0.029 A 
ATOM     34  C   UNL     1       7.719  10.559  -3.743  1.00  0.00     0.049 A 
ATOM     35  H   UNL     1       6.896   8.687  -3.243  1.00  0.00     0.167 HD
ATOM     36  C   UNL     1       7.119   9.629  -5.995  1.00  0.00     0.074 A 
ATOM     37  C   UNL     1       7.046   9.732  -7.444  1.00  0.00     0.031 C 
ATOM     38  C   UNL     1       7.636  10.586  -5.185  1.00  0.00     0.037 A 
BRANCH  25  39
ATOM     39  C   UNL     1       7.535   9.361   0.922  1.00  0.00     0.057 A 
ATOM     40  C   UNL     1       8.432   8.672   1.751  1.00  0.00     0.134 A 
ATOM     41  C   UNL     1       6.796  10.401   1.501  1.00  0.00     0.134 A 
ATOM     42  F   UNL     1       9.145   7.640   1.274  1.00  0.00    -0.206 F 
ATOM     43  C   UNL     1       8.546   8.970   3.112  1.00  0.00     0.040 A 
ATOM     44  C   UNL     1       6.926  10.729   2.851  1.00  0.00     0.040 A 
ATOM     45  F   UNL     1       5.910  11.095   0.772  1.00  0.00    -0.206 F 
ATOM     46  C   UNL     1       7.791  10.001   3.665  1.00  0.00     0.006 A 
ENDBRANCH  25  39
BRANCH  26  47
ATOM     47  C   UNL     1       5.174   6.024  -8.377  1.00  0.00     0.057 A 
ATOM     48  C   UNL     1       6.130   5.666  -9.332  1.00  0.00     0.134 A 
ATOM     49  C   UNL     1       3.826   5.859  -8.729  1.00  0.00     0.134 A 
ATOM     50  F   UNL     1       7.437   5.806  -9.063  1.00  0.00    -0.206 F 
ATOM     51  C   UNL     1       5.765   5.171 -10.587  1.00  0.00     0.040 A 
ATOM     52  C   UNL     1       3.446   5.339  -9.968  1.00  0.00     0.040 A 
ATOM     53  F   UNL     1       2.854   6.168  -7.857  1.00  0.00    -0.206 F 
ATOM     54  C   UNL     1       4.419   4.999 -10.905  1.00  0.00     0.006 A 
ENDBRANCH  26  47
BRANCH  38  55
ATOM     55  C   UNL     1       8.227  11.782  -5.861  1.00  0.00     0.057 A 
ATOM     56  C   UNL     1       7.432  12.783  -6.428  1.00  0.00     0.134 A 
ATOM     57  C   UNL     1       9.616  11.964  -5.862  1.00  0.00     0.134 A 
ATOM     58  F   UNL     1       6.098  12.652  -6.470  1.00  0.00    -0.206 F 
ATOM     59  C   UNL     1       8.002  13.928  -6.983  1.00  0.00     0.040 A 
ATOM     60  C   UNL     1      10.194  13.117  -6.386  1.00  0.00     0.040 A 
ATOM     61  F   UNL     1      10.425  11.039  -5.324  1.00  0.00    -0.206 F 
ATOM     62  C   UNL     1       9.386  14.102  -6.950  1.00  0.00     0.006 A 
ENDBRANCH  38  55
ENDBRANCH  12  13
ENDBRANCH   5   7
ENDBRANCH   4   5
ENDBRANCH   3   4
ENDBRANCH   2   3
ENDBRANCH   1   2
BRANCH   1  63
ATOM     63  C   UNL     1       2.188  -1.648  -1.857  1.00  0.00     0.202 C 
BRANCH  63  64
ATOM     64  C   UNL     1       2.796  -2.619  -2.861  1.00  0.00     0.261 C 
BRANCH  64  65
ATOM     65  O   UNL     1       3.660  -3.525  -2.157  1.00  0.00    -0.463 OA
BRANCH  65  66
ATOM     66  C   UNL     1       4.949  -3.132  -1.871  1.00  0.00     0.315 C 
ATOM     67  O   UNL     1       5.569  -2.234  -2.399  1.00  0.00    -0.252 OA
BRANCH  66  68
ATOM     68  C   UNL     1       5.439  -4.058  -0.779  1.00  0.00     0.166 C 
ATOM     69  C   UNL     1       6.170  -5.193  -1.467  1.00  0.00     0.278 C 
ATOM     70  C   UNL     1       6.283  -3.671   0.477  1.00  0.00     0.038 C 
ATOM     71  N   UNL     1       6.825  -5.909  -0.387  1.00  0.00    -0.330 N 
ATOM     72  C   UNL     1       7.258  -4.887   0.573  1.00  0.00     0.270 C 
ATOM     73  C   UNL     1       7.082  -2.347   0.436  1.00  0.00     0.014 C 
ATOM     74  C   UNL     1       5.344  -3.601   1.717  1.00  0.00     0.014 C 
ATOM     75  H   UNL     1       7.650  -6.406  -0.721  1.00  0.00     0.348 HD
ATOM     76  C   UNL     1       7.725  -1.955   1.782  1.00  0.00     0.001 C 
ATOM     77  C   UNL     1       6.037  -3.318   3.039  1.00  0.00     0.001 C 
ATOM     78  C   UNL     1       6.749  -1.983   2.958  1.00  0.00     0.000 C 
BRANCH  71  79
ATOM     79  C   UNL     1       6.134  -7.103   0.118  1.00  0.00     0.299 C 
BRANCH  79  80
ATOM     80  C   UNL     1       4.855  -6.931   0.915  1.00  0.00     0.008 A 
ATOM     81  C   UNL     1       3.630  -6.635   0.294  1.00  0.00     0.011 A 
ATOM     82  C   UNL     1       4.887  -7.006   2.319  1.00  0.00     0.031 A 
ATOM     83  C   UNL     1       2.512  -6.270   1.054  1.00  0.00     0.022 A 
ATOM     84  C   UNL     1       3.760  -6.672   3.084  1.00  0.00     0.060 A 
ATOM     85  C   UNL     1       2.582  -6.266   2.450  1.00  0.00     0.059 A 
ATOM     86  Cl  UNL     1       3.926  -6.691   4.803  1.00  0.00    -0.083 Cl
ATOM     87  Cl  UNL     1       1.208  -5.688   3.323  1.00  0.00    -0.083 Cl
ENDBRANCH  79  80
ENDBRANCH  71  79
ENDBRANCH  66  68
ENDBRANCH  65  66
ENDBRANCH  64  65
ENDBRANCH  63  64
ENDBRANCH   1  63
TORSDOF 16
