REMARK SMILES CCc1ccc(C(=O)NCc2ccc(C(=O)OCCOCCOC(=O)c3ccc(-c4c5nc(c(-c6c(F)cccc6F)c6ccc([nH]6)c(-c6c(F)cccc6F)c6nc(c(-c7c(F)cccc7F)c7ccc4[nH]7)C=C6)C=C5)cc3)cc2)cc1
REMARK SMILES IDX 19 1 18 2 17 3 15 4 16 5 14 6 11 7 12 8 81 9 13 10 80 11
REMARK SMILES IDX 10 12 9 13 7 14 8 15 6 17 3 18 4 19 83 20 5 21 82 22 2 23
REMARK SMILES IDX 1 24 20 25 21 26 22 27 23 28 24 29 25 30 26 31 27 32 79 33
REMARK SMILES IDX 28 34 78 35 29 36 30 37 31 38 72 39 32 40 77 41 71 42 73 43
REMARK SMILES IDX 33 44 76 45 70 46 69 47 34 49 60 50 43 51 59 52 44 53 47 54
REMARK SMILES IDX 58 55 74 56 45 57 46 58 57 60 75 61 48 62 35 63 36 64 41 65
REMARK SMILES IDX 37 66 38 67 40 68 42 69 39 70 61 71 62 72 67 73 63 74 64 75
REMARK SMILES IDX 66 76 68 77 65 78 49 79 50 80 55 81 51 82 52 83 54 84 56 85
REMARK SMILES IDX 53 86
REMARK H PARENT 9 16 73 48 47 59
REMARK Flexibility Score: inf
ROOT
ATOM      1  C   UNL     1       0.598  13.532   4.733  1.00  0.00     0.202 C 
ENDROOT
BRANCH   1   2
ATOM      2  C   UNL     1       1.941  13.167   4.096  1.00  0.00     0.261 C 
BRANCH   2   3
ATOM      3  O   UNL     1       1.742  12.397   2.898  1.00  0.00    -0.460 OA
BRANCH   3   4
ATOM      4  C   UNL     1       2.155  11.111   2.976  1.00  0.00     0.338 C 
ATOM      5  O   UNL     1       2.800  10.601   3.880  1.00  0.00    -0.246 OA
BRANCH   4   6
ATOM      6  C   UNL     1       1.562  10.320   1.876  1.00  0.00     0.060 A 
ATOM      7  C   UNL     1       0.524   8.649  -0.133  1.00  0.00    -0.029 A 
ATOM      8  C   UNL     1       0.666   8.185   1.181  1.00  0.00     0.006 A 
ATOM      9  C   UNL     1       0.852   9.988  -0.411  1.00  0.00     0.006 A 
ATOM     10  C   UNL     1       1.195   9.007   2.173  1.00  0.00     0.016 A 
ATOM     11  C   UNL     1       1.358  10.828   0.590  1.00  0.00     0.016 A 
BRANCH   7  12
ATOM     12  C   UNL     1       0.154   7.705  -1.254  1.00  0.00     0.152 C 
BRANCH  12  13
ATOM     13  N   UNL     1       1.361   7.227  -1.902  1.00  0.00    -0.348 N 
ATOM     14  C   UNL     1       2.043   6.043  -1.964  1.00  0.00     0.251 C 
ATOM     15  O   UNL     1       3.058   6.039  -2.666  1.00  0.00    -0.269 OA
ATOM     16  H   UNL     1       1.800   7.932  -2.431  1.00  0.00     0.164 HD
BRANCH  14  17
ATOM     17  C   UNL     1       1.652   4.775  -1.280  1.00  0.00     0.039 A 
ATOM     18  C   UNL     1       1.083   2.258  -0.075  1.00  0.00    -0.048 A 
ATOM     19  C   UNL     1       1.965   2.349  -1.154  1.00  0.00     0.004 A 
ATOM     20  C   UNL     1       0.517   3.442   0.410  1.00  0.00     0.004 A 
ATOM     21  C   UNL     1       2.243   3.589  -1.747  1.00  0.00     0.014 A 
ATOM     22  C   UNL     1       0.803   4.678  -0.182  1.00  0.00     0.014 A 
BRANCH  18  23
ATOM     23  C   UNL     1       0.724   0.965   0.619  1.00  0.00     0.032 C 
ATOM     24  C   UNL     1       1.195  -0.322  -0.042  1.00  0.00     0.009 C 
ENDBRANCH  18  23
ENDBRANCH  14  17
ENDBRANCH  12  13
ENDBRANCH   7  12
ENDBRANCH   4   6
ENDBRANCH   3   4
ENDBRANCH   2   3
ENDBRANCH   1   2
BRANCH   1  25
ATOM     25  O   UNL     1      -0.153  12.440   5.263  1.00  0.00    -0.374 OA
BRANCH  25  26
ATOM     26  C   UNL     1      -0.951  11.693   4.341  1.00  0.00     0.202 C 
BRANCH  26  27
ATOM     27  C   UNL     1      -2.303  12.315   3.974  1.00  0.00     0.261 C 
BRANCH  27  28
ATOM     28  O   UNL     1      -2.142  13.477   3.140  1.00  0.00    -0.460 OA
BRANCH  28  29
ATOM     29  C   UNL     1      -2.426  14.657   3.737  1.00  0.00     0.338 C 
ATOM     30  O   UNL     1      -2.875  14.833   4.860  1.00  0.00    -0.246 OA
BRANCH  29  31
ATOM     31  C   UNL     1      -1.948  15.767   2.893  1.00  0.00     0.060 A 
ATOM     32  C   UNL     1      -1.143  16.744   3.493  1.00  0.00     0.016 A 
ATOM     33  C   UNL     1      -2.330  15.885   1.555  1.00  0.00     0.016 A 
ATOM     34  C   UNL     1      -0.752  17.869   2.770  1.00  0.00     0.010 A 
ATOM     35  C   UNL     1      -1.946  17.020   0.834  1.00  0.00     0.010 A 
ATOM     36  C   UNL     1      -1.185  18.031   1.448  1.00  0.00    -0.014 A 
BRANCH  36  37
ATOM     37  C   UNL     1      -0.973  19.319   0.748  1.00  0.00     0.031 A 
ATOM     38  C   UNL     1      -2.109  20.301   0.679  1.00  0.00     0.074 A 
ATOM     39  C   UNL     1       0.207  19.608   0.174  1.00  0.00     0.049 A 
ATOM     40  N   UNL     1      -2.191  21.433   0.030  1.00  0.00    -0.248 NA
ATOM     41  C   UNL     1      -3.319  19.954   1.443  1.00  0.00     0.031 C 
ATOM     42  C   UNL     1       1.397  18.760   0.213  1.00  0.00     0.029 A 
ATOM     43  N   UNL     1       0.590  20.695  -0.570  1.00  0.00    -0.354 N 
ATOM     44  C   UNL     1      -3.462  21.928   0.295  1.00  0.00     0.074 A 
ATOM     45  C   UNL     1      -4.125  20.962   1.145  1.00  0.00     0.031 C 
ATOM     46  C   UNL     1       2.374  19.350  -0.497  1.00  0.00     0.029 A 
ATOM     47  C   UNL     1       1.866  20.596  -1.069  1.00  0.00     0.049 A 
ATOM     48  H   UNL     1       0.007  21.472  -0.732  1.00  0.00     0.167 HD
ATOM     49  C   UNL     1      -4.024  23.084  -0.131  1.00  0.00     0.037 A 
ATOM     50  C   UNL     1       2.533  21.404  -1.915  1.00  0.00     0.037 A 
ATOM     51  C   UNL     1      -3.362  24.042  -0.975  1.00  0.00     0.049 A 
ATOM     52  C   UNL     1       1.861  22.648  -2.434  1.00  0.00     0.074 A 
ATOM     53  C   UNL     1      -3.841  25.250  -1.451  1.00  0.00     0.029 A 
ATOM     54  N   UNL     1      -2.075  23.898  -1.471  1.00  0.00    -0.354 N 
ATOM     55  N   UNL     1       0.663  23.112  -2.173  1.00  0.00    -0.248 NA
ATOM     56  C   UNL     1       2.636  23.481  -3.366  1.00  0.00     0.031 C 
ATOM     57  C   UNL     1      -2.861  25.816  -2.272  1.00  0.00     0.029 A 
ATOM     58  C   UNL     1      -1.752  24.985  -2.266  1.00  0.00     0.049 A 
ATOM     59  H   UNL     1      -1.480  23.136  -1.286  1.00  0.00     0.167 HD
ATOM     60  C   UNL     1       0.553  24.304  -2.879  1.00  0.00     0.074 A 
ATOM     61  C   UNL     1       1.807  24.494  -3.577  1.00  0.00     0.031 C 
ATOM     62  C   UNL     1      -0.492  25.166  -2.940  1.00  0.00     0.037 A 
BRANCH  49  63
ATOM     63  C   UNL     1      -5.437  23.360   0.290  1.00  0.00     0.057 A 
ATOM     64  C   UNL     1      -5.763  23.712   1.606  1.00  0.00     0.134 A 
ATOM     65  C   UNL     1      -6.482  23.299  -0.641  1.00  0.00     0.134 A 
ATOM     66  F   UNL     1      -4.811  23.773   2.549  1.00  0.00    -0.206 F 
ATOM     67  C   UNL     1      -7.081  23.973   1.985  1.00  0.00     0.040 A 
ATOM     68  C   UNL     1      -7.800  23.581  -0.279  1.00  0.00     0.040 A 
ATOM     69  F   UNL     1      -6.237  22.970  -1.919  1.00  0.00    -0.206 F 
ATOM     70  C   UNL     1      -8.103  23.914   1.039  1.00  0.00     0.006 A 
ENDBRANCH  49  63
BRANCH  50  71
ATOM     71  C   UNL     1       3.910  21.055  -2.344  1.00  0.00     0.057 A 
ATOM     72  C   UNL     1       5.012  21.808  -1.923  1.00  0.00     0.134 A 
ATOM     73  C   UNL     1       4.155  19.973  -3.198  1.00  0.00     0.134 A 
ATOM     74  F   UNL     1       4.837  22.870  -1.124  1.00  0.00    -0.206 F 
ATOM     75  C   UNL     1       6.307  21.507  -2.348  1.00  0.00     0.040 A 
ATOM     76  C   UNL     1       5.448  19.646  -3.611  1.00  0.00     0.040 A 
ATOM     77  F   UNL     1       3.141  19.212  -3.636  1.00  0.00    -0.206 F 
ATOM     78  C   UNL     1       6.528  20.419  -3.191  1.00  0.00     0.006 A 
ENDBRANCH  50  71
BRANCH  62  79
ATOM     79  C   UNL     1      -0.308  26.418  -3.747  1.00  0.00     0.057 A 
ATOM     80  C   UNL     1      -0.306  26.406  -5.146  1.00  0.00     0.134 A 
ATOM     81  C   UNL     1      -0.183  27.660  -3.109  1.00  0.00     0.134 A 
ATOM     82  F   UNL     1      -0.410  25.248  -5.817  1.00  0.00    -0.206 F 
ATOM     83  C   UNL     1      -0.169  27.583  -5.884  1.00  0.00     0.040 A 
ATOM     84  C   UNL     1      -0.070  28.845  -3.836  1.00  0.00     0.040 A 
ATOM     85  F   UNL     1      -0.186  27.741  -1.770  1.00  0.00    -0.206 F 
ATOM     86  C   UNL     1      -0.059  28.808  -5.228  1.00  0.00     0.006 A 
ENDBRANCH  62  79
ENDBRANCH  36  37
ENDBRANCH  29  31
ENDBRANCH  28  29
ENDBRANCH  27  28
ENDBRANCH  26  27
ENDBRANCH  25  26
ENDBRANCH   1  25
TORSDOF 18
