REMARK SMILES Cc1ccc(/C=C(\NC(=O)c2cccc(C)c2)C(=O)OCCOCCOC(=O)c2ccc(-c3c4nc(c(-c5c(F)cccc5F)c5ccc([nH]5)c(-c5c(F)cccc5F)c5nc(c(-c6c(F)cccc6F)c6ccc3[nH]6)C=C5)C=C4)cc2)cc1
REMARK SMILES IDX 23 1 22 2 21 3 20 4 18 5 19 6 7 7 6 8 5 9 1 10 2 11 3 12
REMARK SMILES IDX 84 13 4 14 83 15 8 16 9 17 10 19 11 20 12 21 17 22 13 23
REMARK SMILES IDX 15 24 14 25 16 26 24 27 25 28 26 29 27 30 28 31 29 32 30 33
REMARK SMILES IDX 82 34 31 35 81 36 32 37 33 38 34 39 75 40 35 41 80 42 74 43
REMARK SMILES IDX 76 44 36 45 79 46 73 47 72 48 37 50 63 51 46 52 62 53 47 54
REMARK SMILES IDX 50 55 61 56 77 57 48 58 49 59 60 61 78 62 51 63 38 64 39 65
REMARK SMILES IDX 44 66 40 67 41 68 43 69 45 70 42 71 64 72 65 73 70 74 66 75
REMARK SMILES IDX 67 76 69 77 71 78 68 79 52 80 53 81 58 82 54 83 55 84 57 85
REMARK SMILES IDX 59 86 56 87
REMARK H PARENT 8 18 76 49 50 60
REMARK Flexibility Score: inf
ROOT
ATOM      1  O   UNL     1      -6.697  -0.708   2.236  1.00  0.00    -0.374 OA
ENDROOT
BRANCH   1   2
ATOM      2  C   UNL     1      -6.784  -2.114   2.344  1.00  0.00     0.202 C 
BRANCH   2   3
ATOM      3  C   UNL     1      -5.918  -2.571   1.264  1.00  0.00     0.261 C 
BRANCH   3   4
ATOM      4  O   UNL     1      -4.746  -1.801   1.337  1.00  0.00    -0.459 OA
BRANCH   4   5
ATOM      5  C   UNL     1      -4.666  -1.034   0.226  1.00  0.00     0.354 C 
ATOM      6  O   UNL     1      -5.127   0.075   0.028  1.00  0.00    -0.244 OA
BRANCH   5   7
ATOM      7  C   UNL     1      -3.496  -1.627  -0.427  1.00  0.00     0.128 C 
ATOM      8  C   UNL     1      -2.581  -0.636  -0.420  1.00  0.00     0.042 C 
BRANCH   8   9
ATOM      9  C   UNL     1      -1.134  -0.471  -0.382  1.00  0.00    -0.023 A 
ATOM     10  C   UNL     1       3.070   0.280   0.081  1.00  0.00     0.044 C 
ATOM     11  C   UNL     1       1.597   0.043  -0.017  1.00  0.00    -0.051 A 
ATOM     12  C   UNL     1       1.109  -1.270  -0.089  1.00  0.00     0.004 A 
ATOM     13  C   UNL     1       0.705   1.111  -0.071  1.00  0.00     0.004 A 
ATOM     14  C   UNL     1      -0.249  -1.528  -0.267  1.00  0.00     0.008 A 
ATOM     15  C   UNL     1      -0.649   0.853  -0.255  1.00  0.00     0.008 A 
ENDBRANCH   8   9
BRANCH   7  16
ATOM     16  N   UNL     1      -3.458  -3.010  -0.595  1.00  0.00    -0.316 N 
ATOM     17  C   UNL     1      -4.413  -4.083  -0.545  1.00  0.00     0.255 C 
ATOM     18  H   UNL     1      -2.550  -3.333  -0.798  1.00  0.00     0.170 HD
ATOM     19  O   UNL     1      -3.875  -5.131  -0.140  1.00  0.00    -0.269 OA
BRANCH  17  20
ATOM     20  C   UNL     1      -5.991  -4.290  -0.929  1.00  0.00     0.040 A 
ATOM     21  C   UNL     1      -6.386  -5.991  -0.887  1.00  0.00     0.014 A 
ATOM     22  C   UNL     1      -7.092  -3.396  -2.005  1.00  0.00     0.017 A 
ATOM     23  C   UNL     1      -7.760  -6.779  -2.136  1.00  0.00     0.001 A 
ATOM     24  C   UNL     1      -8.284  -4.041  -3.203  1.00  0.00    -0.050 A 
ATOM     25  C   UNL     1      -8.630  -5.731  -3.277  1.00  0.00     0.003 A 
ATOM     26  C   UNL     1      -8.945  -3.074  -4.147  1.00  0.00     0.044 C 
ENDBRANCH  17  20
ENDBRANCH   7  16
ENDBRANCH   5   7
ENDBRANCH   4   5
ENDBRANCH   3   4
ENDBRANCH   2   3
ENDBRANCH   1   2
BRANCH   1  27
ATOM     27  C   UNL     1      -6.338  -0.036   3.415  1.00  0.00     0.202 C 
BRANCH  27  28
ATOM     28  C   UNL     1      -7.459  -0.317   4.406  1.00  0.00     0.261 C 
BRANCH  28  29
ATOM     29  O   UNL     1      -8.741   0.043   3.778  1.00  0.00    -0.460 OA
BRANCH  29  30
ATOM     30  C   UNL     1      -9.383  -0.896   2.998  1.00  0.00     0.338 C 
ATOM     31  O   UNL     1      -9.693  -2.011   3.398  1.00  0.00    -0.246 OA
BRANCH  30  32
ATOM     32  C   UNL     1      -9.380  -0.506   1.514  1.00  0.00     0.060 A 
ATOM     33  C   UNL     1      -9.661  -1.430   0.497  1.00  0.00     0.016 A 
ATOM     34  C   UNL     1      -8.657   0.621   1.139  1.00  0.00     0.016 A 
ATOM     35  C   UNL     1      -9.025  -1.304  -0.774  1.00  0.00     0.010 A 
ATOM     36  C   UNL     1      -7.859   0.587  -0.024  1.00  0.00     0.010 A 
ATOM     37  C   UNL     1      -7.936  -0.425  -0.990  1.00  0.00    -0.014 A 
BRANCH  37  38
ATOM     38  C   UNL     1      -7.089  -0.264  -2.317  1.00  0.00     0.031 A 
ATOM     39  C   UNL     1      -7.878   0.667  -3.171  1.00  0.00     0.074 A 
ATOM     40  C   UNL     1      -5.952  -0.909  -2.868  1.00  0.00     0.049 A 
ATOM     41  N   UNL     1      -8.156   0.497  -4.421  1.00  0.00    -0.248 NA
ATOM     42  C   UNL     1      -8.681   1.774  -2.586  1.00  0.00     0.031 C 
ATOM     43  C   UNL     1      -5.196  -0.739  -4.122  1.00  0.00     0.029 A 
ATOM     44  N   UNL     1      -5.259  -2.115  -2.487  1.00  0.00    -0.354 N 
ATOM     45  C   UNL     1      -8.629   1.740  -4.793  1.00  0.00     0.074 A 
ATOM     46  C   UNL     1      -9.325   2.227  -3.656  1.00  0.00     0.031 C 
ATOM     47  C   UNL     1      -4.645  -1.928  -4.521  1.00  0.00     0.029 A 
ATOM     48  C   UNL     1      -5.116  -2.994  -3.613  1.00  0.00     0.049 A 
ATOM     49  H   UNL     1      -4.929  -2.309  -1.580  1.00  0.00     0.167 HD
ATOM     50  C   UNL     1      -7.920   2.417  -5.739  1.00  0.00     0.037 A 
ATOM     51  C   UNL     1      -5.714  -4.257  -3.880  1.00  0.00     0.037 A 
ATOM     52  C   UNL     1      -7.089   1.474  -6.495  1.00  0.00     0.049 A 
ATOM     53  C   UNL     1      -6.180  -4.144  -5.374  1.00  0.00     0.074 A 
ATOM     54  C   UNL     1      -5.726   1.308  -6.654  1.00  0.00     0.029 A 
ATOM     55  N   UNL     1      -7.673   0.297  -6.963  1.00  0.00    -0.354 N 
ATOM     56  N   UNL     1      -6.390  -2.967  -5.919  1.00  0.00    -0.248 NA
ATOM     57  C   UNL     1      -6.481  -5.201  -6.338  1.00  0.00     0.031 C 
ATOM     58  C   UNL     1      -5.501  -0.003  -7.183  1.00  0.00     0.029 A 
ATOM     59  C   UNL     1      -6.725  -0.635  -7.337  1.00  0.00     0.049 A 
ATOM     60  H   UNL     1      -8.644   0.149  -7.020  1.00  0.00     0.167 HD
ATOM     61  C   UNL     1      -6.831  -3.050  -7.203  1.00  0.00     0.074 A 
ATOM     62  C   UNL     1      -6.854  -4.488  -7.428  1.00  0.00     0.031 C 
ATOM     63  C   UNL     1      -7.168  -1.915  -7.901  1.00  0.00     0.037 A 
BRANCH  50  64
ATOM     64  C   UNL     1      -7.746   3.937  -5.752  1.00  0.00     0.057 A 
ATOM     65  C   UNL     1      -7.003   4.519  -6.794  1.00  0.00     0.134 A 
ATOM     66  C   UNL     1      -8.178   4.878  -4.780  1.00  0.00     0.134 A 
ATOM     67  F   UNL     1      -6.511   3.776  -7.795  1.00  0.00    -0.206 F 
ATOM     68  C   UNL     1      -6.717   5.892  -6.865  1.00  0.00     0.040 A 
ATOM     69  C   UNL     1      -7.931   6.257  -4.861  1.00  0.00     0.040 A 
ATOM     70  F   UNL     1      -8.829   4.552  -3.661  1.00  0.00    -0.206 F 
ATOM     71  C   UNL     1      -7.192   6.771  -5.906  1.00  0.00     0.006 A 
ENDBRANCH  50  64
BRANCH  51  72
ATOM     72  C   UNL     1      -6.549  -5.374  -2.714  1.00  0.00     0.057 A 
ATOM     73  C   UNL     1      -5.707  -6.989  -2.594  1.00  0.00     0.134 A 
ATOM     74  C   UNL     1      -8.003  -5.107  -1.309  1.00  0.00     0.134 A 
ATOM     75  F   UNL     1      -4.616  -7.266  -3.315  1.00  0.00    -0.206 F 
ATOM     76  C   UNL     1      -6.200  -8.143  -1.300  1.00  0.00     0.040 A 
ATOM     77  C   UNL     1      -8.384  -6.329  -0.086  1.00  0.00     0.040 A 
ATOM     78  F   UNL     1      -8.903  -4.091  -1.095  1.00  0.00    -0.206 F 
ATOM     79  C   UNL     1      -7.484  -7.800  -0.101  1.00  0.00     0.006 A 
ENDBRANCH  51  72
BRANCH  63  80
ATOM     80  C   UNL     1      -7.937  -1.833  -9.209  1.00  0.00     0.057 A 
ATOM     81  C   UNL     1      -8.719  -2.862  -9.736  1.00  0.00     0.134 A 
ATOM     82  C   UNL     1      -8.013  -0.609  -9.932  1.00  0.00     0.134 A 
ATOM     83  F   UNL     1      -8.902  -4.015  -9.081  1.00  0.00    -0.206 F 
ATOM     84  C   UNL     1      -9.417  -2.731 -10.945  1.00  0.00     0.040 A 
ATOM     85  C   UNL     1      -8.773  -0.442 -11.090  1.00  0.00     0.040 A 
ATOM     86  F   UNL     1      -7.372   0.503  -9.543  1.00  0.00    -0.206 F 
ATOM     87  C   UNL     1      -9.446  -1.521 -11.626  1.00  0.00     0.006 A 
ENDBRANCH  63  80
ENDBRANCH  37  38
ENDBRANCH  30  32
ENDBRANCH  29  30
ENDBRANCH  28  29
ENDBRANCH  27  28
ENDBRANCH   1  27
TORSDOF 17
