REMARK SMILES COc1ccc(C(F)(F)F)cc1-c1cc(N)cc(C(=O)OCCOCCOC(=O)c2ccc(-c3c4nc(c(-c5c(F)cccc5F)c5ccc([nH]5)c(-c5c(F)cccc5F)c5nc(c(-c6c(F)cccc6F)c6ccc3[nH]6)C=C5)C=C4)cc2)c1
REMARK SMILES IDX 24 1 23 2 22 3 21 4 19 5 20 6 18 7 13 8 14 9 84 10 15 11
REMARK SMILES IDX 17 12 12 13 3 14 4 15 5 16 11 17 6 18 2 19 1 20 7 21 8 22
REMARK SMILES IDX 9 23 10 24 16 25 25 28 26 29 27 30 28 31 29 32 30 33 31 34
REMARK SMILES IDX 83 35 32 36 82 37 33 38 34 39 35 40 76 41 36 42 81 43 75 44
REMARK SMILES IDX 77 45 37 46 80 47 74 48 73 49 38 51 64 52 47 53 63 54 48 55
REMARK SMILES IDX 51 56 62 57 78 58 49 59 50 60 61 62 79 63 52 64 39 65 40 66
REMARK SMILES IDX 45 67 41 68 42 69 44 70 46 71 43 72 65 73 66 74 71 75 67 76
REMARK SMILES IDX 68 77 70 78 72 79 69 80 53 81 54 82 59 83 55 84 56 85 58 86
REMARK SMILES IDX 60 87 57 88
REMARK H PARENT 16 26 16 27 77 50 51 61
REMARK Flexibility Score: inf
ROOT
ATOM      1  O   UNL     1       6.933  -2.771   3.704  1.00  0.00    -0.374 OA
ENDROOT
BRANCH   1   2
ATOM      2  C   UNL     1       5.690  -3.116   4.316  1.00  0.00     0.202 C 
BRANCH   2   3
ATOM      3  C   UNL     1       4.601  -2.039   4.292  1.00  0.00     0.261 C 
BRANCH   3   4
ATOM      4  O   UNL     1       4.155  -1.806   2.946  1.00  0.00    -0.460 OA
BRANCH   4   5
ATOM      5  C   UNL     1       4.443  -0.583   2.444  1.00  0.00     0.338 C 
ATOM      6  O   UNL     1       4.864   0.384   3.064  1.00  0.00    -0.246 OA
BRANCH   5   7
ATOM      7  C   UNL     1       4.349  -0.613   0.967  1.00  0.00     0.062 A 
ATOM      8  C   UNL     1       3.294  -1.328  -1.105  1.00  0.00    -0.012 A 
ATOM      9  C   UNL     1       4.215  -0.515  -1.800  1.00  0.00     0.034 A 
ATOM     10  C   UNL     1       3.419  -1.409   0.292  1.00  0.00     0.024 A 
ATOM     11  C   UNL     1       5.216   0.206  -1.141  1.00  0.00     0.033 A 
ATOM     12  C   UNL     1       5.240   0.192   0.248  1.00  0.00     0.041 A 
BRANCH   8  13
ATOM     13  C   UNL     1       2.186  -2.000  -1.823  1.00  0.00     0.024 A 
ATOM     14  C   UNL     1       0.852  -1.980  -1.362  1.00  0.00     0.126 A 
ATOM     15  C   UNL     1      -0.168  -2.640  -2.056  1.00  0.00     0.047 A 
ATOM     16  C   UNL     1       0.106  -3.293  -3.255  1.00  0.00     0.017 A 
ATOM     17  C   UNL     1       2.435  -2.678  -3.036  1.00  0.00     0.025 A 
ATOM     18  C   UNL     1       1.410  -3.315  -3.763  1.00  0.00     0.056 A 
BRANCH  14  19
ATOM     19  O   UNL     1       0.474  -1.389  -0.179  1.00  0.00    -0.496 OA
ATOM     20  C   UNL     1       0.430   0.035  -0.285  1.00  0.00     0.278 C 
ENDBRANCH  14  19
BRANCH  18  21
ATOM     21  C   UNL     1       1.696  -4.022  -5.067  1.00  0.00     0.416 C 
ATOM     22  F   UNL     1       1.424  -5.354  -5.008  1.00  0.00    -0.166 F 
ATOM     23  F   UNL     1       0.952  -3.532  -6.097  1.00  0.00    -0.166 F 
ATOM     24  F   UNL     1       2.994  -3.922  -5.467  1.00  0.00    -0.166 F 
ENDBRANCH  18  21
ENDBRANCH   8  13
BRANCH  11  25
ATOM     25  N   UNL     1       6.073   1.034  -1.847  1.00  0.00    -0.399 N 
ATOM     26  H   UNL     1       6.052   1.040  -2.831  1.00  0.00     0.156 HD
ATOM     27  H   UNL     1       6.704   1.616  -1.365  1.00  0.00     0.156 HD
ENDBRANCH  11  25
ENDBRANCH   5   7
ENDBRANCH   4   5
ENDBRANCH   3   4
ENDBRANCH   2   3
ENDBRANCH   1   2
BRANCH   1  28
ATOM     28  C   UNL     1       7.004  -2.843   2.279  1.00  0.00     0.202 C 
BRANCH  28  29
ATOM     29  C   UNL     1       7.219  -4.233   1.671  1.00  0.00     0.261 C 
BRANCH  29  30
ATOM     30  O   UNL     1       6.108  -5.112   1.920  1.00  0.00    -0.460 OA
BRANCH  30  31
ATOM     31  C   UNL     1       6.348  -6.074   2.839  1.00  0.00     0.338 C 
ATOM     32  O   UNL     1       7.407  -6.315   3.402  1.00  0.00    -0.246 OA
BRANCH  31  33
ATOM     33  C   UNL     1       5.088  -6.734   3.224  1.00  0.00     0.060 A 
ATOM     34  C   UNL     1       4.808  -6.837   4.593  1.00  0.00     0.016 A 
ATOM     35  C   UNL     1       4.241  -7.315   2.279  1.00  0.00     0.016 A 
ATOM     36  C   UNL     1       3.712  -7.578   5.026  1.00  0.00     0.010 A 
ATOM     37  C   UNL     1       3.144  -8.065   2.716  1.00  0.00     0.010 A 
ATOM     38  C   UNL     1       2.901  -8.235   4.091  1.00  0.00    -0.014 A 
BRANCH  38  39
ATOM     39  C   UNL     1       1.908  -9.230   4.561  1.00  0.00     0.031 A 
ATOM     40  C   UNL     1       2.264 -10.691   4.506  1.00  0.00     0.074 A 
ATOM     41  C   UNL     1       0.725  -8.841   5.066  1.00  0.00     0.049 A 
ATOM     42  N   UNL     1       1.545 -11.734   4.834  1.00  0.00    -0.248 NA
ATOM     43  C   UNL     1       3.612 -11.018   4.015  1.00  0.00     0.031 C 
ATOM     44  C   UNL     1       0.283  -7.455   5.213  1.00  0.00     0.029 A 
ATOM     45  N   UNL     1      -0.325  -9.583   5.545  1.00  0.00    -0.354 N 
ATOM     46  C   UNL     1       2.350 -12.839   4.583  1.00  0.00     0.074 A 
ATOM     47  C   UNL     1       3.598 -12.342   4.046  1.00  0.00     0.031 C 
ATOM     48  C   UNL     1      -0.954  -7.447   5.741  1.00  0.00     0.029 A 
ATOM     49  C   UNL     1      -1.399  -8.825   5.939  1.00  0.00     0.049 A 
ATOM     50  H   UNL     1      -0.308 -10.566   5.601  1.00  0.00     0.167 HD
ATOM     51  C   UNL     1       2.078 -14.149   4.792  1.00  0.00     0.037 A 
ATOM     52  C   UNL     1      -2.611  -9.205   6.390  1.00  0.00     0.037 A 
ATOM     53  C   UNL     1       0.836 -14.642   5.328  1.00  0.00     0.049 A 
ATOM     54  C   UNL     1      -2.916 -10.671   6.545  1.00  0.00     0.074 A 
ATOM     55  C   UNL     1       0.466 -15.951   5.582  1.00  0.00     0.029 A 
ATOM     56  N   UNL     1      -0.239 -13.844   5.687  1.00  0.00    -0.354 N 
ATOM     57  N   UNL     1      -2.144 -11.707   6.320  1.00  0.00    -0.248 NA
ATOM     58  C   UNL     1      -4.262 -11.021   7.022  1.00  0.00     0.031 C 
ATOM     59  C   UNL     1      -0.851 -15.948   6.055  1.00  0.00     0.029 A 
ATOM     60  C   UNL     1      -1.282 -14.634   6.143  1.00  0.00     0.049 A 
ATOM     61  H   UNL     1      -0.259 -12.862   5.627  1.00  0.00     0.167 HD
ATOM     62  C   UNL     1      -2.896 -12.825   6.661  1.00  0.00     0.074 A 
ATOM     63  C   UNL     1      -4.183 -12.340   7.114  1.00  0.00     0.031 C 
ATOM     64  C   UNL     1      -2.551 -14.135   6.607  1.00  0.00     0.037 A 
BRANCH  51  65
ATOM     65  C   UNL     1       3.138 -15.143   4.418  1.00  0.00     0.057 A 
ATOM     66  C   UNL     1       4.317 -15.282   5.160  1.00  0.00     0.134 A 
ATOM     67  C   UNL     1       2.965 -15.989   3.315  1.00  0.00     0.134 A 
ATOM     68  F   UNL     1       4.552 -14.491   6.219  1.00  0.00    -0.206 F 
ATOM     69  C   UNL     1       5.297 -16.212   4.807  1.00  0.00     0.040 A 
ATOM     70  C   UNL     1       3.926 -16.940   2.967  1.00  0.00     0.040 A 
ATOM     71  F   UNL     1       1.857 -15.911   2.563  1.00  0.00    -0.206 F 
ATOM     72  C   UNL     1       5.099 -17.049   3.711  1.00  0.00     0.006 A 
ENDBRANCH  51  65
BRANCH  52  73
ATOM     73  C   UNL     1      -3.635  -8.183   6.722  1.00  0.00     0.057 A 
ATOM     74  C   UNL     1      -4.043  -7.968   8.044  1.00  0.00     0.134 A 
ATOM     75  C   UNL     1      -4.251  -7.417   5.725  1.00  0.00     0.134 A 
ATOM     76  F   UNL     1      -3.507  -8.688   9.041  1.00  0.00    -0.206 F 
ATOM     77  C   UNL     1      -5.039  -7.043   8.360  1.00  0.00     0.040 A 
ATOM     78  C   UNL     1      -5.230  -6.471   6.029  1.00  0.00     0.040 A 
ATOM     79  F   UNL     1      -3.905  -7.576   4.439  1.00  0.00    -0.206 F 
ATOM     80  C   UNL     1      -5.633  -6.288   7.351  1.00  0.00     0.006 A 
ENDBRANCH  52  73
BRANCH  64  81
ATOM     81  C   UNL     1      -3.558 -15.134   7.097  1.00  0.00     0.057 A 
ATOM     82  C   UNL     1      -4.716 -15.441   6.371  1.00  0.00     0.134 A 
ATOM     83  C   UNL     1      -3.343 -15.829   8.295  1.00  0.00     0.134 A 
ATOM     84  F   UNL     1      -4.987 -14.803   5.223  1.00  0.00    -0.206 F 
ATOM     85  C   UNL     1      -5.635 -16.386   6.831  1.00  0.00     0.040 A 
ATOM     86  C   UNL     1      -4.241 -16.794   8.751  1.00  0.00     0.040 A 
ATOM     87  F   UNL     1      -2.248 -15.591   9.034  1.00  0.00    -0.206 F 
ATOM     88  C   UNL     1      -5.395 -17.070   8.021  1.00  0.00     0.006 A 
ENDBRANCH  64  81
ENDBRANCH  38  39
ENDBRANCH  31  33
ENDBRANCH  30  31
ENDBRANCH  29  30
ENDBRANCH  28  29
ENDBRANCH   1  28
TORSDOF 18
