REMARK SMILES COc1cccc([C@@H]2[NH2+][C@@](C)(C(=O)OCCOCCOC(=O)c3ccc(-c4c5nc(c(-c6c(F)cccc6F)c6ccc([nH]6)c(-c6c(F)cccc6F)c6nc(c(-c7c(F)cccc7F)c7ccc4[nH]7)C=C6)C=C5)cc3)[C@@H]3C(=O)N(C)C(=O)[C@@H]32)c1O
REMARK SMILES IDX 17 1 16 2 15 3 14 4 12 5 13 6 10 7 8 8 9 9 84 10 77 13 82 14
REMARK SMILES IDX 11 15 78 16 80 17 83 18 79 19 81 20 7 21 3 22 4 23 85 24
REMARK SMILES IDX 5 25 6 26 2 27 1 28 86 29 18 31 19 32 20 33 21 34 22 35
REMARK SMILES IDX 23 36 24 37 76 38 25 39 75 40 26 41 27 42 28 43 69 44 29 45
REMARK SMILES IDX 74 46 68 47 70 48 30 49 73 50 67 51 66 52 31 54 57 55 40 56
REMARK SMILES IDX 56 57 41 58 44 59 55 60 71 61 42 62 43 63 54 65 72 66 45 67
REMARK SMILES IDX 32 68 33 69 38 70 34 71 35 72 37 73 39 74 36 75 58 76 59 77
REMARK SMILES IDX 64 78 60 79 61 80 63 81 65 82 62 83 46 84 47 85 52 86 48 87
REMARK SMILES IDX 49 88 51 89 53 90 50 91
REMARK H PARENT 9 11 9 12 86 30 70 53 44 64
REMARK Flexibility Score: inf
ROOT
ATOM      1  O   UNL     1       0.149  -8.768  -0.812  1.00  0.00    -0.374 OA
ENDROOT
BRANCH   1   2
ATOM      2  C   UNL     1      -1.008  -9.013  -0.020  1.00  0.00     0.202 C 
BRANCH   2   3
ATOM      3  C   UNL     1      -1.425  -7.970   1.023  1.00  0.00     0.261 C 
BRANCH   3   4
ATOM      4  O   UNL     1      -1.506  -6.630   0.512  1.00  0.00    -0.459 OA
BRANCH   4   5
ATOM      5  C   UNL     1      -0.471  -5.832   0.893  1.00  0.00     0.368 C 
ATOM      6  O   UNL     1       0.432  -6.205   1.641  1.00  0.00    -0.245 OA
BRANCH   5   7
ATOM      7  C   UNL     1      -0.531  -4.374   0.359  1.00  0.00     0.204 C 
ATOM      8  C   UNL     1      -0.568  -3.755  -2.007  1.00  0.00     0.232 C 
ATOM      9  N   UNL     1      -1.398  -4.204  -0.858  1.00  0.00    -0.325 N 
ATOM     10  C   UNL     1       0.861  -4.128  -1.624  1.00  0.00     0.161 C 
ATOM     11  H   UNL     1      -1.839  -5.095  -1.086  1.00  0.00     0.347 HD
ATOM     12  H   UNL     1      -2.115  -3.505  -0.666  1.00  0.00     0.347 HD
ATOM     13  C   UNL     1       0.893  -4.070  -0.104  1.00  0.00     0.170 C 
ATOM     14  C   UNL     1       1.947  -3.172  -2.018  1.00  0.00     0.239 C 
ATOM     15  C   UNL     1      -1.099  -3.639   1.582  1.00  0.00     0.093 C 
ATOM     16  C   UNL     1       1.523  -2.736   0.182  1.00  0.00     0.240 C 
ATOM     17  N   UNL     1       2.221  -2.373  -0.942  1.00  0.00    -0.285 N 
ATOM     18  O   UNL     1       2.461  -3.122  -3.125  1.00  0.00    -0.274 OA
ATOM     19  O   UNL     1       1.508  -2.150   1.253  1.00  0.00    -0.274 OA
ATOM     20  C   UNL     1       3.143  -1.269  -1.016  1.00  0.00     0.156 C 
BRANCH   8  21
ATOM     21  C   UNL     1      -0.730  -2.309  -2.485  1.00  0.00     0.056 A 
ATOM     22  C   UNL     1      -0.648   0.107  -2.096  1.00  0.00     0.161 A 
ATOM     23  C   UNL     1      -0.450   0.358  -3.444  1.00  0.00     0.050 A 
ATOM     24  C   UNL     1      -0.861  -1.202  -1.644  1.00  0.00     0.166 A 
ATOM     25  C   UNL     1      -0.425  -0.716  -4.331  1.00  0.00     0.005 A 
ATOM     26  C   UNL     1      -0.545  -2.031  -3.856  1.00  0.00     0.014 A 
BRANCH  22  27
ATOM     27  O   UNL     1      -0.695   1.154  -1.210  1.00  0.00    -0.493 OA
ATOM     28  C   UNL     1       0.522   1.249  -0.458  1.00  0.00     0.278 C 
ENDBRANCH  22  27
BRANCH  24  29
ATOM     29  O   UNL     1      -1.206  -1.377  -0.342  1.00  0.00    -0.504 OA
ATOM     30  H   UNL     1      -1.294  -0.635   0.223  1.00  0.00     0.293 HD
ENDBRANCH  24  29
ENDBRANCH   8  21
ENDBRANCH   5   7
ENDBRANCH   4   5
ENDBRANCH   3   4
ENDBRANCH   2   3
ENDBRANCH   1   2
BRANCH   1  31
ATOM     31  C   UNL     1       0.077  -7.746  -1.801  1.00  0.00     0.202 C 
BRANCH  31  32
ATOM     32  C   UNL     1      -0.814  -7.964  -3.028  1.00  0.00     0.261 C 
BRANCH  32  33
ATOM     33  O   UNL     1      -2.202  -8.105  -2.686  1.00  0.00    -0.460 OA
BRANCH  33  34
ATOM     34  C   UNL     1      -2.722  -9.326  -2.957  1.00  0.00     0.338 C 
ATOM     35  O   UNL     1      -2.176 -10.257  -3.522  1.00  0.00    -0.246 OA
BRANCH  34  36
ATOM     36  C   UNL     1      -4.029  -9.474  -2.292  1.00  0.00     0.060 A 
ATOM     37  C   UNL     1      -4.184 -10.559  -1.419  1.00  0.00     0.016 A 
ATOM     38  C   UNL     1      -5.104  -8.635  -2.588  1.00  0.00     0.016 A 
ATOM     39  C   UNL     1      -5.434 -10.847  -0.883  1.00  0.00     0.010 A 
ATOM     40  C   UNL     1      -6.364  -8.934  -2.060  1.00  0.00     0.010 A 
ATOM     41  C   UNL     1      -6.540 -10.065  -1.242  1.00  0.00    -0.014 A 
BRANCH  41  42
ATOM     42  C   UNL     1      -7.897 -10.545  -0.898  1.00  0.00     0.031 A 
ATOM     43  C   UNL     1      -8.683 -11.296  -1.938  1.00  0.00     0.074 A 
ATOM     44  C   UNL     1      -8.399 -10.363   0.336  1.00  0.00     0.049 A 
ATOM     45  N   UNL     1      -9.885 -11.805  -1.863  1.00  0.00    -0.248 NA
ATOM     46  C   UNL     1      -8.022 -11.503  -3.237  1.00  0.00     0.031 C 
ATOM     47  C   UNL     1      -7.710  -9.693   1.437  1.00  0.00     0.029 A 
ATOM     48  N   UNL     1      -9.608 -10.730   0.867  1.00  0.00    -0.354 N 
ATOM     49  C   UNL     1     -10.128 -12.383  -3.103  1.00  0.00     0.074 A 
ATOM     50  C   UNL     1      -8.960 -12.142  -3.921  1.00  0.00     0.031 C 
ATOM     51  C   UNL     1      -8.512  -9.692   2.515  1.00  0.00     0.029 A 
ATOM     52  C   UNL     1      -9.779 -10.334   2.170  1.00  0.00     0.049 A 
ATOM     53  H   UNL     1     -10.289 -11.231   0.361  1.00  0.00     0.167 HD
ATOM     54  C   UNL     1     -11.223 -13.062  -3.517  1.00  0.00     0.037 A 
ATOM     55  C   UNL     1     -10.846 -10.461   2.981  1.00  0.00     0.037 A 
ATOM     56  C   UNL     1     -12.379 -13.308  -2.696  1.00  0.00     0.049 A 
ATOM     57  C   UNL     1     -12.079 -11.160   2.471  1.00  0.00     0.074 A 
ATOM     58  C   UNL     1     -13.530 -14.006  -3.015  1.00  0.00     0.029 A 
ATOM     59  N   UNL     1     -12.530 -12.857  -1.394  1.00  0.00    -0.354 N 
ATOM     60  N   UNL     1     -12.287 -11.727   1.307  1.00  0.00    -0.248 NA
ATOM     61  C   UNL     1     -13.225 -11.237   3.389  1.00  0.00     0.031 C 
ATOM     62  C   UNL     1     -14.399 -13.936  -1.921  1.00  0.00     0.029 A 
ATOM     63  C   UNL     1     -13.768 -13.238  -0.904  1.00  0.00     0.049 A 
ATOM     64  H   UNL     1     -11.857 -12.342  -0.892  1.00  0.00     0.167 HD
ATOM     65  C   UNL     1     -13.572 -12.255   1.365  1.00  0.00     0.074 A 
ATOM     66  C   UNL     1     -14.090 -11.949   2.682  1.00  0.00     0.031 C 
ATOM     67  C   UNL     1     -14.260 -12.934   0.414  1.00  0.00     0.037 A 
BRANCH  54  68
ATOM     68  C   UNL     1     -11.236 -13.563  -4.931  1.00  0.00     0.057 A 
ATOM     69  C   UNL     1     -10.456 -14.652  -5.340  1.00  0.00     0.134 A 
ATOM     70  C   UNL     1     -12.074 -12.973  -5.886  1.00  0.00     0.134 A 
ATOM     71  F   UNL     1      -9.620 -15.251  -4.478  1.00  0.00    -0.206 F 
ATOM     72  C   UNL     1     -10.496 -15.126  -6.652  1.00  0.00     0.040 A 
ATOM     73  C   UNL     1     -12.141 -13.453  -7.195  1.00  0.00     0.040 A 
ATOM     74  F   UNL     1     -12.850 -11.928  -5.559  1.00  0.00    -0.206 F 
ATOM     75  C   UNL     1     -11.347 -14.531  -7.582  1.00  0.00     0.006 A 
ENDBRANCH  54  68
BRANCH  55  76
ATOM     76  C   UNL     1     -10.810  -9.906   4.358  1.00  0.00     0.057 A 
ATOM     77  C   UNL     1     -10.821 -10.744   5.479  1.00  0.00     0.134 A 
ATOM     78  C   UNL     1     -10.798  -8.525   4.585  1.00  0.00     0.134 A 
ATOM     79  F   UNL     1     -10.857 -12.076   5.326  1.00  0.00    -0.206 F 
ATOM     80  C   UNL     1     -10.843 -10.229   6.777  1.00  0.00     0.040 A 
ATOM     81  C   UNL     1     -10.794  -7.996   5.877  1.00  0.00     0.040 A 
ATOM     82  F   UNL     1     -10.787  -7.668   3.554  1.00  0.00    -0.206 F 
ATOM     83  C   UNL     1     -10.826  -8.850   6.978  1.00  0.00     0.006 A 
ENDBRANCH  55  76
BRANCH  67  84
ATOM     84  C   UNL     1     -15.630 -13.428   0.778  1.00  0.00     0.057 A 
ATOM     85  C   UNL     1     -16.721 -12.559   0.903  1.00  0.00     0.134 A 
ATOM     86  C   UNL     1     -15.866 -14.796   0.965  1.00  0.00     0.134 A 
ATOM     87  F   UNL     1     -16.558 -11.237   0.748  1.00  0.00    -0.206 F 
ATOM     88  C   UNL     1     -17.995 -13.032   1.223  1.00  0.00     0.040 A 
ATOM     89  C   UNL     1     -17.140 -15.283   1.258  1.00  0.00     0.040 A 
ATOM     90  F   UNL     1     -14.865 -15.682   0.849  1.00  0.00    -0.206 F 
ATOM     91  C   UNL     1     -18.208 -14.399   1.394  1.00  0.00     0.006 A 
ENDBRANCH  67  84
ENDBRANCH  41  42
ENDBRANCH  34  36
ENDBRANCH  33  34
ENDBRANCH  32  33
ENDBRANCH  31  32
ENDBRANCH   1  31
TORSDOF 17
