REMARK SMILES O=C(CC1CC[NH+](C[C@@H]2Cc3ccccc32)CC1)OCCOCCOC(=O)c1ccc(-c2c3nc(c(-c4c(F)cccc4F)c4ccc([nH]4)c(-c4c(F)cccc4F)c4nc(c(-c5c(F)cccc5F)c5ccc2[nH]5)C=C4)C=C3)cc1
REMARK SMILES IDX 21 1 20 2 19 3 2 4 1 5 3 6 4 7 5 8 18 9 6 10 17 11 7 12 8 14
REMARK SMILES IDX 9 15 10 16 16 17 11 18 15 19 12 20 14 21 13 22 22 23 23 24
REMARK SMILES IDX 24 25 25 26 26 27 27 28 28 29 29 30 81 31 30 32 80 33 31 34
REMARK SMILES IDX 32 35 33 36 74 37 34 38 79 39 73 40 75 41 35 42 78 43 72 44
REMARK SMILES IDX 71 45 36 47 62 48 45 49 61 50 46 51 49 52 60 53 76 54 47 55
REMARK SMILES IDX 48 56 59 58 77 59 50 60 37 61 38 62 43 63 39 64 40 65 42 66
REMARK SMILES IDX 44 67 41 68 63 69 64 70 69 71 65 72 66 73 68 74 70 75 67 76
REMARK SMILES IDX 51 77 52 78 57 79 53 80 54 81 56 82 58 83 55 84
REMARK H PARENT 7 13 75 46 49 57
REMARK Flexibility Score: inf
ROOT
ATOM      1  C   UNL     1      -5.667  -5.638   4.341  1.00  0.00     0.202 C 
ENDROOT
BRANCH   1   2
ATOM      2  C   UNL     1      -4.774  -4.885   5.327  1.00  0.00     0.261 C 
BRANCH   2   3
ATOM      3  O   UNL     1      -4.163  -3.703   4.814  1.00  0.00    -0.463 OA
BRANCH   3   4
ATOM      4  C   UNL     1      -3.019  -3.658   4.104  1.00  0.00     0.306 C 
ATOM      5  O   UNL     1      -2.490  -2.561   3.914  1.00  0.00    -0.252 OA
BRANCH   4   6
ATOM      6  C   UNL     1      -2.466  -4.888   3.409  1.00  0.00     0.126 C 
BRANCH   6   7
ATOM      7  C   UNL     1      -2.244  -6.197   4.188  1.00  0.00     0.011 C 
ATOM      8  C   UNL     1      -1.351  -5.999   5.415  1.00  0.00     0.066 C 
ATOM      9  C   UNL     1      -1.612  -7.283   3.313  1.00  0.00     0.066 C 
ATOM     10  C   UNL     1       0.066  -5.607   5.003  1.00  0.00     0.262 C 
ATOM     11  C   UNL     1      -0.188  -6.918   2.916  1.00  0.00     0.262 C 
ATOM     12  N   UNL     1       0.653  -6.540   4.049  1.00  0.00    -0.334 N 
ATOM     13  H   UNL     1       0.697  -7.403   4.591  1.00  0.00     0.348 HD
BRANCH  12  14
ATOM     14  C   UNL     1       2.055  -6.250   3.691  1.00  0.00     0.270 C 
BRANCH  14  15
ATOM     15  C   UNL     1       2.440  -5.019   2.838  1.00  0.00     0.079 C 
ATOM     16  C   UNL     1       2.050  -3.543   3.229  1.00  0.00     0.050 C 
ATOM     17  C   UNL     1       1.680  -4.763   1.559  1.00  0.00    -0.036 A 
ATOM     18  C   UNL     1       1.221  -3.536   1.977  1.00  0.00    -0.043 A 
ATOM     19  C   UNL     1       1.314  -5.305   0.346  1.00  0.00     0.004 A 
ATOM     20  C   UNL     1       0.321  -2.804   1.239  1.00  0.00     0.004 A 
ATOM     21  C   UNL     1       0.399  -4.585  -0.426  1.00  0.00     0.000 A 
ATOM     22  C   UNL     1      -0.103  -3.347   0.022  1.00  0.00     0.000 A 
ENDBRANCH  14  15
ENDBRANCH  12  14
ENDBRANCH   6   7
ENDBRANCH   4   6
ENDBRANCH   3   4
ENDBRANCH   2   3
ENDBRANCH   1   2
BRANCH   1  23
ATOM     23  O   UNL     1      -5.298  -5.685   2.970  1.00  0.00    -0.374 OA
BRANCH  23  24
ATOM     24  C   UNL     1      -5.623  -4.535   2.176  1.00  0.00     0.202 C 
BRANCH  24  25
ATOM     25  C   UNL     1      -7.076  -4.422   1.700  1.00  0.00     0.261 C 
BRANCH  25  26
ATOM     26  O   UNL     1      -7.964  -4.132   2.790  1.00  0.00    -0.460 OA
BRANCH  26  27
ATOM     27  C   UNL     1      -8.685  -5.184   3.248  1.00  0.00     0.338 C 
ATOM     28  O   UNL     1      -8.764  -6.300   2.761  1.00  0.00    -0.246 OA
BRANCH  27  29
ATOM     29  C   UNL     1      -9.163  -4.857   4.608  1.00  0.00     0.060 A 
ATOM     30  C   UNL     1      -8.961  -5.808   5.621  1.00  0.00     0.016 A 
ATOM     31  C   UNL     1      -9.754  -3.626   4.893  1.00  0.00     0.016 A 
ATOM     32  C   UNL     1      -9.397  -5.551   6.917  1.00  0.00     0.010 A 
ATOM     33  C   UNL     1     -10.208  -3.377   6.186  1.00  0.00     0.010 A 
ATOM     34  C   UNL     1     -10.067  -4.354   7.189  1.00  0.00    -0.014 A 
BRANCH  34  35
ATOM     35  C   UNL     1     -10.823  -4.200   8.449  1.00  0.00     0.031 A 
ATOM     36  C   UNL     1     -12.305  -4.441   8.407  1.00  0.00     0.074 A 
ATOM     37  C   UNL     1     -10.214  -3.829   9.586  1.00  0.00     0.049 A 
ATOM     38  N   UNL     1     -13.206  -4.240   9.331  1.00  0.00    -0.248 NA
ATOM     39  C   UNL     1     -12.842  -4.963   7.139  1.00  0.00     0.031 C 
ATOM     40  C   UNL     1      -8.779  -3.605   9.743  1.00  0.00     0.029 A 
ATOM     41  N   UNL     1     -10.741  -3.547  10.820  1.00  0.00    -0.354 N 
ATOM     42  C   UNL     1     -14.418  -4.587   8.748  1.00  0.00     0.074 A 
ATOM     43  C   UNL     1     -14.142  -4.984   7.386  1.00  0.00     0.031 C 
ATOM     44  C   UNL     1      -8.542  -3.186  10.998  1.00  0.00     0.029 A 
ATOM     45  C   UNL     1      -9.812  -3.075  11.713  1.00  0.00     0.049 A 
ATOM     46  H   UNL     1     -11.692  -3.670  11.043  1.00  0.00     0.167 HD
ATOM     47  C   UNL     1     -15.652  -4.576   9.305  1.00  0.00     0.037 A 
ATOM     48  C   UNL     1      -9.981  -2.574  12.952  1.00  0.00     0.037 A 
ATOM     49  C   UNL     1     -15.909  -4.176  10.662  1.00  0.00     0.049 A 
ATOM     50  C   UNL     1     -11.370  -2.513  13.534  1.00  0.00     0.074 A 
ATOM     51  C   UNL     1     -17.112  -4.160  11.342  1.00  0.00     0.029 A 
ATOM     52  N   UNL     1     -14.942  -3.708  11.540  1.00  0.00    -0.354 N 
ATOM     53  N   UNL     1     -12.509  -2.876  12.995  1.00  0.00    -0.248 NA
ATOM     54  C   UNL     1     -11.497  -1.974  14.895  1.00  0.00     0.031 C 
ATOM     55  C   UNL     1     -16.883  -3.621  12.612  1.00  0.00     0.029 A 
ATOM     56  C   UNL     1     -15.527  -3.366  12.747  1.00  0.00     0.049 A 
ATOM     57  H   UNL     1     -13.982  -3.630  11.335  1.00  0.00     0.167 HD
ATOM     58  C   UNL     1     -13.483  -2.639  13.958  1.00  0.00     0.074 A 
ATOM     59  C   UNL     1     -12.797  -2.107  15.118  1.00  0.00     0.031 C 
ATOM     60  C   UNL     1     -14.822  -2.846  13.892  1.00  0.00     0.037 A 
BRANCH  47  61
ATOM     61  C   UNL     1     -16.808  -4.965   8.431  1.00  0.00     0.057 A 
ATOM     62  C   UNL     1     -16.990  -6.276   7.970  1.00  0.00     0.134 A 
ATOM     63  C   UNL     1     -17.759  -4.010   8.046  1.00  0.00     0.134 A 
ATOM     64  F   UNL     1     -16.107  -7.236   8.285  1.00  0.00    -0.206 F 
ATOM     65  C   UNL     1     -18.055  -6.616   7.134  1.00  0.00     0.040 A 
ATOM     66  C   UNL     1     -18.846  -4.345   7.237  1.00  0.00     0.040 A 
ATOM     67  F   UNL     1     -17.647  -2.736   8.451  1.00  0.00    -0.206 F 
ATOM     68  C   UNL     1     -18.991  -5.649   6.771  1.00  0.00     0.006 A 
ENDBRANCH  47  61
BRANCH  48  69
ATOM     69  C   UNL     1      -8.809  -2.069  13.710  1.00  0.00     0.057 A 
ATOM     70  C   UNL     1      -8.337  -2.732  14.847  1.00  0.00     0.134 A 
ATOM     71  C   UNL     1      -8.127  -0.912  13.309  1.00  0.00     0.134 A 
ATOM     72  F   UNL     1      -8.959  -3.833  15.293  1.00  0.00    -0.206 F 
ATOM     73  C   UNL     1      -7.237  -2.258  15.566  1.00  0.00     0.040 A 
ATOM     74  C   UNL     1      -7.011  -0.443  14.002  1.00  0.00     0.040 A 
ATOM     75  F   UNL     1      -8.527  -0.232  12.224  1.00  0.00    -0.206 F 
ATOM     76  C   UNL     1      -6.566  -1.114  15.139  1.00  0.00     0.006 A 
ENDBRANCH  48  69
BRANCH  60  77
ATOM     77  C   UNL     1     -15.633  -2.539  15.118  1.00  0.00     0.057 A 
ATOM     78  C   UNL     1     -15.890  -1.226  15.530  1.00  0.00     0.134 A 
ATOM     79  C   UNL     1     -16.224  -3.576  15.852  1.00  0.00     0.134 A 
ATOM     80  F   UNL     1     -15.346  -0.189  14.876  1.00  0.00    -0.206 F 
ATOM     81  C   UNL     1     -16.694  -0.956  16.639  1.00  0.00     0.040 A 
ATOM     82  C   UNL     1     -17.053  -3.317  16.944  1.00  0.00     0.040 A 
ATOM     83  F   UNL     1     -16.027  -4.857  15.504  1.00  0.00    -0.206 F 
ATOM     84  C   UNL     1     -17.287  -2.003  17.342  1.00  0.00     0.006 A 
ENDBRANCH  60  77
ENDBRANCH  34  35
ENDBRANCH  27  29
ENDBRANCH  26  27
ENDBRANCH  25  26
ENDBRANCH  24  25
ENDBRANCH  23  24
ENDBRANCH   1  23
TORSDOF 17
