REMARK SMILES Cn1c(C(=O)N2CCC[C@@H](C(=O)OCCOCCOC(=O)c3ccc(-c4c5nc(c(-c6c(F)cccc6F)c6ccc([nH]6)c(-c6c(F)cccc6F)c6nc(c(-c7c(F)cccc7F)c7ccc4[nH]7)C=C6)C=C5)cc3)C2)cc2sccc21
REMARK SMILES IDX 16 1 15 2 14 3 13 4 11 5 12 6 10 7 6 8 7 9 76 10 8 11 9 12
REMARK SMILES IDX 4 13 5 14 3 15 1 16 2 17 82 18 77 19 78 20 81 21 79 22 80 23
REMARK SMILES IDX 17 24 18 25 19 26 20 27 21 28 22 29 23 30 75 31 24 32 74 33
REMARK SMILES IDX 25 34 26 35 27 36 68 37 28 38 73 39 67 40 69 41 29 42 72 43
REMARK SMILES IDX 66 44 65 45 30 47 56 48 39 49 55 50 40 51 43 52 54 53 70 54
REMARK SMILES IDX 41 55 42 56 53 58 71 59 44 60 31 61 32 62 37 63 33 64 34 65
REMARK SMILES IDX 36 66 38 67 35 68 57 69 58 70 63 71 59 72 60 73 62 74 64 75
REMARK SMILES IDX 61 76 45 77 46 78 51 79 47 80 48 81 50 82 52 83 49 84
REMARK H PARENT 69 46 43 57
REMARK Flexibility Score: inf
ROOT
ATOM      1  O   UNL     1      -1.899  -1.777  10.112  1.00  0.00    -0.374 OA
ENDROOT
BRANCH   1   2
ATOM      2  C   UNL     1      -0.502  -1.500  10.168  1.00  0.00     0.202 C 
BRANCH   2   3
ATOM      3  C   UNL     1       0.333  -1.586   8.887  1.00  0.00     0.261 C 
BRANCH   3   4
ATOM      4  O   UNL     1      -0.103  -0.696   7.843  1.00  0.00    -0.463 OA
BRANCH   4   5
ATOM      5  C   UNL     1      -0.736  -1.322   6.813  1.00  0.00     0.310 C 
ATOM      6  O   UNL     1      -0.974  -2.523   6.772  1.00  0.00    -0.252 OA
BRANCH   5   7
ATOM      7  C   UNL     1      -1.173  -0.348   5.737  1.00  0.00     0.119 C 
ATOM      8  N   UNL     1      -1.809  -0.425   3.345  1.00  0.00    -0.337 N 
ATOM      9  C   UNL     1      -3.132   0.123   3.593  1.00  0.00     0.120 C 
ATOM     10  C   UNL     1      -1.208  -1.164   4.444  1.00  0.00     0.135 C 
ATOM     11  C   UNL     1      -3.133   1.009   4.828  1.00  0.00     0.022 C 
ATOM     12  C   UNL     1      -2.543   0.279   6.035  1.00  0.00     0.019 C 
BRANCH   8  13
ATOM     13  C   UNL     1      -1.240  -0.297   2.084  1.00  0.00     0.270 C 
ATOM     14  O   UNL     1      -1.489   0.681   1.381  1.00  0.00    -0.267 OA
BRANCH  13  15
ATOM     15  C   UNL     1      -0.415  -1.405   1.608  1.00  0.00     0.108 A 
ATOM     16  C   UNL     1       1.031  -0.113  -0.035  1.00  0.00     0.150 C 
ATOM     17  N   UNL     1       0.551  -1.302   0.625  1.00  0.00    -0.339 N 
ATOM     18  C   UNL     1       0.985  -2.569   0.290  1.00  0.00     0.059 A 
ATOM     19  C   UNL     1      -0.526  -2.752   1.943  1.00  0.00     0.053 A 
ATOM     20  C   UNL     1       0.370  -3.462   1.110  1.00  0.00     0.053 A 
ATOM     21  C   UNL     1       1.848  -3.180  -0.660  1.00  0.00     0.038 A 
ATOM     22  S   UNL     1       0.858  -5.094   0.811  1.00  0.00    -0.142 S 
ATOM     23  C   UNL     1       1.844  -4.549  -0.486  1.00  0.00     0.068 A 
ENDBRANCH  13  15
ENDBRANCH   8  13
ENDBRANCH   5   7
ENDBRANCH   4   5
ENDBRANCH   3   4
ENDBRANCH   2   3
ENDBRANCH   1   2
BRANCH   1  24
ATOM     24  C   UNL     1      -2.762  -0.921   9.377  1.00  0.00     0.202 C 
BRANCH  24  25
ATOM     25  C   UNL     1      -3.030   0.483   9.894  1.00  0.00     0.261 C 
BRANCH  25  26
ATOM     26  O   UNL     1      -1.843   1.244  10.051  1.00  0.00    -0.460 OA
BRANCH  26  27
ATOM     27  C   UNL     1      -1.433   1.321  11.338  1.00  0.00     0.338 C 
ATOM     28  O   UNL     1      -1.759   0.600  12.262  1.00  0.00    -0.246 OA
BRANCH  27  29
ATOM     29  C   UNL     1      -0.655   2.549  11.509  1.00  0.00     0.060 A 
ATOM     30  C   UNL     1      -0.210   2.813  12.805  1.00  0.00     0.016 A 
ATOM     31  C   UNL     1      -0.662   3.526  10.504  1.00  0.00     0.016 A 
ATOM     32  C   UNL     1       0.018   4.122  13.155  1.00  0.00     0.010 A 
ATOM     33  C   UNL     1      -0.452   4.835  10.860  1.00  0.00     0.010 A 
ATOM     34  C   UNL     1      -0.197   5.120  12.197  1.00  0.00    -0.014 A 
BRANCH  34  35
ATOM     35  C   UNL     1       0.024   6.491  12.594  1.00  0.00     0.031 A 
ATOM     36  C   UNL     1       1.465   6.769  12.762  1.00  0.00     0.074 A 
ATOM     37  C   UNL     1      -0.971   7.392  12.689  1.00  0.00     0.049 A 
ATOM     38  N   UNL     1       2.099   6.948  13.871  1.00  0.00    -0.248 NA
ATOM     39  C   UNL     1       2.341   6.588  11.591  1.00  0.00     0.031 C 
ATOM     40  C   UNL     1      -2.372   7.241  12.287  1.00  0.00     0.029 A 
ATOM     41  N   UNL     1      -0.910   8.689  13.094  1.00  0.00    -0.354 N 
ATOM     42  C   UNL     1       3.422   7.156  13.502  1.00  0.00     0.074 A 
ATOM     43  C   UNL     1       3.547   6.684  12.151  1.00  0.00     0.031 C 
ATOM     44  C   UNL     1      -2.963   8.459  12.256  1.00  0.00     0.029 A 
ATOM     45  C   UNL     1      -2.027   9.450  12.760  1.00  0.00     0.049 A 
ATOM     46  H   UNL     1      -0.140   9.059  13.582  1.00  0.00     0.167 HD
ATOM     47  C   UNL     1       4.202   8.007  14.219  1.00  0.00     0.037 A 
ATOM     48  C   UNL     1      -2.122  10.802  12.846  1.00  0.00     0.037 A 
ATOM     49  C   UNL     1       3.642   8.223  15.533  1.00  0.00     0.049 A 
ATOM     50  C   UNL     1      -1.041  11.265  13.750  1.00  0.00     0.074 A 
ATOM     51  C   UNL     1       3.343   7.421  16.616  1.00  0.00     0.029 A 
ATOM     52  N   UNL     1       2.939   9.388  15.715  1.00  0.00    -0.354 N 
ATOM     53  N   UNL     1      -1.027  11.045  15.033  1.00  0.00    -0.248 NA
ATOM     54  C   UNL     1       0.251  11.579  13.159  1.00  0.00     0.031 C 
ATOM     55  C   UNL     1       2.149   7.971  17.173  1.00  0.00     0.029 A 
ATOM     56  C   UNL     1       1.818   9.118  16.451  1.00  0.00     0.049 A 
ATOM     57  H   UNL     1       3.200  10.273  15.372  1.00  0.00     0.167 HD
ATOM     58  C   UNL     1       0.293  10.737  15.321  1.00  0.00     0.074 A 
ATOM     59  C   UNL     1       1.050  11.187  14.155  1.00  0.00     0.031 C 
ATOM     60  C   UNL     1       0.595   9.879  16.341  1.00  0.00     0.037 A 
BRANCH  47  61
ATOM     61  C   UNL     1       5.156   8.993  13.580  1.00  0.00     0.057 A 
ATOM     62  C   UNL     1       5.942   9.802  14.419  1.00  0.00     0.134 A 
ATOM     63  C   UNL     1       5.114   9.404  12.229  1.00  0.00     0.134 A 
ATOM     64  F   UNL     1       6.060   9.526  15.727  1.00  0.00    -0.206 F 
ATOM     65  C   UNL     1       6.554  10.979  13.970  1.00  0.00     0.040 A 
ATOM     66  C   UNL     1       5.764  10.548  11.761  1.00  0.00     0.040 A 
ATOM     67  F   UNL     1       4.370   8.795  11.301  1.00  0.00    -0.206 F 
ATOM     68  C   UNL     1       6.457  11.361  12.639  1.00  0.00     0.006 A 
ENDBRANCH  47  61
BRANCH  48  69
ATOM     69  C   UNL     1      -2.862  11.757  11.990  1.00  0.00     0.057 A 
ATOM     70  C   UNL     1      -3.075  13.082  12.403  1.00  0.00     0.134 A 
ATOM     71  C   UNL     1      -3.102  11.489  10.632  1.00  0.00     0.134 A 
ATOM     72  F   UNL     1      -2.837  13.447  13.671  1.00  0.00    -0.206 F 
ATOM     73  C   UNL     1      -3.467  14.089  11.511  1.00  0.00     0.040 A 
ATOM     74  C   UNL     1      -3.498  12.485   9.732  1.00  0.00     0.040 A 
ATOM     75  F   UNL     1      -2.865  10.275  10.115  1.00  0.00    -0.206 F 
ATOM     76  C   UNL     1      -3.666  13.794  10.166  1.00  0.00     0.006 A 
ENDBRANCH  48  69
BRANCH  60  77
ATOM     77  C   UNL     1      -0.505   9.558  17.317  1.00  0.00     0.057 A 
ATOM     78  C   UNL     1      -1.706   8.910  16.987  1.00  0.00     0.134 A 
ATOM     79  C   UNL     1      -0.291   9.838  18.671  1.00  0.00     0.134 A 
ATOM     80  F   UNL     1      -1.960   8.511  15.733  1.00  0.00    -0.206 F 
ATOM     81  C   UNL     1      -2.672   8.612  17.954  1.00  0.00     0.040 A 
ATOM     82  C   UNL     1      -1.230   9.512  19.650  1.00  0.00     0.040 A 
ATOM     83  F   UNL     1       0.857  10.408  19.069  1.00  0.00    -0.206 F 
ATOM     84  C   UNL     1      -2.433   8.911  19.292  1.00  0.00     0.006 A 
ENDBRANCH  60  77
ENDBRANCH  34  35
ENDBRANCH  27  29
ENDBRANCH  26  27
ENDBRANCH  25  26
ENDBRANCH  24  25
ENDBRANCH   1  24
TORSDOF 16
