REMARK SMILES C[C@]1(c2ccccc2C(=O)OCCOCCOC(=O)c2ccc(-c3c4nc(c(-c5c(F)cccc5F)c5ccc([nH]5)c(-c5c(F)cccc5F)c5nc(c(-c6c(F)cccc6F)c6ccc3[nH]6)C=C5)C=C4)cc2)NN=C(c2ccccc2)S1
REMARK SMILES IDX 14 1 13 2 12 3 11 4 9 5 10 6 8 7 3 8 4 9 5 10 7 11 6 12 2 13
REMARK SMILES IDX 1 14 74 15 83 16 75 17 76 19 77 20 78 21 82 22 79 23 81 24
REMARK SMILES IDX 80 25 15 26 16 27 17 28 18 29 19 30 20 31 21 32 73 33 22 34
REMARK SMILES IDX 72 35 23 36 24 37 25 38 66 39 26 40 71 41 65 42 67 43 27 44
REMARK SMILES IDX 70 45 64 46 63 47 28 49 54 50 37 51 53 52 38 53 41 54 52 55
REMARK SMILES IDX 68 56 39 57 40 58 51 60 69 61 42 62 29 63 30 64 35 65 31 66
REMARK SMILES IDX 32 67 34 68 36 69 33 70 55 71 56 72 61 73 57 74 58 75 60 76
REMARK SMILES IDX 62 77 59 78 43 79 44 80 49 81 45 82 46 83 48 84 50 85 47 86
REMARK H PARENT 74 18 67 48 41 59
REMARK Flexibility Score: inf
ROOT
ATOM      1  O   UNL     1       5.793   1.683  -2.041  1.00  0.00    -0.374 OA
ENDROOT
BRANCH   1   2
ATOM      2  C   UNL     1       4.970   2.849  -1.988  1.00  0.00     0.202 C 
BRANCH   2   3
ATOM      3  C   UNL     1       3.572   2.720  -2.598  1.00  0.00     0.261 C 
BRANCH   3   4
ATOM      4  O   UNL     1       2.747   1.841  -1.814  1.00  0.00    -0.460 OA
BRANCH   4   5
ATOM      5  C   UNL     1       2.023   0.937  -2.517  1.00  0.00     0.338 C 
ATOM      6  O   UNL     1       1.982   0.791  -3.731  1.00  0.00    -0.246 OA
BRANCH   5   7
ATOM      7  C   UNL     1       1.422  -0.018  -1.570  1.00  0.00     0.066 A 
ATOM      8  C   UNL     1       0.370   0.267  -0.678  1.00  0.00     0.004 A 
ATOM      9  C   UNL     1       0.013  -0.785   0.215  1.00  0.00     0.008 A 
ATOM     10  C   UNL     1       0.605  -2.051   0.172  1.00  0.00     0.000 A 
ATOM     11  C   UNL     1       1.994  -1.309  -1.631  1.00  0.00     0.016 A 
ATOM     12  C   UNL     1       1.581  -2.322  -0.772  1.00  0.00     0.001 A 
BRANCH   8  13
ATOM     13  C   UNL     1      -0.538   1.510  -0.675  1.00  0.00     0.129 C 
ATOM     14  C   UNL     1      -1.936   1.077  -1.162  1.00  0.00     0.054 C 
ATOM     15  N   UNL     1      -0.637   2.118   0.665  1.00  0.00    -0.288 NA
ATOM     16  S   UNL     1      -0.139   2.929  -1.742  1.00  0.00    -0.070 SA
ATOM     17  N   UNL     1      -0.082   3.354   0.833  1.00  0.00    -0.171 NA
ATOM     18  H   UNL     1      -1.084   1.652   1.408  1.00  0.00     0.185 HD
ATOM     19  C   UNL     1       0.153   3.895  -0.321  1.00  0.00     0.126 C 
BRANCH  19  20
ATOM     20  C   UNL     1       0.691   5.239  -0.523  1.00  0.00     0.009 A 
ATOM     21  C   UNL     1       2.024   5.501  -0.209  1.00  0.00     0.011 A 
ATOM     22  C   UNL     1      -0.119   6.226  -1.094  1.00  0.00     0.011 A 
ATOM     23  C   UNL     1       2.558   6.755  -0.512  1.00  0.00     0.001 A 
ATOM     24  C   UNL     1       0.416   7.484  -1.366  1.00  0.00     0.001 A 
ATOM     25  C   UNL     1       1.755   7.745  -1.081  1.00  0.00     0.000 A 
ENDBRANCH  19  20
ENDBRANCH   8  13
ENDBRANCH   5   7
ENDBRANCH   4   5
ENDBRANCH   3   4
ENDBRANCH   2   3
ENDBRANCH   1   2
BRANCH   1  26
ATOM     26  C   UNL     1       5.420   0.577  -1.222  1.00  0.00     0.202 C 
BRANCH  26  27
ATOM     27  C   UNL     1       5.780   0.658   0.267  1.00  0.00     0.261 C 
BRANCH  27  28
ATOM     28  O   UNL     1       5.270   1.824   0.933  1.00  0.00    -0.460 OA
BRANCH  28  29
ATOM     29  C   UNL     1       6.199   2.782   1.169  1.00  0.00     0.338 C 
ATOM     30  O   UNL     1       7.385   2.748   0.878  1.00  0.00    -0.246 OA
BRANCH  29  31
ATOM     31  C   UNL     1       5.574   3.988   1.748  1.00  0.00     0.060 A 
ATOM     32  C   UNL     1       5.932   5.225   1.201  1.00  0.00     0.016 A 
ATOM     33  C   UNL     1       4.744   3.928   2.872  1.00  0.00     0.016 A 
ATOM     34  C   UNL     1       5.497   6.405   1.803  1.00  0.00     0.010 A 
ATOM     35  C   UNL     1       4.317   5.115   3.483  1.00  0.00     0.010 A 
ATOM     36  C   UNL     1       4.716   6.359   2.968  1.00  0.00    -0.014 A 
BRANCH  36  37
ATOM     37  C   UNL     1       4.471   7.624   3.705  1.00  0.00     0.031 A 
ATOM     38  C   UNL     1       5.519   8.116   4.659  1.00  0.00     0.074 A 
ATOM     39  C   UNL     1       3.374   8.365   3.475  1.00  0.00     0.049 A 
ATOM     40  N   UNL     1       5.571   9.240   5.325  1.00  0.00    -0.248 NA
ATOM     41  C   UNL     1       6.648   7.208   4.911  1.00  0.00     0.031 C 
ATOM     42  C   UNL     1       2.272   7.971   2.610  1.00  0.00     0.029 A 
ATOM     43  N   UNL     1       3.020   9.616   3.915  1.00  0.00    -0.354 N 
ATOM     44  C   UNL     1       6.724   9.167   6.093  1.00  0.00     0.074 A 
ATOM     45  C   UNL     1       7.343   7.890   5.809  1.00  0.00     0.031 C 
ATOM     46  C   UNL     1       1.413   8.995   2.492  1.00  0.00     0.029 A 
ATOM     47  C   UNL     1       1.870  10.097   3.333  1.00  0.00     0.049 A 
ATOM     48  H   UNL     1       3.540  10.120   4.582  1.00  0.00     0.167 HD
ATOM     49  C   UNL     1       7.209  10.075   6.972  1.00  0.00     0.037 A 
ATOM     50  C   UNL     1       1.259  11.290   3.470  1.00  0.00     0.037 A 
ATOM     51  C   UNL     1       6.571  11.329   7.276  1.00  0.00     0.049 A 
ATOM     52  C   UNL     1       1.829  12.290   4.440  1.00  0.00     0.074 A 
ATOM     53  C   UNL     1       6.966  12.304   8.174  1.00  0.00     0.029 A 
ATOM     54  N   UNL     1       5.393  11.774   6.694  1.00  0.00    -0.354 N 
ATOM     55  N   UNL     1       2.927  12.217   5.154  1.00  0.00    -0.248 NA
ATOM     56  C   UNL     1       1.057  13.524   4.651  1.00  0.00     0.031 C 
ATOM     57  C   UNL     1       6.005  13.322   8.165  1.00  0.00     0.029 A 
ATOM     58  C   UNL     1       5.038  13.004   7.224  1.00  0.00     0.049 A 
ATOM     59  H   UNL     1       4.884  11.288   6.005  1.00  0.00     0.167 HD
ATOM     60  C   UNL     1       2.973  13.386   5.902  1.00  0.00     0.074 A 
ATOM     61  C   UNL     1       1.816  14.171   5.524  1.00  0.00     0.031 C 
ATOM     62  C   UNL     1       3.880  13.768   6.835  1.00  0.00     0.037 A 
BRANCH  49  63
ATOM     63  C   UNL     1       8.462   9.703   7.707  1.00  0.00     0.057 A 
ATOM     64  C   UNL     1       9.710   9.664   7.073  1.00  0.00     0.134 A 
ATOM     65  C   UNL     1       8.414   9.360   9.064  1.00  0.00     0.134 A 
ATOM     66  F   UNL     1       9.820   9.959   5.769  1.00  0.00    -0.206 F 
ATOM     67  C   UNL     1      10.862   9.268   7.755  1.00  0.00     0.040 A 
ATOM     68  C   UNL     1       9.562   8.987   9.763  1.00  0.00     0.040 A 
ATOM     69  F   UNL     1       7.250   9.374   9.730  1.00  0.00    -0.206 F 
ATOM     70  C   UNL     1      10.790   8.931   9.106  1.00  0.00     0.006 A 
ENDBRANCH  49  63
BRANCH  50  71
ATOM     71  C   UNL     1       0.040  11.615   2.682  1.00  0.00     0.057 A 
ATOM     72  C   UNL     1       0.055  12.633   1.719  1.00  0.00     0.134 A 
ATOM     73  C   UNL     1      -1.173  10.947   2.887  1.00  0.00     0.134 A 
ATOM     74  F   UNL     1       1.178  13.331   1.493  1.00  0.00    -0.206 F 
ATOM     75  C   UNL     1      -1.091  12.984   1.002  1.00  0.00     0.040 A 
ATOM     76  C   UNL     1      -2.319  11.266   2.155  1.00  0.00     0.040 A 
ATOM     77  F   UNL     1      -1.262   9.967   3.798  1.00  0.00    -0.206 F 
ATOM     78  C   UNL     1      -2.282  12.294   1.215  1.00  0.00     0.006 A 
ENDBRANCH  50  71
BRANCH  62  79
ATOM     79  C   UNL     1       3.658  15.093   7.502  1.00  0.00     0.057 A 
ATOM     80  C   UNL     1       2.643  15.281   8.449  1.00  0.00     0.134 A 
ATOM     81  C   UNL     1       4.495  16.181   7.225  1.00  0.00     0.134 A 
ATOM     82  F   UNL     1       1.799  14.282   8.749  1.00  0.00    -0.206 F 
ATOM     83  C   UNL     1       2.454  16.511   9.081  1.00  0.00     0.040 A 
ATOM     84  C   UNL     1       4.332  17.408   7.869  1.00  0.00     0.040 A 
ATOM     85  F   UNL     1       5.491  16.065   6.335  1.00  0.00    -0.206 F 
ATOM     86  C   UNL     1       3.305  17.578   8.796  1.00  0.00     0.006 A 
ENDBRANCH  62  79
ENDBRANCH  36  37
ENDBRANCH  29  31
ENDBRANCH  28  29
ENDBRANCH  27  28
ENDBRANCH  26  27
ENDBRANCH   1  26
TORSDOF 16
