REMARK SMILES O=C(OCCOCCOC(=O)c1ccc2c(=O)n(CCC[NH+]3CCOCC3)c(=O)[nH]c2c1)c1ccc(-c2c3nc(c(-c4c(F)cccc4F)c4ccc([nH]4)c(-c4c(F)cccc4F)c4nc(c(-c5c(F)cccc5F)c5ccc2[nH]5)C=C4)C=C3)cc1
REMARK SMILES IDX 7 1 6 2 5 3 4 4 3 5 2 6 1 7 33 8 34 9 86 10 35 11 85 12
REMARK SMILES IDX 36 13 37 14 38 15 79 16 39 17 84 18 78 19 80 20 40 21 83 22
REMARK SMILES IDX 77 23 76 24 41 26 67 27 50 28 66 29 51 30 54 31 65 32 81 33
REMARK SMILES IDX 52 34 53 35 64 37 82 38 55 39 42 40 43 41 48 42 44 43 45 44
REMARK SMILES IDX 47 45 49 46 46 47 68 48 69 49 74 50 70 51 71 52 73 53 75 54
REMARK SMILES IDX 72 55 56 56 57 57 62 58 58 59 59 60 61 61 63 62 60 63 8 64
REMARK SMILES IDX 9 65 10 66 11 67 12 68 13 69 32 70 14 71 31 72 15 73 30 74
REMARK SMILES IDX 16 75 28 76 17 78 18 79 29 80 19 81 20 82 21 83 22 84 23 85
REMARK SMILES IDX 27 86 24 88 26 89 25 90
REMARK H PARENT 80 25 54 36 30 77 22 87
REMARK Flexibility Score: inf
ROOT
ATOM      1  C   UNL     1       2.682  -1.021   1.857  1.00  0.00     0.202 C 
ENDROOT
BRANCH   1   2
ATOM      2  O   UNL     1       4.010  -0.692   1.437  1.00  0.00    -0.374 OA
BRANCH   2   3
ATOM      3  C   UNL     1       4.351   0.692   1.454  1.00  0.00     0.202 C 
BRANCH   3   4
ATOM      4  C   UNL     1       4.188   1.385   0.101  1.00  0.00     0.261 C 
BRANCH   4   5
ATOM      5  O   UNL     1       2.824   1.329  -0.339  1.00  0.00    -0.460 OA
BRANCH   5   6
ATOM      6  C   UNL     1       2.217   0.443  -1.157  1.00  0.00     0.338 C 
ATOM      7  O   UNL     1       1.027   0.634  -1.411  1.00  0.00    -0.246 OA
BRANCH   6   8
ATOM      8  C   UNL     1       2.856  -0.782  -1.748  1.00  0.00     0.060 A 
ATOM      9  C   UNL     1       2.088  -1.478  -2.704  1.00  0.00     0.016 A 
ATOM     10  C   UNL     1       4.082  -1.343  -1.383  1.00  0.00     0.016 A 
ATOM     11  C   UNL     1       2.517  -2.694  -3.244  1.00  0.00     0.010 A 
ATOM     12  C   UNL     1       4.515  -2.558  -1.905  1.00  0.00     0.010 A 
ATOM     13  C   UNL     1       3.734  -3.239  -2.835  1.00  0.00    -0.014 A 
BRANCH  13  14
ATOM     14  C   UNL     1       4.305  -4.440  -3.460  1.00  0.00     0.031 A 
ATOM     15  C   UNL     1       4.286  -5.759  -2.759  1.00  0.00     0.074 A 
ATOM     16  C   UNL     1       5.003  -4.253  -4.593  1.00  0.00     0.049 A 
ATOM     17  N   UNL     1       4.769  -6.907  -3.155  1.00  0.00    -0.248 NA
ATOM     18  C   UNL     1       3.671  -5.787  -1.423  1.00  0.00     0.031 C 
ATOM     19  C   UNL     1       5.177  -2.959  -5.260  1.00  0.00     0.029 A 
ATOM     20  N   UNL     1       5.736  -5.124  -5.345  1.00  0.00    -0.354 N 
ATOM     21  C   UNL     1       4.498  -7.803  -2.130  1.00  0.00     0.074 A 
ATOM     22  C   UNL     1       3.862  -7.051  -1.069  1.00  0.00     0.031 C 
ATOM     23  C   UNL     1       5.995  -3.118  -6.310  1.00  0.00     0.029 A 
ATOM     24  C   UNL     1       6.391  -4.518  -6.386  1.00  0.00     0.049 A 
ATOM     25  H   UNL     1       5.789  -6.089  -5.160  1.00  0.00     0.167 HD
ATOM     26  C   UNL     1       4.750  -9.135  -2.100  1.00  0.00     0.037 A 
ATOM     27  C   UNL     1       7.224  -5.042  -7.300  1.00  0.00     0.037 A 
ATOM     28  C   UNL     1       5.436  -9.832  -3.160  1.00  0.00     0.049 A 
ATOM     29  C   UNL     1       7.475  -6.517  -7.263  1.00  0.00     0.074 A 
ATOM     30  C   UNL     1       5.662 -11.189  -3.308  1.00  0.00     0.029 A 
ATOM     31  N   UNL     1       6.045  -9.208  -4.243  1.00  0.00    -0.354 N 
ATOM     32  N   UNL     1       7.062  -7.399  -6.384  1.00  0.00    -0.248 NA
ATOM     33  C   UNL     1       8.279  -7.074  -8.354  1.00  0.00     0.031 C 
ATOM     34  C   UNL     1       6.455 -11.377  -4.448  1.00  0.00     0.029 A 
ATOM     35  C   UNL     1       6.684 -10.144  -5.040  1.00  0.00     0.049 A 
ATOM     36  H   UNL     1       6.024  -8.239  -4.419  1.00  0.00     0.167 HD
ATOM     37  C   UNL     1       7.554  -8.622  -6.813  1.00  0.00     0.074 A 
ATOM     38  C   UNL     1       8.269  -8.365  -8.051  1.00  0.00     0.031 C 
ATOM     39  C   UNL     1       7.430  -9.845  -6.239  1.00  0.00     0.037 A 
BRANCH  26  40
ATOM     40  C   UNL     1       4.285  -9.902  -0.891  1.00  0.00     0.057 A 
ATOM     41  C   UNL     1       5.200 -10.504  -0.019  1.00  0.00     0.134 A 
ATOM     42  C   UNL     1       2.923 -10.055  -0.591  1.00  0.00     0.134 A 
ATOM     43  F   UNL     1       6.520 -10.412  -0.243  1.00  0.00    -0.206 F 
ATOM     44  C   UNL     1       4.781 -11.214   1.110  1.00  0.00     0.040 A 
ATOM     45  C   UNL     1       2.491 -10.738   0.549  1.00  0.00     0.040 A 
ATOM     46  F   UNL     1       1.987  -9.504  -1.380  1.00  0.00    -0.206 F 
ATOM     47  C   UNL     1       3.423 -11.323   1.403  1.00  0.00     0.006 A 
ENDBRANCH  26  40
BRANCH  27  48
ATOM     48  C   UNL     1       7.798  -4.156  -8.338  1.00  0.00     0.057 A 
ATOM     49  C   UNL     1       8.788  -3.216  -8.027  1.00  0.00     0.134 A 
ATOM     50  C   UNL     1       7.290  -4.157  -9.640  1.00  0.00     0.134 A 
ATOM     51  F   UNL     1       9.295  -3.149  -6.787  1.00  0.00    -0.206 F 
ATOM     52  C   UNL     1       9.240  -2.294  -8.973  1.00  0.00     0.040 A 
ATOM     53  C   UNL     1       7.745  -3.254 -10.601  1.00  0.00     0.040 A 
ATOM     54  F   UNL     1       6.339  -5.035  -9.992  1.00  0.00    -0.206 F 
ATOM     55  C   UNL     1       8.716  -2.312 -10.265  1.00  0.00     0.006 A 
ENDBRANCH  27  48
BRANCH  39  56
ATOM     56  C   UNL     1       8.123 -10.974  -6.941  1.00  0.00     0.057 A 
ATOM     57  C   UNL     1       7.395 -11.945  -7.638  1.00  0.00     0.134 A 
ATOM     58  C   UNL     1       9.520 -11.088  -6.934  1.00  0.00     0.134 A 
ATOM     59  F   UNL     1       6.055 -11.893  -7.679  1.00  0.00    -0.206 F 
ATOM     60  C   UNL     1       8.032 -12.989  -8.308  1.00  0.00     0.040 A 
ATOM     61  C   UNL     1      10.169 -12.112  -7.624  1.00  0.00     0.040 A 
ATOM     62  F   UNL     1      10.274 -10.177  -6.301  1.00  0.00    -0.206 F 
ATOM     63  C   UNL     1       9.423 -13.069  -8.310  1.00  0.00     0.006 A 
ENDBRANCH  39  56
ENDBRANCH  13  14
ENDBRANCH   6   8
ENDBRANCH   5   6
ENDBRANCH   4   5
ENDBRANCH   3   4
ENDBRANCH   2   3
ENDBRANCH   1   2
BRANCH   1  64
ATOM     64  C   UNL     1       2.756  -2.116   2.926  1.00  0.00     0.261 C 
BRANCH  64  65
ATOM     65  O   UNL     1       3.330  -1.552   4.114  1.00  0.00    -0.460 OA
BRANCH  65  66
ATOM     66  C   UNL     1       4.689  -1.504   4.147  1.00  0.00     0.338 C 
ATOM     67  O   UNL     1       5.472  -2.198   3.537  1.00  0.00    -0.246 OA
BRANCH  66  68
ATOM     68  C   UNL     1       5.053  -0.260   4.872  1.00  0.00     0.062 A 
ATOM     69  C   UNL     1       4.205   0.270   5.857  1.00  0.00     0.016 A 
ATOM     70  C   UNL     1       6.192   0.448   4.458  1.00  0.00     0.042 A 
ATOM     71  C   UNL     1       4.449   1.539   6.373  1.00  0.00     0.017 A 
ATOM     72  C   UNL     1       6.443   1.705   5.003  1.00  0.00     0.056 A 
ATOM     73  C   UNL     1       5.558   2.256   5.923  1.00  0.00     0.064 A 
ATOM     74  N   UNL     1       7.572   2.433   4.641  1.00  0.00    -0.307 N 
ATOM     75  C   UNL     1       5.826   3.616   6.415  1.00  0.00     0.264 A 
ATOM     76  C   UNL     1       7.968   3.573   5.294  1.00  0.00     0.328 A 
ATOM     77  H   UNL     1       8.112   2.116   3.881  1.00  0.00     0.171 HD
ATOM     78  O   UNL     1       4.890   4.280   6.849  1.00  0.00    -0.268 OA
ATOM     79  N   UNL     1       7.137   4.037   6.307  1.00  0.00    -0.260 N 
ATOM     80  O   UNL     1       9.016   4.121   4.953  1.00  0.00    -0.248 OA
BRANCH  79  81
ATOM     81  C   UNL     1       7.648   5.138   7.118  1.00  0.00     0.137 C 
BRANCH  81  82
ATOM     82  C   UNL     1       6.945   5.557   8.431  1.00  0.00     0.083 C 
BRANCH  82  83
ATOM     83  C   UNL     1       6.468   4.475   9.425  1.00  0.00     0.264 C 
BRANCH  83  84
ATOM     84  N   UNL     1       7.178   3.223   9.278  1.00  0.00    -0.331 N 
ATOM     85  C   UNL     1       8.569   3.203   9.742  1.00  0.00     0.291 C 
ATOM     86  C   UNL     1       6.492   2.037   9.806  1.00  0.00     0.291 C 
ATOM     87  H   UNL     1       7.190   3.164   8.259  1.00  0.00     0.348 HD
ATOM     88  C   UNL     1       9.223   1.990   9.064  1.00  0.00     0.221 C 
ATOM     89  C   UNL     1       7.171   0.805   9.181  1.00  0.00     0.221 C 
ATOM     90  O   UNL     1       8.580   0.767   9.466  1.00  0.00    -0.370 OA
ENDBRANCH  83  84
ENDBRANCH  82  83
ENDBRANCH  81  82
ENDBRANCH  79  81
ENDBRANCH  66  68
ENDBRANCH  65  66
ENDBRANCH  64  65
ENDBRANCH   1  64
TORSDOF 18
