REMARK SMILES C[NH+]1CCC([N@@H+](C)Cc2ccc(C(=O)OCCOCCOC(=O)c3ccc(-c4c5nc(c(-c6c(F)cccc6F)c6ccc([nH]6)c(-c6c(F)cccc6F)c6nc(c(-c7c(F)cccc7F)c7ccc4[nH]7)C=C6)C=C5)cc3)cn2)CC1
REMARK SMILES IDX 17 1 16 2 15 3 13 4 14 5 12 6 9 7 10 8 79 9 11 10 78 11 8 12
REMARK SMILES IDX 6 13 7 14 5 16 1 17 2 18 3 19 81 20 4 22 80 23 18 24 19 25
REMARK SMILES IDX 20 26 21 27 22 28 23 29 24 30 25 31 77 32 26 33 76 34 27 35
REMARK SMILES IDX 28 36 29 37 70 38 30 39 75 40 69 41 71 42 31 43 74 44 68 45
REMARK SMILES IDX 67 46 32 48 58 49 41 50 57 51 42 52 45 53 56 54 72 55 43 56
REMARK SMILES IDX 44 57 55 59 73 60 46 61 33 62 34 63 39 64 35 65 36 66 38 67
REMARK SMILES IDX 40 68 37 69 59 70 60 71 65 72 61 73 62 74 64 75 66 76 63 77
REMARK SMILES IDX 47 78 48 79 53 80 49 81 50 82 52 83 54 84 51 85
REMARK H PARENT 6 15 2 21 71 47 45 58
REMARK Flexibility Score: inf
ROOT
ATOM      1  C   UNL     1       0.014   7.040   5.077  1.00  0.00     0.202 C 
ENDROOT
BRANCH   1   2
ATOM      2  C   UNL     1      -0.718   6.338   3.931  1.00  0.00     0.261 C 
BRANCH   2   3
ATOM      3  O   UNL     1      -0.263   4.982   3.798  1.00  0.00    -0.460 OA
BRANCH   3   4
ATOM      4  C   UNL     1       0.341   4.715   2.620  1.00  0.00     0.339 C 
ATOM      5  O   UNL     1       0.349   5.417   1.618  1.00  0.00    -0.246 OA
BRANCH   4   6
ATOM      6  C   UNL     1       1.178   3.518   2.739  1.00  0.00     0.078 A 
ATOM      7  C   UNL     1       2.727   1.298   2.386  1.00  0.00     0.095 A 
ATOM      8  C   UNL     1       1.561   1.192   3.155  1.00  0.00     0.031 A 
ATOM      9  N   UNL     1       3.222   2.496   1.983  1.00  0.00    -0.254 NA
ATOM     10  C   UNL     1       0.773   2.330   3.342  1.00  0.00     0.019 A 
ATOM     11  C   UNL     1       2.422   3.570   2.131  1.00  0.00     0.127 A 
BRANCH   7  12
ATOM     12  C   UNL     1       3.336   0.064   1.738  1.00  0.00     0.319 C 
BRANCH  12  13
ATOM     13  N   UNL     1       3.182  -0.057   0.262  1.00  0.00    -0.330 N 
ATOM     14  C   UNL     1       4.040   0.887  -0.457  1.00  0.00     0.333 C 
ATOM     15  H   UNL     1       3.508  -1.008   0.093  1.00  0.00     0.348 HD
BRANCH  13  16
ATOM     16  C   UNL     1       1.807  -0.116  -0.301  1.00  0.00     0.195 C 
ATOM     17  C   UNL     1      -2.525  -0.130  -0.323  1.00  0.00     0.332 C 
ATOM     18  N   UNL     1      -1.103  -0.050  -0.003  1.00  0.00    -0.337 N 
ATOM     19  C   UNL     1      -0.454   1.017  -0.774  1.00  0.00     0.268 C 
ATOM     20  C   UNL     1      -0.427  -1.326  -0.259  1.00  0.00     0.268 C 
ATOM     21  H   UNL     1      -1.026   0.163   0.992  1.00  0.00     0.347 HD
ATOM     22  C   UNL     1       0.994   1.197  -0.321  1.00  0.00     0.126 C 
ATOM     23  C   UNL     1       0.994  -1.274   0.301  1.00  0.00     0.126 C 
ENDBRANCH  13  16
ENDBRANCH  12  13
ENDBRANCH   7  12
ENDBRANCH   4   6
ENDBRANCH   3   4
ENDBRANCH   2   3
ENDBRANCH   1   2
BRANCH   1  24
ATOM     24  O   UNL     1       1.415   7.259   4.908  1.00  0.00    -0.374 OA
BRANCH  24  25
ATOM     25  C   UNL     1       2.293   6.145   5.061  1.00  0.00     0.202 C 
BRANCH  25  26
ATOM     26  C   UNL     1       2.591   5.667   6.486  1.00  0.00     0.261 C 
BRANCH  26  27
ATOM     27  O   UNL     1       1.414   5.200   7.167  1.00  0.00    -0.460 OA
BRANCH  27  28
ATOM     28  C   UNL     1       0.981   6.013   8.158  1.00  0.00     0.338 C 
ATOM     29  O   UNL     1       1.518   7.030   8.573  1.00  0.00    -0.246 OA
BRANCH  28  30
ATOM     30  C   UNL     1      -0.369   5.610   8.588  1.00  0.00     0.060 A 
ATOM     31  C   UNL     1      -1.365   6.596   8.591  1.00  0.00     0.016 A 
ATOM     32  C   UNL     1      -0.642   4.321   9.052  1.00  0.00     0.016 A 
ATOM     33  C   UNL     1      -2.625   6.312   9.107  1.00  0.00     0.010 A 
ATOM     34  C   UNL     1      -1.906   4.041   9.581  1.00  0.00     0.010 A 
ATOM     35  C   UNL     1      -2.889   5.046   9.645  1.00  0.00    -0.014 A 
BRANCH  35  36
ATOM     36  C   UNL     1      -4.139   4.829  10.410  1.00  0.00     0.031 A 
ATOM     37  C   UNL     1      -4.097   4.911  11.910  1.00  0.00     0.074 A 
ATOM     38  C   UNL     1      -5.302   4.601   9.776  1.00  0.00     0.049 A 
ATOM     39  N   UNL     1      -5.062   4.742  12.778  1.00  0.00    -0.248 NA
ATOM     40  C   UNL     1      -2.792   5.224  12.513  1.00  0.00     0.031 C 
ATOM     41  C   UNL     1      -5.475   4.537   8.326  1.00  0.00     0.029 A 
ATOM     42  N   UNL     1      -6.558   4.376  10.278  1.00  0.00    -0.354 N 
ATOM     43  C   UNL     1      -4.481   4.924  14.027  1.00  0.00     0.074 A 
ATOM     44  C   UNL     1      -3.075   5.186  13.807  1.00  0.00     0.031 C 
ATOM     45  C   UNL     1      -6.766   4.279   8.055  1.00  0.00     0.029 A 
ATOM     46  C   UNL     1      -7.501   4.134   9.310  1.00  0.00     0.049 A 
ATOM     47  H   UNL     1      -6.764   4.387  11.241  1.00  0.00     0.167 HD
ATOM     48  C   UNL     1      -5.068   4.886  15.246  1.00  0.00     0.037 A 
ATOM     49  C   UNL     1      -8.804   3.815   9.428  1.00  0.00     0.037 A 
ATOM     50  C   UNL     1      -6.467   4.627  15.464  1.00  0.00     0.049 A 
ATOM     51  C   UNL     1      -9.420   3.715  10.797  1.00  0.00     0.074 A 
ATOM     52  C   UNL     1      -7.161   4.588  16.660  1.00  0.00     0.029 A 
ATOM     53  N   UNL     1      -7.384   4.356  14.460  1.00  0.00    -0.354 N 
ATOM     54  N   UNL     1      -8.869   3.914  11.970  1.00  0.00    -0.248 NA
ATOM     55  C   UNL     1     -10.842   3.347  10.859  1.00  0.00     0.031 C 
ATOM     56  C   UNL     1      -8.490   4.248  16.383  1.00  0.00     0.029 A 
ATOM     57  C   UNL     1      -8.633   4.123  15.011  1.00  0.00     0.049 A 
ATOM     58  H   UNL     1      -7.177   4.332  13.497  1.00  0.00     0.167 HD
ATOM     59  C   UNL     1      -9.880   3.724  12.905  1.00  0.00     0.074 A 
ATOM     60  C   UNL     1     -11.081   3.403  12.162  1.00  0.00     0.031 C 
ATOM     61  C   UNL     1      -9.819   3.809  14.257  1.00  0.00     0.037 A 
BRANCH  48  62
ATOM     62  C   UNL     1      -4.188   5.106  16.441  1.00  0.00     0.057 A 
ATOM     63  C   UNL     1      -3.667   6.368  16.754  1.00  0.00     0.134 A 
ATOM     64  C   UNL     1      -3.877   4.046  17.302  1.00  0.00     0.134 A 
ATOM     65  F   UNL     1      -3.915   7.422  15.962  1.00  0.00    -0.206 F 
ATOM     66  C   UNL     1      -2.849   6.563  17.868  1.00  0.00     0.040 A 
ATOM     67  C   UNL     1      -3.080   4.233  18.432  1.00  0.00     0.040 A 
ATOM     68  F   UNL     1      -4.347   2.812  17.061  1.00  0.00    -0.206 F 
ATOM     69  C   UNL     1      -2.559   5.494  18.715  1.00  0.00     0.006 A 
ENDBRANCH  48  62
BRANCH  49  70
ATOM     70  C   UNL     1      -9.616   3.558   8.213  1.00  0.00     0.057 A 
ATOM     71  C   UNL     1     -10.620   4.445   7.810  1.00  0.00     0.134 A 
ATOM     72  C   UNL     1      -9.416   2.412   7.435  1.00  0.00     0.134 A 
ATOM     73  F   UNL     1     -10.874   5.548   8.528  1.00  0.00    -0.206 F 
ATOM     74  C   UNL     1     -11.407   4.194   6.684  1.00  0.00     0.040 A 
ATOM     75  C   UNL     1     -10.179   2.160   6.294  1.00  0.00     0.040 A 
ATOM     76  F   UNL     1      -8.468   1.523   7.769  1.00  0.00    -0.206 F 
ATOM     77  C   UNL     1     -11.183   3.051   5.920  1.00  0.00     0.006 A 
ENDBRANCH  49  70
BRANCH  61  78
ATOM     78  C   UNL     1     -11.094   3.586  15.017  1.00  0.00     0.057 A 
ATOM     79  C   UNL     1     -11.656   2.311  15.160  1.00  0.00     0.134 A 
ATOM     80  C   UNL     1     -11.743   4.655  15.649  1.00  0.00     0.134 A 
ATOM     81  F   UNL     1     -11.089   1.248  14.570  1.00  0.00    -0.206 F 
ATOM     82  C   UNL     1     -12.831   2.111  15.887  1.00  0.00     0.040 A 
ATOM     83  C   UNL     1     -12.904   4.463  16.398  1.00  0.00     0.040 A 
ATOM     84  F   UNL     1     -11.252   5.900  15.559  1.00  0.00    -0.206 F 
ATOM     85  C   UNL     1     -13.454   3.188  16.514  1.00  0.00     0.006 A 
ENDBRANCH  61  78
ENDBRANCH  35  36
ENDBRANCH  28  30
ENDBRANCH  27  28
ENDBRANCH  26  27
ENDBRANCH  25  26
ENDBRANCH  24  25
ENDBRANCH   1  24
TORSDOF 17
