REMARK SMILES Cc1ccnc(C(=O)c2[nH]c3cc(Cl)c(F)cc3c2CC(=O)OCCOCCOC(=O)c2ccc(-c3c4nc(c(-c5c(F)cccc5F)c5ccc([nH]5)c(-c5c(F)cccc5F)c5nc(c(-c6c(F)cccc6F)c6ccc3[nH]6)C=C5)C=C4)cc2)c1
REMARK SMILES IDX 25 1 24 2 23 3 21 4 22 5 20 6 19 7 9 8 10 9 11 10 18 12
REMARK SMILES IDX 12 13 17 14 13 15 15 16 14 17 16 18 7 19 8 20 6 21 1 22 2 23
REMARK SMILES IDX 3 24 86 25 4 26 5 27 26 28 27 29 28 30 29 31 30 32 31 33
REMARK SMILES IDX 32 34 33 35 85 36 34 37 84 38 35 39 36 40 37 41 78 42 38 43
REMARK SMILES IDX 83 44 77 45 79 46 39 47 82 48 76 49 75 50 40 52 66 53 49 54
REMARK SMILES IDX 65 55 50 56 53 57 64 58 80 59 51 60 52 61 63 63 81 64 54 65
REMARK SMILES IDX 41 66 42 67 47 68 43 69 44 70 46 71 48 72 45 73 67 74 68 75
REMARK SMILES IDX 73 76 69 77 70 78 72 79 74 80 71 81 55 82 56 83 61 84 57 85
REMARK SMILES IDX 58 86 60 87 62 88 59 89
REMARK H PARENT 10 11 79 51 53 62
REMARK Flexibility Score: inf
ROOT
ATOM      1  C   UNL     1      -2.340  -0.562  -2.516  1.00  0.00     0.202 C 
ENDROOT
BRANCH   1   2
ATOM      2  C   UNL     1      -2.877  -1.977  -2.759  1.00  0.00     0.261 C 
BRANCH   2   3
ATOM      3  O   UNL     1      -1.857  -2.987  -2.478  1.00  0.00    -0.463 OA
BRANCH   3   4
ATOM      4  C   UNL     1      -0.796  -3.002  -3.325  1.00  0.00     0.310 C 
ATOM      5  O   UNL     1      -0.865  -2.537  -4.461  1.00  0.00    -0.252 OA
BRANCH   4   6
ATOM      6  C   UNL     1       0.523  -3.549  -2.762  1.00  0.00     0.161 C 
BRANCH   6   7
ATOM      7  C   UNL     1       0.714  -3.906  -1.282  1.00  0.00     0.000 A 
ATOM      8  C   UNL     1       1.557  -3.357  -0.266  1.00  0.00     0.093 A 
ATOM      9  N   UNL     1       1.605  -4.332   0.724  1.00  0.00    -0.351 N 
ATOM     10  C   UNL     1       0.738  -5.367   0.490  1.00  0.00     0.048 A 
ATOM     11  H   UNL     1       2.199  -4.285   1.508  1.00  0.00     0.167 HD
ATOM     12  C   UNL     1       0.125  -5.117  -0.731  1.00  0.00     0.007 A 
ATOM     13  C   UNL     1       0.490  -6.519   1.254  1.00  0.00     0.050 A 
ATOM     14  C   UNL     1      -0.821  -6.058  -1.202  1.00  0.00     0.051 A 
ATOM     15  C   UNL     1      -0.452  -7.431   0.769  1.00  0.00     0.078 A 
ATOM     16  C   UNL     1      -1.104  -7.194  -0.435  1.00  0.00     0.142 A 
ATOM     17  Cl  UNL     1      -0.785  -8.855   1.681  1.00  0.00    -0.081 Cl
ATOM     18  F   UNL     1      -2.017  -8.065  -0.896  1.00  0.00    -0.205 F 
BRANCH   8  19
ATOM     19  C   UNL     1       2.533  -2.240  -0.135  1.00  0.00     0.227 C 
ATOM     20  O   UNL     1       3.730  -2.506  -0.254  1.00  0.00    -0.285 OA
BRANCH  19  21
ATOM     21  C   UNL     1       2.212  -0.786   0.282  1.00  0.00     0.113 A 
ATOM     22  C   UNL     1      -0.561   1.450   1.574  1.00  0.00     0.044 C 
ATOM     23  C   UNL     1       0.819   1.004   1.149  1.00  0.00    -0.047 A 
ATOM     24  C   UNL     1       1.577   1.923   0.436  1.00  0.00     0.023 A 
ATOM     25  C   UNL     1       1.247  -0.356   1.202  1.00  0.00     0.036 A 
ATOM     26  C   UNL     1       2.656   1.444  -0.271  1.00  0.00     0.112 A 
ATOM     27  N   UNL     1       2.952   0.128  -0.404  1.00  0.00    -0.253 NA
ENDBRANCH  19  21
ENDBRANCH   8  19
ENDBRANCH   6   7
ENDBRANCH   4   6
ENDBRANCH   3   4
ENDBRANCH   2   3
ENDBRANCH   1   2
BRANCH   1  28
ATOM     28  O   UNL     1      -2.107  -0.404  -1.121  1.00  0.00    -0.374 OA
BRANCH  28  29
ATOM     29  C   UNL     1      -0.972  -1.140  -0.687  1.00  0.00     0.202 C 
BRANCH  29  30
ATOM     30  C   UNL     1      -1.290  -2.194   0.379  1.00  0.00     0.261 C 
BRANCH  30  31
ATOM     31  O   UNL     1      -2.140  -1.588   1.317  1.00  0.00    -0.460 OA
BRANCH  31  32
ATOM     32  C   UNL     1      -2.120  -1.851   2.637  1.00  0.00     0.338 C 
ATOM     33  O   UNL     1      -1.272  -2.386   3.319  1.00  0.00    -0.246 OA
BRANCH  32  34
ATOM     34  C   UNL     1      -3.426  -1.250   2.976  1.00  0.00     0.060 A 
ATOM     35  C   UNL     1      -4.446  -1.855   2.224  1.00  0.00     0.016 A 
ATOM     36  C   UNL     1      -3.355   0.148   3.123  1.00  0.00     0.016 A 
ATOM     37  C   UNL     1      -5.138  -1.052   1.339  1.00  0.00     0.010 A 
ATOM     38  C   UNL     1      -4.101   0.954   2.269  1.00  0.00     0.010 A 
ATOM     39  C   UNL     1      -4.938   0.345   1.334  1.00  0.00    -0.014 A 
BRANCH  39  40
ATOM     40  C   UNL     1      -5.962   1.082   0.609  1.00  0.00     0.031 A 
ATOM     41  C   UNL     1      -7.264   0.879   1.292  1.00  0.00     0.074 A 
ATOM     42  C   UNL     1      -5.891   1.864  -0.479  1.00  0.00     0.049 A 
ATOM     43  N   UNL     1      -8.239   0.129   0.901  1.00  0.00    -0.248 NA
ATOM     44  C   UNL     1      -7.367   1.361   2.679  1.00  0.00     0.031 C 
ATOM     45  C   UNL     1      -4.744   2.465  -1.150  1.00  0.00     0.029 A 
ATOM     46  N   UNL     1      -6.953   2.335  -1.194  1.00  0.00    -0.354 N 
ATOM     47  C   UNL     1      -9.146   0.140   1.948  1.00  0.00     0.074 A 
ATOM     48  C   UNL     1      -8.490   0.764   3.069  1.00  0.00     0.031 C 
ATOM     49  C   UNL     1      -5.194   3.391  -2.038  1.00  0.00     0.029 A 
ATOM     50  C   UNL     1      -6.651   3.346  -2.087  1.00  0.00     0.049 A 
ATOM     51  H   UNL     1      -7.865   1.982  -1.082  1.00  0.00     0.167 HD
ATOM     52  C   UNL     1     -10.449  -0.191   1.775  1.00  0.00     0.037 A 
ATOM     53  C   UNL     1      -7.562   4.120  -2.730  1.00  0.00     0.037 A 
ATOM     54  C   UNL     1     -10.666  -0.941   0.569  1.00  0.00     0.049 A 
ATOM     55  C   UNL     1      -8.870   3.411  -2.706  1.00  0.00     0.074 A 
ATOM     56  C   UNL     1     -10.230  -2.167   0.101  1.00  0.00     0.029 A 
ATOM     57  N   UNL     1     -11.142  -0.274  -0.533  1.00  0.00    -0.354 N 
ATOM     58  N   UNL     1      -9.140   2.342  -3.399  1.00  0.00    -0.248 NA
ATOM     59  C   UNL     1      -9.760   3.664  -1.581  1.00  0.00     0.031 C 
ATOM     60  C   UNL     1     -10.025  -1.982  -1.298  1.00  0.00     0.029 A 
ATOM     61  C   UNL     1     -10.371  -0.666  -1.599  1.00  0.00     0.049 A 
ATOM     62  H   UNL     1     -11.891   0.364  -0.554  1.00  0.00     0.167 HD
ATOM     63  C   UNL     1      -9.946   1.575  -2.571  1.00  0.00     0.074 A 
ATOM     64  C   UNL     1     -10.366   2.477  -1.503  1.00  0.00     0.031 C 
ATOM     65  C   UNL     1      -9.980   0.215  -2.674  1.00  0.00     0.037 A 
BRANCH  52  66
ATOM     66  C   UNL     1     -11.540   0.472   2.557  1.00  0.00     0.057 A 
ATOM     67  C   UNL     1     -12.828  -0.077   2.565  1.00  0.00     0.134 A 
ATOM     68  C   UNL     1     -11.425   1.768   3.105  1.00  0.00     0.134 A 
ATOM     69  F   UNL     1     -13.065  -1.283   2.028  1.00  0.00    -0.206 F 
ATOM     70  C   UNL     1     -13.930   0.628   3.063  1.00  0.00     0.040 A 
ATOM     71  C   UNL     1     -12.503   2.454   3.660  1.00  0.00     0.040 A 
ATOM     72  F   UNL     1     -10.289   2.475   3.040  1.00  0.00    -0.206 F 
ATOM     73  C   UNL     1     -13.768   1.894   3.617  1.00  0.00     0.006 A 
ENDBRANCH  52  66
BRANCH  53  74
ATOM     74  C   UNL     1      -7.486   5.559  -3.074  1.00  0.00     0.057 A 
ATOM     75  C   UNL     1      -8.415   6.142  -3.950  1.00  0.00     0.134 A 
ATOM     76  C   UNL     1      -6.707   6.451  -2.319  1.00  0.00     0.134 A 
ATOM     77  F   UNL     1      -9.233   5.375  -4.686  1.00  0.00    -0.206 F 
ATOM     78  C   UNL     1      -8.587   7.529  -4.041  1.00  0.00     0.040 A 
ATOM     79  C   UNL     1      -6.863   7.838  -2.406  1.00  0.00     0.040 A 
ATOM     80  F   UNL     1      -5.837   6.007  -1.401  1.00  0.00    -0.206 F 
ATOM     81  C   UNL     1      -7.818   8.382  -3.256  1.00  0.00     0.006 A 
ENDBRANCH  53  74
BRANCH  65  82
ATOM     82  C   UNL     1      -9.328  -0.412  -3.875  1.00  0.00     0.057 A 
ATOM     83  C   UNL     1      -7.963  -0.296  -4.179  1.00  0.00     0.134 A 
ATOM     84  C   UNL     1     -10.085  -1.270  -4.682  1.00  0.00     0.134 A 
ATOM     85  F   UNL     1      -7.135   0.417  -3.402  1.00  0.00    -0.206 F 
ATOM     86  C   UNL     1      -7.392  -0.961  -5.269  1.00  0.00     0.040 A 
ATOM     87  C   UNL     1      -9.519  -1.968  -5.751  1.00  0.00     0.040 A 
ATOM     88  F   UNL     1     -11.386  -1.474  -4.419  1.00  0.00    -0.206 F 
ATOM     89  C   UNL     1      -8.171  -1.805  -6.055  1.00  0.00     0.006 A 
ENDBRANCH  65  82
ENDBRANCH  39  40
ENDBRANCH  32  34
ENDBRANCH  31  32
ENDBRANCH  30  31
ENDBRANCH  29  30
ENDBRANCH  28  29
ENDBRANCH   1  28
TORSDOF 17
