REMARK SMILES CSc1nc(C2CC2)nc(C)c1C(=O)OCCOCCOC(=O)c1ccc(-c2c3nc(c(-c4c(F)cccc4F)c4ccc([nH]4)c(-c4c(F)cccc4F)c4nc(c(-c5c(F)cccc5F)c5ccc2[nH]5)C=C4)C=C3)cc1
REMARK SMILES IDX 19 1 18 2 17 3 16 4 15 5 13 6 14 7 12 8 3 9 4 10 5 11 10 12
REMARK SMILES IDX 9 13 11 14 2 15 1 16 6 17 7 18 8 19 20 20 21 21 22 22 23 23
REMARK SMILES IDX 24 24 25 25 77 26 26 27 76 28 27 29 28 30 29 31 70 32 30 33
REMARK SMILES IDX 75 34 69 35 71 36 31 37 74 38 68 39 67 40 32 42 58 43 41 44
REMARK SMILES IDX 57 45 42 46 45 47 56 48 72 49 43 50 44 51 55 53 73 54 46 55
REMARK SMILES IDX 33 56 34 57 39 58 35 59 36 60 38 61 40 62 37 63 59 64 60 65
REMARK SMILES IDX 65 66 61 67 62 68 64 69 66 70 63 71 47 72 48 73 53 74 49 75
REMARK SMILES IDX 50 76 52 77 54 78 51 79
REMARK H PARENT 71 41 45 52
REMARK Flexibility Score: inf
ROOT
ATOM      1  C   UNL     1      -2.603   1.935  -2.840  1.00  0.00     0.202 C 
ENDROOT
BRANCH   1   2
ATOM      2  O   UNL     1      -3.684   1.713  -1.935  1.00  0.00    -0.374 OA
BRANCH   2   3
ATOM      3  C   UNL     1      -4.073   2.792  -1.084  1.00  0.00     0.202 C 
BRANCH   3   4
ATOM      4  C   UNL     1      -3.100   3.133   0.045  1.00  0.00     0.261 C 
BRANCH   4   5
ATOM      5  O   UNL     1      -1.888   3.664  -0.514  1.00  0.00    -0.460 OA
BRANCH   5   6
ATOM      6  C   UNL     1      -0.754   3.243   0.079  1.00  0.00     0.342 C 
ATOM      7  O   UNL     1      -0.659   2.683   1.163  1.00  0.00    -0.246 OA
BRANCH   6   8
ATOM      8  C   UNL     1       0.393   3.461  -0.801  1.00  0.00     0.113 A 
ATOM      9  C   UNL     1       1.182   2.397  -1.203  1.00  0.00     0.114 A 
ATOM     10  N   UNL     1       2.376   2.560  -1.812  1.00  0.00    -0.225 NA
ATOM     11  C   UNL     1       2.790   3.816  -2.055  1.00  0.00     0.133 A 
ATOM     12  C   UNL     1       0.812   4.712  -1.211  1.00  0.00     0.057 A 
ATOM     13  N   UNL     1       2.009   4.891  -1.821  1.00  0.00    -0.237 NA
ATOM     14  C   UNL     1       0.017   5.965  -0.997  1.00  0.00     0.068 C 
BRANCH   9  15
ATOM     15  S   UNL     1       0.590   0.705  -1.205  1.00  0.00    -0.109 SA
ATOM     16  C   UNL     1       1.429   0.086   0.266  1.00  0.00     0.092 C 
ENDBRANCH   9  15
BRANCH  11  17
ATOM     17  C   UNL     1       4.192   4.068  -2.559  1.00  0.00     0.058 C 
ATOM     18  C   UNL     1       5.199   2.946  -2.678  1.00  0.00     0.012 C 
ATOM     19  C   UNL     1       4.631   3.575  -3.917  1.00  0.00     0.012 C 
ENDBRANCH  11  17
ENDBRANCH   6   8
ENDBRANCH   5   6
ENDBRANCH   4   5
ENDBRANCH   3   4
ENDBRANCH   2   3
ENDBRANCH   1   2
BRANCH   1  20
ATOM     20  C   UNL     1      -2.924   2.700  -4.128  1.00  0.00     0.261 C 
BRANCH  20  21
ATOM     21  O   UNL     1      -3.416   4.028  -3.878  1.00  0.00    -0.460 OA
BRANCH  21  22
ATOM     22  C   UNL     1      -4.744   4.182  -4.096  1.00  0.00     0.338 C 
ATOM     23  O   UNL     1      -5.530   3.349  -4.525  1.00  0.00    -0.246 OA
BRANCH  22  24
ATOM     24  C   UNL     1      -5.190   5.487  -3.582  1.00  0.00     0.060 A 
ATOM     25  C   UNL     1      -6.255   5.494  -2.672  1.00  0.00     0.016 A 
ATOM     26  C   UNL     1      -4.636   6.685  -4.039  1.00  0.00     0.016 A 
ATOM     27  C   UNL     1      -6.802   6.702  -2.249  1.00  0.00     0.010 A 
ATOM     28  C   UNL     1      -5.194   7.897  -3.621  1.00  0.00     0.010 A 
ATOM     29  C   UNL     1      -6.300   7.910  -2.751  1.00  0.00    -0.014 A 
BRANCH  29  30
ATOM     30  C   UNL     1      -7.022   9.173  -2.470  1.00  0.00     0.031 A 
ATOM     31  C   UNL     1      -7.950   9.732  -3.512  1.00  0.00     0.074 A 
ATOM     32  C   UNL     1      -6.875   9.797  -1.288  1.00  0.00     0.049 A 
ATOM     33  N   UNL     1      -8.658  10.832  -3.488  1.00  0.00    -0.248 NA
ATOM     34  C   UNL     1      -8.099   8.945  -4.747  1.00  0.00     0.031 C 
ATOM     35  C   UNL     1      -6.034   9.332  -0.186  1.00  0.00     0.029 A 
ATOM     36  N   UNL     1      -7.429  10.962  -0.823  1.00  0.00    -0.354 N 
ATOM     37  C   UNL     1      -9.332  10.873  -4.702  1.00  0.00     0.074 A 
ATOM     38  C   UNL     1      -8.925   9.704  -5.452  1.00  0.00     0.031 C 
ATOM     39  C   UNL     1      -6.120  10.211   0.827  1.00  0.00     0.029 A 
ATOM     40  C   UNL     1      -6.997  11.312   0.432  1.00  0.00     0.049 A 
ATOM     41  H   UNL     1      -8.075  11.496  -1.339  1.00  0.00     0.167 HD
ATOM     42  C   UNL     1     -10.216  11.797  -5.147  1.00  0.00     0.037 A 
ATOM     43  C   UNL     1      -7.263  12.408   1.169  1.00  0.00     0.037 A 
ATOM     44  C   UNL     1     -10.620  12.958  -4.399  1.00  0.00     0.049 A 
ATOM     45  C   UNL     1      -8.197  13.455   0.623  1.00  0.00     0.074 A 
ATOM     46  C   UNL     1     -11.525  13.942  -4.755  1.00  0.00     0.029 A 
ATOM     47  N   UNL     1     -10.136  13.295  -3.144  1.00  0.00    -0.354 N 
ATOM     48  N   UNL     1      -8.849  13.472  -0.514  1.00  0.00    -0.248 NA
ATOM     49  C   UNL     1      -8.434  14.636   1.466  1.00  0.00     0.031 C 
ATOM     50  C   UNL     1     -11.554  14.899  -3.735  1.00  0.00     0.029 A 
ATOM     51  C   UNL     1     -10.704  14.485  -2.722  1.00  0.00     0.049 A 
ATOM     52  H   UNL     1      -9.485  12.766  -2.628  1.00  0.00     0.167 HD
ATOM     53  C   UNL     1      -9.592  14.646  -0.512  1.00  0.00     0.074 A 
ATOM     54  C   UNL     1      -9.320  15.309   0.746  1.00  0.00     0.031 C 
ATOM     55  C   UNL     1     -10.427  15.130  -1.464  1.00  0.00     0.037 A 
BRANCH  42  56
ATOM     56  C   UNL     1     -10.790  11.600  -6.519  1.00  0.00     0.057 A 
ATOM     57  C   UNL     1     -11.730  10.598  -6.792  1.00  0.00     0.134 A 
ATOM     58  C   UNL     1     -10.422  12.445  -7.574  1.00  0.00     0.134 A 
ATOM     59  F   UNL     1     -12.115   9.746  -5.829  1.00  0.00    -0.206 F 
ATOM     60  C   UNL     1     -12.268  10.430  -8.069  1.00  0.00     0.040 A 
ATOM     61  C   UNL     1     -10.972  12.303  -8.849  1.00  0.00     0.040 A 
ATOM     62  F   UNL     1      -9.529  13.427  -7.380  1.00  0.00    -0.206 F 
ATOM     63  C   UNL     1     -11.894  11.290  -9.101  1.00  0.00     0.006 A 
ENDBRANCH  42  56
BRANCH  43  64
ATOM     64  C   UNL     1      -6.630  12.581   2.500  1.00  0.00     0.057 A 
ATOM     65  C   UNL     1      -7.384  12.520   3.677  1.00  0.00     0.134 A 
ATOM     66  C   UNL     1      -5.258  12.832   2.625  1.00  0.00     0.134 A 
ATOM     67  F   UNL     1      -8.706  12.305   3.621  1.00  0.00    -0.206 F 
ATOM     68  C   UNL     1      -6.801  12.719   4.929  1.00  0.00     0.040 A 
ATOM     69  C   UNL     1      -4.657  13.008   3.872  1.00  0.00     0.040 A 
ATOM     70  F   UNL     1      -4.479  12.901   1.534  1.00  0.00    -0.206 F 
ATOM     71  C   UNL     1      -5.431  12.960   5.029  1.00  0.00     0.006 A 
ENDBRANCH  43  64
BRANCH  55  72
ATOM     72  C   UNL     1     -11.134  16.421  -1.168  1.00  0.00     0.057 A 
ATOM     73  C   UNL     1     -10.462  17.650  -1.172  1.00  0.00     0.134 A 
ATOM     74  C   UNL     1     -12.511  16.437  -0.915  1.00  0.00     0.134 A 
ATOM     75  F   UNL     1      -9.140  17.702  -1.395  1.00  0.00    -0.206 F 
ATOM     76  C   UNL     1     -11.132  18.847  -0.912  1.00  0.00     0.040 A 
ATOM     77  C   UNL     1     -13.197  17.630  -0.680  1.00  0.00     0.040 A 
ATOM     78  F   UNL     1     -13.216  15.295  -0.906  1.00  0.00    -0.206 F 
ATOM     79  C   UNL     1     -12.505  18.839  -0.673  1.00  0.00     0.006 A 
ENDBRANCH  55  72
ENDBRANCH  29  30
ENDBRANCH  22  24
ENDBRANCH  21  22
ENDBRANCH  20  21
ENDBRANCH   1  20
TORSDOF 16
