REMARK SMILES CCc1n[nH]c(C(=O)N(C)[C@H]2COC[C@H]2C(=O)OCCOCCOC(=O)c2ccc(-c3c4nc(c(-c5c(F)cccc5F)c5ccc([nH]5)c(-c5c(F)cccc5F)c5nc(c(-c6c(F)cccc6F)c6ccc3[nH]6)C=C5)C=C4)cc2)n1
REMARK SMILES IDX 20 1 19 2 18 3 16 4 17 5 15 6 11 7 12 8 13 9 14 10 9 11
REMARK SMILES IDX 10 12 7 13 8 14 6 15 3 16 4 17 81 18 5 19 2 21 1 22 21 23
REMARK SMILES IDX 22 24 23 25 24 26 25 27 26 28 27 29 28 30 80 31 29 32 79 33
REMARK SMILES IDX 30 34 31 35 32 36 73 37 33 38 78 39 72 40 74 41 34 42 77 43
REMARK SMILES IDX 71 44 70 45 35 47 61 48 44 49 60 50 45 51 48 52 59 53 75 54
REMARK SMILES IDX 46 55 47 56 58 58 76 59 49 60 36 61 37 62 42 63 38 64 39 65
REMARK SMILES IDX 41 66 43 67 40 68 62 69 63 70 68 71 64 72 65 73 67 74 69 75
REMARK SMILES IDX 66 76 50 77 51 78 56 79 52 80 53 81 55 82 57 83 54 84
REMARK H PARENT 5 20 74 46 48 57
REMARK Flexibility Score: inf
ROOT
ATOM      1  C   UNL     1      -4.543   7.381  -1.026  1.00  0.00     0.202 C 
ENDROOT
BRANCH   1   2
ATOM      2  C   UNL     1      -4.321   8.737  -0.360  1.00  0.00     0.261 C 
BRANCH   2   3
ATOM      3  O   UNL     1      -2.938   9.109  -0.519  1.00  0.00    -0.463 OA
BRANCH   3   4
ATOM      4  C   UNL     1      -2.184   9.125   0.597  1.00  0.00     0.313 C 
ATOM      5  O   UNL     1      -2.627   9.030   1.736  1.00  0.00    -0.252 OA
BRANCH   4   6
ATOM      6  C   UNL     1      -0.714   9.296   0.336  1.00  0.00     0.150 C 
ATOM      7  C   UNL     1       0.073   8.668  -0.816  1.00  0.00     0.127 C 
ATOM      8  C   UNL     1       1.401   9.421  -0.594  1.00  0.00     0.186 C 
ATOM      9  O   UNL     1       1.054  10.762  -0.199  1.00  0.00    -0.378 OA
ATOM     10  C   UNL     1      -0.264  10.735   0.371  1.00  0.00     0.177 C 
BRANCH   7  11
ATOM     11  N   UNL     1      -0.301   8.752  -2.253  1.00  0.00    -0.333 N 
ATOM     12  C   UNL     1      -1.281   9.710  -2.743  1.00  0.00     0.147 C 
BRANCH  11  13
ATOM     13  C   UNL     1       0.462   7.950  -3.145  1.00  0.00     0.291 C 
ATOM     14  O   UNL     1       1.282   7.147  -2.688  1.00  0.00    -0.265 OA
BRANCH  13  15
ATOM     15  C   UNL     1       0.349   8.101  -4.588  1.00  0.00     0.214 A 
ATOM     16  C   UNL     1      -0.045   8.696  -6.590  1.00  0.00     0.151 A 
ATOM     17  N   UNL     1       0.984   7.853  -6.731  1.00  0.00    -0.158 NA
ATOM     18  N   UNL     1      -0.487   8.838  -5.295  1.00  0.00    -0.207 NA
ATOM     19  N   UNL     1       1.212   7.490  -5.457  1.00  0.00    -0.255 N 
ATOM     20  H   UNL     1       1.916   6.859  -5.183  1.00  0.00     0.192 HD
BRANCH  16  21
ATOM     21  C   UNL     1      -0.652   9.471  -7.709  1.00  0.00     0.076 C 
ATOM     22  C   UNL     1      -0.616   8.776  -9.063  1.00  0.00     0.012 C 
ENDBRANCH  16  21
ENDBRANCH  13  15
ENDBRANCH  11  13
ENDBRANCH   7  11
ENDBRANCH   4   6
ENDBRANCH   3   4
ENDBRANCH   2   3
ENDBRANCH   1   2
BRANCH   1  23
ATOM     23  O   UNL     1      -4.022   6.276  -0.287  1.00  0.00    -0.374 OA
BRANCH  23  24
ATOM     24  C   UNL     1      -2.644   5.967  -0.500  1.00  0.00     0.202 C 
BRANCH  24  25
ATOM     25  C   UNL     1      -2.359   5.045  -1.690  1.00  0.00     0.261 C 
BRANCH  25  26
ATOM     26  O   UNL     1      -2.606   5.708  -2.943  1.00  0.00    -0.460 OA
BRANCH  26  27
ATOM     27  C   UNL     1      -3.785   5.402  -3.536  1.00  0.00     0.338 C 
ATOM     28  O   UNL     1      -4.615   4.585  -3.166  1.00  0.00    -0.246 OA
BRANCH  27  29
ATOM     29  C   UNL     1      -4.029   6.349  -4.638  1.00  0.00     0.060 A 
ATOM     30  C   UNL     1      -5.238   7.058  -4.662  1.00  0.00     0.016 A 
ATOM     31  C   UNL     1      -3.094   6.522  -5.653  1.00  0.00     0.016 A 
ATOM     32  C   UNL     1      -5.512   7.952  -5.702  1.00  0.00     0.010 A 
ATOM     33  C   UNL     1      -3.384   7.400  -6.698  1.00  0.00     0.010 A 
ATOM     34  C   UNL     1      -4.587   8.128  -6.737  1.00  0.00    -0.014 A 
BRANCH  34  35
ATOM     35  C   UNL     1      -4.885   8.995  -7.911  1.00  0.00     0.031 A 
ATOM     36  C   UNL     1      -5.075   8.365  -9.265  1.00  0.00     0.074 A 
ATOM     37  C   UNL     1      -4.941  10.337  -7.794  1.00  0.00     0.049 A 
ATOM     38  N   UNL     1      -5.218   8.935 -10.435  1.00  0.00    -0.248 NA
ATOM     39  C   UNL     1      -5.084   6.894  -9.307  1.00  0.00     0.031 C 
ATOM     40  C   UNL     1      -4.778  11.089  -6.551  1.00  0.00     0.029 A 
ATOM     41  N   UNL     1      -5.137  11.309  -8.747  1.00  0.00    -0.354 N 
ATOM     42  C   UNL     1      -5.303   7.896 -11.353  1.00  0.00     0.074 A 
ATOM     43  C   UNL     1      -5.163   6.662 -10.609  1.00  0.00     0.031 C 
ATOM     44  C   UNL     1      -4.891  12.403  -6.815  1.00  0.00     0.029 A 
ATOM     45  C   UNL     1      -5.088  12.590  -8.251  1.00  0.00     0.049 A 
ATOM     46  H   UNL     1      -5.298  11.106  -9.697  1.00  0.00     0.167 HD
ATOM     47  C   UNL     1      -5.495   7.958 -12.692  1.00  0.00     0.037 A 
ATOM     48  C   UNL     1      -5.168  13.779  -8.883  1.00  0.00     0.037 A 
ATOM     49  C   UNL     1      -5.679   9.176 -13.435  1.00  0.00     0.049 A 
ATOM     50  C   UNL     1      -5.333  13.821 -10.381  1.00  0.00     0.074 A 
ATOM     51  C   UNL     1      -5.954   9.327 -14.783  1.00  0.00     0.029 A 
ATOM     52  N   UNL     1      -5.605  10.450 -12.896  1.00  0.00    -0.354 N 
ATOM     53  N   UNL     1      -5.463  12.830 -11.229  1.00  0.00    -0.248 NA
ATOM     54  C   UNL     1      -5.352  15.152 -11.011  1.00  0.00     0.031 C 
ATOM     55  C   UNL     1      -5.994  10.694 -15.071  1.00  0.00     0.029 A 
ATOM     56  C   UNL     1      -5.793  11.394 -13.893  1.00  0.00     0.049 A 
ATOM     57  H   UNL     1      -5.443  10.654 -11.947  1.00  0.00     0.167 HD
ATOM     58  C   UNL     1      -5.606  13.416 -12.482  1.00  0.00     0.074 A 
ATOM     59  C   UNL     1      -5.560  14.849 -12.285  1.00  0.00     0.031 C 
ATOM     60  C   UNL     1      -5.758  12.818 -13.688  1.00  0.00     0.037 A 
BRANCH  47  61
ATOM     61  C   UNL     1      -5.505   6.664 -13.451  1.00  0.00     0.057 A 
ATOM     62  C   UNL     1      -6.567   5.756 -13.358  1.00  0.00     0.134 A 
ATOM     63  C   UNL     1      -4.455   6.345 -14.321  1.00  0.00     0.134 A 
ATOM     64  F   UNL     1      -7.598   5.998 -12.534  1.00  0.00    -0.206 F 
ATOM     65  C   UNL     1      -6.573   4.565 -14.085  1.00  0.00     0.040 A 
ATOM     66  C   UNL     1      -4.462   5.170 -15.073  1.00  0.00     0.040 A 
ATOM     67  F   UNL     1      -3.411   7.176 -14.463  1.00  0.00    -0.206 F 
ATOM     68  C   UNL     1      -5.521   4.273 -14.951  1.00  0.00     0.006 A 
ENDBRANCH  47  61
BRANCH  48  69
ATOM     69  C   UNL     1      -5.080  15.049  -8.115  1.00  0.00     0.057 A 
ATOM     70  C   UNL     1      -6.185  15.902  -8.003  1.00  0.00     0.134 A 
ATOM     71  C   UNL     1      -3.882  15.466  -7.523  1.00  0.00     0.134 A 
ATOM     72  F   UNL     1      -7.352  15.571  -8.574  1.00  0.00    -0.206 F 
ATOM     73  C   UNL     1      -6.097  17.133  -7.350  1.00  0.00     0.040 A 
ATOM     74  C   UNL     1      -3.786  16.683  -6.845  1.00  0.00     0.040 A 
ATOM     75  F   UNL     1      -2.785  14.697  -7.598  1.00  0.00    -0.206 F 
ATOM     76  C   UNL     1      -4.894  17.524  -6.766  1.00  0.00     0.006 A 
ENDBRANCH  48  69
BRANCH  60  77
ATOM     77  C   UNL     1      -5.920  13.703 -14.891  1.00  0.00     0.057 A 
ATOM     78  C   UNL     1      -4.845  14.419 -15.431  1.00  0.00     0.134 A 
ATOM     79  C   UNL     1      -7.152  13.788 -15.554  1.00  0.00     0.134 A 
ATOM     80  F   UNL     1      -3.643  14.391 -14.837  1.00  0.00    -0.206 F 
ATOM     81  C   UNL     1      -4.992  15.199 -16.580  1.00  0.00     0.040 A 
ATOM     82  C   UNL     1      -7.304  14.544 -16.718  1.00  0.00     0.040 A 
ATOM     83  F   UNL     1      -8.221  13.120 -15.095  1.00  0.00    -0.206 F 
ATOM     84  C   UNL     1      -6.222  15.255 -17.232  1.00  0.00     0.006 A 
ENDBRANCH  60  77
ENDBRANCH  34  35
ENDBRANCH  27  29
ENDBRANCH  26  27
ENDBRANCH  25  26
ENDBRANCH  24  25
ENDBRANCH  23  24
ENDBRANCH   1  23
TORSDOF 18
