REMARK SMILES O=C(OCCOCCOC(=O)[C@H]1CC2(CC[NH+](C(=O)C3CC3)CC2)CN1C(=O)CCn1cccn1)c1ccc(-c2c3nc(c(-c4c(F)cccc4F)c4ccc([nH]4)c(-c4c(F)cccc4F)c4nc(c(-c5c(F)cccc5F)c5ccc2[nH]5)C=C4)C=C3)cc1
REMARK SMILES IDX 7 1 6 2 5 3 4 4 3 5 2 6 1 7 36 8 37 9 89 10 38 11 88 12
REMARK SMILES IDX 39 13 40 14 41 15 82 16 42 17 87 18 81 19 83 20 43 21 86 22
REMARK SMILES IDX 80 23 79 24 44 26 70 27 53 28 69 29 54 30 57 31 68 32 84 33
REMARK SMILES IDX 55 34 56 35 67 37 85 38 58 39 45 40 46 41 51 42 47 43 48 44
REMARK SMILES IDX 50 45 52 46 49 47 71 48 72 49 77 50 73 51 74 52 76 53 78 54
REMARK SMILES IDX 75 55 59 56 60 57 65 58 61 59 62 60 64 61 66 62 63 63 8 64
REMARK SMILES IDX 9 65 10 66 11 67 12 68 13 69 26 70 14 71 25 72 15 73 24 74
REMARK SMILES IDX 16 75 23 76 17 77 27 79 28 80 29 81 30 82 31 83 32 84 35 85
REMARK SMILES IDX 33 86 34 87 18 88 19 89 20 90 21 91 22 92
REMARK H PARENT 83 25 57 36 17 78
REMARK Flexibility Score: inf
ROOT
ATOM      1  C   UNL     1       1.507   4.284  -4.713  1.00  0.00     0.202 C 
ENDROOT
BRANCH   1   2
ATOM      2  O   UNL     1       1.231   2.937  -5.080  1.00  0.00    -0.374 OA
BRANCH   2   3
ATOM      3  C   UNL     1       2.290   1.972  -5.206  1.00  0.00     0.202 C 
BRANCH   3   4
ATOM      4  C   UNL     1       3.578   2.194  -6.068  1.00  0.00     0.261 C 
BRANCH   4   5
ATOM      5  O   UNL     1       4.039   3.543  -6.285  1.00  0.00    -0.460 OA
BRANCH   5   6
ATOM      6  C   UNL     1       3.365   4.553  -6.876  1.00  0.00     0.338 C 
ATOM      7  O   UNL     1       3.717   5.720  -6.720  1.00  0.00    -0.246 OA
BRANCH   6   8
ATOM      8  C   UNL     1       2.243   4.252  -7.789  1.00  0.00     0.060 A 
ATOM      9  C   UNL     1       1.743   2.970  -7.962  1.00  0.00     0.016 A 
ATOM     10  C   UNL     1       2.034   5.194  -8.779  1.00  0.00     0.016 A 
ATOM     11  C   UNL     1       1.799   2.414  -9.185  1.00  0.00     0.010 A 
ATOM     12  C   UNL     1       1.718   4.717 -10.011  1.00  0.00     0.010 A 
ATOM     13  C   UNL     1       1.803   3.336 -10.206  1.00  0.00    -0.014 A 
BRANCH  13  14
ATOM     14  C   UNL     1       1.438   2.839 -11.487  1.00  0.00     0.031 A 
ATOM     15  C   UNL     1       0.050   2.253 -11.357  1.00  0.00     0.074 A 
ATOM     16  C   UNL     1       2.332   3.126 -12.456  1.00  0.00     0.049 A 
ATOM     17  N   UNL     1      -0.314   1.042 -11.617  1.00  0.00    -0.248 NA
ATOM     18  C   UNL     1      -0.977   2.952 -10.519  1.00  0.00     0.031 C 
ATOM     19  C   UNL     1       3.646   3.801 -12.372  1.00  0.00     0.029 A 
ATOM     20  N   UNL     1       2.188   2.999 -13.793  1.00  0.00    -0.354 N 
ATOM     21  C   UNL     1      -1.685   0.993 -11.356  1.00  0.00     0.074 A 
ATOM     22  C   UNL     1      -1.967   2.061 -10.454  1.00  0.00     0.031 C 
ATOM     23  C   UNL     1       3.977   4.313 -13.583  1.00  0.00     0.029 A 
ATOM     24  C   UNL     1       2.987   3.880 -14.541  1.00  0.00     0.049 A 
ATOM     25  H   UNL     1       1.578   2.347 -14.207  1.00  0.00     0.167 HD
ATOM     26  C   UNL     1      -2.487   0.344 -12.242  1.00  0.00     0.037 A 
ATOM     27  C   UNL     1       2.695   4.221 -15.827  1.00  0.00     0.037 A 
ATOM     28  C   UNL     1      -1.697  -0.623 -12.967  1.00  0.00     0.049 A 
ATOM     29  C   UNL     1       1.722   3.171 -16.291  1.00  0.00     0.074 A 
ATOM     30  C   UNL     1      -0.993  -1.749 -12.590  1.00  0.00     0.029 A 
ATOM     31  N   UNL     1      -1.115  -0.164 -14.126  1.00  0.00    -0.354 N 
ATOM     32  N   UNL     1       2.047   1.899 -16.335  1.00  0.00    -0.248 NA
ATOM     33  C   UNL     1       0.311   3.459 -16.020  1.00  0.00     0.031 C 
ATOM     34  C   UNL     1       0.254  -1.647 -13.276  1.00  0.00     0.029 A 
ATOM     35  C   UNL     1       0.195  -0.574 -14.166  1.00  0.00     0.049 A 
ATOM     36  H   UNL     1      -1.567   0.373 -14.817  1.00  0.00     0.167 HD
ATOM     37  C   UNL     1       1.011   1.248 -15.668  1.00  0.00     0.074 A 
ATOM     38  C   UNL     1      -0.030   2.275 -15.492  1.00  0.00     0.031 C 
ATOM     39  C   UNL     1       1.196   0.069 -14.992  1.00  0.00     0.037 A 
BRANCH  26  40
ATOM     40  C   UNL     1      -3.747   0.952 -12.822  1.00  0.00     0.057 A 
ATOM     41  C   UNL     1      -4.487   0.185 -13.738  1.00  0.00     0.134 A 
ATOM     42  C   UNL     1      -4.080   2.324 -12.788  1.00  0.00     0.134 A 
ATOM     43  F   UNL     1      -4.271  -1.133 -13.860  1.00  0.00    -0.206 F 
ATOM     44  C   UNL     1      -5.408   0.756 -14.624  1.00  0.00     0.040 A 
ATOM     45  C   UNL     1      -5.028   2.897 -13.641  1.00  0.00     0.040 A 
ATOM     46  F   UNL     1      -3.452   3.208 -12.007  1.00  0.00    -0.206 F 
ATOM     47  C   UNL     1      -5.671   2.120 -14.588  1.00  0.00     0.006 A 
ENDBRANCH  26  40
BRANCH  27  48
ATOM     48  C   UNL     1       2.794   5.575 -16.437  1.00  0.00     0.057 A 
ATOM     49  C   UNL     1       2.799   5.794 -17.824  1.00  0.00     0.134 A 
ATOM     50  C   UNL     1       2.631   6.726 -15.643  1.00  0.00     0.134 A 
ATOM     51  F   UNL     1       2.891   4.762 -18.675  1.00  0.00    -0.206 F 
ATOM     52  C   UNL     1       2.659   7.080 -18.381  1.00  0.00     0.040 A 
ATOM     53  C   UNL     1       2.487   8.009 -16.183  1.00  0.00     0.040 A 
ATOM     54  F   UNL     1       2.515   6.630 -14.311  1.00  0.00    -0.206 F 
ATOM     55  C   UNL     1       2.495   8.192 -17.559  1.00  0.00     0.006 A 
ENDBRANCH  27  48
BRANCH  39  56
ATOM     56  C   UNL     1       2.556  -0.600 -15.032  1.00  0.00     0.057 A 
ATOM     57  C   UNL     1       3.711  -0.179 -14.343  1.00  0.00     0.134 A 
ATOM     58  C   UNL     1       2.633  -1.853 -15.637  1.00  0.00     0.134 A 
ATOM     59  F   UNL     1       3.719   0.938 -13.609  1.00  0.00    -0.206 F 
ATOM     60  C   UNL     1       4.891  -0.936 -14.312  1.00  0.00     0.040 A 
ATOM     61  C   UNL     1       3.788  -2.637 -15.585  1.00  0.00     0.040 A 
ATOM     62  F   UNL     1       1.549  -2.374 -16.232  1.00  0.00    -0.206 F 
ATOM     63  C   UNL     1       4.930  -2.174 -14.937  1.00  0.00     0.006 A 
ENDBRANCH  39  56
ENDBRANCH  13  14
ENDBRANCH   6   8
ENDBRANCH   5   6
ENDBRANCH   4   5
ENDBRANCH   3   4
ENDBRANCH   2   3
ENDBRANCH   1   2
BRANCH   1  64
ATOM     64  C   UNL     1       1.009   4.753  -3.349  1.00  0.00     0.261 C 
BRANCH  64  65
ATOM     65  O   UNL     1       2.059   4.746  -2.352  1.00  0.00    -0.462 OA
BRANCH  65  66
ATOM     66  C   UNL     1       2.805   3.474  -2.172  1.00  0.00     0.328 C 
ATOM     67  O   UNL     1       1.921   2.561  -2.212  1.00  0.00    -0.250 OA
BRANCH  66  68
ATOM     68  C   UNL     1       5.047   3.426  -1.816  1.00  0.00     0.195 C 
ATOM     69  C   UNL     1       6.222   2.496  -2.740  1.00  0.00     0.046 C 
ATOM     70  N   UNL     1       6.277   4.670  -1.705  1.00  0.00    -0.328 N 
ATOM     71  C   UNL     1       7.597   2.656  -2.103  1.00  0.00     0.001 C 
ATOM     72  C   UNL     1       7.611   4.079  -1.562  1.00  0.00     0.128 C 
ATOM     73  C   UNL     1       8.642   2.467  -3.213  1.00  0.00     0.071 C 
ATOM     74  C   UNL     1       7.865   1.594  -1.012  1.00  0.00     0.071 C 
ATOM     75  C   UNL     1       8.541   1.062  -3.790  1.00  0.00     0.270 C 
ATOM     76  C   UNL     1       7.952   0.162  -1.570  1.00  0.00     0.270 C 
ATOM     77  N   UNL     1       8.813   0.071  -2.759  1.00  0.00    -0.272 N 
ATOM     78  H   UNL     1       8.236  -0.417  -3.390  1.00  0.00     0.356 HD
BRANCH  70  79
ATOM     79  C   UNL     1       6.291   6.064  -1.615  1.00  0.00     0.225 C 
ATOM     80  O   UNL     1       7.311   6.695  -1.319  1.00  0.00    -0.275 OA
BRANCH  79  81
ATOM     81  C   UNL     1       5.050   6.857  -1.919  1.00  0.00     0.124 C 
BRANCH  81  82
ATOM     82  C   UNL     1       4.326   6.154  -3.013  1.00  0.00     0.154 C 
BRANCH  82  83
ATOM     83  N   UNL     1       4.076   4.829  -2.485  1.00  0.00    -0.272 N 
ATOM     84  C   UNL     1       3.737   4.367  -0.709  1.00  0.00     0.108 A 
ATOM     85  N   UNL     1       4.134   3.255  -3.462  1.00  0.00    -0.182 NA
ATOM     86  C   UNL     1       3.627   2.627  -0.599  1.00  0.00     0.042 A 
ATOM     87  C   UNL     1       3.945   1.931  -2.357  1.00  0.00     0.135 A 
ENDBRANCH  82  83
ENDBRANCH  81  82
ENDBRANCH  79  81
ENDBRANCH  70  79
BRANCH  77  88
ATOM     88  C   UNL     1       9.732  -0.976  -2.825  1.00  0.00     0.315 C 
ATOM     89  O   UNL     1       9.823  -1.790  -1.907  1.00  0.00    -0.231 OA
BRANCH  88  90
ATOM     90  C   UNL     1      10.693  -1.176  -3.957  1.00  0.00     0.119 C 
ATOM     91  C   UNL     1      10.581  -0.800  -5.407  1.00  0.00     0.019 C 
ATOM     92  C   UNL     1      11.508  -0.029  -4.500  1.00  0.00     0.019 C 
ENDBRANCH  88  90
ENDBRANCH  77  88
ENDBRANCH  66  68
ENDBRANCH  65  66
ENDBRANCH  64  65
ENDBRANCH   1  64
TORSDOF 20
