REMARK SMILES COc1ccc(/C=C2/C(=O)N(c3ccccc3)C(=O)N=C2OCCOCCOC(=O)c2ccc(-c3c4nc(c(-c5c(F)cccc5F)c5ccc([nH]5)c(-c5c(F)cccc5F)c5nc(c(-c6c(F)cccc6F)c6ccc3[nH]6)C=C5)C=C4)cc2)cc1C(=O)[O-]
REMARK SMILES IDX 26 1 25 2 24 3 23 4 22 5 21 6 7 7 8 8 9 9 10 10 11 11 20 12
REMARK SMILES IDX 18 13 19 14 6 15 3 16 4 17 86 18 5 19 85 20 2 21 1 22 87 23
REMARK SMILES IDX 88 24 89 25 12 26 13 27 17 28 14 29 16 30 15 31 27 32 28 33
REMARK SMILES IDX 29 34 30 35 31 36 32 37 84 38 33 39 83 40 34 41 35 42 36 43
REMARK SMILES IDX 77 44 37 45 82 46 76 47 78 48 38 49 81 50 75 51 74 52 39 54
REMARK SMILES IDX 65 55 48 56 64 57 49 58 52 59 63 60 79 61 50 62 51 63 62 65
REMARK SMILES IDX 80 66 53 67 40 68 41 69 46 70 42 71 43 72 45 73 47 74 44 75
REMARK SMILES IDX 66 76 67 77 72 78 68 79 69 80 71 81 73 82 70 83 54 84 55 85
REMARK SMILES IDX 60 86 56 87 57 88 59 89 61 90 58 91
REMARK H PARENT 78 53 52 64
REMARK Flexibility Score: inf
ROOT
ATOM      1  C   UNL     1      -1.818   6.756   3.608  1.00  0.00     0.202 C 
ENDROOT
BRANCH   1   2
ATOM      2  O   UNL     1      -2.883   6.969   2.681  1.00  0.00    -0.374 OA
BRANCH   2   3
ATOM      3  C   UNL     1      -2.849   6.195   1.480  1.00  0.00     0.202 C 
BRANCH   3   4
ATOM      4  C   UNL     1      -2.173   6.899   0.303  1.00  0.00     0.260 C 
BRANCH   4   5
ATOM      5  O   UNL     1      -0.738   6.771   0.435  1.00  0.00    -0.475 OA
BRANCH   5   6
ATOM      6  C   UNL     1      -0.070   7.744   1.068  1.00  0.00     0.231 C 
ATOM      7  C   UNL     1       1.918   6.162   1.508  1.00  0.00     0.027 C 
ATOM      8  C   UNL     1       1.258   7.353   1.567  1.00  0.00     0.103 C 
ATOM      9  C   UNL     1       1.928   8.456   2.371  1.00  0.00     0.272 C 
ATOM     10  O   UNL     1       3.072   8.302   2.804  1.00  0.00    -0.268 OA
ATOM     11  N   UNL     1       1.140   9.582   2.623  1.00  0.00    -0.226 N 
ATOM     12  N   UNL     1      -0.648   8.865   1.240  1.00  0.00    -0.156 NA
ATOM     13  C   UNL     1      -0.082   9.843   1.988  1.00  0.00     0.358 C 
ATOM     14  O   UNL     1      -0.656  10.920   2.062  1.00  0.00    -0.245 OA
BRANCH   7  15
ATOM     15  C   UNL     1       1.707   4.776   0.966  1.00  0.00    -0.024 A 
ATOM     16  C   UNL     1       1.558   2.068  -0.021  1.00  0.00     0.127 A 
ATOM     17  C   UNL     1       0.646   3.045  -0.415  1.00  0.00     0.048 A 
ATOM     18  C   UNL     1       2.587   2.448   0.840  1.00  0.00     0.040 A 
ATOM     19  C   UNL     1       0.746   4.373   0.041  1.00  0.00     0.012 A 
ATOM     20  C   UNL     1       2.632   3.775   1.346  1.00  0.00     0.022 A 
BRANCH  16  21
ATOM     21  O   UNL     1       1.481   0.895  -0.720  1.00  0.00    -0.496 OA
ATOM     22  C   UNL     1       1.225  -0.268   0.067  1.00  0.00     0.278 C 
ENDBRANCH  16  21
BRANCH  18  23
ATOM     23  C   UNL     1       3.779   1.616   1.111  1.00  0.00     0.075 C 
ATOM     24  O   UNL     1       4.926   2.025   1.095  1.00  0.00    -0.545 OA
ATOM     25  O   UNL     1       3.499   0.357   1.477  1.00  0.00    -0.545 OA
ENDBRANCH  18  23
ENDBRANCH   7  15
BRANCH  11  26
ATOM     26  C   UNL     1       1.622  10.630   3.474  1.00  0.00     0.054 A 
ATOM     27  C   UNL     1       0.786  11.146   4.482  1.00  0.00     0.027 A 
ATOM     28  C   UNL     1       2.841  11.264   3.214  1.00  0.00     0.027 A 
ATOM     29  C   UNL     1       1.135  12.303   5.179  1.00  0.00     0.002 A 
ATOM     30  C   UNL     1       3.174  12.440   3.895  1.00  0.00     0.002 A 
ATOM     31  C   UNL     1       2.320  12.962   4.868  1.00  0.00     0.000 A 
ENDBRANCH  11  26
ENDBRANCH   5   6
ENDBRANCH   4   5
ENDBRANCH   3   4
ENDBRANCH   2   3
ENDBRANCH   1   2
BRANCH   1  32
ATOM     32  C   UNL     1      -2.041   5.615   4.603  1.00  0.00     0.261 C 
BRANCH  32  33
ATOM     33  O   UNL     1      -1.949   4.341   3.943  1.00  0.00    -0.460 OA
BRANCH  33  34
ATOM     34  C   UNL     1      -3.142   3.791   3.618  1.00  0.00     0.338 C 
ATOM     35  O   UNL     1      -4.250   4.207   3.908  1.00  0.00    -0.246 OA
BRANCH  34  36
ATOM     36  C   UNL     1      -2.935   2.663   2.691  1.00  0.00     0.060 A 
ATOM     37  C   UNL     1      -3.806   2.559   1.597  1.00  0.00     0.016 A 
ATOM     38  C   UNL     1      -1.964   1.687   2.921  1.00  0.00     0.016 A 
ATOM     39  C   UNL     1      -3.759   1.440   0.770  1.00  0.00     0.010 A 
ATOM     40  C   UNL     1      -1.923   0.562   2.096  1.00  0.00     0.010 A 
ATOM     41  C   UNL     1      -2.848   0.415   1.045  1.00  0.00    -0.014 A 
BRANCH  41  42
ATOM     42  C   UNL     1      -2.962  -0.887   0.347  1.00  0.00     0.031 A 
ATOM     43  C   UNL     1      -3.579  -2.046   1.076  1.00  0.00     0.074 A 
ATOM     44  C   UNL     1      -2.496  -1.044  -0.903  1.00  0.00     0.049 A 
ATOM     45  N   UNL     1      -3.667  -3.300   0.716  1.00  0.00    -0.248 NA
ATOM     46  C   UNL     1      -4.175  -1.750   2.389  1.00  0.00     0.031 C 
ATOM     47  C   UNL     1      -1.909   0.011  -1.726  1.00  0.00     0.029 A 
ATOM     48  N   UNL     1      -2.388  -2.175  -1.672  1.00  0.00    -0.354 N 
ATOM     49  C   UNL     1      -4.336  -3.941   1.751  1.00  0.00     0.074 A 
ATOM     50  C   UNL     1      -4.584  -2.949   2.775  1.00  0.00     0.031 C 
ATOM     51  C   UNL     1      -1.425  -0.537  -2.854  1.00  0.00     0.029 A 
ATOM     52  C   UNL     1      -1.666  -1.978  -2.823  1.00  0.00     0.049 A 
ATOM     53  H   UNL     1      -2.788  -3.039  -1.424  1.00  0.00     0.167 HD
ATOM     54  C   UNL     1      -4.730  -5.234   1.830  1.00  0.00     0.037 A 
ATOM     55  C   UNL     1      -1.215  -2.868  -3.726  1.00  0.00     0.037 A 
ATOM     56  C   UNL     1      -4.482  -6.216   0.808  1.00  0.00     0.049 A 
ATOM     57  C   UNL     1      -1.567  -4.321  -3.575  1.00  0.00     0.074 A 
ATOM     58  C   UNL     1      -4.886  -7.538   0.765  1.00  0.00     0.029 A 
ATOM     59  N   UNL     1      -3.749  -5.983  -0.346  1.00  0.00    -0.354 N 
ATOM     60  N   UNL     1      -2.245  -4.911  -2.620  1.00  0.00    -0.248 NA
ATOM     61  C   UNL     1      -1.111  -5.228  -4.637  1.00  0.00     0.031 C 
ATOM     62  C   UNL     1      -4.356  -8.119  -0.393  1.00  0.00     0.029 A 
ATOM     63  C   UNL     1      -3.663  -7.145  -1.094  1.00  0.00     0.049 A 
ATOM     64  H   UNL     1      -3.349  -5.119  -0.596  1.00  0.00     0.167 HD
ATOM     65  C   UNL     1      -2.338  -6.247  -2.989  1.00  0.00     0.074 A 
ATOM     66  C   UNL     1      -1.635  -6.383  -4.248  1.00  0.00     0.031 C 
ATOM     67  C   UNL     1      -2.966  -7.265  -2.350  1.00  0.00     0.037 A 
BRANCH  54  68
ATOM     68  C   UNL     1      -5.464  -5.655   3.068  1.00  0.00     0.057 A 
ATOM     69  C   UNL     1      -6.773  -5.231   3.331  1.00  0.00     0.134 A 
ATOM     70  C   UNL     1      -4.861  -6.507   4.001  1.00  0.00     0.134 A 
ATOM     71  F   UNL     1      -7.402  -4.402   2.484  1.00  0.00    -0.206 F 
ATOM     72  C   UNL     1      -7.447  -5.617   4.491  1.00  0.00     0.040 A 
ATOM     73  C   UNL     1      -5.534  -6.921   5.152  1.00  0.00     0.040 A 
ATOM     74  F   UNL     1      -3.610  -6.952   3.809  1.00  0.00    -0.206 F 
ATOM     75  C   UNL     1      -6.828  -6.469   5.403  1.00  0.00     0.006 A 
ENDBRANCH  54  68
BRANCH  55  76
ATOM     76  C   UNL     1      -0.364  -2.403  -4.846  1.00  0.00     0.057 A 
ATOM     77  C   UNL     1      -0.860  -2.322  -6.151  1.00  0.00     0.134 A 
ATOM     78  C   UNL     1       0.965  -2.018  -4.631  1.00  0.00     0.134 A 
ATOM     79  F   UNL     1      -2.119  -2.697  -6.418  1.00  0.00    -0.206 F 
ATOM     80  C   UNL     1      -0.061  -1.883  -7.208  1.00  0.00     0.040 A 
ATOM     81  C   UNL     1       1.769  -1.558  -5.675  1.00  0.00     0.040 A 
ATOM     82  F   UNL     1       1.495  -2.074  -3.400  1.00  0.00    -0.206 F 
ATOM     83  C   UNL     1       1.256  -1.494  -6.969  1.00  0.00     0.006 A 
ENDBRANCH  55  76
BRANCH  67  84
ATOM     84  C   UNL     1      -2.971  -8.603  -3.027  1.00  0.00     0.057 A 
ATOM     85  C   UNL     1      -1.830  -9.413  -3.083  1.00  0.00     0.134 A 
ATOM     86  C   UNL     1      -4.149  -9.104  -3.596  1.00  0.00     0.134 A 
ATOM     87  F   UNL     1      -0.667  -8.985  -2.569  1.00  0.00    -0.206 F 
ATOM     88  C   UNL     1      -1.856 -10.666  -3.698  1.00  0.00     0.040 A 
ATOM     89  C   UNL     1      -4.194 -10.365  -4.192  1.00  0.00     0.040 A 
ATOM     90  F   UNL     1      -5.279  -8.381  -3.570  1.00  0.00    -0.206 F 
ATOM     91  C   UNL     1      -3.043 -11.148  -4.248  1.00  0.00     0.006 A 
ENDBRANCH  67  84
ENDBRANCH  41  42
ENDBRANCH  34  36
ENDBRANCH  33  34
ENDBRANCH  32  33
ENDBRANCH   1  32
TORSDOF 17
