REMARK SMILES Cc1cc(C)c(NC(=O)C[C@H](C(=O)OCCOCCOC(=O)c2ccc(-c3c4nc(c(-c5c(F)cccc5F)c5ccc([nH]5)c(-c5c(F)cccc5F)c5nc(c(-c6c(F)cccc6F)c6ccc3[nH]6)C=C5)C=C4)cc2)[NH+]2CC[NH+](C)CC2)c(C)c1
REMARK SMILES IDX 16 1 15 2 14 3 12 4 13 5 11 6 10 7 8 8 7 9 9 11 6 12 1 13
REMARK SMILES IDX 2 14 3 15 86 16 4 17 84 18 5 19 85 20 77 21 78 22 83 23
REMARK SMILES IDX 79 25 82 26 80 27 81 28 17 30 18 31 19 32 20 33 21 34 22 35
REMARK SMILES IDX 23 36 24 37 76 38 25 39 75 40 26 41 27 42 28 43 69 44 29 45
REMARK SMILES IDX 74 46 68 47 70 48 30 49 73 50 67 51 66 52 31 54 57 55 40 56
REMARK SMILES IDX 56 57 41 58 44 59 55 60 71 61 42 62 43 63 54 65 72 66 45 67
REMARK SMILES IDX 32 68 33 69 38 70 34 71 35 72 37 73 39 74 36 75 58 76 59 77
REMARK SMILES IDX 64 78 60 79 61 80 63 81 65 82 62 83 46 84 47 85 52 86 48 87
REMARK SMILES IDX 49 88 51 89 53 90 50 91
REMARK H PARENT 7 10 77 24 80 29 70 53 44 64
REMARK Flexibility Score: inf
ROOT
ATOM      1  C   UNL     1      -5.033  -1.872  -1.894  1.00  0.00     0.202 C 
ENDROOT
BRANCH   1   2
ATOM      2  C   UNL     1      -3.943  -0.792  -1.858  1.00  0.00     0.261 C 
BRANCH   2   3
ATOM      3  O   UNL     1      -3.512  -0.443  -0.532  1.00  0.00    -0.459 OA
BRANCH   3   4
ATOM      4  C   UNL     1      -3.742   0.864  -0.178  1.00  0.00     0.365 C 
ATOM      5  O   UNL     1      -4.215   1.682  -0.956  1.00  0.00    -0.245 OA
BRANCH   4   6
ATOM      6  C   UNL     1      -3.397   1.109   1.331  1.00  0.00     0.304 C 
BRANCH   6   7
ATOM      7  C   UNL     1      -1.911   0.715   1.541  1.00  0.00     0.177 C 
BRANCH   7   8
ATOM      8  C   UNL     1      -0.838   1.658   2.068  1.00  0.00     0.231 C 
ATOM      9  N   UNL     1      -0.466   2.842   1.509  1.00  0.00    -0.325 N 
ATOM     10  H   UNL     1       0.311   3.271   1.935  1.00  0.00     0.169 HD
ATOM     11  O   UNL     1      -0.232   1.333   3.101  1.00  0.00    -0.274 OA
BRANCH   9  12
ATOM     12  C   UNL     1      -1.009   3.550   0.428  1.00  0.00     0.047 A 
ATOM     13  C   UNL     1      -3.725   5.507  -2.244  1.00  0.00     0.044 C 
ATOM     14  C   UNL     1      -2.643   4.905  -1.399  1.00  0.00    -0.050 A 
ATOM     15  C   UNL     1      -2.138   3.638  -1.700  1.00  0.00     0.009 A 
ATOM     16  C   UNL     1      -2.166   5.563  -0.266  1.00  0.00     0.009 A 
ATOM     17  C   UNL     1      -1.286   2.963  -0.812  1.00  0.00    -0.027 A 
ATOM     18  C   UNL     1      -1.302   4.916   0.629  1.00  0.00    -0.027 A 
ATOM     19  C   UNL     1      -0.615   1.710  -1.302  1.00  0.00     0.046 C 
ATOM     20  C   UNL     1      -0.752   5.697   1.794  1.00  0.00     0.046 C 
ENDBRANCH   9  12
ENDBRANCH   7   8
ENDBRANCH   6   7
BRANCH   6  21
ATOM     21  N   UNL     1      -3.876   2.439   1.778  1.00  0.00    -0.313 N 
ATOM     22  C   UNL     1      -3.647   2.787   3.190  1.00  0.00     0.325 C 
ATOM     23  C   UNL     1      -5.319   2.688   1.535  1.00  0.00     0.325 C 
ATOM     24  H   UNL     1      -3.287   3.027   1.188  1.00  0.00     0.349 HD
ATOM     25  C   UNL     1      -3.941   4.298   3.412  1.00  0.00     0.324 C 
ATOM     26  C   UNL     1      -5.603   4.202   1.650  1.00  0.00     0.324 C 
ATOM     27  N   UNL     1      -5.250   4.801   2.951  1.00  0.00    -0.328 N 
ATOM     28  C   UNL     1      -6.293   4.605   3.945  1.00  0.00     0.333 C 
ATOM     29  H   UNL     1      -5.169   5.810   2.821  1.00  0.00     0.348 HD
ENDBRANCH   6  21
ENDBRANCH   4   6
ENDBRANCH   3   4
ENDBRANCH   2   3
ENDBRANCH   1   2
BRANCH   1  30
ATOM     30  O   UNL     1      -6.096  -1.795  -0.954  1.00  0.00    -0.374 OA
BRANCH  30  31
ATOM     31  C   UNL     1      -5.794  -1.935   0.431  1.00  0.00     0.202 C 
BRANCH  31  32
ATOM     32  C   UNL     1      -5.094  -3.213   0.917  1.00  0.00     0.261 C 
BRANCH  32  33
ATOM     33  O   UNL     1      -3.809  -3.450   0.312  1.00  0.00    -0.460 OA
BRANCH  33  34
ATOM     34  C   UNL     1      -3.721  -4.605  -0.392  1.00  0.00     0.338 C 
ATOM     35  O   UNL     1      -4.599  -5.443  -0.558  1.00  0.00    -0.246 OA
BRANCH  34  36
ATOM     36  C   UNL     1      -2.432  -4.694  -1.091  1.00  0.00     0.060 A 
ATOM     37  C   UNL     1      -2.436  -4.721  -2.493  1.00  0.00     0.016 A 
ATOM     38  C   UNL     1      -1.253  -4.915  -0.378  1.00  0.00     0.016 A 
ATOM     39  C   UNL     1      -1.263  -5.010  -3.188  1.00  0.00     0.010 A 
ATOM     40  C   UNL     1      -0.082  -5.218  -1.077  1.00  0.00     0.010 A 
ATOM     41  C   UNL     1      -0.090  -5.303  -2.481  1.00  0.00    -0.014 A 
BRANCH  41  42
ATOM     42  C   UNL     1       1.091  -5.848  -3.191  1.00  0.00     0.031 A 
ATOM     43  C   UNL     1       1.326  -7.332  -3.180  1.00  0.00     0.074 A 
ATOM     44  C   UNL     1       1.955  -5.029  -3.814  1.00  0.00     0.049 A 
ATOM     45  N   UNL     1       2.348  -8.014  -3.629  1.00  0.00    -0.248 NA
ATOM     46  C   UNL     1       0.269  -8.156  -2.572  1.00  0.00     0.031 C 
ATOM     47  C   UNL     1       1.815  -3.579  -3.921  1.00  0.00     0.029 A 
ATOM     48  N   UNL     1       3.139  -5.305  -4.450  1.00  0.00    -0.354 N 
ATOM     49  C   UNL     1       2.070  -9.343  -3.338  1.00  0.00     0.074 A 
ATOM     50  C   UNL     1       0.789  -9.371  -2.664  1.00  0.00     0.031 C 
ATOM     51  C   UNL     1       2.892  -3.086  -4.554  1.00  0.00     0.029 A 
ATOM     52  C   UNL     1       3.810  -4.182  -4.862  1.00  0.00     0.049 A 
ATOM     53  H   UNL     1       3.474  -6.220  -4.596  1.00  0.00     0.167 HD
ATOM     54  C   UNL     1       2.816 -10.440  -3.608  1.00  0.00     0.037 A 
ATOM     55  C   UNL     1       5.041  -4.050  -5.392  1.00  0.00     0.037 A 
ATOM     56  C   UNL     1       4.085 -10.407  -4.286  1.00  0.00     0.049 A 
ATOM     57  C   UNL     1       5.878  -5.275  -5.638  1.00  0.00     0.074 A 
ATOM     58  C   UNL     1       4.896 -11.467  -4.650  1.00  0.00     0.029 A 
ATOM     59  N   UNL     1       4.732  -9.249  -4.689  1.00  0.00    -0.354 N 
ATOM     60  N   UNL     1       5.593  -6.532  -5.395  1.00  0.00    -0.248 NA
ATOM     61  C   UNL     1       7.207  -5.066  -6.231  1.00  0.00     0.031 C 
ATOM     62  C   UNL     1       6.058 -10.947  -5.230  1.00  0.00     0.029 A 
ATOM     63  C   UNL     1       5.948  -9.566  -5.270  1.00  0.00     0.049 A 
ATOM     64  H   UNL     1       4.379  -8.336  -4.579  1.00  0.00     0.167 HD
ATOM     65  C   UNL     1       6.692  -7.264  -5.824  1.00  0.00     0.074 A 
ATOM     66  C   UNL     1       7.650  -6.312  -6.347  1.00  0.00     0.031 C 
ATOM     67  C   UNL     1       6.888  -8.605  -5.791  1.00  0.00     0.037 A 
BRANCH  54  68
ATOM     68  C   UNL     1       2.294 -11.763  -3.131  1.00  0.00     0.057 A 
ATOM     69  C   UNL     1       1.195 -12.390  -3.732  1.00  0.00     0.134 A 
ATOM     70  C   UNL     1       2.911 -12.424  -2.062  1.00  0.00     0.134 A 
ATOM     71  F   UNL     1       0.550 -11.803  -4.752  1.00  0.00    -0.206 F 
ATOM     72  C   UNL     1       0.710 -13.614  -3.266  1.00  0.00     0.040 A 
ATOM     73  C   UNL     1       2.451 -13.660  -1.604  1.00  0.00     0.040 A 
ATOM     74  F   UNL     1       3.971 -11.881  -1.445  1.00  0.00    -0.206 F 
ATOM     75  C   UNL     1       1.342 -14.254  -2.202  1.00  0.00     0.006 A 
ENDBRANCH  54  68
BRANCH  55  76
ATOM     76  C   UNL     1       5.563  -2.694  -5.693  1.00  0.00     0.057 A 
ATOM     77  C   UNL     1       5.697  -2.243  -7.010  1.00  0.00     0.134 A 
ATOM     78  C   UNL     1       5.916  -1.810  -4.666  1.00  0.00     0.134 A 
ATOM     79  F   UNL     1       5.394  -3.052  -8.035  1.00  0.00    -0.206 F 
ATOM     80  C   UNL     1       6.167  -0.959  -7.296  1.00  0.00     0.040 A 
ATOM     81  C   UNL     1       6.366  -0.517  -4.937  1.00  0.00     0.040 A 
ATOM     82  F   UNL     1       5.806  -2.184  -3.383  1.00  0.00    -0.206 F 
ATOM     83  C   UNL     1       6.495  -0.090  -6.257  1.00  0.00     0.006 A 
ENDBRANCH  55  76
BRANCH  67  84
ATOM     84  C   UNL     1       8.170  -9.134  -6.362  1.00  0.00     0.057 A 
ATOM     85  C   UNL     1       9.384  -9.025  -5.674  1.00  0.00     0.134 A 
ATOM     86  C   UNL     1       8.174  -9.825  -7.581  1.00  0.00     0.134 A 
ATOM     87  F   UNL     1       9.448  -8.365  -4.508  1.00  0.00    -0.206 F 
ATOM     88  C   UNL     1      10.560  -9.581  -6.182  1.00  0.00     0.040 A 
ATOM     89  C   UNL     1       9.338 -10.404  -8.088  1.00  0.00     0.040 A 
ATOM     90  F   UNL     1       7.041  -9.971  -8.284  1.00  0.00    -0.206 F 
ATOM     91  C   UNL     1      10.536 -10.281  -7.387  1.00  0.00     0.006 A 
ENDBRANCH  67  84
ENDBRANCH  41  42
ENDBRANCH  34  36
ENDBRANCH  33  34
ENDBRANCH  32  33
ENDBRANCH  31  32
ENDBRANCH  30  31
ENDBRANCH   1  30
TORSDOF 18
