REMARK SMILES C[C@H](Oc1ccc(-c2ccccc2)cc1)C(=O)N[C@H](C)C(=O)OCCOCCOC(=O)c1ccc(-c2c3nc(c(-c4c(F)cccc4F)c4ccc([nH]4)c(-c4c(F)cccc4F)c4nc(c(-c5c(F)cccc5F)c5ccc2[nH]5)C=C4)C=C3)cc1
REMARK SMILES IDX 24 1 23 2 21 3 22 4 19 5 20 6 18 7 16 8 17 9 2 11 1 12 3 13
REMARK SMILES IDX 4 14 5 15 15 16 6 17 14 18 7 19 8 20 9 21 13 22 10 23 12 24
REMARK SMILES IDX 11 25 25 26 26 27 27 28 28 29 29 30 30 31 31 32 32 33 33 34
REMARK SMILES IDX 85 35 34 36 84 37 35 38 36 39 37 40 78 41 38 42 83 43 77 44
REMARK SMILES IDX 79 45 39 46 82 47 76 48 75 49 40 51 66 52 49 53 65 54 50 55
REMARK SMILES IDX 53 56 64 57 80 58 51 59 52 60 63 62 81 63 54 64 41 65 42 66
REMARK SMILES IDX 47 67 43 68 44 69 46 70 48 71 45 72 67 73 68 74 73 75 69 76
REMARK SMILES IDX 70 77 72 78 74 79 71 80 55 81 56 82 61 83 57 84 58 85 60 86
REMARK SMILES IDX 62 87 59 88
REMARK H PARENT 18 10 79 50 53 61
REMARK Flexibility Score: inf
ROOT
ATOM      1  C   UNL     1      -1.941   5.343   2.422  1.00  0.00     0.261 C 
ENDROOT
BRANCH   1   2
ATOM      2  O   UNL     1      -2.014   4.084   1.736  1.00  0.00    -0.462 OA
BRANCH   2   3
ATOM      3  C   UNL     1      -1.136   3.861   0.725  1.00  0.00     0.328 C 
ATOM      4  O   UNL     1      -0.428   4.721   0.216  1.00  0.00    -0.250 OA
BRANCH   3   5
ATOM      5  C   UNL     1      -1.159   2.384   0.267  1.00  0.00     0.189 C 
ATOM      6  C   UNL     1      -2.119   1.557   1.117  1.00  0.00     0.043 C 
BRANCH   5   7
ATOM      7  N   UNL     1      -1.433   2.378  -1.177  1.00  0.00    -0.340 N 
ATOM      8  C   UNL     1      -1.474   1.377  -2.104  1.00  0.00     0.261 C 
ATOM      9  O   UNL     1      -1.539   1.715  -3.292  1.00  0.00    -0.271 OA
ATOM     10  H   UNL     1      -1.625   3.270  -1.548  1.00  0.00     0.164 HD
BRANCH   8  11
ATOM     11  C   UNL     1      -1.560  -0.109  -1.712  1.00  0.00     0.258 C 
ATOM     12  C   UNL     1      -3.013  -0.393  -1.319  1.00  0.00     0.064 C 
BRANCH  11  13
ATOM     13  O   UNL     1      -0.474  -0.340  -0.821  1.00  0.00    -0.481 OA
BRANCH  13  14
ATOM     14  C   UNL     1      -0.343  -1.357   0.064  1.00  0.00     0.120 A 
ATOM     15  C   UNL     1      -1.282  -2.317   0.404  1.00  0.00     0.047 A 
ATOM     16  C   UNL     1       0.860  -1.321   0.775  1.00  0.00     0.047 A 
ATOM     17  C   UNL     1      -1.077  -3.135   1.525  1.00  0.00     0.012 A 
ATOM     18  C   UNL     1       1.083  -2.166   1.867  1.00  0.00     0.012 A 
ATOM     19  C   UNL     1       0.096  -3.062   2.298  1.00  0.00    -0.018 A 
BRANCH  19  20
ATOM     20  C   UNL     1       0.258  -3.866   3.529  1.00  0.00    -0.018 A 
ATOM     21  C   UNL     1      -0.214  -5.188   3.607  1.00  0.00     0.009 A 
ATOM     22  C   UNL     1       0.856  -3.325   4.683  1.00  0.00     0.009 A 
ATOM     23  C   UNL     1      -0.109  -5.931   4.788  1.00  0.00     0.001 A 
ATOM     24  C   UNL     1       0.971  -4.068   5.862  1.00  0.00     0.001 A 
ATOM     25  C   UNL     1       0.483  -5.370   5.915  1.00  0.00     0.000 A 
ENDBRANCH  19  20
ENDBRANCH  13  14
ENDBRANCH  11  13
ENDBRANCH   8  11
ENDBRANCH   5   7
ENDBRANCH   3   5
ENDBRANCH   2   3
ENDBRANCH   1   2
BRANCH   1  26
ATOM     26  C   UNL     1      -2.295   5.103   3.892  1.00  0.00     0.202 C 
BRANCH  26  27
ATOM     27  O   UNL     1      -1.249   4.536   4.688  1.00  0.00    -0.374 OA
BRANCH  27  28
ATOM     28  C   UNL     1      -0.871   3.187   4.420  1.00  0.00     0.202 C 
BRANCH  28  29
ATOM     29  C   UNL     1      -1.764   2.101   5.039  1.00  0.00     0.261 C 
BRANCH  29  30
ATOM     30  O   UNL     1      -3.141   2.208   4.634  1.00  0.00    -0.460 OA
BRANCH  30  31
ATOM     31  C   UNL     1      -3.989   2.578   5.619  1.00  0.00     0.338 C 
ATOM     32  O   UNL     1      -3.723   2.747   6.806  1.00  0.00    -0.246 OA
BRANCH  31  33
ATOM     33  C   UNL     1      -5.310   2.920   5.070  1.00  0.00     0.060 A 
ATOM     34  C   UNL     1      -5.792   4.211   5.317  1.00  0.00     0.016 A 
ATOM     35  C   UNL     1      -6.114   1.972   4.431  1.00  0.00     0.016 A 
ATOM     36  C   UNL     1      -7.098   4.546   4.972  1.00  0.00     0.010 A 
ATOM     37  C   UNL     1      -7.430   2.309   4.091  1.00  0.00     0.010 A 
ATOM     38  C   UNL     1      -7.940   3.586   4.394  1.00  0.00    -0.014 A 
BRANCH  38  39
ATOM     39  C   UNL     1      -9.386   3.888   4.252  1.00  0.00     0.031 A 
ATOM     40  C   UNL     1     -10.350   3.377   5.287  1.00  0.00     0.074 A 
ATOM     41  C   UNL     1      -9.833   4.657   3.244  1.00  0.00     0.049 A 
ATOM     42  N   UNL     1     -11.646   3.542   5.368  1.00  0.00    -0.248 NA
ATOM     43  C   UNL     1      -9.775   2.572   6.376  1.00  0.00     0.031 C 
ATOM     44  C   UNL     1      -9.000   5.241   2.196  1.00  0.00     0.029 A 
ATOM     45  N   UNL     1     -11.104   5.077   2.941  1.00  0.00    -0.354 N 
ATOM     46  C   UNL     1     -12.042   2.865   6.515  1.00  0.00     0.074 A 
ATOM     47  C   UNL     1     -10.854   2.257   7.077  1.00  0.00     0.031 C 
ATOM     48  C   UNL     1      -9.784   5.937   1.356  1.00  0.00     0.029 A 
ATOM     49  C   UNL     1     -11.175   5.829   1.796  1.00  0.00     0.049 A 
ATOM     50  H   UNL     1     -11.890   4.859   3.493  1.00  0.00     0.167 HD
ATOM     51  C   UNL     1     -13.278   2.769   7.060  1.00  0.00     0.037 A 
ATOM     52  C   UNL     1     -12.241   6.357   1.164  1.00  0.00     0.037 A 
ATOM     53  C   UNL     1     -14.462   3.368   6.503  1.00  0.00     0.049 A 
ATOM     54  C   UNL     1     -13.615   6.185   1.751  1.00  0.00     0.074 A 
ATOM     55  C   UNL     1     -15.756   3.343   6.995  1.00  0.00     0.029 A 
ATOM     56  N   UNL     1     -14.498   4.093   5.321  1.00  0.00    -0.354 N 
ATOM     57  N   UNL     1     -13.973   5.570   2.852  1.00  0.00    -0.248 NA
ATOM     58  C   UNL     1     -14.734   6.787   1.010  1.00  0.00     0.031 C 
ATOM     59  C   UNL     1     -16.583   4.013   6.086  1.00  0.00     0.029 A 
ATOM     60  C   UNL     1     -15.797   4.496   5.052  1.00  0.00     0.049 A 
ATOM     61  H   UNL     1     -13.717   4.291   4.757  1.00  0.00     0.167 HD
ATOM     62  C   UNL     1     -15.351   5.725   2.946  1.00  0.00     0.074 A 
ATOM     63  C   UNL     1     -15.763   6.504   1.796  1.00  0.00     0.031 C 
ATOM     64  C   UNL     1     -16.197   5.265   3.901  1.00  0.00     0.037 A 
BRANCH  51  65
ATOM     65  C   UNL     1     -13.409   1.956   8.315  1.00  0.00     0.057 A 
ATOM     66  C   UNL     1     -12.909   2.407   9.544  1.00  0.00     0.134 A 
ATOM     67  C   UNL     1     -14.046   0.710   8.294  1.00  0.00     0.134 A 
ATOM     68  F   UNL     1     -12.275   3.586   9.629  1.00  0.00    -0.206 F 
ATOM     69  C   UNL     1     -13.009   1.632  10.701  1.00  0.00     0.040 A 
ATOM     70  C   UNL     1     -14.175  -0.063   9.450  1.00  0.00     0.040 A 
ATOM     71  F   UNL     1     -14.552   0.222   7.152  1.00  0.00    -0.206 F 
ATOM     72  C   UNL     1     -13.648   0.394  10.656  1.00  0.00     0.006 A 
ENDBRANCH  51  65
BRANCH  52  73
ATOM     73  C   UNL     1     -12.045   7.091  -0.110  1.00  0.00     0.057 A 
ATOM     74  C   UNL     1     -12.189   8.480  -0.180  1.00  0.00     0.134 A 
ATOM     75  C   UNL     1     -11.695   6.416  -1.286  1.00  0.00     0.134 A 
ATOM     76  F   UNL     1     -12.546   9.178   0.908  1.00  0.00    -0.206 F 
ATOM     77  C   UNL     1     -11.997   9.174  -1.376  1.00  0.00     0.040 A 
ATOM     78  C   UNL     1     -11.479   7.098  -2.483  1.00  0.00     0.040 A 
ATOM     79  F   UNL     1     -11.542   5.083  -1.281  1.00  0.00    -0.206 F 
ATOM     80  C   UNL     1     -11.633   8.482  -2.531  1.00  0.00     0.006 A 
ENDBRANCH  52  73
BRANCH  64  81
ATOM     81  C   UNL     1     -17.652   5.605   3.755  1.00  0.00     0.057 A 
ATOM     82  C   UNL     1     -18.462   4.985   2.796  1.00  0.00     0.134 A 
ATOM     83  C   UNL     1     -18.258   6.534   4.611  1.00  0.00     0.134 A 
ATOM     84  F   UNL     1     -17.941   4.096   1.937  1.00  0.00    -0.206 F 
ATOM     85  C   UNL     1     -19.820   5.289   2.681  1.00  0.00     0.040 A 
ATOM     86  C   UNL     1     -19.619   6.829   4.522  1.00  0.00     0.040 A 
ATOM     87  F   UNL     1     -17.540   7.158   5.557  1.00  0.00    -0.206 F 
ATOM     88  C   UNL     1     -20.403   6.209   3.551  1.00  0.00     0.006 A 
ENDBRANCH  64  81
ENDBRANCH  38  39
ENDBRANCH  31  33
ENDBRANCH  30  31
ENDBRANCH  29  30
ENDBRANCH  28  29
ENDBRANCH  27  28
ENDBRANCH  26  27
ENDBRANCH   1  26
TORSDOF 19
