REMARK SMILES Cc1ccc(C(=O)N[C@@H]2C=C[C@H](C(=O)OCCOCCOC(=O)c3ccc(-c4c5nc(c(-c6c(F)cccc6F)c6ccc([nH]6)c(-c6c(F)cccc6F)c6nc(c(-c7c(F)cccc7F)c7ccc4[nH]7)C=C6)C=C5)cc3)C2)c(F)c1
REMARK SMILES IDX 18 1 17 2 16 3 15 4 13 5 14 6 12 7 9 8 10 9 78 10 11 11 8 12
REMARK SMILES IDX 6 13 7 14 5 16 1 17 2 18 3 19 81 20 4 21 79 22 80 23 19 24
REMARK SMILES IDX 20 25 21 26 22 27 23 28 24 29 25 30 77 31 26 32 76 33 27 34
REMARK SMILES IDX 28 35 29 36 70 37 30 38 75 39 69 40 71 41 31 42 74 43 68 44
REMARK SMILES IDX 67 45 32 47 58 48 41 49 57 50 42 51 45 52 56 53 72 54 43 55
REMARK SMILES IDX 44 56 55 58 73 59 46 60 33 61 34 62 39 63 35 64 36 65 38 66
REMARK SMILES IDX 40 67 37 68 59 69 60 70 65 71 61 72 62 73 64 74 66 75 63 76
REMARK SMILES IDX 47 77 48 78 53 79 49 80 50 81 52 82 54 83 51 84
REMARK H PARENT 8 15 71 46 45 57
REMARK Flexibility Score: inf
ROOT
ATOM      1  O   UNL     1       3.786  -7.272  -1.138  1.00  0.00    -0.374 OA
ENDROOT
BRANCH   1   2
ATOM      2  C   UNL     1       4.409  -7.619   0.093  1.00  0.00     0.202 C 
BRANCH   2   3
ATOM      3  C   UNL     1       4.168  -6.728   1.321  1.00  0.00     0.261 C 
BRANCH   3   4
ATOM      4  O   UNL     1       2.790  -6.450   1.634  1.00  0.00    -0.463 OA
BRANCH   4   5
ATOM      5  C   UNL     1       2.438  -5.129   1.548  1.00  0.00     0.312 C 
ATOM      6  O   UNL     1       3.186  -4.239   1.159  1.00  0.00    -0.252 OA
BRANCH   5   7
ATOM      7  C   UNL     1       1.034  -4.885   2.104  1.00  0.00     0.124 C 
ATOM      8  C   UNL     1      -0.920  -4.540   0.609  1.00  0.00     0.106 C 
ATOM      9  C   UNL     1      -0.358  -3.255   1.113  1.00  0.00    -0.006 C 
ATOM     10  C   UNL     1      -0.106  -5.605   1.367  1.00  0.00     0.048 C 
ATOM     11  C   UNL     1       0.667  -3.438   1.949  1.00  0.00    -0.014 C 
BRANCH   8  12
ATOM     12  N   UNL     1      -0.815  -4.564  -0.835  1.00  0.00    -0.346 N 
ATOM     13  C   UNL     1      -1.315  -5.435  -1.779  1.00  0.00     0.254 C 
ATOM     14  O   UNL     1      -1.257  -5.105  -2.961  1.00  0.00    -0.269 OA
ATOM     15  H   UNL     1      -0.290  -3.821  -1.212  1.00  0.00     0.164 HD
BRANCH  13  16
ATOM     16  C   UNL     1      -1.818  -6.782  -1.414  1.00  0.00     0.075 A 
ATOM     17  C   UNL     1      -2.210 -10.802   0.055  1.00  0.00     0.044 C 
ATOM     18  C   UNL     1      -2.203  -9.418  -0.520  1.00  0.00    -0.048 A 
ATOM     19  C   UNL     1      -2.745  -8.342   0.190  1.00  0.00     0.004 A 
ATOM     20  C   UNL     1      -1.628  -9.178  -1.771  1.00  0.00     0.043 A 
ATOM     21  C   UNL     1      -2.579  -7.032  -0.270  1.00  0.00     0.017 A 
ATOM     22  C   UNL     1      -1.426  -7.866  -2.204  1.00  0.00     0.136 A 
ATOM     23  F   UNL     1      -0.713  -7.691  -3.326  1.00  0.00    -0.206 F 
ENDBRANCH  13  16
ENDBRANCH   8  12
ENDBRANCH   5   7
ENDBRANCH   4   5
ENDBRANCH   3   4
ENDBRANCH   2   3
ENDBRANCH   1   2
BRANCH   1  24
ATOM     24  C   UNL     1       2.366  -7.289  -1.185  1.00  0.00     0.202 C 
BRANCH  24  25
ATOM     25  C   UNL     1       1.666  -8.632  -0.954  1.00  0.00     0.261 C 
BRANCH  25  26
ATOM     26  O   UNL     1       2.177  -9.389   0.145  1.00  0.00    -0.460 OA
BRANCH  26  27
ATOM     27  C   UNL     1       2.137 -10.729  -0.037  1.00  0.00     0.338 C 
ATOM     28  O   UNL     1       1.616 -11.353  -0.942  1.00  0.00    -0.246 OA
BRANCH  27  29
ATOM     29  C   UNL     1       2.852 -11.367   1.073  1.00  0.00     0.060 A 
ATOM     30  C   UNL     1       4.243 -11.498   1.013  1.00  0.00     0.016 A 
ATOM     31  C   UNL     1       2.119 -11.920   2.124  1.00  0.00     0.016 A 
ATOM     32  C   UNL     1       4.906 -12.216   2.008  1.00  0.00     0.010 A 
ATOM     33  C   UNL     1       2.786 -12.627   3.123  1.00  0.00     0.010 A 
ATOM     34  C   UNL     1       4.178 -12.803   3.054  1.00  0.00    -0.014 A 
BRANCH  34  35
ATOM     35  C   UNL     1       4.865 -13.685   4.026  1.00  0.00     0.031 A 
ATOM     36  C   UNL     1       4.771 -15.176   3.865  1.00  0.00     0.074 A 
ATOM     37  C   UNL     1       5.566 -13.150   5.040  1.00  0.00     0.049 A 
ATOM     38  N   UNL     1       5.299 -16.122   4.597  1.00  0.00    -0.248 NA
ATOM     39  C   UNL     1       3.970 -15.667   2.732  1.00  0.00     0.031 C 
ATOM     40  C   UNL     1       5.718 -11.719   5.297  1.00  0.00     0.029 A 
ATOM     41  N   UNL     1       6.276 -13.751   6.048  1.00  0.00    -0.354 N 
ATOM     42  C   UNL     1       4.894 -17.318   4.018  1.00  0.00     0.074 A 
ATOM     43  C   UNL     1       4.052 -16.980   2.891  1.00  0.00     0.031 C 
ATOM     44  C   UNL     1       6.470 -11.551   6.399  1.00  0.00     0.029 A 
ATOM     45  C   UNL     1       6.835 -12.862   6.931  1.00  0.00     0.049 A 
ATOM     46  H   UNL     1       6.375 -14.727   6.130  1.00  0.00     0.167 HD
ATOM     47  C   UNL     1       5.207 -18.582   4.388  1.00  0.00     0.037 A 
ATOM     48  C   UNL     1       7.552 -13.084   8.049  1.00  0.00     0.037 A 
ATOM     49  C   UNL     1       6.053 -18.912   5.505  1.00  0.00     0.049 A 
ATOM     50  C   UNL     1       7.874 -14.498   8.446  1.00  0.00     0.074 A 
ATOM     51  C   UNL     1       6.469 -20.160   5.934  1.00  0.00     0.029 A 
ATOM     52  N   UNL     1       6.605 -17.984   6.375  1.00  0.00    -0.354 N 
ATOM     53  N   UNL     1       7.537 -15.619   7.854  1.00  0.00    -0.248 NA
ATOM     54  C   UNL     1       8.682 -14.680   9.660  1.00  0.00     0.031 C 
ATOM     55  C   UNL     1       7.241 -19.989   7.089  1.00  0.00     0.029 A 
ATOM     56  C   UNL     1       7.338 -18.633   7.354  1.00  0.00     0.049 A 
ATOM     57  H   UNL     1       6.493 -17.008   6.307  1.00  0.00     0.167 HD
ATOM     58  C   UNL     1       8.108 -16.635   8.609  1.00  0.00     0.074 A 
ATOM     59  C   UNL     1       8.827 -15.997   9.693  1.00  0.00     0.031 C 
ATOM     60  C   UNL     1       8.044 -17.977   8.424  1.00  0.00     0.037 A 
BRANCH  47  61
ATOM     61  C   UNL     1       4.622 -19.705   3.585  1.00  0.00     0.057 A 
ATOM     62  C   UNL     1       5.088 -20.016   2.302  1.00  0.00     0.134 A 
ATOM     63  C   UNL     1       3.609 -20.511   4.120  1.00  0.00     0.134 A 
ATOM     64  F   UNL     1       6.048 -19.274   1.729  1.00  0.00    -0.206 F 
ATOM     65  C   UNL     1       4.556 -21.081   1.571  1.00  0.00     0.040 A 
ATOM     66  C   UNL     1       3.083 -21.590   3.407  1.00  0.00     0.040 A 
ATOM     67  F   UNL     1       3.120 -20.268   5.345  1.00  0.00    -0.206 F 
ATOM     68  C   UNL     1       3.555 -21.875   2.127  1.00  0.00     0.006 A 
ENDBRANCH  47  61
BRANCH  48  69
ATOM     69  C   UNL     1       8.015 -11.939   8.871  1.00  0.00     0.057 A 
ATOM     70  C   UNL     1       9.367 -11.587   8.934  1.00  0.00     0.134 A 
ATOM     71  C   UNL     1       7.113 -11.176   9.623  1.00  0.00     0.134 A 
ATOM     72  F   UNL     1      10.281 -12.293   8.251  1.00  0.00    -0.206 F 
ATOM     73  C   UNL     1       9.810 -10.527   9.727  1.00  0.00     0.040 A 
ATOM     74  C   UNL     1       7.539 -10.100  10.403  1.00  0.00     0.040 A 
ATOM     75  F   UNL     1       5.803 -11.461   9.602  1.00  0.00    -0.206 F 
ATOM     76  C   UNL     1       8.893  -9.777  10.461  1.00  0.00     0.006 A 
ENDBRANCH  48  69
BRANCH  60  77
ATOM     77  C   UNL     1       8.784 -18.837   9.405  1.00  0.00     0.057 A 
ATOM     78  C   UNL     1       8.312 -19.039  10.707  1.00  0.00     0.134 A 
ATOM     79  C   UNL     1       9.962 -19.495   9.030  1.00  0.00     0.134 A 
ATOM     80  F   UNL     1       7.196 -18.425  11.129  1.00  0.00    -0.206 F 
ATOM     81  C   UNL     1       8.998 -19.851  11.611  1.00  0.00     0.040 A 
ATOM     82  C   UNL     1      10.644 -20.328   9.918  1.00  0.00     0.040 A 
ATOM     83  F   UNL     1      10.461 -19.349   7.794  1.00  0.00    -0.206 F 
ATOM     84  C   UNL     1      10.165 -20.503  11.215  1.00  0.00     0.006 A 
ENDBRANCH  60  77
ENDBRANCH  34  35
ENDBRANCH  27  29
ENDBRANCH  26  27
ENDBRANCH  25  26
ENDBRANCH  24  25
ENDBRANCH   1  24
TORSDOF 16
