REMARK SMILES O=C(OCCOCCOC(=O)c1ccc(N2C(=O)C[C@H]([NH+]3CCN(c4ccc(F)cc4)CC3)C2=O)cc1)c1ccc(-c2c3nc(c(-c4c(F)cccc4F)c4ccc([nH]4)c(-c4c(F)cccc4F)c4nc(c(-c5c(F)cccc5F)c5ccc2[nH]5)C=C4)C=C3)cc1
REMARK SMILES IDX 7 1 6 2 5 3 4 4 3 5 2 6 1 7 38 8 39 9 91 10 40 11 90 12
REMARK SMILES IDX 41 13 42 14 43 15 84 16 44 17 89 18 83 19 85 20 45 21 88 22
REMARK SMILES IDX 82 23 81 24 46 26 72 27 55 28 71 29 56 30 59 31 70 32 86 33
REMARK SMILES IDX 57 34 58 35 69 37 87 38 60 39 47 40 48 41 53 42 49 43 50 44
REMARK SMILES IDX 52 45 54 46 51 47 73 48 74 49 79 50 75 51 76 52 78 53 80 54
REMARK SMILES IDX 77 55 61 56 62 57 67 58 63 59 64 60 66 61 68 62 65 63 8 64
REMARK SMILES IDX 9 65 10 66 11 67 12 68 13 69 37 70 14 71 36 72 15 73 16 74
REMARK SMILES IDX 17 75 34 76 18 77 19 78 20 79 35 80 21 81 22 82 33 83 23 85
REMARK SMILES IDX 32 86 24 87 25 88 26 89 31 90 27 91 30 92 28 93 29 94
REMARK H PARENT 85 25 59 36 21 84
REMARK Flexibility Score: inf
ROOT
ATOM      1  C   UNL     1       2.621   0.421  -2.133  1.00  0.00     0.202 C 
ENDROOT
BRANCH   1   2
ATOM      2  O   UNL     1       3.960   0.114  -1.717  1.00  0.00    -0.374 OA
BRANCH   2   3
ATOM      3  C   UNL     1       4.171  -1.213  -1.224  1.00  0.00     0.202 C 
BRANCH   3   4
ATOM      4  C   UNL     1       3.838  -1.423   0.254  1.00  0.00     0.261 C 
BRANCH   4   5
ATOM      5  O   UNL     1       2.463  -1.098   0.507  1.00  0.00    -0.460 OA
BRANCH   5   6
ATOM      6  C   UNL     1       1.956   0.026   1.063  1.00  0.00     0.338 C 
ATOM      7  O   UNL     1       0.739   0.113   1.210  1.00  0.00    -0.246 OA
BRANCH   6   8
ATOM      8  C   UNL     1       2.797   1.170   1.527  1.00  0.00     0.060 A 
ATOM      9  C   UNL     1       4.033   1.532   0.987  1.00  0.00     0.016 A 
ATOM     10  C   UNL     1       2.254   1.988   2.532  1.00  0.00     0.016 A 
ATOM     11  C   UNL     1       4.756   2.605   1.482  1.00  0.00     0.010 A 
ATOM     12  C   UNL     1       2.953   3.102   3.007  1.00  0.00     0.010 A 
ATOM     13  C   UNL     1       4.223   3.389   2.499  1.00  0.00    -0.014 A 
BRANCH  13  14
ATOM     14  C   UNL     1       5.094   4.416   3.094  1.00  0.00     0.031 A 
ATOM     15  C   UNL     1       5.740   4.115   4.410  1.00  0.00     0.074 A 
ATOM     16  C   UNL     1       5.410   5.511   2.382  1.00  0.00     0.049 A 
ATOM     17  N   UNL     1       6.551   4.847   5.122  1.00  0.00    -0.248 NA
ATOM     18  C   UNL     1       5.442   2.797   4.998  1.00  0.00     0.031 C 
ATOM     19  C   UNL     1       4.921   5.807   1.032  1.00  0.00     0.029 A 
ATOM     20  N   UNL     1       6.249   6.551   2.671  1.00  0.00    -0.354 N 
ATOM     21  C   UNL     1       6.833   4.096   6.255  1.00  0.00     0.074 A 
ATOM     22  C   UNL     1       6.109   2.851   6.139  1.00  0.00     0.031 C 
ATOM     23  C   UNL     1       5.501   6.937   0.597  1.00  0.00     0.029 A 
ATOM     24  C   UNL     1       6.346   7.473   1.657  1.00  0.00     0.049 A 
ATOM     25  H   UNL     1       6.736   6.632   3.522  1.00  0.00     0.167 HD
ATOM     26  C   UNL     1       7.621   4.431   7.302  1.00  0.00     0.037 A 
ATOM     27  C   UNL     1       7.032   8.630   1.614  1.00  0.00     0.037 A 
ATOM     28  C   UNL     1       8.331   5.678   7.384  1.00  0.00     0.049 A 
ATOM     29  C   UNL     1       7.838   9.014   2.824  1.00  0.00     0.074 A 
ATOM     30  C   UNL     1       9.108   6.170   8.415  1.00  0.00     0.029 A 
ATOM     31  N   UNL     1       8.347   6.632   6.373  1.00  0.00    -0.354 N 
ATOM     32  N   UNL     1       8.042   8.337   3.930  1.00  0.00    -0.248 NA
ATOM     33  C   UNL     1       8.494  10.326   2.790  1.00  0.00     0.031 C 
ATOM     34  C   UNL     1       9.561   7.442   8.043  1.00  0.00     0.029 A 
ATOM     35  C   UNL     1       9.108   7.719   6.761  1.00  0.00     0.049 A 
ATOM     36  H   UNL     1       7.884   6.547   5.509  1.00  0.00     0.167 HD
ATOM     37  C   UNL     1       8.869   9.127   4.715  1.00  0.00     0.074 A 
ATOM     38  C   UNL     1       9.138  10.330   3.949  1.00  0.00     0.031 C 
ATOM     39  C   UNL     1       9.361   8.889   5.957  1.00  0.00     0.037 A 
BRANCH  26  40
ATOM     40  C   UNL     1       7.663   3.468   8.451  1.00  0.00     0.057 A 
ATOM     41  C   UNL     1       8.317   2.232   8.373  1.00  0.00     0.134 A 
ATOM     42  C   UNL     1       6.975   3.760   9.636  1.00  0.00     0.134 A 
ATOM     43  F   UNL     1       8.966   1.875   7.253  1.00  0.00    -0.206 F 
ATOM     44  C   UNL     1       8.256   1.306   9.418  1.00  0.00     0.040 A 
ATOM     45  C   UNL     1       6.928   2.853  10.697  1.00  0.00     0.040 A 
ATOM     46  F   UNL     1       6.320   4.922   9.775  1.00  0.00    -0.206 F 
ATOM     47  C   UNL     1       7.560   1.617  10.585  1.00  0.00     0.006 A 
ENDBRANCH  26  40
BRANCH  27  48
ATOM     48  C   UNL     1       6.964   9.503   0.413  1.00  0.00     0.057 A 
ATOM     49  C   UNL     1       8.091   9.739  -0.382  1.00  0.00     0.134 A 
ATOM     50  C   UNL     1       5.769  10.129   0.033  1.00  0.00     0.134 A 
ATOM     51  F   UNL     1       9.271   9.187  -0.062  1.00  0.00    -0.206 F 
ATOM     52  C   UNL     1       8.037  10.574  -1.500  1.00  0.00     0.040 A 
ATOM     53  C   UNL     1       5.694  10.944  -1.098  1.00  0.00     0.040 A 
ATOM     54  F   UNL     1       4.650   9.945   0.749  1.00  0.00    -0.206 F 
ATOM     55  C   UNL     1       6.833  11.175  -1.865  1.00  0.00     0.006 A 
ENDBRANCH  27  48
BRANCH  39  56
ATOM     56  C   UNL     1      10.273   9.930   6.529  1.00  0.00     0.057 A 
ATOM     57  C   UNL     1       9.792  11.157   7.001  1.00  0.00     0.134 A 
ATOM     58  C   UNL     1      11.646   9.679   6.643  1.00  0.00     0.134 A 
ATOM     59  F   UNL     1       8.488  11.459   6.906  1.00  0.00    -0.206 F 
ATOM     60  C   UNL     1      10.650  12.110   7.547  1.00  0.00     0.040 A 
ATOM     61  C   UNL     1      12.510  10.613   7.211  1.00  0.00     0.040 A 
ATOM     62  F   UNL     1      12.164   8.518   6.216  1.00  0.00    -0.206 F 
ATOM     63  C   UNL     1      12.013  11.836   7.660  1.00  0.00     0.006 A 
ENDBRANCH  39  56
ENDBRANCH  13  14
ENDBRANCH   6   8
ENDBRANCH   5   6
ENDBRANCH   4   5
ENDBRANCH   3   4
ENDBRANCH   2   3
ENDBRANCH   1   2
BRANCH   1  64
ATOM     64  C   UNL     1       2.648   1.160  -3.476  1.00  0.00     0.261 C 
BRANCH  64  65
ATOM     65  O   UNL     1       3.138   0.250  -4.469  1.00  0.00    -0.460 OA
BRANCH  65  66
ATOM     66  C   UNL     1       4.495   0.228  -4.546  1.00  0.00     0.338 C 
ATOM     67  O   UNL     1       5.258   1.144  -4.346  1.00  0.00    -0.246 OA
BRANCH  66  68
ATOM     68  C   UNL     1       4.903  -1.192  -4.644  1.00  0.00     0.060 A 
ATOM     69  C   UNL     1       6.052  -1.570  -3.943  1.00  0.00     0.018 A 
ATOM     70  C   UNL     1       4.147  -2.144  -5.339  1.00  0.00     0.018 A 
ATOM     71  C   UNL     1       6.466  -2.893  -3.960  1.00  0.00     0.028 A 
ATOM     72  C   UNL     1       4.581  -3.469  -5.385  1.00  0.00     0.028 A 
ATOM     73  C   UNL     1       5.757  -3.830  -4.720  1.00  0.00     0.052 A 
BRANCH  73  74
ATOM     74  N   UNL     1       6.442  -4.980  -5.118  1.00  0.00    -0.245 N 
ATOM     75  C   UNL     1       7.468  -4.877  -6.021  1.00  0.00     0.240 C 
ATOM     76  C   UNL     1       6.310  -6.230  -4.565  1.00  0.00     0.292 C 
ATOM     77  O   UNL     1       7.869  -3.875  -6.596  1.00  0.00    -0.274 OA
ATOM     78  C   UNL     1       8.005  -6.234  -6.282  1.00  0.00     0.176 C 
ATOM     79  C   UNL     1       7.436  -7.085  -5.155  1.00  0.00     0.284 C 
ATOM     80  O   UNL     1       5.516  -6.575  -3.701  1.00  0.00    -0.267 OA
BRANCH  79  81
ATOM     81  N   UNL     1       7.080  -8.487  -5.436  1.00  0.00    -0.321 N 
ATOM     82  C   UNL     1       5.835  -8.736  -6.180  1.00  0.00     0.284 C 
ATOM     83  C   UNL     1       8.167  -9.254  -6.074  1.00  0.00     0.284 C 
ATOM     84  H   UNL     1       6.912  -8.820  -4.487  1.00  0.00     0.348 HD
ATOM     85  C   UNL     1       5.881  -8.474  -7.698  1.00  0.00     0.178 C 
ATOM     86  C   UNL     1       8.343  -9.086  -7.602  1.00  0.00     0.178 C 
ATOM     87  N   UNL     1       7.066  -9.062  -8.345  1.00  0.00    -0.360 N 
BRANCH  87  88
ATOM     88  C   UNL     1       7.159  -9.041  -9.741  1.00  0.00     0.037 A 
ATOM     89  C   UNL     1       6.429  -8.140 -10.537  1.00  0.00     0.029 A 
ATOM     90  C   UNL     1       8.002  -9.944 -10.415  1.00  0.00     0.029 A 
ATOM     91  C   UNL     1       6.559  -8.119 -11.931  1.00  0.00     0.041 A 
ATOM     92  C   UNL     1       8.135  -9.932 -11.807  1.00  0.00     0.041 A 
ATOM     93  C   UNL     1       7.415  -9.014 -12.553  1.00  0.00     0.123 A 
ATOM     94  F   UNL     1       7.543  -8.995 -13.885  1.00  0.00    -0.207 F 
ENDBRANCH  87  88
ENDBRANCH  79  81
ENDBRANCH  73  74
ENDBRANCH  66  68
ENDBRANCH  65  66
ENDBRANCH  64  65
ENDBRANCH   1  64
TORSDOF 17
