REMARK SMILES NS(=O)(=O)c1ccc(-n2nc(C(=O)OCCOCCOC(=O)c3ccc(-c4c5nc(c(-c6c(F)cccc6F)c6ccc([nH]6)c(-c6c(F)cccc6F)c6nc(c(-c7c(F)cccc7F)c7ccc4[nH]7)C=C6)C=C5)cc3)cc2-c2ccc(Cl)s2)cc1
REMARK SMILES IDX 16 1 15 2 14 3 12 4 13 5 11 6 9 7 10 8 78 9 77 10 8 11 5 12
REMARK SMILES IDX 6 13 86 14 7 15 85 16 2 17 3 18 4 19 1 20 79 23 80 24 84 25
REMARK SMILES IDX 81 26 82 27 83 28 17 29 18 30 19 31 20 32 21 33 22 34 23 35
REMARK SMILES IDX 24 36 76 37 25 38 75 39 26 40 27 41 28 42 69 43 29 44 74 45
REMARK SMILES IDX 68 46 70 47 30 48 73 49 67 50 66 51 31 53 57 54 40 55 56 56
REMARK SMILES IDX 41 57 44 58 55 59 71 60 42 61 43 62 54 64 72 65 45 66 32 67
REMARK SMILES IDX 33 68 38 69 34 70 35 71 37 72 39 73 36 74 58 75 59 76 64 77
REMARK SMILES IDX 60 78 61 79 63 80 65 81 62 82 46 83 47 84 52 85 48 86 49 87
REMARK SMILES IDX 51 88 53 89 50 90
REMARK H PARENT 1 21 1 22 70 52 44 63
REMARK Flexibility Score: inf
ROOT
ATOM      1  C   UNL     1       1.031  -2.645  12.846  1.00  0.00     0.202 C 
ENDROOT
BRANCH   1   2
ATOM      2  C   UNL     1       0.618  -3.770  11.893  1.00  0.00     0.261 C 
BRANCH   2   3
ATOM      3  O   UNL     1       1.269  -3.677  10.618  1.00  0.00    -0.458 OA
BRANCH   3   4
ATOM      4  C   UNL     1       0.484  -3.187   9.609  1.00  0.00     0.358 C 
ATOM      5  O   UNL     1      -0.716  -2.961   9.712  1.00  0.00    -0.244 OA
BRANCH   4   6
ATOM      6  C   UNL     1       1.268  -2.876   8.408  1.00  0.00     0.171 A 
ATOM      7  N   UNL     1       1.753  -1.970   6.535  1.00  0.00    -0.231 N 
ATOM      8  N   UNL     1       0.984  -1.811   7.634  1.00  0.00    -0.160 NA
ATOM      9  C   UNL     1       2.665  -3.001   6.685  1.00  0.00     0.085 A 
ATOM     10  C   UNL     1       2.398  -3.570   7.911  1.00  0.00     0.068 A 
BRANCH   7  11
ATOM     11  C   UNL     1       1.445  -1.245   5.361  1.00  0.00     0.065 A 
ATOM     12  C   UNL     1       0.878   0.153   3.033  1.00  0.00     0.082 A 
ATOM     13  C   UNL     1       0.897  -1.244   3.008  1.00  0.00     0.024 A 
ATOM     14  C   UNL     1       1.128   0.856   4.219  1.00  0.00     0.024 A 
ATOM     15  C   UNL     1       1.199  -1.945   4.172  1.00  0.00     0.030 A 
ATOM     16  C   UNL     1       1.379   0.153   5.400  1.00  0.00     0.030 A 
BRANCH  12  17
ATOM     17  S   UNL     1       0.562   1.046   1.540  1.00  0.00     0.238 S 
ATOM     18  O   UNL     1       1.324   2.280   1.563  1.00  0.00    -0.207 OA
ATOM     19  O   UNL     1      -0.847   0.998   1.265  1.00  0.00    -0.207 OA
BRANCH  17  20
ATOM     20  N   UNL     1       1.305   0.105   0.357  1.00  0.00    -0.225 NA
ATOM     21  H   UNL     1       1.177   0.543  -0.555  1.00  0.00     0.137 HD
ATOM     22  H   UNL     1       0.887  -0.825   0.349  1.00  0.00     0.137 HD
ENDBRANCH  17  20
ENDBRANCH  12  17
ENDBRANCH   7  11
BRANCH   9  23
ATOM     23  C   UNL     1       3.646  -3.381   5.714  1.00  0.00     0.054 A 
ATOM     24  C   UNL     1       3.769  -4.624   5.124  1.00  0.00     0.024 A 
ATOM     25  S   UNL     1       4.825  -2.282   5.128  1.00  0.00    -0.122 S 
ATOM     26  C   UNL     1       4.794  -4.649   4.133  1.00  0.00     0.033 A 
ATOM     27  C   UNL     1       5.427  -3.436   4.047  1.00  0.00     0.094 A 
ATOM     28  Cl  UNL     1       6.709  -3.024   2.983  1.00  0.00    -0.072 Cl
ENDBRANCH   9  23
ENDBRANCH   4   6
ENDBRANCH   3   4
ENDBRANCH   2   3
ENDBRANCH   1   2
BRANCH   1  29
ATOM     29  O   UNL     1       0.680  -1.306  12.505  1.00  0.00    -0.374 OA
BRANCH  29  30
ATOM     30  C   UNL     1       1.332  -0.639  11.431  1.00  0.00     0.202 C 
BRANCH  30  31
ATOM     31  C   UNL     1       2.790  -0.239  11.592  1.00  0.00     0.261 C 
BRANCH  31  32
ATOM     32  O   UNL     1       3.628  -1.344  11.895  1.00  0.00    -0.460 OA
BRANCH  32  33
ATOM     33  C   UNL     1       3.954  -1.425  13.205  1.00  0.00     0.338 C 
ATOM     34  O   UNL     1       3.385  -0.896  14.145  1.00  0.00    -0.246 OA
BRANCH  33  35
ATOM     35  C   UNL     1       5.250  -2.097  13.317  1.00  0.00     0.060 A 
ATOM     36  C   UNL     1       5.819  -2.107  14.590  1.00  0.00     0.016 A 
ATOM     37  C   UNL     1       5.997  -2.366  12.160  1.00  0.00     0.016 A 
ATOM     38  C   UNL     1       7.189  -2.133  14.681  1.00  0.00     0.010 A 
ATOM     39  C   UNL     1       7.366  -2.376  12.251  1.00  0.00     0.010 A 
ATOM     40  C   UNL     1       7.942  -2.166  13.500  1.00  0.00    -0.014 A 
BRANCH  40  41
ATOM     41  C   UNL     1       9.383  -2.167  13.620  1.00  0.00     0.031 A 
ATOM     42  C   UNL     1       9.855  -3.456  14.169  1.00  0.00     0.074 A 
ATOM     43  C   UNL     1      10.161  -1.150  13.203  1.00  0.00     0.049 A 
ATOM     44  N   UNL     1      10.317  -3.670  15.355  1.00  0.00    -0.248 NA
ATOM     45  C   UNL     1       9.541  -4.685  13.417  1.00  0.00     0.031 C 
ATOM     46  C   UNL     1       9.776   0.039  12.440  1.00  0.00     0.029 A 
ATOM     47  N   UNL     1      11.512  -1.017  13.309  1.00  0.00    -0.354 N 
ATOM     48  C   UNL     1      10.592  -5.031  15.397  1.00  0.00     0.074 A 
ATOM     49  C   UNL     1       9.879  -5.624  14.301  1.00  0.00     0.031 C 
ATOM     50  C   UNL     1      10.889   0.641  11.956  1.00  0.00     0.029 A 
ATOM     51  C   UNL     1      12.060  -0.035  12.482  1.00  0.00     0.049 A 
ATOM     52  H   UNL     1      12.056  -1.566  13.918  1.00  0.00     0.167 HD
ATOM     53  C   UNL     1      11.648  -5.485  16.123  1.00  0.00     0.037 A 
ATOM     54  C   UNL     1      13.386   0.120  12.219  1.00  0.00     0.037 A 
ATOM     55  C   UNL     1      12.034  -4.512  17.119  1.00  0.00     0.049 A 
ATOM     56  C   UNL     1      14.131  -0.584  13.297  1.00  0.00     0.074 A 
ATOM     57  C   UNL     1      11.393  -3.900  18.179  1.00  0.00     0.029 A 
ATOM     58  N   UNL     1      13.133  -3.736  16.844  1.00  0.00    -0.354 N 
ATOM     59  N   UNL     1      14.160  -0.177  14.535  1.00  0.00    -0.248 NA
ATOM     60  C   UNL     1      14.415  -1.997  13.093  1.00  0.00     0.031 C 
ATOM     61  C   UNL     1      11.868  -2.555  18.174  1.00  0.00     0.029 A 
ATOM     62  C   UNL     1      12.834  -2.441  17.174  1.00  0.00     0.049 A 
ATOM     63  H   UNL     1      13.988  -4.055  16.474  1.00  0.00     0.167 HD
ATOM     64  C   UNL     1      14.009  -1.334  15.284  1.00  0.00     0.074 A 
ATOM     65  C   UNL     1      14.228  -2.432  14.342  1.00  0.00     0.031 C 
ATOM     66  C   UNL     1      13.422  -1.300  16.516  1.00  0.00     0.037 A 
BRANCH  53  67
ATOM     67  C   UNL     1      12.601  -6.545  15.618  1.00  0.00     0.057 A 
ATOM     68  C   UNL     1      13.655  -6.946  16.457  1.00  0.00     0.134 A 
ATOM     69  C   UNL     1      12.727  -6.950  14.271  1.00  0.00     0.134 A 
ATOM     70  F   UNL     1      13.658  -6.627  17.760  1.00  0.00    -0.206 F 
ATOM     71  C   UNL     1      14.793  -7.600  15.972  1.00  0.00     0.040 A 
ATOM     72  C   UNL     1      13.836  -7.646  13.787  1.00  0.00     0.040 A 
ATOM     73  F   UNL     1      11.847  -6.620  13.320  1.00  0.00    -0.206 F 
ATOM     74  C   UNL     1      14.892  -7.940  14.629  1.00  0.00     0.006 A 
ENDBRANCH  53  67
BRANCH  54  75
ATOM     75  C   UNL     1      14.060   0.512  10.955  1.00  0.00     0.057 A 
ATOM     76  C   UNL     1      15.433   0.812  10.932  1.00  0.00     0.134 A 
ATOM     77  C   UNL     1      13.461   0.299   9.703  1.00  0.00     0.134 A 
ATOM     78  F   UNL     1      16.110   0.994  12.075  1.00  0.00    -0.206 F 
ATOM     79  C   UNL     1      16.172   0.857   9.741  1.00  0.00     0.040 A 
ATOM     80  C   UNL     1      14.185   0.346   8.505  1.00  0.00     0.040 A 
ATOM     81  F   UNL     1      12.172  -0.057   9.603  1.00  0.00    -0.206 F 
ATOM     82  C   UNL     1      15.550   0.608   8.522  1.00  0.00     0.006 A 
ENDBRANCH  54  75
BRANCH  66  83
ATOM     83  C   UNL     1      13.189   0.042  17.151  1.00  0.00     0.057 A 
ATOM     84  C   UNL     1      12.338   1.032  16.636  1.00  0.00     0.134 A 
ATOM     85  C   UNL     1      13.736   0.273  18.418  1.00  0.00     0.134 A 
ATOM     86  F   UNL     1      11.695   0.860  15.473  1.00  0.00    -0.206 F 
ATOM     87  C   UNL     1      12.076   2.214  17.339  1.00  0.00     0.040 A 
ATOM     88  C   UNL     1      13.454   1.430  19.144  1.00  0.00     0.040 A 
ATOM     89  F   UNL     1      14.518  -0.654  18.993  1.00  0.00    -0.206 F 
ATOM     90  C   UNL     1      12.630   2.411  18.601  1.00  0.00     0.006 A 
ENDBRANCH  66  83
ENDBRANCH  40  41
ENDBRANCH  33  35
ENDBRANCH  32  33
ENDBRANCH  31  32
ENDBRANCH  30  31
ENDBRANCH  29  30
ENDBRANCH   1  29
TORSDOF 18
