REMARK SMILES CCN(CC)c1ccc([C@@H]2c3[nH]c4ccccc4c3C[C@@H](C(=O)OCCOCCOC(=O)c3ccc(-c4c5nc(c(-c6c(F)cccc6F)c6ccc([nH]6)c(-c6c(F)cccc6F)c6nc(c(-c7c(F)cccc7F)c7ccc4[nH]7)C=C6)C=C5)cc3)N2C(C)=O)cc1
REMARK SMILES IDX 26 1 25 2 24 3 22 4 23 5 21 6 10 7 11 8 87 9 12 10 19 11
REMARK SMILES IDX 13 12 18 14 20 15 14 16 17 17 15 18 16 19 9 20 6 21 7 22
REMARK SMILES IDX 92 23 8 24 91 25 3 26 2 27 1 28 4 29 5 30 88 31 89 32 90 33
REMARK SMILES IDX 27 34 28 35 29 36 30 37 31 38 32 39 33 40 34 41 86 42 35 43
REMARK SMILES IDX 85 44 36 45 37 46 38 47 79 48 39 49 84 50 78 51 80 52 40 53
REMARK SMILES IDX 83 54 77 55 76 56 41 58 67 59 50 60 66 61 51 62 54 63 65 64
REMARK SMILES IDX 81 65 52 66 53 67 64 69 82 70 55 71 42 72 43 73 48 74 44 75
REMARK SMILES IDX 45 76 47 77 49 78 46 79 68 80 69 81 74 82 70 83 71 84 73 85
REMARK SMILES IDX 75 86 72 87 56 88 57 89 62 90 58 91 59 92 61 93 63 94 60 95
REMARK H PARENT 12 13 80 57 54 68
REMARK Flexibility Score: inf
ROOT
ATOM      1  C   UNL     1       7.017  -3.244  -4.117  1.00  0.00     0.202 C 
ENDROOT
BRANCH   1   2
ATOM      2  C   UNL     1       8.443  -3.031  -3.555  1.00  0.00     0.261 C 
BRANCH   2   3
ATOM      3  O   UNL     1       8.598  -3.472  -2.176  1.00  0.00    -0.462 OA
BRANCH   3   4
ATOM      4  C   UNL     1       8.771  -2.677  -1.068  1.00  0.00     0.329 C 
ATOM      5  O   UNL     1       8.760  -1.454  -1.104  1.00  0.00    -0.250 OA
BRANCH   4   6
ATOM      6  C   UNL     1       8.745  -3.565   0.294  1.00  0.00     0.200 C 
ATOM      7  C   UNL     1       6.357  -3.829  -0.059  1.00  0.00     0.163 C 
ATOM      8  C   UNL     1       6.739  -5.133  -0.742  1.00  0.00     0.047 A 
ATOM      9  N   UNL     1       7.377  -3.708   0.966  1.00  0.00    -0.316 N 
ATOM     10  N   UNL     1       5.903  -6.087  -1.234  1.00  0.00    -0.356 N 
ATOM     11  C   UNL     1       8.016  -5.714  -0.678  1.00  0.00    -0.014 A 
ATOM     12  C   UNL     1       6.445  -7.308  -0.889  1.00  0.00     0.046 A 
ATOM     13  H   UNL     1       5.071  -5.935  -1.739  1.00  0.00     0.166 HD
ATOM     14  C   UNL     1       7.808  -7.109  -0.677  1.00  0.00     0.003 A 
ATOM     15  C   UNL     1       9.214  -4.982  -0.118  1.00  0.00     0.075 C 
ATOM     16  C   UNL     1       5.818  -8.520  -0.616  1.00  0.00     0.026 A 
ATOM     17  C   UNL     1       8.615  -8.172  -0.246  1.00  0.00     0.010 A 
ATOM     18  C   UNL     1       6.610  -9.521  -0.047  1.00  0.00     0.002 A 
ATOM     19  C   UNL     1       7.986  -9.360   0.120  1.00  0.00     0.001 A 
BRANCH   7  20
ATOM     20  C   UNL     1       4.960  -3.472   0.403  1.00  0.00    -0.019 A 
ATOM     21  C   UNL     1       2.259  -2.653   0.788  1.00  0.00     0.037 A 
ATOM     22  C   UNL     1       2.631  -3.998   0.757  1.00  0.00     0.026 A 
ATOM     23  C   UNL     1       3.304  -1.725   0.822  1.00  0.00     0.026 A 
ATOM     24  C   UNL     1       3.952  -4.405   0.584  1.00  0.00     0.008 A 
ATOM     25  C   UNL     1       4.636  -2.123   0.639  1.00  0.00     0.008 A 
BRANCH  21  26
ATOM     26  N   UNL     1       0.934  -2.247   0.712  1.00  0.00    -0.372 N 
BRANCH  26  27
ATOM     27  C   UNL     1       0.536  -1.436  -0.453  1.00  0.00     0.113 C 
ATOM     28  C   UNL     1       0.703   0.059  -0.219  1.00  0.00     0.027 C 
ENDBRANCH  26  27
BRANCH  26  29
ATOM     29  C   UNL     1      -0.134  -2.928   1.458  1.00  0.00     0.113 C 
ATOM     30  C   UNL     1      -0.504  -4.304   0.915  1.00  0.00     0.027 C 
ENDBRANCH  26  29
ENDBRANCH  21  26
ENDBRANCH   7  20
BRANCH   9  31
ATOM     31  C   UNL     1       7.121  -4.597   2.044  1.00  0.00     0.221 C 
ATOM     32  C   UNL     1       7.870  -4.493   3.327  1.00  0.00     0.114 C 
ATOM     33  O   UNL     1       6.262  -5.488   2.004  1.00  0.00    -0.275 OA
ENDBRANCH   9  31
ENDBRANCH   4   6
ENDBRANCH   3   4
ENDBRANCH   2   3
ENDBRANCH   1   2
BRANCH   1  34
ATOM     34  O   UNL     1       6.251  -2.037  -4.213  1.00  0.00    -0.374 OA
BRANCH  34  35
ATOM     35  C   UNL     1       5.612  -1.646  -3.003  1.00  0.00     0.202 C 
BRANCH  35  36
ATOM     36  C   UNL     1       4.191  -2.200  -2.863  1.00  0.00     0.261 C 
BRANCH  36  37
ATOM     37  O   UNL     1       4.157  -3.641  -2.883  1.00  0.00    -0.460 OA
BRANCH  37  38
ATOM     38  C   UNL     1       3.269  -4.161  -3.756  1.00  0.00     0.338 C 
ATOM     39  O   UNL     1       2.469  -3.551  -4.464  1.00  0.00    -0.246 OA
BRANCH  38  40
ATOM     40  C   UNL     1       3.425  -5.616  -3.868  1.00  0.00     0.060 A 
ATOM     41  C   UNL     1       3.827  -6.126  -5.105  1.00  0.00     0.016 A 
ATOM     42  C   UNL     1       3.030  -6.477  -2.841  1.00  0.00     0.016 A 
ATOM     43  C   UNL     1       3.779  -7.500  -5.341  1.00  0.00     0.010 A 
ATOM     44  C   UNL     1       3.030  -7.859  -3.064  1.00  0.00     0.010 A 
ATOM     45  C   UNL     1       3.349  -8.376  -4.334  1.00  0.00    -0.014 A 
BRANCH  45  46
ATOM     46  C   UNL     1       3.051  -9.796  -4.667  1.00  0.00     0.031 A 
ATOM     47  C   UNL     1       1.613 -10.249  -4.719  1.00  0.00     0.074 A 
ATOM     48  C   UNL     1       4.033 -10.666  -4.968  1.00  0.00     0.049 A 
ATOM     49  N   UNL     1       1.121 -11.441  -4.941  1.00  0.00    -0.248 NA
ATOM     50  C   UNL     1       0.591  -9.216  -4.481  1.00  0.00     0.031 C 
ATOM     51  C   UNL     1       5.461 -10.353  -4.996  1.00  0.00     0.029 A 
ATOM     52  N   UNL     1       3.974 -11.996  -5.308  1.00  0.00    -0.354 N 
ATOM     53  C   UNL     1      -0.260 -11.305  -4.851  1.00  0.00     0.074 A 
ATOM     54  C   UNL     1      -0.527  -9.924  -4.516  1.00  0.00     0.031 C 
ATOM     55  C   UNL     1       6.143 -11.459  -5.339  1.00  0.00     0.029 A 
ATOM     56  C   UNL     1       5.206 -12.569  -5.509  1.00  0.00     0.049 A 
ATOM     57  H   UNL     1       3.128 -12.491  -5.399  1.00  0.00     0.167 HD
ATOM     58  C   UNL     1      -1.222 -12.239  -5.045  1.00  0.00     0.037 A 
ATOM     59  C   UNL     1       5.542 -13.847  -5.773  1.00  0.00     0.037 A 
ATOM     60  C   UNL     1      -0.959 -13.609  -5.397  1.00  0.00     0.049 A 
ATOM     61  C   UNL     1       4.459 -14.885  -5.913  1.00  0.00     0.074 A 
ATOM     62  C   UNL     1      -1.867 -14.627  -5.633  1.00  0.00     0.029 A 
ATOM     63  N   UNL     1       0.305 -14.155  -5.560  1.00  0.00    -0.354 N 
ATOM     64  N   UNL     1       3.158 -14.741  -5.839  1.00  0.00    -0.248 NA
ATOM     65  C   UNL     1       4.893 -16.266  -6.174  1.00  0.00     0.031 C 
ATOM     66  C   UNL     1      -1.151 -15.802  -5.882  1.00  0.00     0.029 A 
ATOM     67  C   UNL     1       0.201 -15.502  -5.867  1.00  0.00     0.049 A 
ATOM     68  H   UNL     1       1.151 -13.659  -5.471  1.00  0.00     0.167 HD
ATOM     69  C   UNL     1       2.619 -16.000  -6.080  1.00  0.00     0.074 A 
ATOM     70  C   UNL     1       3.733 -16.895  -6.311  1.00  0.00     0.031 C 
ATOM     71  C   UNL     1       1.317 -16.379  -6.112  1.00  0.00     0.037 A 
BRANCH  58  72
ATOM     72  C   UNL     1      -2.650 -11.816  -4.851  1.00  0.00     0.057 A 
ATOM     73  C   UNL     1      -3.299 -10.950  -5.742  1.00  0.00     0.134 A 
ATOM     74  C   UNL     1      -3.397 -12.308  -3.773  1.00  0.00     0.134 A 
ATOM     75  F   UNL     1      -2.639 -10.431  -6.788  1.00  0.00    -0.206 F 
ATOM     76  C   UNL     1      -4.629 -10.569  -5.552  1.00  0.00     0.040 A 
ATOM     77  C   UNL     1      -4.736 -11.959  -3.590  1.00  0.00     0.040 A 
ATOM     78  F   UNL     1      -2.841 -13.146  -2.885  1.00  0.00    -0.206 F 
ATOM     79  C   UNL     1      -5.354 -11.081  -4.478  1.00  0.00     0.006 A 
ENDBRANCH  58  72
BRANCH  59  80
ATOM     80  C   UNL     1       6.972 -14.230  -5.905  1.00  0.00     0.057 A 
ATOM     81  C   UNL     1       7.503 -14.657  -7.128  1.00  0.00     0.134 A 
ATOM     82  C   UNL     1       7.837 -14.207  -4.803  1.00  0.00     0.134 A 
ATOM     83  F   UNL     1       6.720 -14.727  -8.216  1.00  0.00    -0.206 F 
ATOM     84  C   UNL     1       8.833 -15.064  -7.248  1.00  0.00     0.040 A 
ATOM     85  C   UNL     1       9.176 -14.582  -4.915  1.00  0.00     0.040 A 
ATOM     86  F   UNL     1       7.392 -13.812  -3.601  1.00  0.00    -0.206 F 
ATOM     87  C   UNL     1       9.676 -15.021  -6.139  1.00  0.00     0.006 A 
ENDBRANCH  59  80
BRANCH  71  88
ATOM     88  C   UNL     1       1.017 -17.809  -6.465  1.00  0.00     0.057 A 
ATOM     89  C   UNL     1       1.285 -18.867  -5.588  1.00  0.00     0.134 A 
ATOM     90  C   UNL     1       0.399 -18.122  -7.683  1.00  0.00     0.134 A 
ATOM     91  F   UNL     1       1.885 -18.638  -4.409  1.00  0.00    -0.206 F 
ATOM     92  C   UNL     1       0.971 -20.187  -5.919  1.00  0.00     0.040 A 
ATOM     93  C   UNL     1       0.052 -19.433  -8.012  1.00  0.00     0.040 A 
ATOM     94  F   UNL     1       0.102 -17.156  -8.566  1.00  0.00    -0.206 F 
ATOM     95  C   UNL     1       0.345 -20.471  -7.131  1.00  0.00     0.006 A 
ENDBRANCH  71  88
ENDBRANCH  45  46
ENDBRANCH  38  40
ENDBRANCH  37  38
ENDBRANCH  36  37
ENDBRANCH  35  36
ENDBRANCH  34  35
ENDBRANCH   1  34
TORSDOF 19
