REMARK SMILES O=C(C[C@H](NC(=O)[C@]12C[C@H]3C[C@H](C[C@H](C3)C1)C2)c1cccc([N+](=O)[O-])c1)OCCOCCOC(=O)c1ccc(-c2c3nc(c(-c4c(F)cccc4F)c4ccc([nH]4)c(-c4c(F)cccc4F)c4nc(c(-c5c(F)cccc5F)c5ccc2[nH]5)C=C4)C=C3)cc1
REMARK SMILES IDX 29 1 28 2 27 3 2 4 1 5 3 6 4 7 18 8 19 9 26 10 20 11 22 12
REMARK SMILES IDX 21 13 23 14 24 15 25 16 5 17 6 18 7 20 8 21 9 22 16 23 17 24
REMARK SMILES IDX 10 25 14 26 12 27 11 28 15 29 13 30 30 31 31 32 32 33 33 34
REMARK SMILES IDX 34 35 35 36 36 37 37 38 89 39 38 40 88 41 39 42 40 43 41 44
REMARK SMILES IDX 82 45 42 46 87 47 81 48 83 49 43 50 86 51 80 52 79 53 44 55
REMARK SMILES IDX 70 56 53 57 69 58 54 59 57 60 68 61 84 62 55 63 56 64 67 66
REMARK SMILES IDX 85 67 58 68 45 69 46 70 51 71 47 72 48 73 50 74 52 75 49 76
REMARK SMILES IDX 71 77 72 78 77 79 73 80 74 81 76 82 78 83 75 84 59 85 60 86
REMARK SMILES IDX 65 87 61 88 62 89 64 90 66 91 63 92
REMARK H PARENT 5 19 83 54 57 65
REMARK Flexibility Score: inf
ROOT
ATOM      1  C   UNL     1       6.089  -2.905  -3.454  1.00  0.00     0.202 C 
ENDROOT
BRANCH   1   2
ATOM      2  C   UNL     1       4.601  -3.288  -3.427  1.00  0.00     0.261 C 
BRANCH   2   3
ATOM      3  O   UNL     1       3.630  -2.244  -3.325  1.00  0.00    -0.463 OA
BRANCH   3   4
ATOM      4  C   UNL     1       4.082  -1.070  -2.867  1.00  0.00     0.308 C 
ATOM      5  O   UNL     1       4.321  -0.135  -3.623  1.00  0.00    -0.252 OA
BRANCH   4   6
ATOM      6  C   UNL     1       4.311  -1.011  -1.383  1.00  0.00     0.152 C 
BRANCH   6   7
ATOM      7  C   UNL     1       3.264  -1.624  -0.471  1.00  0.00     0.123 C 
BRANCH   7   8
ATOM      8  C   UNL     1       3.886  -2.940   0.065  1.00  0.00    -0.018 A 
ATOM      9  C   UNL     1       3.403  -4.192  -0.348  1.00  0.00     0.006 A 
ATOM     10  C   UNL     1       5.106  -2.901   0.779  1.00  0.00     0.091 A 
ATOM     11  C   UNL     1       4.173  -5.354  -0.168  1.00  0.00     0.007 A 
ATOM     12  C   UNL     1       5.888  -4.059   0.919  1.00  0.00     0.269 A 
ATOM     13  C   UNL     1       5.430  -5.288   0.436  1.00  0.00     0.085 A 
BRANCH  12  14
ATOM     14  N   UNL     1       7.239  -3.959   1.490  1.00  0.00     0.062 N 
ATOM     15  O   UNL     1       7.836  -5.015   1.746  1.00  0.00    -0.258 OA
ATOM     16  O   UNL     1       7.700  -2.824   1.682  1.00  0.00    -0.258 OA
ENDBRANCH  12  14
ENDBRANCH   7   8
BRANCH   7  17
ATOM     17  N   UNL     1       2.792  -0.799   0.662  1.00  0.00    -0.348 N 
ATOM     18  C   UNL     1       2.553   0.527   0.912  1.00  0.00     0.226 C 
ATOM     19  H   UNL     1       2.597  -1.353   1.452  1.00  0.00     0.164 HD
ATOM     20  O   UNL     1       1.759   0.756   1.831  1.00  0.00    -0.274 OA
BRANCH  18  21
ATOM     21  C   UNL     1       3.290   1.697   0.219  1.00  0.00     0.050 C 
ATOM     22  C   UNL     1       4.799   1.591   0.599  1.00  0.00     0.020 C 
ATOM     23  C   UNL     1       2.871   3.111   0.750  1.00  0.00     0.020 C 
ATOM     24  C   UNL     1       2.945   1.806  -1.286  1.00  0.00     0.020 C 
ATOM     25  C   UNL     1       5.631   2.636  -0.145  1.00  0.00    -0.010 C 
ATOM     26  C   UNL     1       3.701   4.229   0.044  1.00  0.00    -0.010 C 
ATOM     27  C   UNL     1       3.901   2.780  -1.994  1.00  0.00    -0.010 C 
ATOM     28  C   UNL     1       5.384   2.517  -1.657  1.00  0.00     0.007 C 
ATOM     29  C   UNL     1       5.196   4.025   0.343  1.00  0.00     0.007 C 
ATOM     30  C   UNL     1       3.526   4.179  -1.488  1.00  0.00     0.007 C 
ENDBRANCH  18  21
ENDBRANCH   7  17
ENDBRANCH   6   7
ENDBRANCH   4   6
ENDBRANCH   3   4
ENDBRANCH   2   3
ENDBRANCH   1   2
BRANCH   1  31
ATOM     31  O   UNL     1       6.698  -2.547  -2.213  1.00  0.00    -0.374 OA
BRANCH  31  32
ATOM     32  C   UNL     1       7.409  -1.292  -2.202  1.00  0.00     0.202 C 
BRANCH  32  33
ATOM     33  C   UNL     1       8.825  -1.280  -2.773  1.00  0.00     0.261 C 
BRANCH  33  34
ATOM     34  O   UNL     1       8.819  -1.672  -4.146  1.00  0.00    -0.460 OA
BRANCH  34  35
ATOM     35  C   UNL     1       9.007  -2.996  -4.344  1.00  0.00     0.338 C 
ATOM     36  O   UNL     1       9.361  -3.829  -3.525  1.00  0.00    -0.246 OA
BRANCH  35  37
ATOM     37  C   UNL     1       8.432  -3.338  -5.657  1.00  0.00     0.060 A 
ATOM     38  C   UNL     1       7.704  -4.535  -5.752  1.00  0.00     0.016 A 
ATOM     39  C   UNL     1       8.538  -2.472  -6.748  1.00  0.00     0.016 A 
ATOM     40  C   UNL     1       7.085  -4.882  -6.939  1.00  0.00     0.010 A 
ATOM     41  C   UNL     1       7.984  -2.853  -7.963  1.00  0.00     0.010 A 
ATOM     42  C   UNL     1       7.306  -4.080  -8.060  1.00  0.00    -0.014 A 
BRANCH  42  43
ATOM     43  C   UNL     1       7.169  -4.713  -9.378  1.00  0.00     0.031 A 
ATOM     44  C   UNL     1       8.392  -5.396  -9.919  1.00  0.00     0.074 A 
ATOM     45  C   UNL     1       6.000  -4.705 -10.030  1.00  0.00     0.049 A 
ATOM     46  N   UNL     1       8.585  -5.955 -11.080  1.00  0.00    -0.248 NA
ATOM     47  C   UNL     1       9.565  -5.445  -9.024  1.00  0.00     0.031 C 
ATOM     48  C   UNL     1       4.755  -4.124  -9.532  1.00  0.00     0.029 A 
ATOM     49  N   UNL     1       5.683  -5.196 -11.264  1.00  0.00    -0.354 N 
ATOM     50  C   UNL     1       9.900  -6.404 -11.059  1.00  0.00     0.074 A 
ATOM     51  C   UNL     1      10.469  -6.032  -9.787  1.00  0.00     0.031 C 
ATOM     52  C   UNL     1       3.807  -4.267 -10.475  1.00  0.00     0.029 A 
ATOM     53  C   UNL     1       4.397  -4.913 -11.645  1.00  0.00     0.049 A 
ATOM     54  H   UNL     1       6.316  -5.701 -11.825  1.00  0.00     0.167 HD
ATOM     55  C   UNL     1      10.568  -7.070 -12.025  1.00  0.00     0.037 A 
ATOM     56  C   UNL     1       3.795  -5.129 -12.828  1.00  0.00     0.037 A 
ATOM     57  C   UNL     1       9.977  -7.412 -13.287  1.00  0.00     0.049 A 
ATOM     58  C   UNL     1       4.584  -5.800 -13.920  1.00  0.00     0.074 A 
ATOM     59  C   UNL     1      10.543  -8.084 -14.353  1.00  0.00     0.029 A 
ATOM     60  N   UNL     1       8.676  -7.092 -13.652  1.00  0.00    -0.354 N 
ATOM     61  N   UNL     1       5.825  -6.230 -13.902  1.00  0.00    -0.248 NA
ATOM     62  C   UNL     1       3.891  -6.019 -15.195  1.00  0.00     0.031 C 
ATOM     63  C   UNL     1       9.600  -8.120 -15.385  1.00  0.00     0.029 A 
ATOM     64  C   UNL     1       8.426  -7.531 -14.938  1.00  0.00     0.049 A 
ATOM     65  H   UNL     1       8.027  -6.622 -13.079  1.00  0.00     0.167 HD
ATOM     66  C   UNL     1       6.051  -6.800 -15.149  1.00  0.00     0.074 A 
ATOM     67  C   UNL     1       4.814  -6.667 -15.892  1.00  0.00     0.031 C 
ATOM     68  C   UNL     1       7.173  -7.386 -15.638  1.00  0.00     0.037 A 
BRANCH  55  69
ATOM     69  C   UNL     1      12.005  -7.410 -11.761  1.00  0.00     0.057 A 
ATOM     70  C   UNL     1      12.385  -8.355 -10.797  1.00  0.00     0.134 A 
ATOM     71  C   UNL     1      13.027  -6.770 -12.472  1.00  0.00     0.134 A 
ATOM     72  F   UNL     1      11.458  -8.983 -10.057  1.00  0.00    -0.206 F 
ATOM     73  C   UNL     1      13.728  -8.630 -10.533  1.00  0.00     0.040 A 
ATOM     74  C   UNL     1      14.373  -7.059 -12.239  1.00  0.00     0.040 A 
ATOM     75  F   UNL     1      12.736  -5.847 -13.401  1.00  0.00    -0.206 F 
ATOM     76  C   UNL     1      14.726  -7.987 -11.262  1.00  0.00     0.006 A 
ENDBRANCH  55  69
BRANCH  56  77
ATOM     77  C   UNL     1       2.392  -4.694 -13.034  1.00  0.00     0.057 A 
ATOM     78  C   UNL     1       1.360  -5.625 -13.192  1.00  0.00     0.134 A 
ATOM     79  C   UNL     1       2.047  -3.337 -13.070  1.00  0.00     0.134 A 
ATOM     80  F   UNL     1       1.629  -6.938 -13.181  1.00  0.00    -0.206 F 
ATOM     81  C   UNL     1       0.038  -5.224 -13.395  1.00  0.00     0.040 A 
ATOM     82  C   UNL     1       0.726  -2.921 -13.245  1.00  0.00     0.040 A 
ATOM     83  F   UNL     1       2.988  -2.393 -12.917  1.00  0.00    -0.206 F 
ATOM     84  C   UNL     1      -0.282  -3.868 -13.415  1.00  0.00     0.006 A 
ENDBRANCH  56  77
BRANCH  68  85
ATOM     85  C   UNL     1       7.093  -7.968 -17.018  1.00  0.00     0.057 A 
ATOM     86  C   UNL     1       7.031  -7.163 -18.162  1.00  0.00     0.134 A 
ATOM     87  C   UNL     1       7.135  -9.356 -17.202  1.00  0.00     0.134 A 
ATOM     88  F   UNL     1       6.979  -5.827 -18.052  1.00  0.00    -0.206 F 
ATOM     89  C   UNL     1       6.987  -7.720 -19.440  1.00  0.00     0.040 A 
ATOM     90  C   UNL     1       7.125  -9.923 -18.475  1.00  0.00     0.040 A 
ATOM     91  F   UNL     1       7.209 -10.181 -16.146  1.00  0.00    -0.206 F 
ATOM     92  C   UNL     1       7.043  -9.104 -19.599  1.00  0.00     0.006 A 
ENDBRANCH  68  85
ENDBRANCH  42  43
ENDBRANCH  35  37
ENDBRANCH  34  35
ENDBRANCH  33  34
ENDBRANCH  32  33
ENDBRANCH  31  32
ENDBRANCH   1  31
TORSDOF 19
