REMARK SMILES Cc1cc(C(=O)OCCOCCOC(=O)c2ccc(-c3c4nc(c(-c5c(F)cccc5F)c5ccc([nH]5)c(-c5c(F)cccc5F)c5nc(c(-c6c(F)cccc6F)c6ccc3[nH]6)C=C5)C=C4)cc2)c2cc([C@H]([NH3+])C(F)(F)F)ccc2n1
REMARK SMILES IDX 10 1 9 2 8 3 7 4 5 5 6 6 4 7 1 8 2 9 3 10 82 11 81 12 70 13
REMARK SMILES IDX 80 14 71 15 79 16 72 17 73 18 75 19 76 20 77 21 78 22 74 23
REMARK SMILES IDX 11 27 12 28 13 29 14 30 15 31 16 32 17 33 69 34 18 35 68 36
REMARK SMILES IDX 19 37 20 38 21 39 62 40 22 41 67 42 61 43 63 44 23 45 66 46
REMARK SMILES IDX 60 47 59 48 24 50 50 51 33 52 49 53 34 54 37 55 48 56 64 57
REMARK SMILES IDX 35 58 36 59 47 61 65 62 38 63 25 64 26 65 31 66 27 67 28 68
REMARK SMILES IDX 30 69 32 70 29 71 51 72 52 73 57 74 53 75 54 76 56 77 58 78
REMARK SMILES IDX 55 79 39 80 40 81 45 82 41 83 42 84 44 85 46 86 43 87
REMARK H PARENT 74 24 74 25 74 26 63 49 37 60
REMARK Flexibility Score: inf
ROOT
ATOM      1  O   UNL     1       7.012  -2.124  -4.069  1.00  0.00    -0.374 OA
ENDROOT
BRANCH   1   2
ATOM      2  C   UNL     1       6.691  -2.488  -5.413  1.00  0.00     0.202 C 
BRANCH   2   3
ATOM      3  C   UNL     1       5.332  -2.007  -5.927  1.00  0.00     0.261 C 
BRANCH   3   4
ATOM      4  O   UNL     1       5.273  -0.571  -5.945  1.00  0.00    -0.460 OA
BRANCH   4   5
ATOM      5  C   UNL     1       4.298  -0.025  -5.179  1.00  0.00     0.338 C 
ATOM      6  O   UNL     1       3.375  -0.618  -4.640  1.00  0.00    -0.246 OA
BRANCH   5   7
ATOM      7  C   UNL     1       4.583   1.411  -4.966  1.00  0.00     0.071 A 
ATOM      8  C   UNL     1       5.344   4.499  -6.989  1.00  0.00     0.067 C 
ATOM      9  C   UNL     1       5.057   3.566  -5.852  1.00  0.00     0.039 A 
ATOM     10  C   UNL     1       4.860   2.215  -6.071  1.00  0.00     0.039 A 
ATOM     11  N   UNL     1       4.944   4.126  -4.626  1.00  0.00    -0.253 NA
ATOM     12  C   UNL     1       4.691   3.347  -3.560  1.00  0.00     0.071 A 
ATOM     13  C   UNL     1       4.539   1.956  -3.661  1.00  0.00     0.015 A 
ATOM     14  C   UNL     1       4.574   3.939  -2.309  1.00  0.00     0.029 A 
ATOM     15  C   UNL     1       4.374   1.203  -2.470  1.00  0.00     0.021 A 
ATOM     16  C   UNL     1       4.357   3.194  -1.142  1.00  0.00     0.012 A 
ATOM     17  C   UNL     1       4.289   1.804  -1.201  1.00  0.00     0.019 A 
BRANCH  17  18
ATOM     18  C   UNL     1       4.087   0.907   0.017  1.00  0.00     0.318 C 
BRANCH  18  19
ATOM     19  C   UNL     1       4.571   1.501   1.379  1.00  0.00     0.445 C 
ATOM     20  F   UNL     1       4.529   0.551   2.349  1.00  0.00    -0.165 F 
ATOM     21  F   UNL     1       5.855   1.927   1.306  1.00  0.00    -0.165 F 
ATOM     22  F   UNL     1       3.816   2.540   1.800  1.00  0.00    -0.165 F 
ENDBRANCH  18  19
BRANCH  18  23
ATOM     23  N   UNL     1       2.688   0.400   0.014  1.00  0.00    -0.344 N 
ATOM     24  H   UNL     1       2.042   1.185   0.105  1.00  0.00     0.345 HD
ATOM     25  H   UNL     1       2.557  -0.240   0.797  1.00  0.00     0.345 HD
ATOM     26  H   UNL     1       2.505  -0.091  -0.861  1.00  0.00     0.345 HD
ENDBRANCH  18  23
ENDBRANCH  17  18
ENDBRANCH   5   7
ENDBRANCH   4   5
ENDBRANCH   3   4
ENDBRANCH   2   3
ENDBRANCH   1   2
BRANCH   1  27
ATOM     27  C   UNL     1       7.489  -0.796  -3.846  1.00  0.00     0.202 C 
BRANCH  27  28
ATOM     28  C   UNL     1       8.950  -0.516  -4.220  1.00  0.00     0.261 C 
BRANCH  28  29
ATOM     29  O   UNL     1       9.172  -0.597  -5.640  1.00  0.00    -0.460 OA
BRANCH  29  30
ATOM     30  C   UNL     1       9.931  -1.646  -6.036  1.00  0.00     0.338 C 
ATOM     31  O   UNL     1      10.491  -2.467  -5.326  1.00  0.00    -0.246 OA
BRANCH  30  32
ATOM     32  C   UNL     1       9.859  -1.794  -7.501  1.00  0.00     0.060 A 
ATOM     33  C   UNL     1       9.517  -3.054  -8.008  1.00  0.00     0.016 A 
ATOM     34  C   UNL     1      10.189  -0.747  -8.365  1.00  0.00     0.016 A 
ATOM     35  C   UNL     1       9.552  -3.288  -9.380  1.00  0.00     0.010 A 
ATOM     36  C   UNL     1      10.232  -0.986  -9.743  1.00  0.00     0.010 A 
ATOM     37  C   UNL     1       9.948  -2.266 -10.252  1.00  0.00    -0.014 A 
BRANCH  37  38
ATOM     38  C   UNL     1      10.201  -2.581 -11.678  1.00  0.00     0.031 A 
ATOM     39  C   UNL     1      11.615  -2.809 -12.136  1.00  0.00     0.074 A 
ATOM     40  C   UNL     1       9.183  -2.687 -12.550  1.00  0.00     0.049 A 
ATOM     41  N   UNL     1      12.067  -3.068 -13.336  1.00  0.00    -0.248 NA
ATOM     42  C   UNL     1      12.657  -2.733 -11.101  1.00  0.00     0.031 C 
ATOM     43  C   UNL     1       7.769  -2.522 -12.220  1.00  0.00     0.029 A 
ATOM     44  N   UNL     1       9.189  -2.953 -13.895  1.00  0.00    -0.354 N 
ATOM     45  C   UNL     1      13.445  -3.181 -13.202  1.00  0.00     0.074 A 
ATOM     46  C   UNL     1      13.758  -2.931 -11.812  1.00  0.00     0.031 C 
ATOM     47  C   UNL     1       7.042  -2.679 -13.339  1.00  0.00     0.029 A 
ATOM     48  C   UNL     1       7.941  -2.928 -14.465  1.00  0.00     0.049 A 
ATOM     49  H   UNL     1      10.010  -3.144 -14.404  1.00  0.00     0.167 HD
ATOM     50  C   UNL     1      14.366  -3.477 -14.150  1.00  0.00     0.037 A 
ATOM     51  C   UNL     1       7.569  -3.069 -15.752  1.00  0.00     0.037 A 
ATOM     52  C   UNL     1      14.055  -3.723 -15.534  1.00  0.00     0.049 A 
ATOM     53  C   UNL     1       8.616  -3.331 -16.800  1.00  0.00     0.074 A 
ATOM     54  C   UNL     1      14.915  -4.049 -16.568  1.00  0.00     0.029 A 
ATOM     55  N   UNL     1      12.781  -3.660 -16.078  1.00  0.00    -0.354 N 
ATOM     56  N   UNL     1       9.913  -3.463 -16.660  1.00  0.00    -0.248 NA
ATOM     57  C   UNL     1       8.146  -3.469 -18.187  1.00  0.00     0.031 C 
ATOM     58  C   UNL     1      14.167  -4.138 -17.747  1.00  0.00     0.029 A 
ATOM     59  C   UNL     1      12.834  -3.916 -17.438  1.00  0.00     0.049 A 
ATOM     60  H   UNL     1      11.960  -3.462 -15.572  1.00  0.00     0.167 HD
ATOM     61  C   UNL     1      10.411  -3.723 -17.931  1.00  0.00     0.074 A 
ATOM     62  C   UNL     1       9.274  -3.741 -18.828  1.00  0.00     0.031 C 
ATOM     63  C   UNL     1      11.693  -3.931 -18.319  1.00  0.00     0.037 A 
BRANCH  50  64
ATOM     64  C   UNL     1      15.803  -3.524 -13.720  1.00  0.00     0.057 A 
ATOM     65  C   UNL     1      16.303  -4.559 -12.919  1.00  0.00     0.134 A 
ATOM     66  C   UNL     1      16.701  -2.527 -14.123  1.00  0.00     0.134 A 
ATOM     67  F   UNL     1      15.492  -5.536 -12.486  1.00  0.00    -0.206 F 
ATOM     68  C   UNL     1      17.639  -4.586 -12.511  1.00  0.00     0.040 A 
ATOM     69  C   UNL     1      18.044  -2.557 -13.743  1.00  0.00     0.040 A 
ATOM     70  F   UNL     1      16.288  -1.510 -14.894  1.00  0.00    -0.206 F 
ATOM     71  C   UNL     1      18.514  -3.585 -12.928  1.00  0.00     0.006 A 
ENDBRANCH  50  64
BRANCH  51  72
ATOM     72  C   UNL     1       6.137  -2.955 -16.122  1.00  0.00     0.057 A 
ATOM     73  C   UNL     1       5.403  -4.072 -16.535  1.00  0.00     0.134 A 
ATOM     74  C   UNL     1       5.469  -1.725 -16.073  1.00  0.00     0.134 A 
ATOM     75  F   UNL     1       5.993  -5.273 -16.623  1.00  0.00    -0.206 F 
ATOM     76  C   UNL     1       4.058  -3.969 -16.897  1.00  0.00     0.040 A 
ATOM     77  C   UNL     1       4.120  -1.611 -16.409  1.00  0.00     0.040 A 
ATOM     78  F   UNL     1       6.118  -0.618 -15.683  1.00  0.00    -0.206 F 
ATOM     79  C   UNL     1       3.412  -2.736 -16.828  1.00  0.00     0.006 A 
ENDBRANCH  51  72
BRANCH  63  80
ATOM     80  C   UNL     1      11.934  -4.225 -19.771  1.00  0.00     0.057 A 
ATOM     81  C   UNL     1      11.836  -3.232 -20.753  1.00  0.00     0.134 A 
ATOM     82  C   UNL     1      12.309  -5.510 -20.185  1.00  0.00     0.134 A 
ATOM     83  F   UNL     1      11.470  -1.984 -20.424  1.00  0.00    -0.206 F 
ATOM     84  C   UNL     1      12.084  -3.511 -22.099  1.00  0.00     0.040 A 
ATOM     85  C   UNL     1      12.583  -5.795 -21.523  1.00  0.00     0.040 A 
ATOM     86  F   UNL     1      12.429  -6.505 -19.293  1.00  0.00    -0.206 F 
ATOM     87  C   UNL     1      12.466  -4.795 -22.485  1.00  0.00     0.006 A 
ENDBRANCH  63  80
ENDBRANCH  37  38
ENDBRANCH  30  32
ENDBRANCH  29  30
ENDBRANCH  28  29
ENDBRANCH  27  28
ENDBRANCH   1  27
TORSDOF 17
