REMARK SMILES O=C(OCCOCCOC(=O)[C@@H]1CC[C@@H](CS(=O)(=O)c2cccc(F)c2)O1)c1ccc(-c2c3nc(c(-c4c(F)cccc4F)c4ccc([nH]4)c(-c4c(F)cccc4F)c4nc(c(-c5c(F)cccc5F)c5ccc2[nH]5)C=C4)C=C3)cc1
REMARK SMILES IDX 7 1 6 2 5 3 4 4 3 5 2 6 1 7 28 8 29 9 81 10 30 11 80 12
REMARK SMILES IDX 31 13 32 14 33 15 74 16 34 17 79 18 73 19 75 20 35 21 78 22
REMARK SMILES IDX 72 23 71 24 36 26 62 27 45 28 61 29 46 30 49 31 60 32 76 33
REMARK SMILES IDX 47 34 48 35 59 37 77 38 50 39 37 40 38 41 43 42 39 43 40 44
REMARK SMILES IDX 42 45 44 46 41 47 63 48 64 49 69 50 65 51 66 52 68 53 70 54
REMARK SMILES IDX 67 55 51 56 52 57 57 58 53 59 54 60 56 61 58 62 55 63 8 64
REMARK SMILES IDX 9 65 10 66 11 67 12 68 13 69 27 70 14 71 15 72 16 73 17 74
REMARK SMILES IDX 18 75 19 76 20 77 21 78 26 79 22 80 24 81 23 82 25 83
REMARK H PARENT 75 25 49 36
REMARK Flexibility Score: inf
ROOT
ATOM      1  C   UNL     1       2.775  -0.822   1.908  1.00  0.00     0.202 C 
ENDROOT
BRANCH   1   2
ATOM      2  O   UNL     1       4.172  -0.789   1.593  1.00  0.00    -0.374 OA
BRANCH   2   3
ATOM      3  C   UNL     1       4.731   0.467   1.208  1.00  0.00     0.202 C 
BRANCH   3   4
ATOM      4  C   UNL     1       4.295   1.086  -0.130  1.00  0.00     0.261 C 
BRANCH   4   5
ATOM      5  O   UNL     1       2.876   0.993  -0.340  1.00  0.00    -0.460 OA
BRANCH   5   6
ATOM      6  C   UNL     1       2.251   0.194  -1.243  1.00  0.00     0.338 C 
ATOM      7  O   UNL     1       1.059   0.360  -1.482  1.00  0.00    -0.246 OA
BRANCH   6   8
ATOM      8  C   UNL     1       2.977  -0.902  -1.944  1.00  0.00     0.060 A 
ATOM      9  C   UNL     1       4.050  -1.581  -1.373  1.00  0.00     0.016 A 
ATOM     10  C   UNL     1       2.509  -1.333  -3.192  1.00  0.00     0.016 A 
ATOM     11  C   UNL     1       4.720  -2.583  -2.034  1.00  0.00     0.010 A 
ATOM     12  C   UNL     1       3.123  -2.412  -3.838  1.00  0.00     0.010 A 
ATOM     13  C   UNL     1       4.230  -3.035  -3.250  1.00  0.00    -0.014 A 
BRANCH  13  14
ATOM     14  C   UNL     1       4.933  -4.176  -3.844  1.00  0.00     0.031 A 
ATOM     15  C   UNL     1       5.849  -3.933  -4.994  1.00  0.00     0.074 A 
ATOM     16  C   UNL     1       4.860  -5.365  -3.217  1.00  0.00     0.049 A 
ATOM     17  N   UNL     1       6.524  -4.798  -5.696  1.00  0.00    -0.248 NA
ATOM     18  C   UNL     1       6.053  -2.530  -5.397  1.00  0.00     0.031 C 
ATOM     19  C   UNL     1       4.106  -5.622  -1.982  1.00  0.00     0.029 A 
ATOM     20  N   UNL     1       5.452  -6.565  -3.495  1.00  0.00    -0.354 N 
ATOM     21  C   UNL     1       7.200  -4.052  -6.648  1.00  0.00     0.074 A 
ATOM     22  C   UNL     1       6.877  -2.662  -6.427  1.00  0.00     0.031 C 
ATOM     23  C   UNL     1       4.301  -6.893  -1.602  1.00  0.00     0.029 A 
ATOM     24  C   UNL     1       5.107  -7.562  -2.613  1.00  0.00     0.049 A 
ATOM     25  H   UNL     1       6.066  -6.702  -4.253  1.00  0.00     0.167 HD
ATOM     26  C   UNL     1       8.004  -4.517  -7.628  1.00  0.00     0.037 A 
ATOM     27  C   UNL     1       5.367  -8.880  -2.663  1.00  0.00     0.037 A 
ATOM     28  C   UNL     1       8.306  -5.911  -7.795  1.00  0.00     0.049 A 
ATOM     29  C   UNL     1       6.166  -9.381  -3.832  1.00  0.00     0.074 A 
ATOM     30  C   UNL     1       9.063  -6.516  -8.778  1.00  0.00     0.029 A 
ATOM     31  N   UNL     1       7.859  -6.915  -6.946  1.00  0.00    -0.354 N 
ATOM     32  N   UNL     1       6.743  -8.688  -4.787  1.00  0.00    -0.248 NA
ATOM     33  C   UNL     1       6.323 -10.833  -3.962  1.00  0.00     0.031 C 
ATOM     34  C   UNL     1       9.034  -7.895  -8.551  1.00  0.00     0.029 A 
ATOM     35  C   UNL     1       8.296  -8.143  -7.401  1.00  0.00     0.049 A 
ATOM     36  H   UNL     1       7.312  -6.773  -6.140  1.00  0.00     0.167 HD
ATOM     37  C   UNL     1       7.325  -9.617  -5.634  1.00  0.00     0.074 A 
ATOM     38  C   UNL     1       7.058 -10.923  -5.062  1.00  0.00     0.031 C 
ATOM     39  C   UNL     1       8.006  -9.415  -6.788  1.00  0.00     0.037 A 
BRANCH  26  40
ATOM     40  C   UNL     1       8.537  -3.534  -8.620  1.00  0.00     0.057 A 
ATOM     41  C   UNL     1       7.995  -3.479  -9.911  1.00  0.00     0.134 A 
ATOM     42  C   UNL     1       9.604  -2.679  -8.327  1.00  0.00     0.134 A 
ATOM     43  F   UNL     1       6.962  -4.266 -10.249  1.00  0.00    -0.206 F 
ATOM     44  C   UNL     1       8.511  -2.623 -10.883  1.00  0.00     0.040 A 
ATOM     45  C   UNL     1      10.119  -1.804  -9.287  1.00  0.00     0.040 A 
ATOM     46  F   UNL     1      10.146  -2.663  -7.100  1.00  0.00    -0.206 F 
ATOM     47  C   UNL     1       9.578  -1.783 -10.573  1.00  0.00     0.006 A 
ENDBRANCH  26  40
BRANCH  27  48
ATOM     48  C   UNL     1       4.785  -9.801  -1.652  1.00  0.00     0.057 A 
ATOM     49  C   UNL     1       3.396  -9.960  -1.528  1.00  0.00     0.134 A 
ATOM     50  C   UNL     1       5.590 -10.546  -0.784  1.00  0.00     0.134 A 
ATOM     51  F   UNL     1       2.561  -9.280  -2.329  1.00  0.00    -0.206 F 
ATOM     52  C   UNL     1       2.832 -10.803  -0.570  1.00  0.00     0.040 A 
ATOM     53  C   UNL     1       5.040 -11.418   0.160  1.00  0.00     0.040 A 
ATOM     54  F   UNL     1       6.926 -10.458  -0.861  1.00  0.00    -0.206 F 
ATOM     55  C   UNL     1       3.656 -11.542   0.274  1.00  0.00     0.006 A 
ENDBRANCH  27  48
BRANCH  39  56
ATOM     56  C   UNL     1       8.501 -10.629  -7.507  1.00  0.00     0.057 A 
ATOM     57  C   UNL     1       9.868 -10.930  -7.536  1.00  0.00     0.134 A 
ATOM     58  C   UNL     1       7.636 -11.421  -8.270  1.00  0.00     0.134 A 
ATOM     59  F   UNL     1      10.743 -10.195  -6.833  1.00  0.00    -0.206 F 
ATOM     60  C   UNL     1      10.363 -11.964  -8.328  1.00  0.00     0.040 A 
ATOM     61  C   UNL     1       8.117 -12.473  -9.047  1.00  0.00     0.040 A 
ATOM     62  F   UNL     1       6.316 -11.181  -8.269  1.00  0.00    -0.206 F 
ATOM     63  C   UNL     1       9.486 -12.736  -9.088  1.00  0.00     0.006 A 
ENDBRANCH  39  56
ENDBRANCH  13  14
ENDBRANCH   6   8
ENDBRANCH   5   6
ENDBRANCH   4   5
ENDBRANCH   3   4
ENDBRANCH   2   3
ENDBRANCH   1   2
BRANCH   1  64
ATOM     64  C   UNL     1       2.552  -1.600   3.208  1.00  0.00     0.261 C 
BRANCH  64  65
ATOM     65  O   UNL     1       3.011  -0.776   4.292  1.00  0.00    -0.461 OA
BRANCH  65  66
ATOM     66  C   UNL     1       4.358  -0.839   4.491  1.00  0.00     0.335 C 
ATOM     67  O   UNL     1       5.045  -1.834   4.294  1.00  0.00    -0.249 OA
BRANCH  66  68
ATOM     68  C   UNL     1       4.903   0.516   4.944  1.00  0.00     0.228 C 
ATOM     69  C   UNL     1       4.041   1.724   4.616  1.00  0.00     0.047 C 
ATOM     70  O   UNL     1       6.168   0.780   4.308  1.00  0.00    -0.362 OA
ATOM     71  C   UNL     1       5.050   2.847   4.612  1.00  0.00     0.036 C 
ATOM     72  C   UNL     1       6.326   2.200   4.099  1.00  0.00     0.135 C 
BRANCH  72  73
ATOM     73  C   UNL     1       7.643   2.579   4.750  1.00  0.00     0.174 C 
BRANCH  73  74
ATOM     74  S   UNL     1       7.979   4.282   5.026  1.00  0.00     0.181 S 
ATOM     75  O   UNL     1       6.949   4.794   5.913  1.00  0.00    -0.224 OA
ATOM     76  O   UNL     1       9.377   4.388   5.397  1.00  0.00    -0.224 OA
BRANCH  74  77
ATOM     77  C   UNL     1       7.829   5.189   3.513  1.00  0.00     0.070 A 
ATOM     78  C   UNL     1       8.084   4.613   2.266  1.00  0.00     0.020 A 
ATOM     79  C   UNL     1       7.507   6.548   3.619  1.00  0.00     0.059 A 
ATOM     80  C   UNL     1       8.007   5.408   1.117  1.00  0.00     0.004 A 
ATOM     81  C   UNL     1       7.450   7.323   2.471  1.00  0.00     0.124 A 
ATOM     82  C   UNL     1       7.694   6.766   1.221  1.00  0.00     0.039 A 
ATOM     83  F   UNL     1       7.171   8.629   2.570  1.00  0.00    -0.207 F 
ENDBRANCH  74  77
ENDBRANCH  73  74
ENDBRANCH  72  73
ENDBRANCH  66  68
ENDBRANCH  65  66
ENDBRANCH  64  65
ENDBRANCH   1  64
TORSDOF 17
