REMARK SMILES C[C@H](CCCO)Nc1ccc2c(C(=O)OCCOCCOC(=O)c3ccc(-c4c5nc(c(-c6c(F)cccc6F)c6ccc([nH]6)c(-c6c(F)cccc6F)c6nc(c(-c7c(F)cccc7F)c7ccc4[nH]7)C=C6)C=C5)cc3)cccc2n1
REMARK SMILES IDX 16 1 15 2 13 3 14 4 12 5 8 6 9 7 82 8 10 9 81 10 11 11 80 12
REMARK SMILES IDX 79 13 78 14 7 15 2 17 1 18 3 19 4 20 5 21 6 22 17 24 18 25
REMARK SMILES IDX 19 26 20 27 21 28 22 29 23 30 24 31 25 32 77 33 26 34 76 35
REMARK SMILES IDX 27 36 28 37 29 38 70 39 30 40 75 41 69 42 71 43 31 44 74 45
REMARK SMILES IDX 68 46 67 47 32 49 58 50 41 51 57 52 42 53 45 54 56 55 72 56
REMARK SMILES IDX 43 57 44 58 55 60 73 61 46 62 33 63 34 64 39 65 35 66 36 67
REMARK SMILES IDX 38 68 40 69 37 70 59 71 60 72 65 73 61 74 62 75 64 76 66 77
REMARK SMILES IDX 63 78 47 79 48 80 53 81 49 82 50 83 52 84 54 85 51 86
REMARK H PARENT 7 16 6 23 71 48 45 59
REMARK Flexibility Score: inf
ROOT
ATOM      1  C   UNL     1      -5.846   3.984  -6.012  1.00  0.00     0.261 C 
ENDROOT
BRANCH   1   2
ATOM      2  O   UNL     1      -4.913   2.935  -6.317  1.00  0.00    -0.460 OA
BRANCH   2   3
ATOM      3  C   UNL     1      -3.776   2.961  -5.584  1.00  0.00     0.338 C 
ATOM      4  O   UNL     1      -3.391   3.865  -4.859  1.00  0.00    -0.246 OA
BRANCH   3   5
ATOM      5  C   UNL     1      -3.090   1.655  -5.682  1.00  0.00     0.069 A 
ATOM      6  C   UNL     1      -1.647  -0.356  -2.306  1.00  0.00     0.126 A 
ATOM      7  C   UNL     1      -2.536   0.682  -2.095  1.00  0.00     0.047 A 
ATOM      8  N   UNL     1      -1.318  -0.769  -3.545  1.00  0.00    -0.231 NA
ATOM      9  C   UNL     1      -3.032   1.372  -3.193  1.00  0.00     0.015 A 
ATOM     10  C   UNL     1      -1.846  -0.144  -4.612  1.00  0.00     0.073 A 
ATOM     11  C   UNL     1      -2.670   0.990  -4.499  1.00  0.00     0.015 A 
ATOM     12  C   UNL     1      -1.563  -0.639  -5.880  1.00  0.00     0.029 A 
ATOM     13  C   UNL     1      -2.056  -0.037  -7.042  1.00  0.00     0.003 A 
ATOM     14  C   UNL     1      -2.810   1.126  -6.947  1.00  0.00     0.016 A 
BRANCH   6  15
ATOM     15  N   UNL     1      -1.000  -0.908  -1.220  1.00  0.00    -0.368 N 
ATOM     16  H   UNL     1      -1.511  -1.320  -0.485  1.00  0.00     0.162 HD
BRANCH  15  17
ATOM     17  C   UNL     1       0.450  -0.868  -1.185  1.00  0.00     0.077 C 
ATOM     18  C   UNL     1       1.013  -2.277  -1.289  1.00  0.00     0.031 C 
BRANCH  17  19
ATOM     19  C   UNL     1       0.923  -0.068   0.047  1.00  0.00     0.027 C 
BRANCH  19  20
ATOM     20  C   UNL     1       0.471  -0.533   1.440  1.00  0.00     0.030 C 
BRANCH  20  21
ATOM     21  C   UNL     1       1.151  -1.780   1.991  1.00  0.00     0.156 C 
BRANCH  21  22
ATOM     22  O   UNL     1       2.557  -1.605   2.070  1.00  0.00    -0.396 OA
ATOM     23  H   UNL     1       2.912  -1.438   1.182  1.00  0.00     0.210 HD
ENDBRANCH  21  22
ENDBRANCH  20  21
ENDBRANCH  19  20
ENDBRANCH  17  19
ENDBRANCH  15  17
ENDBRANCH   6  15
ENDBRANCH   3   5
ENDBRANCH   2   3
ENDBRANCH   1   2
BRANCH   1  24
ATOM     24  C   UNL     1      -7.180   3.402  -5.538  1.00  0.00     0.202 C 
BRANCH  24  25
ATOM     25  O   UNL     1      -7.134   2.611  -4.350  1.00  0.00    -0.374 OA
BRANCH  25  26
ATOM     26  C   UNL     1      -6.682   1.262  -4.477  1.00  0.00     0.202 C 
BRANCH  26  27
ATOM     27  C   UNL     1      -7.675   0.253  -5.068  1.00  0.00     0.261 C 
BRANCH  27  28
ATOM     28  O   UNL     1      -7.949   0.511  -6.457  1.00  0.00    -0.460 OA
BRANCH  28  29
ATOM     29  C   UNL     1      -9.206   0.940  -6.723  1.00  0.00     0.338 C 
ATOM     30  O   UNL     1     -10.133   1.059  -5.936  1.00  0.00    -0.246 OA
BRANCH  29  31
ATOM     31  C   UNL     1      -9.276   1.440  -8.108  1.00  0.00     0.060 A 
ATOM     32  C   UNL     1      -9.748   2.744  -8.306  1.00  0.00     0.016 A 
ATOM     33  C   UNL     1      -8.943   0.631  -9.195  1.00  0.00     0.016 A 
ATOM     34  C   UNL     1      -9.923   3.234  -9.599  1.00  0.00     0.010 A 
ATOM     35  C   UNL     1      -9.131   1.120 -10.492  1.00  0.00     0.010 A 
ATOM     36  C   UNL     1      -9.647   2.412 -10.699  1.00  0.00    -0.014 A 
BRANCH  36  37
ATOM     37  C   UNL     1     -10.012   2.855 -12.065  1.00  0.00     0.031 A 
ATOM     38  C   UNL     1     -11.285   2.347 -12.681  1.00  0.00     0.074 A 
ATOM     39  C   UNL     1      -9.220   3.700 -12.747  1.00  0.00     0.049 A 
ATOM     40  N   UNL     1     -11.757   2.538 -13.886  1.00  0.00    -0.248 NA
ATOM     41  C   UNL     1     -12.138   1.509 -11.823  1.00  0.00     0.031 C 
ATOM     42  C   UNL     1      -7.984   4.294 -12.240  1.00  0.00     0.029 A 
ATOM     43  N   UNL     1      -9.334   4.194 -14.022  1.00  0.00    -0.354 N 
ATOM     44  C   UNL     1     -12.957   1.838 -13.935  1.00  0.00     0.074 A 
ATOM     45  C   UNL     1     -13.128   1.198 -12.648  1.00  0.00     0.031 C 
ATOM     46  C   UNL     1      -7.443   5.059 -13.203  1.00  0.00     0.029 A 
ATOM     47  C   UNL     1      -8.275   4.980 -14.402  1.00  0.00     0.049 A 
ATOM     48  H   UNL     1     -10.102   4.002 -14.608  1.00  0.00     0.167 HD
ATOM     49  C   UNL     1     -13.837   1.743 -14.959  1.00  0.00     0.037 A 
ATOM     50  C   UNL     1      -7.996   5.545 -15.593  1.00  0.00     0.037 A 
ATOM     51  C   UNL     1     -13.664   2.381 -16.238  1.00  0.00     0.049 A 
ATOM     52  C   UNL     1      -8.950   5.357 -16.742  1.00  0.00     0.074 A 
ATOM     53  C   UNL     1     -14.511   2.364 -17.332  1.00  0.00     0.029 A 
ATOM     54  N   UNL     1     -12.562   3.143 -16.596  1.00  0.00    -0.354 N 
ATOM     55  N   UNL     1     -10.091   4.713 -16.773  1.00  0.00    -0.248 NA
ATOM     56  C   UNL     1      -8.574   5.971 -18.024  1.00  0.00     0.031 C 
ATOM     57  C   UNL     1     -13.899   3.075 -18.369  1.00  0.00     0.029 A 
ATOM     58  C   UNL     1     -12.693   3.576 -17.904  1.00  0.00     0.049 A 
ATOM     59  H   UNL     1     -11.799   3.345 -16.007  1.00  0.00     0.167 HD
ATOM     60  C   UNL     1     -10.582   4.866 -18.064  1.00  0.00     0.074 A 
ATOM     61  C   UNL     1      -9.618   5.672 -18.785  1.00  0.00     0.031 C 
ATOM     62  C   UNL     1     -11.727   4.384 -18.605  1.00  0.00     0.037 A 
BRANCH  49  63
ATOM     63  C   UNL     1     -15.057   0.897 -14.746  1.00  0.00     0.057 A 
ATOM     64  C   UNL     1     -16.107   1.308 -13.915  1.00  0.00     0.134 A 
ATOM     65  C   UNL     1     -15.197  -0.330 -15.407  1.00  0.00     0.134 A 
ATOM     66  F   UNL     1     -16.028   2.465 -13.242  1.00  0.00    -0.206 F 
ATOM     67  C   UNL     1     -17.244   0.518 -13.733  1.00  0.00     0.040 A 
ATOM     68  C   UNL     1     -16.340  -1.116 -15.252  1.00  0.00     0.040 A 
ATOM     69  F   UNL     1     -14.230  -0.779 -16.221  1.00  0.00    -0.206 F 
ATOM     70  C   UNL     1     -17.365  -0.695 -14.409  1.00  0.00     0.006 A 
ENDBRANCH  49  63
BRANCH  50  71
ATOM     71  C   UNL     1      -6.745   6.324 -15.770  1.00  0.00     0.057 A 
ATOM     72  C   UNL     1      -6.775   7.710 -15.957  1.00  0.00     0.134 A 
ATOM     73  C   UNL     1      -5.492   5.699 -15.774  1.00  0.00     0.134 A 
ATOM     74  F   UNL     1      -7.946   8.362 -15.987  1.00  0.00    -0.206 F 
ATOM     75  C   UNL     1      -5.605   8.446 -16.157  1.00  0.00     0.040 A 
ATOM     76  C   UNL     1      -4.313   6.425 -15.948  1.00  0.00     0.040 A 
ATOM     77  F   UNL     1      -5.396   4.372 -15.600  1.00  0.00    -0.206 F 
ATOM     78  C   UNL     1      -4.369   7.803 -16.147  1.00  0.00     0.006 A 
ENDBRANCH  50  71
BRANCH  62  79
ATOM     79  C   UNL     1     -12.020   4.739 -20.033  1.00  0.00     0.057 A 
ATOM     80  C   UNL     1     -11.326   4.151 -21.098  1.00  0.00     0.134 A 
ATOM     81  C   UNL     1     -13.045   5.641 -20.347  1.00  0.00     0.134 A 
ATOM     82  F   UNL     1     -10.326   3.289 -20.864  1.00  0.00    -0.206 F 
ATOM     83  C   UNL     1     -11.631   4.460 -22.425  1.00  0.00     0.040 A 
ATOM     84  C   UNL     1     -13.374   5.940 -21.670  1.00  0.00     0.040 A 
ATOM     85  F   UNL     1     -13.754   6.233 -19.374  1.00  0.00    -0.206 F 
ATOM     86  C   UNL     1     -12.663   5.351 -22.713  1.00  0.00     0.006 A 
ENDBRANCH  62  79
ENDBRANCH  36  37
ENDBRANCH  29  31
ENDBRANCH  28  29
ENDBRANCH  27  28
ENDBRANCH  26  27
ENDBRANCH  25  26
ENDBRANCH  24  25
ENDBRANCH   1  24
TORSDOF 20
