REMARK SMILES CCc1ccc(C[N@H+]2CC[C@@H](C(=O)OCCOCCOC(=O)c3ccc(-c4c5nc(c(-c6c(F)cccc6F)c6ccc([nH]6)c(-c6c(F)cccc6F)c6nc(c(-c7c(F)cccc7F)c7ccc4[nH]7)C=C6)C=C5)cc3)[C@@H]2C)cc1
REMARK SMILES IDX 16 1 15 2 14 3 12 4 13 5 11 6 8 7 9 8 77 9 10 11 78 12 7 13
REMARK SMILES IDX 6 14 3 15 4 16 80 17 5 18 79 19 2 20 1 21 17 22 18 23 19 24
REMARK SMILES IDX 20 25 21 26 22 27 23 28 24 29 76 30 25 31 75 32 26 33 27 34
REMARK SMILES IDX 28 35 69 36 29 37 74 38 68 39 70 40 30 41 73 42 67 43 66 44
REMARK SMILES IDX 31 46 57 47 40 48 56 49 41 50 44 51 55 52 71 53 42 54 43 55
REMARK SMILES IDX 54 57 72 58 45 59 32 60 33 61 38 62 34 63 35 64 37 65 39 66
REMARK SMILES IDX 36 67 58 68 59 69 64 70 60 71 61 72 63 73 65 74 62 75 46 76
REMARK SMILES IDX 47 77 52 78 48 79 49 80 51 81 53 82 50 83
REMARK H PARENT 8 10 70 45 44 56
REMARK Flexibility Score: inf
ROOT
ATOM      1  C   UNL     1       0.185  -4.019   0.762  1.00  0.00     0.202 C 
ENDROOT
BRANCH   1   2
ATOM      2  C   UNL     1       1.689  -3.791   0.589  1.00  0.00     0.261 C 
BRANCH   2   3
ATOM      3  O   UNL     1       2.150  -4.228  -0.703  1.00  0.00    -0.463 OA
BRANCH   3   4
ATOM      4  C   UNL     1       3.094  -5.203  -0.720  1.00  0.00     0.315 C 
ATOM      5  O   UNL     1       3.589  -5.710   0.280  1.00  0.00    -0.252 OA
BRANCH   4   6
ATOM      6  C   UNL     1       3.536  -5.577  -2.119  1.00  0.00     0.162 C 
ATOM      7  N   UNL     1       2.986  -5.150  -4.437  1.00  0.00    -0.328 N 
ATOM      8  C   UNL     1       4.372  -4.753  -4.178  1.00  0.00     0.263 C 
ATOM      9  C   UNL     1       2.434  -5.709  -3.182  1.00  0.00     0.195 C 
ATOM     10  H   UNL     1       2.962  -5.880  -5.149  1.00  0.00     0.348 HD
ATOM     11  C   UNL     1       4.479  -4.531  -2.683  1.00  0.00     0.083 C 
ATOM     12  C   UNL     1       2.043  -7.168  -3.423  1.00  0.00     0.076 C 
BRANCH   7  13
ATOM     13  C   UNL     1       2.168  -4.101  -5.077  1.00  0.00     0.299 C 
BRANCH  13  14
ATOM     14  C   UNL     1       1.874  -2.882  -4.229  1.00  0.00     0.006 A 
ATOM     15  C   UNL     1       1.521  -0.838  -2.325  1.00  0.00    -0.048 A 
ATOM     16  C   UNL     1       0.608  -1.888  -2.427  1.00  0.00     0.004 A 
ATOM     17  C   UNL     1       2.563  -0.764  -3.251  1.00  0.00     0.004 A 
ATOM     18  C   UNL     1       0.761  -2.882  -3.384  1.00  0.00     0.010 A 
ATOM     19  C   UNL     1       2.739  -1.780  -4.196  1.00  0.00     0.010 A 
BRANCH  15  20
ATOM     20  C   UNL     1       1.304   0.221  -1.289  1.00  0.00     0.032 C 
ATOM     21  C   UNL     1       2.065   0.124   0.015  1.00  0.00     0.009 C 
ENDBRANCH  15  20
ENDBRANCH  13  14
ENDBRANCH   7  13
ENDBRANCH   4   6
ENDBRANCH   3   4
ENDBRANCH   2   3
ENDBRANCH   1   2
BRANCH   1  22
ATOM     22  O   UNL     1      -0.204  -5.385   0.897  1.00  0.00    -0.374 OA
BRANCH  22  23
ATOM     23  C   UNL     1      -0.255  -6.143  -0.309  1.00  0.00     0.202 C 
BRANCH  23  24
ATOM     24  C   UNL     1      -1.568  -6.046  -1.095  1.00  0.00     0.261 C 
BRANCH  24  25
ATOM     25  O   UNL     1      -1.843  -4.715  -1.575  1.00  0.00    -0.460 OA
BRANCH  25  26
ATOM     26  C   UNL     1      -2.802  -4.044  -0.887  1.00  0.00     0.338 C 
ATOM     27  O   UNL     1      -3.448  -4.458   0.064  1.00  0.00    -0.246 OA
BRANCH  26  28
ATOM     28  C   UNL     1      -2.895  -2.640  -1.349  1.00  0.00     0.060 A 
ATOM     29  C   UNL     1      -2.931  -1.632  -0.377  1.00  0.00     0.016 A 
ATOM     30  C   UNL     1      -2.981  -2.303  -2.703  1.00  0.00     0.016 A 
ATOM     31  C   UNL     1      -3.086  -0.292  -0.749  1.00  0.00     0.010 A 
ATOM     32  C   UNL     1      -3.125  -0.956  -3.074  1.00  0.00     0.010 A 
ATOM     33  C   UNL     1      -3.206   0.061  -2.101  1.00  0.00    -0.014 A 
BRANCH  33  34
ATOM     34  C   UNL     1      -3.518   1.466  -2.503  1.00  0.00     0.031 A 
ATOM     35  C   UNL     1      -4.904   1.817  -2.935  1.00  0.00     0.074 A 
ATOM     36  C   UNL     1      -2.592   2.444  -2.482  1.00  0.00     0.049 A 
ATOM     37  N   UNL     1      -5.365   2.971  -3.337  1.00  0.00    -0.248 NA
ATOM     38  C   UNL     1      -5.907   0.744  -2.875  1.00  0.00     0.031 C 
ATOM     39  C   UNL     1      -1.256   2.269  -1.960  1.00  0.00     0.029 A 
ATOM     40  N   UNL     1      -2.595   3.751  -2.900  1.00  0.00    -0.354 N 
ATOM     41  C   UNL     1      -6.718   2.776  -3.552  1.00  0.00     0.074 A 
ATOM     42  C   UNL     1      -6.993   1.377  -3.294  1.00  0.00     0.031 C 
ATOM     43  C   UNL     1      -0.519   3.366  -2.167  1.00  0.00     0.029 A 
ATOM     44  C   UNL     1      -1.360   4.358  -2.815  1.00  0.00     0.049 A 
ATOM     45  H   UNL     1      -3.402   4.211  -3.228  1.00  0.00     0.167 HD
ATOM     46  C   UNL     1      -7.647   3.694  -3.903  1.00  0.00     0.037 A 
ATOM     47  C   UNL     1      -0.941   5.577  -3.200  1.00  0.00     0.037 A 
ATOM     48  C   UNL     1      -7.359   5.079  -4.173  1.00  0.00     0.049 A 
ATOM     49  C   UNL     1      -1.963   6.537  -3.722  1.00  0.00     0.074 A 
ATOM     50  C   UNL     1      -8.240   6.088  -4.519  1.00  0.00     0.029 A 
ATOM     51  N   UNL     1      -6.092   5.648  -4.149  1.00  0.00    -0.354 N 
ATOM     52  N   UNL     1      -3.251   6.352  -3.873  1.00  0.00    -0.248 NA
ATOM     53  C   UNL     1      -1.496   7.880  -4.086  1.00  0.00     0.031 C 
ATOM     54  C   UNL     1      -7.501   7.249  -4.767  1.00  0.00     0.029 A 
ATOM     55  C   UNL     1      -6.163   6.982  -4.521  1.00  0.00     0.049 A 
ATOM     56  H   UNL     1      -5.265   5.174  -3.903  1.00  0.00     0.167 HD
ATOM     57  C   UNL     1      -3.757   7.561  -4.318  1.00  0.00     0.074 A 
ATOM     58  C   UNL     1      -2.637   8.478  -4.398  1.00  0.00     0.031 C 
ATOM     59  C   UNL     1      -5.038   7.880  -4.622  1.00  0.00     0.037 A 
BRANCH  46  60
ATOM     60  C   UNL     1      -9.057   3.207  -4.039  1.00  0.00     0.057 A 
ATOM     61  C   UNL     1      -9.822   2.833  -2.926  1.00  0.00     0.134 A 
ATOM     62  C   UNL     1      -9.656   3.111  -5.300  1.00  0.00     0.134 A 
ATOM     63  F   UNL     1      -9.296   2.881  -1.692  1.00  0.00    -0.206 F 
ATOM     64  C   UNL     1     -11.126   2.357  -3.065  1.00  0.00     0.040 A 
ATOM     65  C   UNL     1     -10.968   2.663  -5.449  1.00  0.00     0.040 A 
ATOM     66  F   UNL     1      -8.975   3.450  -6.405  1.00  0.00    -0.206 F 
ATOM     67  C   UNL     1     -11.704   2.277  -4.331  1.00  0.00     0.006 A 
ENDBRANCH  46  60
BRANCH  47  68
ATOM     68  C   UNL     1       0.491   5.960  -3.076  1.00  0.00     0.057 A 
ATOM     69  C   UNL     1       0.917   6.912  -2.144  1.00  0.00     0.134 A 
ATOM     70  C   UNL     1       1.470   5.380  -3.894  1.00  0.00     0.134 A 
ATOM     71  F   UNL     1       0.028   7.512  -1.339  1.00  0.00    -0.206 F 
ATOM     72  C   UNL     1       2.258   7.291  -2.043  1.00  0.00     0.040 A 
ATOM     73  C   UNL     1       2.818   5.734  -3.790  1.00  0.00     0.040 A 
ATOM     74  F   UNL     1       1.133   4.455  -4.804  1.00  0.00    -0.206 F 
ATOM     75  C   UNL     1       3.213   6.699  -2.866  1.00  0.00     0.006 A 
ENDBRANCH  47  68
BRANCH  59  76
ATOM     76  C   UNL     1      -5.290   9.287  -5.075  1.00  0.00     0.057 A 
ATOM     77  C   UNL     1      -4.854   9.746  -6.324  1.00  0.00     0.134 A 
ATOM     78  C   UNL     1      -5.987  10.187  -4.260  1.00  0.00     0.134 A 
ATOM     79  F   UNL     1      -4.161   8.938  -7.142  1.00  0.00    -0.206 F 
ATOM     80  C   UNL     1      -5.081  11.058  -6.737  1.00  0.00     0.040 A 
ATOM     81  C   UNL     1      -6.247  11.492  -4.675  1.00  0.00     0.040 A 
ATOM     82  F   UNL     1      -6.434   9.809  -3.052  1.00  0.00    -0.206 F 
ATOM     83  C   UNL     1      -5.787  11.933  -5.914  1.00  0.00     0.006 A 
ENDBRANCH  59  76
ENDBRANCH  33  34
ENDBRANCH  26  28
ENDBRANCH  25  26
ENDBRANCH  24  25
ENDBRANCH  23  24
ENDBRANCH  22  23
ENDBRANCH   1  22
TORSDOF 17
