REMARK SMILES CS(=O)(=O)c1ccc(/C=C(/C(=O)OCCOCCOC(=O)c2ccc(-c3c4nc(c(-c5c(F)cccc5F)c5ccc([nH]5)c(-c5c(F)cccc5F)c5nc(c(-c6c(F)cccc6F)c6ccc3[nH]6)C=C5)C=C4)cc2)c2ccc(F)cc2)cc1
REMARK SMILES IDX 16 1 15 2 14 3 13 4 11 5 12 6 10 7 9 8 8 9 5 10 6 11 84 12
REMARK SMILES IDX 7 13 83 14 2 15 1 16 3 17 4 18 76 19 77 20 82 21 78 22 81 23
REMARK SMILES IDX 79 24 80 25 17 26 18 27 19 28 20 29 21 30 22 31 23 32 75 33
REMARK SMILES IDX 24 34 74 35 25 36 26 37 27 38 68 39 28 40 73 41 67 42 69 43
REMARK SMILES IDX 29 44 72 45 66 46 65 47 30 49 56 50 39 51 55 52 40 53 43 54
REMARK SMILES IDX 54 55 70 56 41 57 42 58 53 60 71 61 44 62 31 63 32 64 37 65
REMARK SMILES IDX 33 66 34 67 36 68 38 69 35 70 57 71 58 72 63 73 59 74 60 75
REMARK SMILES IDX 62 76 64 77 61 78 45 79 46 80 51 81 47 82 48 83 50 84 52 85
REMARK SMILES IDX 49 86
REMARK H PARENT 69 48 43 59
REMARK Flexibility Score: inf
ROOT
ATOM      1  O   UNL     1       4.414  -6.117  -9.684  1.00  0.00    -0.374 OA
ENDROOT
BRANCH   1   2
ATOM      2  C   UNL     1       4.166  -4.888 -10.364  1.00  0.00     0.202 C 
BRANCH   2   3
ATOM      3  C   UNL     1       2.828  -4.193 -10.096  1.00  0.00     0.261 C 
BRANCH   3   4
ATOM      4  O   UNL     1       2.683  -3.832  -8.711  1.00  0.00    -0.460 OA
BRANCH   4   5
ATOM      5  C   UNL     1       1.633  -4.423  -8.085  1.00  0.00     0.338 C 
ATOM      6  O   UNL     1       0.755  -5.073  -8.636  1.00  0.00    -0.246 OA
BRANCH   5   7
ATOM      7  C   UNL     1       1.711  -4.294  -6.594  1.00  0.00     0.067 C 
ATOM      8  C   UNL     1       2.193  -3.162  -6.027  1.00  0.00     0.024 C 
BRANCH   8   9
ATOM      9  C   UNL     1       2.083  -2.748  -4.606  1.00  0.00    -0.025 A 
ATOM     10  C   UNL     1       1.295  -1.909  -2.044  1.00  0.00     0.067 A 
ATOM     11  C   UNL     1       1.696  -3.229  -2.251  1.00  0.00     0.021 A 
ATOM     12  C   UNL     1       1.405  -0.973  -3.071  1.00  0.00     0.021 A 
ATOM     13  C   UNL     1       2.121  -3.633  -3.520  1.00  0.00     0.009 A 
ATOM     14  C   UNL     1       1.805  -1.396  -4.345  1.00  0.00     0.009 A 
BRANCH  10  15
ATOM     15  S   UNL     1       0.530  -1.478  -0.499  1.00  0.00     0.175 S 
ATOM     16  C   UNL     1       1.183   0.102  -0.047  1.00  0.00     0.163 C 
ATOM     17  O   UNL     1       0.996  -2.430   0.492  1.00  0.00    -0.224 OA
ATOM     18  O   UNL     1      -0.884  -1.318  -0.776  1.00  0.00    -0.224 OA
ENDBRANCH  10  15
ENDBRANCH   8   9
BRANCH   7  19
ATOM     19  C   UNL     1       1.153  -5.429  -5.830  1.00  0.00    -0.011 A 
ATOM     20  C   UNL     1       1.925  -6.594  -5.671  1.00  0.00     0.012 A 
ATOM     21  C   UNL     1      -0.123  -5.366  -5.257  1.00  0.00     0.012 A 
ATOM     22  C   UNL     1       1.434  -7.673  -4.938  1.00  0.00     0.040 A 
ATOM     23  C   UNL     1      -0.608  -6.445  -4.516  1.00  0.00     0.040 A 
ATOM     24  C   UNL     1       0.173  -7.586  -4.364  1.00  0.00     0.123 A 
ATOM     25  F   UNL     1      -0.293  -8.617  -3.647  1.00  0.00    -0.207 F 
ENDBRANCH   7  19
ENDBRANCH   5   7
ENDBRANCH   4   5
ENDBRANCH   3   4
ENDBRANCH   2   3
ENDBRANCH   1   2
BRANCH   1  26
ATOM     26  C   UNL     1       4.710  -6.059  -8.291  1.00  0.00     0.202 C 
BRANCH  26  27
ATOM     27  C   UNL     1       6.113  -5.608  -7.872  1.00  0.00     0.261 C 
BRANCH  27  28
ATOM     28  O   UNL     1       6.416  -4.271  -8.298  1.00  0.00    -0.460 OA
BRANCH  28  29
ATOM     29  C   UNL     1       7.279  -4.195  -9.336  1.00  0.00     0.338 C 
ATOM     30  O   UNL     1       7.860  -5.118  -9.894  1.00  0.00    -0.246 OA
BRANCH  29  31
ATOM     31  C   UNL     1       7.307  -2.818  -9.852  1.00  0.00     0.060 A 
ATOM     32  C   UNL     1       7.059  -2.623 -11.218  1.00  0.00     0.016 A 
ATOM     33  C   UNL     1       7.631  -1.743  -9.023  1.00  0.00     0.016 A 
ATOM     34  C   UNL     1       7.183  -1.353 -11.774  1.00  0.00     0.010 A 
ATOM     35  C   UNL     1       7.769  -0.473  -9.584  1.00  0.00     0.010 A 
ATOM     36  C   UNL     1       7.582  -0.282 -10.966  1.00  0.00    -0.014 A 
BRANCH  36  37
ATOM     37  C   UNL     1       7.988   1.002 -11.580  1.00  0.00     0.031 A 
ATOM     38  C   UNL     1       9.455   1.270 -11.763  1.00  0.00     0.074 A 
ATOM     39  C   UNL     1       7.074   1.916 -11.946  1.00  0.00     0.049 A 
ATOM     40  N   UNL     1      10.059   2.368 -12.135  1.00  0.00    -0.248 NA
ATOM     41  C   UNL     1      10.364   0.148 -11.475  1.00  0.00     0.031 C 
ATOM     42  C   UNL     1       5.626   1.744 -11.866  1.00  0.00     0.029 A 
ATOM     43  N   UNL     1       7.239   3.184 -12.440  1.00  0.00    -0.354 N 
ATOM     44  C   UNL     1      11.417   2.076 -12.106  1.00  0.00     0.074 A 
ATOM     45  C   UNL     1      11.550   0.706 -11.660  1.00  0.00     0.031 C 
ATOM     46  C   UNL     1       5.031   2.879 -12.273  1.00  0.00     0.029 A 
ATOM     47  C   UNL     1       6.058   3.866 -12.600  1.00  0.00     0.049 A 
ATOM     48  H   UNL     1       8.119   3.569 -12.658  1.00  0.00     0.167 HD
ATOM     49  C   UNL     1      12.458   2.879 -12.426  1.00  0.00     0.037 A 
ATOM     50  C   UNL     1       5.840   5.151 -12.939  1.00  0.00     0.037 A 
ATOM     51  C   UNL     1      12.315   4.239 -12.873  1.00  0.00     0.049 A 
ATOM     52  C   UNL     1       7.016   6.048 -13.222  1.00  0.00     0.074 A 
ATOM     53  C   UNL     1      13.304   5.138 -13.232  1.00  0.00     0.029 A 
ATOM     54  N   UNL     1      11.102   4.896 -13.018  1.00  0.00    -0.354 N 
ATOM     55  N   UNL     1       8.297   5.767 -13.196  1.00  0.00    -0.248 NA
ATOM     56  C   UNL     1       6.717   7.442 -13.580  1.00  0.00     0.031 C 
ATOM     57  C   UNL     1      12.691   6.354 -13.549  1.00  0.00     0.029 A 
ATOM     58  C   UNL     1      11.319   6.195 -13.442  1.00  0.00     0.049 A 
ATOM     59  H   UNL     1      10.219   4.497 -12.844  1.00  0.00     0.167 HD
ATOM     60  C   UNL     1       8.953   6.933 -13.572  1.00  0.00     0.074 A 
ATOM     61  C   UNL     1       7.928   7.926 -13.820  1.00  0.00     0.031 C 
ATOM     62  C   UNL     1      10.282   7.161 -13.707  1.00  0.00     0.037 A 
BRANCH  49  63
ATOM     63  C   UNL     1      13.840   2.316 -12.271  1.00  0.00     0.057 A 
ATOM     64  C   UNL     1      14.342   1.331 -13.131  1.00  0.00     0.134 A 
ATOM     65  C   UNL     1      14.688   2.783 -11.258  1.00  0.00     0.134 A 
ATOM     66  F   UNL     1      13.575   0.829 -14.111  1.00  0.00    -0.206 F 
ATOM     67  C   UNL     1      15.630   0.814 -12.976  1.00  0.00     0.040 A 
ATOM     68  C   UNL     1      15.987   2.293 -11.110  1.00  0.00     0.040 A 
ATOM     69  F   UNL     1      14.271   3.726 -10.400  1.00  0.00    -0.206 F 
ATOM     70  C   UNL     1      16.458   1.301 -11.967  1.00  0.00     0.006 A 
ENDBRANCH  49  63
BRANCH  50  71
ATOM     71  C   UNL     1       4.453   5.676 -13.012  1.00  0.00     0.057 A 
ATOM     72  C   UNL     1       3.879   6.038 -14.236  1.00  0.00     0.134 A 
ATOM     73  C   UNL     1       3.674   5.845 -11.860  1.00  0.00     0.134 A 
ATOM     74  F   UNL     1       4.583   5.920 -15.371  1.00  0.00    -0.206 F 
ATOM     75  C   UNL     1       2.590   6.568 -14.311  1.00  0.00     0.040 A 
ATOM     76  C   UNL     1       2.374   6.349 -11.923  1.00  0.00     0.040 A 
ATOM     77  F   UNL     1       4.164   5.514 -10.656  1.00  0.00    -0.206 F 
ATOM     78  C   UNL     1       1.832   6.720 -13.152  1.00  0.00     0.006 A 
ENDBRANCH  50  71
BRANCH  62  79
ATOM     79  C   UNL     1      10.708   8.512 -14.203  1.00  0.00     0.057 A 
ATOM     80  C   UNL     1      10.646   9.655 -13.397  1.00  0.00     0.134 A 
ATOM     81  C   UNL     1      11.247   8.654 -15.488  1.00  0.00     0.134 A 
ATOM     82  F   UNL     1      10.130   9.588 -12.160  1.00  0.00    -0.206 F 
ATOM     83  C   UNL     1      11.091  10.895 -13.858  1.00  0.00     0.040 A 
ATOM     84  C   UNL     1      11.720   9.882 -15.951  1.00  0.00     0.040 A 
ATOM     85  F   UNL     1      11.344   7.595 -16.307  1.00  0.00    -0.206 F 
ATOM     86  C   UNL     1      11.638  11.009 -15.135  1.00  0.00     0.006 A 
ENDBRANCH  62  79
ENDBRANCH  36  37
ENDBRANCH  29  31
ENDBRANCH  28  29
ENDBRANCH  27  28
ENDBRANCH  26  27
ENDBRANCH   1  26
TORSDOF 17
