REMARK SMILES Cc1ccc(C)c(S(=O)(=O)N[C@H](CC2=c3ccccc3=NC2)C(=O)OCCOCCOC(=O)c2ccc(-c3c4nc(c(-c5c(F)cccc5F)c5ccc([nH]5)c(-c5c(F)cccc5F)c5nc(c(-c6c(F)cccc6F)c6ccc3[nH]6)C=C5)C=C4)cc2)c1
REMARK SMILES IDX 27 1 26 2 25 3 23 4 24 5 12 6 11 7 8 9 9 10 10 11 7 12 1 13
REMARK SMILES IDX 2 14 3 15 88 16 4 17 5 18 6 19 13 20 14 21 15 22 22 23 16 24
REMARK SMILES IDX 20 25 21 26 17 27 19 28 18 29 28 30 29 31 30 32 31 33 32 34
REMARK SMILES IDX 33 35 34 36 35 37 87 38 36 39 86 40 37 41 38 42 39 43 80 44
REMARK SMILES IDX 40 45 85 46 79 47 81 48 41 49 84 50 78 51 77 52 42 54 68 55
REMARK SMILES IDX 51 56 67 57 52 58 55 59 66 60 82 61 53 62 54 63 65 65 83 66
REMARK SMILES IDX 56 67 43 68 44 69 49 70 45 71 46 72 48 73 50 74 47 75 69 76
REMARK SMILES IDX 70 77 75 78 71 79 72 80 74 81 76 82 73 83 57 84 58 85 63 86
REMARK SMILES IDX 59 87 60 88 62 89 64 90 61 91
REMARK H PARENT 11 8 81 53 55 64
REMARK Flexibility Score: inf
ROOT
ATOM      1  C   UNL     1       0.909   7.302   0.151  1.00  0.00     0.202 C 
ENDROOT
BRANCH   1   2
ATOM      2  C   UNL     1       0.035   7.087  -1.100  1.00  0.00     0.261 C 
BRANCH   2   3
ATOM      3  O   UNL     1      -0.877   5.981  -0.893  1.00  0.00    -0.462 OA
BRANCH   3   4
ATOM      4  C   UNL     1      -0.291   4.760  -0.853  1.00  0.00     0.324 C 
ATOM      5  O   UNL     1       0.805   4.513  -1.334  1.00  0.00    -0.250 OA
BRANCH   4   6
ATOM      6  C   UNL     1      -1.156   3.700  -0.180  1.00  0.00     0.183 C 
BRANCH   6   7
ATOM      7  N   UNL     1      -2.053   3.039  -1.176  1.00  0.00    -0.197 NA
ATOM      8  H   UNL     1      -2.813   2.597  -0.659  1.00  0.00     0.142 HD
BRANCH   7   9
ATOM      9  S   UNL     1      -1.358   1.865  -2.165  1.00  0.00     0.241 S 
ATOM     10  O   UNL     1       0.076   2.104  -2.137  1.00  0.00    -0.207 OA
ATOM     11  O   UNL     1      -2.149   1.827  -3.351  1.00  0.00    -0.207 OA
BRANCH   9  12
ATOM     12  C   UNL     1      -1.519   0.316  -1.337  1.00  0.00     0.085 A 
ATOM     13  C   UNL     1      -2.449  -0.813   2.141  1.00  0.00     0.044 C 
ATOM     14  C   UNL     1      -1.983  -0.847   0.720  1.00  0.00    -0.050 A 
ATOM     15  C   UNL     1      -1.374  -1.991   0.198  1.00  0.00     0.004 A 
ATOM     16  C   UNL     1      -2.122   0.285  -0.082  1.00  0.00     0.025 A 
ATOM     17  C   UNL     1      -0.814  -1.976  -1.077  1.00  0.00     0.005 A 
ATOM     18  C   UNL     1      -0.828  -0.804  -1.839  1.00  0.00    -0.031 A 
ATOM     19  C   UNL     1      -0.062  -0.795  -3.130  1.00  0.00     0.046 C 
ENDBRANCH   9  12
ENDBRANCH   7   9
ENDBRANCH   6   7
BRANCH   6  20
ATOM     20  C   UNL     1      -2.021   4.089   1.045  1.00  0.00     0.065 C 
BRANCH  20  21
ATOM     21  C   UNL     1      -1.710   5.295   1.876  1.00  0.00    -0.037 C 
ATOM     22  C   UNL     1      -0.961   5.389   2.974  1.00  0.00     0.001 A 
ATOM     23  C   UNL     1      -2.397   6.608   1.608  1.00  0.00     0.174 C 
ATOM     24  C   UNL     1      -0.171   4.491   3.758  1.00  0.00     0.010 A 
ATOM     25  C   UNL     1      -1.039   6.825   3.300  1.00  0.00     0.065 A 
ATOM     26  N   UNL     1      -1.825   7.566   2.582  1.00  0.00    -0.280 NA
ATOM     27  C   UNL     1       0.563   4.991   4.767  1.00  0.00     0.001 A 
ATOM     28  C   UNL     1      -0.168   7.306   4.392  1.00  0.00     0.028 A 
ATOM     29  C   UNL     1       0.582   6.416   5.062  1.00  0.00     0.002 A 
ENDBRANCH  20  21
ENDBRANCH   6  20
ENDBRANCH   4   6
ENDBRANCH   3   4
ENDBRANCH   2   3
ENDBRANCH   1   2
BRANCH   1  30
ATOM     30  O   UNL     1       1.858   6.253   0.212  1.00  0.00    -0.374 OA
BRANCH  30  31
ATOM     31  C   UNL     1       2.305   5.770   1.463  1.00  0.00     0.202 C 
BRANCH  31  32
ATOM     32  C   UNL     1       3.139   6.761   2.274  1.00  0.00     0.261 C 
BRANCH  32  33
ATOM     33  O   UNL     1       4.401   7.078   1.650  1.00  0.00    -0.460 OA
BRANCH  33  34
ATOM     34  C   UNL     1       4.303   7.909   0.574  1.00  0.00     0.338 C 
ATOM     35  O   UNL     1       4.077   9.104   0.647  1.00  0.00    -0.246 OA
BRANCH  34  36
ATOM     36  C   UNL     1       4.307   7.106  -0.683  1.00  0.00     0.060 A 
ATOM     37  C   UNL     1       3.656   7.615  -1.818  1.00  0.00     0.016 A 
ATOM     38  C   UNL     1       4.643   5.750  -0.610  1.00  0.00     0.016 A 
ATOM     39  C   UNL     1       3.245   6.736  -2.829  1.00  0.00     0.010 A 
ATOM     40  C   UNL     1       4.121   4.873  -1.546  1.00  0.00     0.010 A 
ATOM     41  C   UNL     1       3.433   5.354  -2.671  1.00  0.00    -0.014 A 
BRANCH  41  42
ATOM     42  C   UNL     1       3.513   4.439  -3.817  1.00  0.00     0.031 A 
ATOM     43  C   UNL     1       4.791   4.687  -4.480  1.00  0.00     0.074 A 
ATOM     44  C   UNL     1       2.678   3.558  -4.401  1.00  0.00     0.049 A 
ATOM     45  N   UNL     1       4.882   5.549  -5.438  1.00  0.00    -0.248 NA
ATOM     46  C   UNL     1       6.069   4.241  -3.925  1.00  0.00     0.031 C 
ATOM     47  C   UNL     1       1.242   3.466  -4.231  1.00  0.00     0.029 A 
ATOM     48  N   UNL     1       2.954   2.534  -5.295  1.00  0.00    -0.354 N 
ATOM     49  C   UNL     1       6.189   5.474  -5.831  1.00  0.00     0.074 A 
ATOM     50  C   UNL     1       6.913   4.912  -4.716  1.00  0.00     0.031 C 
ATOM     51  C   UNL     1       0.778   2.385  -4.894  1.00  0.00     0.029 A 
ATOM     52  C   UNL     1       1.895   1.648  -5.474  1.00  0.00     0.049 A 
ATOM     53  H   UNL     1       3.818   2.443  -5.760  1.00  0.00     0.167 HD
ATOM     54  C   UNL     1       6.440   5.449  -7.161  1.00  0.00     0.037 A 
ATOM     55  C   UNL     1       1.661   0.741  -6.454  1.00  0.00     0.037 A 
ATOM     56  C   UNL     1       5.298   5.876  -7.947  1.00  0.00     0.049 A 
ATOM     57  C   UNL     1       2.016   1.353  -7.739  1.00  0.00     0.074 A 
ATOM     58  C   UNL     1       4.639   7.061  -8.212  1.00  0.00     0.029 A 
ATOM     59  N   UNL     1       4.426   4.870  -8.271  1.00  0.00    -0.354 N 
ATOM     60  N   UNL     1       1.304   2.286  -8.302  1.00  0.00    -0.248 NA
ATOM     61  C   UNL     1       3.359   1.164  -8.278  1.00  0.00     0.031 C 
ATOM     62  C   UNL     1       3.338   6.725  -8.703  1.00  0.00     0.029 A 
ATOM     63  C   UNL     1       3.222   5.343  -8.730  1.00  0.00     0.049 A 
ATOM     64  H   UNL     1       4.639   3.912  -8.184  1.00  0.00     0.167 HD
ATOM     65  C   UNL     1       2.256   3.088  -8.895  1.00  0.00     0.074 A 
ATOM     66  C   UNL     1       3.451   2.269  -9.020  1.00  0.00     0.031 C 
ATOM     67  C   UNL     1       2.111   4.441  -8.884  1.00  0.00     0.037 A 
BRANCH  54  68
ATOM     68  C   UNL     1       7.500   4.559  -7.737  1.00  0.00     0.057 A 
ATOM     69  C   UNL     1       7.918   3.337  -7.165  1.00  0.00     0.134 A 
ATOM     70  C   UNL     1       7.939   4.797  -9.043  1.00  0.00     0.134 A 
ATOM     71  F   UNL     1       7.443   2.885  -5.997  1.00  0.00    -0.206 F 
ATOM     72  C   UNL     1       8.769   2.448  -7.816  1.00  0.00     0.040 A 
ATOM     73  C   UNL     1       8.736   3.879  -9.732  1.00  0.00     0.040 A 
ATOM     74  F   UNL     1       7.553   5.897  -9.705  1.00  0.00    -0.206 F 
ATOM     75  C   UNL     1       9.164   2.707  -9.116  1.00  0.00     0.006 A 
ENDBRANCH  54  68
BRANCH  55  76
ATOM     76  C   UNL     1       1.562  -0.719  -6.267  1.00  0.00     0.057 A 
ATOM     77  C   UNL     1       2.330  -1.416  -5.324  1.00  0.00     0.134 A 
ATOM     78  C   UNL     1       0.718  -1.490  -7.076  1.00  0.00     0.134 A 
ATOM     79  F   UNL     1       3.193  -0.764  -4.531  1.00  0.00    -0.206 F 
ATOM     80  C   UNL     1       2.228  -2.804  -5.160  1.00  0.00     0.040 A 
ATOM     81  C   UNL     1       0.608  -2.878  -6.926  1.00  0.00     0.040 A 
ATOM     82  F   UNL     1      -0.023  -0.908  -8.030  1.00  0.00    -0.206 F 
ATOM     83  C   UNL     1       1.357  -3.539  -5.957  1.00  0.00     0.006 A 
ENDBRANCH  55  76
BRANCH  67  84
ATOM     84  C   UNL     1       0.700   4.920  -8.854  1.00  0.00     0.057 A 
ATOM     85  C   UNL     1       0.016   5.057 -10.065  1.00  0.00     0.134 A 
ATOM     86  C   UNL     1      -0.012   5.180  -7.679  1.00  0.00     0.134 A 
ATOM     87  F   UNL     1       0.653   4.843 -11.228  1.00  0.00    -0.206 F 
ATOM     88  C   UNL     1      -1.330   5.421 -10.111  1.00  0.00     0.040 A 
ATOM     89  C   UNL     1      -1.370   5.519  -7.709  1.00  0.00     0.040 A 
ATOM     90  F   UNL     1       0.590   5.129  -6.485  1.00  0.00    -0.206 F 
ATOM     91  C   UNL     1      -2.033   5.638  -8.929  1.00  0.00     0.006 A 
ENDBRANCH  67  84
ENDBRANCH  41  42
ENDBRANCH  34  36
ENDBRANCH  33  34
ENDBRANCH  32  33
ENDBRANCH  31  32
ENDBRANCH  30  31
ENDBRANCH   1  30
TORSDOF 19
