REMARK SMILES CC(C)(C)OC(=O)Nc1ccc(SCC(=O)OCCOCCOC(=O)c2ccc(-c3c4nc(c(-c5c(F)cccc5F)c5ccc([nH]5)c(-c5c(F)cccc5F)c5nc(c(-c6c(F)cccc6F)c6ccc3[nH]6)C=C5)C=C4)cc2)cc1
REMARK SMILES IDX 18 1 17 2 15 3 16 4 14 5 13 6 12 7 9 8 10 9 81 10 11 11
REMARK SMILES IDX 80 12 8 13 6 14 7 15 5 17 2 18 1 19 3 20 4 21 19 22 20 23
REMARK SMILES IDX 21 24 22 25 23 26 24 27 25 28 26 29 27 30 79 31 28 32 78 33
REMARK SMILES IDX 29 34 30 35 31 36 72 37 32 38 77 39 71 40 73 41 33 42 76 43
REMARK SMILES IDX 70 44 69 45 34 47 60 48 43 49 59 50 44 51 47 52 58 53 74 54
REMARK SMILES IDX 45 55 46 56 57 58 75 59 48 60 35 61 36 62 41 63 37 64 38 65
REMARK SMILES IDX 40 66 42 67 39 68 61 69 62 70 67 71 63 72 64 73 66 74 68 75
REMARK SMILES IDX 65 76 49 77 50 78 55 79 51 80 52 81 54 82 56 83 53 84
REMARK H PARENT 8 16 73 46 47 57
REMARK Flexibility Score: inf
ROOT
ATOM      1  C   UNL     1       4.424  -3.308  -4.019  1.00  0.00     0.261 C 
ENDROOT
BRANCH   1   2
ATOM      2  O   UNL     1       4.567  -4.358  -3.034  1.00  0.00    -0.463 OA
BRANCH   2   3
ATOM      3  C   UNL     1       5.820  -4.508  -2.518  1.00  0.00     0.316 C 
ATOM      4  O   UNL     1       6.770  -3.789  -2.824  1.00  0.00    -0.251 OA
BRANCH   3   5
ATOM      5  C   UNL     1       6.026  -5.633  -1.524  1.00  0.00     0.197 C 
BRANCH   5   6
ATOM      6  S   UNL     1       4.608  -6.652  -1.042  1.00  0.00    -0.114 SA
BRANCH   6   7
ATOM      7  C   UNL     1       3.897  -5.893   0.418  1.00  0.00     0.008 A 
ATOM      8  C   UNL     1       2.225  -4.580   2.279  1.00  0.00     0.044 A 
ATOM      9  C   UNL     1       1.914  -5.869   1.843  1.00  0.00     0.027 A 
ATOM     10  C   UNL     1       3.454  -4.026   1.924  1.00  0.00     0.027 A 
ATOM     11  C   UNL     1       2.728  -6.503   0.897  1.00  0.00     0.017 A 
ATOM     12  C   UNL     1       4.307  -4.700   1.024  1.00  0.00     0.017 A 
BRANCH   8  13
ATOM     13  N   UNL     1       1.268  -3.913   3.053  1.00  0.00    -0.291 N 
ATOM     14  C   UNL     1       0.881  -2.593   3.062  1.00  0.00     0.412 C 
ATOM     15  O   UNL     1       0.086  -2.218   3.918  1.00  0.00    -0.224 OA
ATOM     16  H   UNL     1       0.793  -4.484   3.698  1.00  0.00     0.173 HD
BRANCH  14  17
ATOM     17  O   UNL     1       1.313  -1.832   2.014  1.00  0.00    -0.444 OA
BRANCH  17  18
ATOM     18  C   UNL     1       0.688  -0.527   1.779  1.00  0.00     0.106 C 
ATOM     19  C   UNL     1       1.249   0.040   0.460  1.00  0.00     0.056 C 
ATOM     20  C   UNL     1       1.070   0.457   2.889  1.00  0.00     0.056 C 
ATOM     21  C   UNL     1      -0.837  -0.639   1.608  1.00  0.00     0.056 C 
ENDBRANCH  17  18
ENDBRANCH  14  17
ENDBRANCH   8  13
ENDBRANCH   6   7
ENDBRANCH   5   6
ENDBRANCH   3   5
ENDBRANCH   2   3
ENDBRANCH   1   2
BRANCH   1  22
ATOM     22  C   UNL     1       3.455  -2.166  -3.659  1.00  0.00     0.202 C 
BRANCH  22  23
ATOM     23  O   UNL     1       3.591  -1.522  -2.396  1.00  0.00    -0.374 OA
BRANCH  23  24
ATOM     24  C   UNL     1       3.480  -2.337  -1.238  1.00  0.00     0.202 C 
BRANCH  24  25
ATOM     25  C   UNL     1       2.157  -3.062  -0.991  1.00  0.00     0.261 C 
BRANCH  25  26
ATOM     26  O   UNL     1       1.501  -3.540  -2.148  1.00  0.00    -0.460 OA
BRANCH  26  27
ATOM     27  C   UNL     1       0.170  -3.364  -2.125  1.00  0.00     0.338 C 
ATOM     28  O   UNL     1      -0.542  -2.872  -1.261  1.00  0.00    -0.246 OA
BRANCH  27  29
ATOM     29  C   UNL     1      -0.332  -3.884  -3.379  1.00  0.00     0.060 A 
ATOM     30  C   UNL     1      -0.509  -3.001  -4.446  1.00  0.00     0.016 A 
ATOM     31  C   UNL     1      -0.674  -5.234  -3.452  1.00  0.00     0.016 A 
ATOM     32  C   UNL     1      -1.109  -3.471  -5.601  1.00  0.00     0.010 A 
ATOM     33  C   UNL     1      -1.261  -5.704  -4.614  1.00  0.00     0.010 A 
ATOM     34  C   UNL     1      -1.520  -4.811  -5.666  1.00  0.00    -0.014 A 
BRANCH  34  35
ATOM     35  C   UNL     1      -2.377  -5.247  -6.778  1.00  0.00     0.031 A 
ATOM     36  C   UNL     1      -3.854  -5.330  -6.545  1.00  0.00     0.074 A 
ATOM     37  C   UNL     1      -1.821  -5.553  -7.960  1.00  0.00     0.049 A 
ATOM     38  N   UNL     1      -4.797  -5.727  -7.357  1.00  0.00    -0.248 NA
ATOM     39  C   UNL     1      -4.336  -4.917  -5.215  1.00  0.00     0.031 C 
ATOM     40  C   UNL     1      -0.393  -5.478  -8.265  1.00  0.00     0.029 A 
ATOM     41  N   UNL     1      -2.396  -5.995  -9.118  1.00  0.00    -0.354 N 
ATOM     42  C   UNL     1      -5.979  -5.617  -6.636  1.00  0.00     0.074 A 
ATOM     43  C   UNL     1      -5.636  -5.149  -5.313  1.00  0.00     0.031 C 
ATOM     44  C   UNL     1      -0.200  -5.869  -9.535  1.00  0.00     0.029 A 
ATOM     45  C   UNL     1      -1.486  -6.249 -10.113  1.00  0.00     0.049 A 
ATOM     46  H   UNL     1      -3.366  -6.120  -9.228  1.00  0.00     0.167 HD
ATOM     47  C   UNL     1      -7.238  -5.876  -7.056  1.00  0.00     0.037 A 
ATOM     48  C   UNL     1      -1.683  -6.751 -11.344  1.00  0.00     0.037 A 
ATOM     49  C   UNL     1      -7.550  -6.343  -8.379  1.00  0.00     0.049 A 
ATOM     50  C   UNL     1      -3.088  -7.075 -11.770  1.00  0.00     0.074 A 
ATOM     51  C   UNL     1      -8.787  -6.625  -8.927  1.00  0.00     0.029 A 
ATOM     52  N   UNL     1      -6.604  -6.599  -9.362  1.00  0.00    -0.354 N 
ATOM     53  N   UNL     1      -4.206  -6.942 -11.096  1.00  0.00    -0.248 NA
ATOM     54  C   UNL     1      -3.260  -7.615 -13.124  1.00  0.00     0.031 C 
ATOM     55  C   UNL     1      -8.586  -7.092 -10.230  1.00  0.00     0.029 A 
ATOM     56  C   UNL     1      -7.227  -7.057 -10.508  1.00  0.00     0.049 A 
ATOM     57  H   UNL     1      -5.633  -6.474  -9.258  1.00  0.00     0.167 HD
ATOM     58  C   UNL     1      -5.218  -7.358 -11.950  1.00  0.00     0.074 A 
ATOM     59  C   UNL     1      -4.579  -7.739 -13.195  1.00  0.00     0.031 C 
ATOM     60  C   UNL     1      -6.555  -7.419 -11.731  1.00  0.00     0.037 A 
BRANCH  47  61
ATOM     61  C   UNL     1      -8.348  -5.683  -6.067  1.00  0.00     0.057 A 
ATOM     62  C   UNL     1      -8.757  -4.408  -5.652  1.00  0.00     0.134 A 
ATOM     63  C   UNL     1      -9.024  -6.784  -5.528  1.00  0.00     0.134 A 
ATOM     64  F   UNL     1      -8.137  -3.312  -6.115  1.00  0.00    -0.206 F 
ATOM     65  C   UNL     1      -9.783  -4.237  -4.721  1.00  0.00     0.040 A 
ATOM     66  C   UNL     1     -10.066  -6.625  -4.614  1.00  0.00     0.040 A 
ATOM     67  F   UNL     1      -8.680  -8.033  -5.879  1.00  0.00    -0.206 F 
ATOM     68  C   UNL     1     -10.445  -5.348  -4.203  1.00  0.00     0.006 A 
ENDBRANCH  47  61
BRANCH  48  69
ATOM     69  C   UNL     1      -0.527  -6.968 -12.246  1.00  0.00     0.057 A 
ATOM     70  C   UNL     1      -0.330  -6.168 -13.376  1.00  0.00     0.134 A 
ATOM     71  C   UNL     1       0.420  -7.966 -11.987  1.00  0.00     0.134 A 
ATOM     72  F   UNL     1      -1.210  -5.203 -13.682  1.00  0.00    -0.206 F 
ATOM     73  C   UNL     1       0.761  -6.360 -14.226  1.00  0.00     0.040 A 
ATOM     74  C   UNL     1       1.528  -8.155 -12.815  1.00  0.00     0.040 A 
ATOM     75  F   UNL     1       0.293  -8.759 -10.913  1.00  0.00    -0.206 F 
ATOM     76  C   UNL     1       1.697  -7.353 -13.942  1.00  0.00     0.006 A 
ENDBRANCH  48  69
BRANCH  60  77
ATOM     77  C   UNL     1      -7.409  -7.884 -12.870  1.00  0.00     0.057 A 
ATOM     78  C   UNL     1      -7.470  -9.232 -13.241  1.00  0.00     0.134 A 
ATOM     79  C   UNL     1      -8.219  -6.978 -13.565  1.00  0.00     0.134 A 
ATOM     80  F   UNL     1      -6.707 -10.144 -12.620  1.00  0.00    -0.206 F 
ATOM     81  C   UNL     1      -8.299  -9.662 -14.277  1.00  0.00     0.040 A 
ATOM     82  C   UNL     1      -9.070  -7.399 -14.586  1.00  0.00     0.040 A 
ATOM     83  F   UNL     1      -8.211  -5.674 -13.248  1.00  0.00    -0.206 F 
ATOM     84  C   UNL     1      -9.108  -8.745 -14.947  1.00  0.00     0.006 A 
ENDBRANCH  60  77
ENDBRANCH  34  35
ENDBRANCH  27  29
ENDBRANCH  26  27
ENDBRANCH  25  26
ENDBRANCH  24  25
ENDBRANCH  23  24
ENDBRANCH  22  23
ENDBRANCH   1  22
TORSDOF 19
