REMARK SMILES O=C(Cc1cncnc1N1CCC2(CC1)OCCC[C@@H]2O)OCCOCCOC(=O)c1ccc(-c2c3nc(c(-c4c(F)cccc4F)c4ccc([nH]4)c(-c4c(F)cccc4F)c4nc(c(-c5c(F)cccc5F)c5ccc2[nH]5)C=C4)C=C3)cc1
REMARK SMILES IDX 24 1 23 2 22 3 2 4 1 5 3 6 4 7 5 8 9 9 6 10 8 11 7 12 10 13
REMARK SMILES IDX 11 14 15 15 12 16 14 17 13 18 16 19 20 20 17 21 19 22 18 23
REMARK SMILES IDX 21 24 25 26 26 27 27 28 28 29 29 30 30 31 31 32 32 33 84 34
REMARK SMILES IDX 33 35 83 36 34 37 35 38 36 39 77 40 37 41 82 42 76 43 78 44
REMARK SMILES IDX 38 45 81 46 75 47 74 48 39 50 65 51 48 52 64 53 49 54 52 55
REMARK SMILES IDX 63 56 79 57 50 58 51 59 62 61 80 62 53 63 40 64 41 65 46 66
REMARK SMILES IDX 42 67 43 68 45 69 47 70 44 71 66 72 67 73 72 74 68 75 69 76
REMARK SMILES IDX 71 77 73 78 70 79 54 80 55 81 60 82 56 83 57 84 59 85 61 86
REMARK SMILES IDX 58 87
REMARK H PARENT 21 25 78 49 52 60
REMARK Flexibility Score: inf
ROOT
ATOM      1  C   UNL     1       3.612   0.611   1.671  1.00  0.00     0.202 C 
ENDROOT
BRANCH   1   2
ATOM      2  C   UNL     1       2.779   0.697   0.385  1.00  0.00     0.261 C 
BRANCH   2   3
ATOM      3  O   UNL     1       1.909  -0.431   0.219  1.00  0.00    -0.463 OA
BRANCH   3   4
ATOM      4  C   UNL     1       2.329  -1.325  -0.724  1.00  0.00     0.310 C 
ATOM      5  O   UNL     1       1.805  -1.395  -1.828  1.00  0.00    -0.252 OA
BRANCH   4   6
ATOM      6  C   UNL     1       3.280  -2.340  -0.140  1.00  0.00     0.163 C 
BRANCH   6   7
ATOM      7  C   UNL     1       4.221  -3.000  -1.103  1.00  0.00     0.024 A 
ATOM      8  C   UNL     1       4.180  -4.375  -1.259  1.00  0.00     0.121 A 
ATOM      9  C   UNL     1       5.210  -2.350  -1.834  1.00  0.00     0.135 A 
ATOM     10  N   UNL     1       5.031  -5.079  -2.022  1.00  0.00    -0.244 NA
ATOM     11  N   UNL     1       6.090  -3.027  -2.597  1.00  0.00    -0.219 NA
ATOM     12  C   UNL     1       5.959  -4.355  -2.652  1.00  0.00     0.224 A 
BRANCH   9  13
ATOM     13  N   UNL     1       5.304  -0.954  -1.848  1.00  0.00    -0.356 N 
ATOM     14  C   UNL     1       5.436  -0.453  -3.224  1.00  0.00     0.121 C 
ATOM     15  C   UNL     1       6.373  -0.425  -1.002  1.00  0.00     0.121 C 
ATOM     16  C   UNL     1       5.069   1.011  -3.234  1.00  0.00     0.060 C 
ATOM     17  C   UNL     1       6.166   1.072  -0.849  1.00  0.00     0.060 C 
ATOM     18  C   UNL     1       5.785   1.842  -2.145  1.00  0.00     0.097 C 
ATOM     19  O   UNL     1       7.073   2.281  -2.634  1.00  0.00    -0.372 OA
ATOM     20  C   UNL     1       4.796   2.998  -1.802  1.00  0.00     0.146 C 
ATOM     21  C   UNL     1       7.109   3.406  -3.500  1.00  0.00     0.161 C 
ATOM     22  C   UNL     1       4.969   4.239  -2.647  1.00  0.00     0.037 C 
ATOM     23  C   UNL     1       6.424   4.593  -2.866  1.00  0.00     0.031 C 
BRANCH  20  24
ATOM     24  O   UNL     1       4.860   3.369  -0.432  1.00  0.00    -0.390 OA
ATOM     25  H   UNL     1       5.734   3.741  -0.238  1.00  0.00     0.211 HD
ENDBRANCH  20  24
ENDBRANCH   9  13
ENDBRANCH   6   7
ENDBRANCH   4   6
ENDBRANCH   3   4
ENDBRANCH   2   3
ENDBRANCH   1   2
BRANCH   1  26
ATOM     26  O   UNL     1       2.858   0.252   2.824  1.00  0.00    -0.374 OA
BRANCH  26  27
ATOM     27  C   UNL     1       1.855   1.189   3.218  1.00  0.00     0.202 C 
BRANCH  27  28
ATOM     28  C   UNL     1       2.423   2.458   3.861  1.00  0.00     0.261 C 
BRANCH  28  29
ATOM     29  O   UNL     1       2.812   3.435   2.868  1.00  0.00    -0.460 OA
BRANCH  29  30
ATOM     30  C   UNL     1       4.022   4.032   3.074  1.00  0.00     0.338 C 
ATOM     31  O   UNL     1       4.832   3.752   3.928  1.00  0.00    -0.246 OA
BRANCH  30  32
ATOM     32  C   UNL     1       4.269   5.072   2.037  1.00  0.00     0.060 A 
ATOM     33  C   UNL     1       5.575   5.229   1.564  1.00  0.00     0.016 A 
ATOM     34  C   UNL     1       3.249   5.877   1.510  1.00  0.00     0.016 A 
ATOM     35  C   UNL     1       5.844   6.142   0.535  1.00  0.00     0.010 A 
ATOM     36  C   UNL     1       3.537   6.842   0.525  1.00  0.00     0.010 A 
ATOM     37  C   UNL     1       4.838   6.989   0.024  1.00  0.00    -0.014 A 
BRANCH  37  38
ATOM     38  C   UNL     1       5.227   8.112  -0.890  1.00  0.00     0.031 A 
ATOM     39  C   UNL     1       6.120   9.187  -0.330  1.00  0.00     0.074 A 
ATOM     40  C   UNL     1       4.866   8.194  -2.189  1.00  0.00     0.049 A 
ATOM     41  N   UNL     1       6.599  10.253  -0.918  1.00  0.00    -0.248 NA
ATOM     42  C   UNL     1       6.484   9.067   1.091  1.00  0.00     0.031 C 
ATOM     43  C   UNL     1       3.958   7.293  -2.880  1.00  0.00     0.029 A 
ATOM     44  N   UNL     1       5.285   9.043  -3.192  1.00  0.00    -0.354 N 
ATOM     45  C   UNL     1       7.240  10.968   0.081  1.00  0.00     0.074 A 
ATOM     46  C   UNL     1       7.197  10.162   1.280  1.00  0.00     0.031 C 
ATOM     47  C   UNL     1       4.068   7.474  -4.207  1.00  0.00     0.029 A 
ATOM     48  C   UNL     1       4.912   8.636  -4.458  1.00  0.00     0.049 A 
ATOM     49  H   UNL     1       5.803   9.863  -3.022  1.00  0.00     0.167 HD
ATOM     50  C   UNL     1       7.717  12.234   0.041  1.00  0.00     0.037 A 
ATOM     51  C   UNL     1       5.188   9.161  -5.672  1.00  0.00     0.037 A 
ATOM     52  C   UNL     1       7.682  13.074  -1.121  1.00  0.00     0.049 A 
ATOM     53  C   UNL     1       5.815  10.531  -5.724  1.00  0.00     0.074 A 
ATOM     54  C   UNL     1       7.995  14.416  -1.228  1.00  0.00     0.029 A 
ATOM     55  N   UNL     1       7.298  12.647  -2.382  1.00  0.00    -0.354 N 
ATOM     56  N   UNL     1       6.314  11.248  -4.747  1.00  0.00    -0.248 NA
ATOM     57  C   UNL     1       5.816  11.215  -7.028  1.00  0.00     0.031 C 
ATOM     58  C   UNL     1       7.768  14.810  -2.552  1.00  0.00     0.029 A 
ATOM     59  C   UNL     1       7.365  13.700  -3.276  1.00  0.00     0.049 A 
ATOM     60  H   UNL     1       7.018  11.730  -2.607  1.00  0.00     0.167 HD
ATOM     61  C   UNL     1       6.632  12.480  -5.303  1.00  0.00     0.074 A 
ATOM     62  C   UNL     1       6.342  12.392  -6.718  1.00  0.00     0.031 C 
ATOM     63  C   UNL     1       7.076  13.599  -4.683  1.00  0.00     0.037 A 
BRANCH  50  64
ATOM     64  C   UNL     1       8.120  12.809   1.363  1.00  0.00     0.057 A 
ATOM     65  C   UNL     1       9.303  12.442   2.012  1.00  0.00     0.134 A 
ATOM     66  C   UNL     1       7.225  13.638   2.053  1.00  0.00     0.134 A 
ATOM     67  F   UNL     1      10.174  11.610   1.420  1.00  0.00    -0.206 F 
ATOM     68  C   UNL     1       9.562  12.843   3.324  1.00  0.00     0.040 A 
ATOM     69  C   UNL     1       7.484  14.064   3.354  1.00  0.00     0.040 A 
ATOM     70  F   UNL     1       6.064  14.006   1.490  1.00  0.00    -0.206 F 
ATOM     71  C   UNL     1       8.648  13.653   3.999  1.00  0.00     0.006 A 
ENDBRANCH  50  64
BRANCH  51  72
ATOM     72  C   UNL     1       4.815   8.473  -6.944  1.00  0.00     0.057 A 
ATOM     73  C   UNL     1       5.805   8.110  -7.872  1.00  0.00     0.134 A 
ATOM     74  C   UNL     1       3.488   8.213  -7.307  1.00  0.00     0.134 A 
ATOM     75  F   UNL     1       7.096   8.367  -7.615  1.00  0.00    -0.206 F 
ATOM     76  C   UNL     1       5.490   7.524  -9.101  1.00  0.00     0.040 A 
ATOM     77  C   UNL     1       3.161   7.593  -8.516  1.00  0.00     0.040 A 
ATOM     78  F   UNL     1       2.482   8.559  -6.492  1.00  0.00    -0.206 F 
ATOM     79  C   UNL     1       4.163   7.253  -9.422  1.00  0.00     0.006 A 
ENDBRANCH  51  72
BRANCH  63  80
ATOM     80  C   UNL     1       7.267  14.828  -5.517  1.00  0.00     0.057 A 
ATOM     81  C   UNL     1       6.178  15.596  -5.949  1.00  0.00     0.134 A 
ATOM     82  C   UNL     1       8.552  15.297  -5.811  1.00  0.00     0.134 A 
ATOM     83  F   UNL     1       4.922  15.195  -5.705  1.00  0.00    -0.206 F 
ATOM     84  C   UNL     1       6.363  16.790  -6.648  1.00  0.00     0.040 A 
ATOM     85  C   UNL     1       8.750  16.497  -6.493  1.00  0.00     0.040 A 
ATOM     86  F   UNL     1       9.634  14.607  -5.418  1.00  0.00    -0.206 F 
ATOM     87  C   UNL     1       7.653  17.248  -6.913  1.00  0.00     0.006 A 
ENDBRANCH  63  80
ENDBRANCH  37  38
ENDBRANCH  30  32
ENDBRANCH  29  30
ENDBRANCH  28  29
ENDBRANCH  27  28
ENDBRANCH  26  27
ENDBRANCH   1  26
TORSDOF 17
