REMARK SMILES C[C@@H](CCC(=O)OCCOCCOC(=O)c1ccc(-c2c3nc(c(-c4c(F)cccc4F)c4ccc([nH]4)c(-c4c(F)cccc4F)c4nc(c(-c5c(F)cccc5F)c5ccc2[nH]5)C=C4)C=C3)cc1)[C@@H]1CC[C@H]2[C@@H]3CC[C@H]4CC(=O)CC[C@@]4(C)[C@H]3CC(=O)[C@@]21C
REMARK SMILES IDX 9 1 8 2 7 3 5 4 6 5 4 6 3 7 2 8 1 9 70 10 71 11 89 12 72 13
REMARK SMILES IDX 73 14 87 15 90 16 74 17 86 18 88 19 75 20 85 21 76 22 83 23
REMARK SMILES IDX 77 24 82 25 84 26 78 27 81 28 79 29 80 30 10 31 11 32 12 33
REMARK SMILES IDX 13 34 14 35 15 36 16 37 17 38 69 39 18 40 68 41 19 42 20 43
REMARK SMILES IDX 21 44 62 45 22 46 67 47 61 48 63 49 23 50 66 51 60 52 59 53
REMARK SMILES IDX 24 55 50 56 33 57 49 58 34 59 37 60 48 61 64 62 35 63 36 64
REMARK SMILES IDX 47 66 65 67 38 68 25 69 26 70 31 71 27 72 28 73 30 74 32 75
REMARK SMILES IDX 29 76 51 77 52 78 57 79 53 80 54 81 56 82 58 83 55 84 39 85
REMARK SMILES IDX 40 86 45 87 41 88 42 89 44 90 46 91 43 92
REMARK H PARENT 63 54 37 65
REMARK Flexibility Score: inf
ROOT
ATOM      1  C   UNL     1       1.308  -2.408   2.708  1.00  0.00     0.202 C 
ENDROOT
BRANCH   1   2
ATOM      2  C   UNL     1       2.403  -2.096   1.685  1.00  0.00     0.261 C 
BRANCH   2   3
ATOM      3  O   UNL     1       1.874  -1.811   0.375  1.00  0.00    -0.463 OA
BRANCH   3   4
ATOM      4  C   UNL     1       2.068  -2.760  -0.579  1.00  0.00     0.305 C 
ATOM      5  O   UNL     1       2.417  -3.914  -0.377  1.00  0.00    -0.252 OA
BRANCH   4   6
ATOM      6  C   UNL     1       1.858  -2.174  -1.956  1.00  0.00     0.123 C 
BRANCH   6   7
ATOM      7  C   UNL     1       0.476  -2.445  -2.539  1.00  0.00     0.015 C 
BRANCH   7   8
ATOM      8  C   UNL     1      -0.469  -1.243  -2.845  1.00  0.00    -0.010 C 
ATOM      9  C   UNL     1       0.196  -0.056  -3.525  1.00  0.00     0.008 C 
BRANCH   8  10
ATOM     10  C   UNL     1      -1.505  -0.947  -1.730  1.00  0.00     0.005 C 
ATOM     11  C   UNL     1      -2.935  -0.795  -2.328  1.00  0.00     0.005 C 
ATOM     12  C   UNL     1      -1.427   0.125  -0.557  1.00  0.00     0.032 C 
ATOM     13  C   UNL     1      -3.764  -0.128  -1.242  1.00  0.00     0.005 C 
ATOM     14  C   UNL     1      -2.781   0.912  -0.738  1.00  0.00     0.006 C 
ATOM     15  C   UNL     1      -0.348   1.229  -0.312  1.00  0.00     0.139 C 
ATOM     16  C   UNL     1      -1.353  -0.785   0.689  1.00  0.00     0.020 C 
ATOM     17  C   UNL     1      -3.177   1.645   0.541  1.00  0.00    -0.003 C 
ATOM     18  C   UNL     1      -0.395   2.065   1.030  1.00  0.00     0.080 C 
ATOM     19  O   UNL     1       0.543   1.470  -1.124  1.00  0.00    -0.299 OA
ATOM     20  C   UNL     1      -5.059   1.989   0.966  1.00  0.00     0.004 C 
ATOM     21  C   UNL     1      -1.771   2.811   1.262  1.00  0.00     0.006 C 
ATOM     22  C   UNL     1      -5.470   3.212   2.535  1.00  0.00     0.005 C 
ATOM     23  C   UNL     1      -2.186   4.090   2.729  1.00  0.00    -0.025 C 
ATOM     24  C   UNL     1      -4.027   4.361   3.216  1.00  0.00     0.002 C 
ATOM     25  C   UNL     1      -1.418   4.014   4.168  1.00  0.00     0.015 C 
ATOM     26  C   UNL     1      -1.553   5.454   2.266  1.00  0.00     0.012 C 
ATOM     27  C   UNL     1      -4.312   4.875   4.629  1.00  0.00     0.079 C 
ATOM     28  C   UNL     1      -2.221   3.557   5.394  1.00  0.00     0.076 C 
ATOM     29  C   UNL     1      -3.378   4.452   5.720  1.00  0.00     0.133 C 
ATOM     30  O   UNL     1      -3.588   4.796   6.887  1.00  0.00    -0.300 OA
ENDBRANCH   8  10
ENDBRANCH   7   8
ENDBRANCH   6   7
ENDBRANCH   4   6
ENDBRANCH   3   4
ENDBRANCH   2   3
ENDBRANCH   1   2
BRANCH   1  31
ATOM     31  O   UNL     1       0.909  -3.776   2.659  1.00  0.00    -0.374 OA
BRANCH  31  32
ATOM     32  C   UNL     1      -0.417  -4.015   2.185  1.00  0.00     0.202 C 
BRANCH  32  33
ATOM     33  C   UNL     1      -1.497  -3.775   3.252  1.00  0.00     0.261 C 
BRANCH  33  34
ATOM     34  O   UNL     1      -1.694  -2.365   3.478  1.00  0.00    -0.460 OA
BRANCH  34  35
ATOM     35  C   UNL     1      -2.799  -2.042   4.204  1.00  0.00     0.338 C 
ATOM     36  O   UNL     1      -3.560  -2.815   4.757  1.00  0.00    -0.246 OA
BRANCH  35  37
ATOM     37  C   UNL     1      -3.078  -0.603   3.988  1.00  0.00     0.060 A 
ATOM     38  C   UNL     1      -2.108   0.349   3.851  1.00  0.00     0.016 A 
ATOM     39  C   UNL     1      -4.343  -0.181   3.718  1.00  0.00     0.016 A 
ATOM     40  C   UNL     1      -2.380   1.620   3.189  1.00  0.00     0.010 A 
ATOM     41  C   UNL     1      -4.549   1.095   3.082  1.00  0.00     0.010 A 
ATOM     42  C   UNL     1      -3.589   2.228   2.545  1.00  0.00    -0.014 A 
BRANCH  42  43
ATOM     43  C   UNL     1      -3.866   3.724   1.142  1.00  0.00     0.031 A 
ATOM     44  C   UNL     1      -5.394   4.652   0.806  1.00  0.00     0.074 A 
ATOM     45  C   UNL     1      -3.410   4.437  -0.043  1.00  0.00     0.049 A 
ATOM     46  N   UNL     1      -5.743   5.809   1.350  1.00  0.00    -0.248 NA
ATOM     47  C   UNL     1      -6.469   4.194  -0.140  1.00  0.00     0.031 C 
ATOM     48  C   UNL     1      -2.422   4.195  -1.124  1.00  0.00     0.029 A 
ATOM     49  N   UNL     1      -3.630   5.849  -0.301  1.00  0.00    -0.354 N 
ATOM     50  C   UNL     1      -7.121   5.899   1.196  1.00  0.00     0.074 A 
ATOM     51  C   UNL     1      -7.534   4.867   0.291  1.00  0.00     0.031 C 
ATOM     52  C   UNL     1      -1.955   5.339  -1.651  1.00  0.00     0.029 A 
ATOM     53  C   UNL     1      -2.654   6.459  -1.068  1.00  0.00     0.049 A 
ATOM     54  H   UNL     1      -4.413   6.335   0.045  1.00  0.00     0.167 HD
ATOM     55  C   UNL     1      -7.915   6.700   1.936  1.00  0.00     0.037 A 
ATOM     56  C   UNL     1      -2.286   7.755  -1.188  1.00  0.00     0.037 A 
ATOM     57  C   UNL     1      -7.516   8.041   2.227  1.00  0.00     0.049 A 
ATOM     58  C   UNL     1      -3.122   8.910  -0.692  1.00  0.00     0.074 A 
ATOM     59  C   UNL     1      -8.125   9.058   2.937  1.00  0.00     0.029 A 
ATOM     60  N   UNL     1      -6.435   8.595   1.584  1.00  0.00    -0.354 N 
ATOM     61  N   UNL     1      -4.147   8.926   0.117  1.00  0.00    -0.248 NA
ATOM     62  C   UNL     1      -2.752  10.245  -1.205  1.00  0.00     0.031 C 
ATOM     63  C   UNL     1      -7.494  10.266   2.564  1.00  0.00     0.029 A 
ATOM     64  C   UNL     1      -6.488   9.964   1.662  1.00  0.00     0.049 A 
ATOM     65  H   UNL     1      -5.726   8.084   1.132  1.00  0.00     0.167 HD
ATOM     66  C   UNL     1      -4.562  10.260   0.185  1.00  0.00     0.074 A 
ATOM     67  C   UNL     1      -3.648  11.031  -0.623  1.00  0.00     0.031 C 
ATOM     68  C   UNL     1      -5.635  10.775   0.841  1.00  0.00     0.037 A 
BRANCH  55  69
ATOM     69  C   UNL     1      -9.158   6.151   2.527  1.00  0.00     0.057 A 
ATOM     70  C   UNL     1      -9.078   5.619   3.826  1.00  0.00     0.134 A 
ATOM     71  C   UNL     1     -10.419   6.268   1.951  1.00  0.00     0.134 A 
ATOM     72  F   UNL     1      -7.887   5.487   4.433  1.00  0.00    -0.206 F 
ATOM     73  C   UNL     1     -10.215   5.250   4.541  1.00  0.00     0.040 A 
ATOM     74  C   UNL     1     -11.569   5.893   2.655  1.00  0.00     0.040 A 
ATOM     75  F   UNL     1     -10.559   6.765   0.714  1.00  0.00    -0.206 F 
ATOM     76  C   UNL     1     -11.469   5.396   3.957  1.00  0.00     0.006 A 
ENDBRANCH  55  69
BRANCH  56  77
ATOM     77  C   UNL     1      -0.921   8.086  -1.688  1.00  0.00     0.057 A 
ATOM     78  C   UNL     1       0.038   8.552  -0.772  1.00  0.00     0.134 A 
ATOM     79  C   UNL     1      -0.557   8.038  -3.034  1.00  0.00     0.134 A 
ATOM     80  F   UNL     1      -0.264   8.642   0.532  1.00  0.00    -0.206 F 
ATOM     81  C   UNL     1       1.302   8.973  -1.182  1.00  0.00     0.040 A 
ATOM     82  C   UNL     1       0.712   8.440  -3.456  1.00  0.00     0.040 A 
ATOM     83  F   UNL     1      -1.435   7.617  -3.956  1.00  0.00    -0.206 F 
ATOM     84  C   UNL     1       1.642   8.917  -2.530  1.00  0.00     0.006 A 
ENDBRANCH  56  77
BRANCH  68  85
ATOM     85  C   UNL     1      -5.997  12.209   0.623  1.00  0.00     0.057 A 
ATOM     86  C   UNL     1      -6.498  12.641  -0.615  1.00  0.00     0.134 A 
ATOM     87  C   UNL     1      -5.935  13.148   1.655  1.00  0.00     0.134 A 
ATOM     88  F   UNL     1      -6.587  11.788  -1.647  1.00  0.00    -0.206 F 
ATOM     89  C   UNL     1      -6.907  13.959  -0.820  1.00  0.00     0.040 A 
ATOM     90  C   UNL     1      -6.360  14.465   1.468  1.00  0.00     0.040 A 
ATOM     91  F   UNL     1      -5.479  12.799   2.868  1.00  0.00    -0.206 F 
ATOM     92  C   UNL     1      -6.845  14.874   0.227  1.00  0.00     0.006 A 
ENDBRANCH  68  85
ENDBRANCH  42  43
ENDBRANCH  35  37
ENDBRANCH  34  35
ENDBRANCH  33  34
ENDBRANCH  32  33
ENDBRANCH  31  32
ENDBRANCH   1  31
TORSDOF 17
