REMARK SMILES CC[C@@](C)(NC(=O)N(C)CCO)C(=O)OCCOCCOC(=O)c1ccc(-c2c3nc(c(-c4c(F)cccc4F)c4ccc([nH]4)c(-c4c(F)cccc4F)c4nc(c(-c5c(F)cccc5F)c5ccc2[nH]5)C=C4)C=C3)cc1
REMARK SMILES IDX 16 1 15 2 13 3 14 4 3 5 4 6 2 7 1 8 5 9 6 10 7 12 8 13 9 14
REMARK SMILES IDX 10 15 11 16 12 17 17 19 18 20 19 21 20 22 21 23 22 24 23 25
REMARK SMILES IDX 24 26 25 27 77 28 26 29 76 30 27 31 28 32 29 33 70 34 30 35
REMARK SMILES IDX 75 36 69 37 71 38 31 39 74 40 68 41 67 42 32 44 58 45 41 46
REMARK SMILES IDX 57 47 42 48 45 49 56 50 72 51 43 52 44 53 55 55 73 56 46 57
REMARK SMILES IDX 33 58 34 59 39 60 35 61 36 62 38 63 40 64 37 65 59 66 60 67
REMARK SMILES IDX 65 68 61 69 62 70 64 71 66 72 63 73 47 74 48 75 53 76 49 77
REMARK SMILES IDX 50 78 52 79 54 80 51 81
REMARK H PARENT 5 11 12 18 71 43 45 54
REMARK Flexibility Score: inf
ROOT
ATOM      1  C   UNL     1       4.638  -2.265   1.016  1.00  0.00     0.261 C 
ENDROOT
BRANCH   1   2
ATOM      2  O   UNL     1       3.268  -2.661   0.804  1.00  0.00    -0.462 OA
BRANCH   2   3
ATOM      3  C   UNL     1       2.368  -1.653   0.747  1.00  0.00     0.331 C 
ATOM      4  O   UNL     1       2.665  -0.492   1.015  1.00  0.00    -0.249 OA
BRANCH   3   5
ATOM      5  C   UNL     1       0.905  -2.107   0.423  1.00  0.00     0.136 C 
ATOM      6  C   UNL     1       0.199  -1.983   1.795  1.00  0.00     0.047 C 
BRANCH   5   7
ATOM      7  C   UNL     1       0.295  -1.119  -0.615  1.00  0.00     0.037 C 
ATOM      8  C   UNL     1       0.335   0.369  -0.257  1.00  0.00     0.007 C 
ENDBRANCH   5   7
BRANCH   5   9
ATOM      9  N   UNL     1       0.590  -3.528   0.013  1.00  0.00    -0.322 N 
ATOM     10  C   UNL     1       0.786  -4.164  -1.176  1.00  0.00     0.318 C 
ATOM     11  H   UNL     1       0.178  -4.080   0.716  1.00  0.00     0.166 HD
ATOM     12  O   UNL     1      -0.039  -4.025  -2.075  1.00  0.00    -0.249 OA
BRANCH  10  13
ATOM     13  N   UNL     1       1.744  -5.160  -1.177  1.00  0.00    -0.326 N 
ATOM     14  C   UNL     1       2.764  -5.253  -0.151  1.00  0.00     0.148 C 
BRANCH  13  15
ATOM     15  C   UNL     1       1.843  -6.099  -2.307  1.00  0.00     0.149 C 
BRANCH  15  16
ATOM     16  C   UNL     1       1.679  -7.561  -1.863  1.00  0.00     0.177 C 
BRANCH  16  17
ATOM     17  O   UNL     1       0.335  -7.831  -1.482  1.00  0.00    -0.395 OA
ATOM     18  H   UNL     1       0.089  -7.260  -0.738  1.00  0.00     0.210 HD
ENDBRANCH  16  17
ENDBRANCH  15  16
ENDBRANCH  13  15
ENDBRANCH  10  13
ENDBRANCH   5   9
ENDBRANCH   3   5
ENDBRANCH   2   3
ENDBRANCH   1   2
BRANCH   1  19
ATOM     19  C   UNL     1       5.467  -2.428  -0.261  1.00  0.00     0.202 C 
BRANCH  19  20
ATOM     20  O   UNL     1       5.061  -1.617  -1.360  1.00  0.00    -0.374 OA
BRANCH  20  21
ATOM     21  C   UNL     1       4.022  -2.128  -2.198  1.00  0.00     0.202 C 
BRANCH  21  22
ATOM     22  C   UNL     1       4.449  -3.188  -3.225  1.00  0.00     0.261 C 
BRANCH  22  23
ATOM     23  O   UNL     1       4.761  -4.459  -2.618  1.00  0.00    -0.460 OA
BRANCH  23  24
ATOM     24  C   UNL     1       6.072  -4.801  -2.568  1.00  0.00     0.338 C 
ATOM     25  O   UNL     1       7.010  -4.167  -3.006  1.00  0.00    -0.246 OA
BRANCH  24  26
ATOM     26  C   UNL     1       6.239  -6.011  -1.721  1.00  0.00     0.060 A 
ATOM     27  C   UNL     1       7.270  -6.007  -0.780  1.00  0.00     0.016 A 
ATOM     28  C   UNL     1       5.434  -7.145  -1.856  1.00  0.00     0.016 A 
ATOM     29  C   UNL     1       7.533  -7.153  -0.023  1.00  0.00     0.010 A 
ATOM     30  C   UNL     1       5.661  -8.272  -1.049  1.00  0.00     0.010 A 
ATOM     31  C   UNL     1       6.750  -8.312  -0.163  1.00  0.00    -0.014 A 
BRANCH  31  32
ATOM     32  C   UNL     1       7.162  -9.566   0.542  1.00  0.00     0.031 A 
ATOM     33  C   UNL     1       7.616 -10.777  -0.245  1.00  0.00     0.074 A 
ATOM     34  C   UNL     1       7.211  -9.608   1.890  1.00  0.00     0.049 A 
ATOM     35  N   UNL     1       8.159 -11.891   0.186  1.00  0.00    -0.248 NA
ATOM     36  C   UNL     1       7.422 -10.742  -1.703  1.00  0.00     0.031 C 
ATOM     37  C   UNL     1       6.750  -8.547   2.786  1.00  0.00     0.029 A 
ATOM     38  N   UNL     1       7.691 -10.575   2.742  1.00  0.00    -0.354 N 
ATOM     39  C   UNL     1       8.378 -12.674  -0.944  1.00  0.00     0.074 A 
ATOM     40  C   UNL     1       7.840 -11.944  -2.069  1.00  0.00     0.031 C 
ATOM     41  C   UNL     1       7.005  -8.903   4.057  1.00  0.00     0.029 A 
ATOM     42  C   UNL     1       7.632 -10.222   4.071  1.00  0.00     0.049 A 
ATOM     43  H   UNL     1       8.044 -11.440   2.431  1.00  0.00     0.167 HD
ATOM     44  C   UNL     1       9.001 -13.874  -1.049  1.00  0.00     0.037 A 
ATOM     45  C   UNL     1       8.048 -10.876   5.175  1.00  0.00     0.037 A 
ATOM     46  C   UNL     1       9.548 -14.607   0.063  1.00  0.00     0.049 A 
ATOM     47  C   UNL     1       8.744 -12.205   5.032  1.00  0.00     0.074 A 
ATOM     48  C   UNL     1      10.237 -15.809   0.049  1.00  0.00     0.029 A 
ATOM     49  N   UNL     1       9.466 -14.212   1.388  1.00  0.00    -0.354 N 
ATOM     50  N   UNL     1       9.027 -12.881   3.945  1.00  0.00    -0.248 NA
ATOM     51  C   UNL     1       9.199 -12.851   6.272  1.00  0.00     0.031 C 
ATOM     52  C   UNL     1      10.528 -16.164   1.370  1.00  0.00     0.029 A 
ATOM     53  C   UNL     1      10.073 -15.155   2.202  1.00  0.00     0.049 A 
ATOM     54  H   UNL     1       9.039 -13.383   1.705  1.00  0.00     0.167 HD
ATOM     55  C   UNL     1       9.709 -14.016   4.368  1.00  0.00     0.074 A 
ATOM     56  C   UNL     1       9.830 -13.919   5.807  1.00  0.00     0.031 C 
ATOM     57  C   UNL     1      10.186 -15.052   3.634  1.00  0.00     0.037 A 
BRANCH  44  58
ATOM     58  C   UNL     1       9.150 -14.467  -2.424  1.00  0.00     0.057 A 
ATOM     59  C   UNL     1      10.007 -13.902  -3.380  1.00  0.00     0.134 A 
ATOM     60  C   UNL     1       8.485 -15.648  -2.778  1.00  0.00     0.134 A 
ATOM     61  F   UNL     1      10.669 -12.766  -3.112  1.00  0.00    -0.206 F 
ATOM     62  C   UNL     1      10.181 -14.477  -4.640  1.00  0.00     0.040 A 
ATOM     63  C   UNL     1       8.674 -16.249  -4.024  1.00  0.00     0.040 A 
ATOM     64  F   UNL     1       7.658 -16.250  -1.911  1.00  0.00    -0.206 F 
ATOM     65  C   UNL     1       9.520 -15.660  -4.962  1.00  0.00     0.006 A 
ENDBRANCH  44  58
BRANCH  45  66
ATOM     66  C   UNL     1       7.839 -10.281   6.524  1.00  0.00     0.057 A 
ATOM     67  C   UNL     1       8.917  -9.873   7.321  1.00  0.00     0.134 A 
ATOM     68  C   UNL     1       6.556 -10.147   7.067  1.00  0.00     0.134 A 
ATOM     69  F   UNL     1      10.174  -9.995   6.870  1.00  0.00    -0.206 F 
ATOM     70  C   UNL     1       8.729  -9.385   8.616  1.00  0.00     0.040 A 
ATOM     71  C   UNL     1       6.350  -9.630   8.347  1.00  0.00     0.040 A 
ATOM     72  F   UNL     1       5.478 -10.512   6.356  1.00  0.00    -0.206 F 
ATOM     73  C   UNL     1       7.441  -9.259   9.131  1.00  0.00     0.006 A 
ENDBRANCH  45  66
BRANCH  57  74
ATOM     74  C   UNL     1      10.902 -16.146   4.375  1.00  0.00     0.057 A 
ATOM     75  C   UNL     1      10.230 -17.017   5.243  1.00  0.00     0.134 A 
ATOM     76  C   UNL     1      12.281 -16.335   4.215  1.00  0.00     0.134 A 
ATOM     77  F   UNL     1       8.910 -16.887   5.449  1.00  0.00    -0.206 F 
ATOM     78  C   UNL     1      10.909 -18.005   5.959  1.00  0.00     0.040 A 
ATOM     79  C   UNL     1      12.966 -17.341   4.899  1.00  0.00     0.040 A 
ATOM     80  F   UNL     1      12.986 -15.549   3.388  1.00  0.00    -0.206 F 
ATOM     81  C   UNL     1      12.281 -18.171   5.784  1.00  0.00     0.006 A 
ENDBRANCH  57  74
ENDBRANCH  31  32
ENDBRANCH  24  26
ENDBRANCH  23  24
ENDBRANCH  22  23
ENDBRANCH  21  22
ENDBRANCH  20  21
ENDBRANCH  19  20
ENDBRANCH   1  19
TORSDOF 20
