REMARK SMILES Cc1cc(C)n2ncc(C(=O)N(C)CCCC(=O)OCCOCCOC(=O)c3ccc(-c4c5nc(c(-c6c(F)cccc6F)c6ccc([nH]6)c(-c6c(F)cccc6F)c6nc(c(-c7c(F)cccc7F)c7ccc4[nH]7)C=C6)C=C5)cc3)c2n1
REMARK SMILES IDX 20 1 19 2 17 3 18 4 16 5 15 6 14 7 12 8 13 9 10 10 11 11
REMARK SMILES IDX 9 12 1 13 2 14 3 15 83 16 4 17 82 18 5 19 6 20 7 21 8 22
REMARK SMILES IDX 21 23 22 24 23 25 24 26 25 27 26 28 27 29 28 30 29 31 81 32
REMARK SMILES IDX 30 33 80 34 31 35 32 36 33 37 74 38 34 39 79 40 73 41 75 42
REMARK SMILES IDX 35 43 78 44 72 45 71 46 36 48 62 49 45 50 61 51 46 52 49 53
REMARK SMILES IDX 60 54 76 55 47 56 48 57 59 59 77 60 50 61 37 62 38 63 43 64
REMARK SMILES IDX 39 65 40 66 42 67 44 68 41 69 63 70 64 71 69 72 65 73 66 74
REMARK SMILES IDX 68 75 70 76 67 77 51 78 52 79 57 80 53 81 54 82 56 83 58 84
REMARK SMILES IDX 55 85
REMARK H PARENT 75 47 49 58
REMARK Flexibility Score: inf
ROOT
ATOM      1  C   UNL     1       3.208   5.806  -1.023  1.00  0.00     0.261 C 
ENDROOT
BRANCH   1   2
ATOM      2  O   UNL     1       1.908   6.038  -1.578  1.00  0.00    -0.463 OA
BRANCH   2   3
ATOM      3  C   UNL     1       0.863   5.487  -0.913  1.00  0.00     0.305 C 
ATOM      4  O   UNL     1       0.941   4.892   0.156  1.00  0.00    -0.252 OA
BRANCH   3   5
ATOM      5  C   UNL     1      -0.467   5.758  -1.584  1.00  0.00     0.124 C 
BRANCH   5   6
ATOM      6  C   UNL     1      -0.515   6.726  -2.771  1.00  0.00     0.033 C 
BRANCH   6   7
ATOM      7  C   UNL     1       0.286   6.370  -4.032  1.00  0.00     0.120 C 
BRANCH   7   8
ATOM      8  N   UNL     1      -0.111   5.115  -4.673  1.00  0.00    -0.342 N 
ATOM      9  C   UNL     1      -0.805   5.274  -5.938  1.00  0.00     0.147 C 
BRANCH   8  10
ATOM     10  C   UNL     1       0.432   3.933  -4.144  1.00  0.00     0.259 C 
ATOM     11  O   UNL     1       1.393   4.016  -3.379  1.00  0.00    -0.269 OA
BRANCH  10  12
ATOM     12  C   UNL     1      -0.139   2.618  -4.412  1.00  0.00     0.104 A 
ATOM     13  C   UNL     1       0.865   0.260  -0.194  1.00  0.00     0.067 C 
ATOM     14  C   UNL     1       0.360   0.355  -1.613  1.00  0.00     0.042 A 
ATOM     15  C   UNL     1      -0.047  -0.924  -2.273  1.00  0.00     0.047 A 
ATOM     16  N   UNL     1       0.329   1.524  -2.183  1.00  0.00    -0.233 NA
ATOM     17  C   UNL     1      -0.521  -0.823  -3.527  1.00  0.00     0.043 A 
ATOM     18  C   UNL     1      -0.107   1.578  -3.483  1.00  0.00     0.168 A 
ATOM     19  C   UNL     1      -0.952  -2.008  -4.332  1.00  0.00     0.067 C 
ATOM     20  N   UNL     1      -0.581   0.438  -4.136  1.00  0.00    -0.219 N 
ATOM     21  N   UNL     1      -1.039   0.736  -5.375  1.00  0.00    -0.174 NA
ATOM     22  C   UNL     1      -0.737   2.023  -5.537  1.00  0.00     0.151 A 
ENDBRANCH  10  12
ENDBRANCH   8  10
ENDBRANCH   7   8
ENDBRANCH   6   7
ENDBRANCH   5   6
ENDBRANCH   3   5
ENDBRANCH   2   3
ENDBRANCH   1   2
BRANCH   1  23
ATOM     23  C   UNL     1       3.930   7.128  -0.780  1.00  0.00     0.202 C 
BRANCH  23  24
ATOM     24  O   UNL     1       3.341   8.028   0.160  1.00  0.00    -0.374 OA
BRANCH  24  25
ATOM     25  C   UNL     1       2.071   8.604  -0.125  1.00  0.00     0.202 C 
BRANCH  25  26
ATOM     26  C   UNL     1       2.010   9.674  -1.206  1.00  0.00     0.261 C 
BRANCH  26  27
ATOM     27  O   UNL     1       2.370   9.191  -2.496  1.00  0.00    -0.460 OA
BRANCH  27  28
ATOM     28  C   UNL     1       3.609   9.556  -2.886  1.00  0.00     0.338 C 
ATOM     29  O   UNL     1       4.519   9.967  -2.167  1.00  0.00    -0.246 OA
BRANCH  28  30
ATOM     30  C   UNL     1       3.669   9.601  -4.347  1.00  0.00     0.060 A 
ATOM     31  C   UNL     1       4.833  10.143  -4.889  1.00  0.00     0.016 A 
ATOM     32  C   UNL     1       2.505   9.433  -5.113  1.00  0.00     0.016 A 
ATOM     33  C   UNL     1       4.750  10.746  -6.120  1.00  0.00     0.010 A 
ATOM     34  C   UNL     1       2.427  10.022  -6.355  1.00  0.00     0.010 A 
ATOM     35  C   UNL     1       3.519  10.757  -6.796  1.00  0.00    -0.014 A 
BRANCH  35  36
ATOM     36  C   UNL     1       3.465  11.486  -8.044  1.00  0.00     0.031 A 
ATOM     37  C   UNL     1       4.334  10.878  -9.071  1.00  0.00     0.074 A 
ATOM     38  C   UNL     1       2.730  12.594  -8.245  1.00  0.00     0.049 A 
ATOM     39  N   UNL     1       5.480  11.316  -9.467  1.00  0.00    -0.248 NA
ATOM     40  C   UNL     1       3.997   9.529  -9.543  1.00  0.00     0.031 C 
ATOM     41  C   UNL     1       1.680  13.180  -7.411  1.00  0.00     0.029 A 
ATOM     42  N   UNL     1       2.768  13.429  -9.319  1.00  0.00    -0.354 N 
ATOM     43  C   UNL     1       5.927  10.391 -10.398  1.00  0.00     0.074 A 
ATOM     44  C   UNL     1       5.074   9.238 -10.273  1.00  0.00     0.031 C 
ATOM     45  C   UNL     1       1.042  14.151  -8.110  1.00  0.00     0.029 A 
ATOM     46  C   UNL     1       1.736  14.357  -9.370  1.00  0.00     0.049 A 
ATOM     47  H   UNL     1       3.472  13.379 -10.006  1.00  0.00     0.167 HD
ATOM     48  C   UNL     1       6.802  10.762 -11.368  1.00  0.00     0.037 A 
ATOM     49  C   UNL     1       1.478  15.201 -10.402  1.00  0.00     0.037 A 
ATOM     50  C   UNL     1       7.501  11.970 -11.006  1.00  0.00     0.049 A 
ATOM     51  C   UNL     1       2.743  15.352 -11.164  1.00  0.00     0.074 A 
ATOM     52  C   UNL     1       8.370  12.326  -9.993  1.00  0.00     0.029 A 
ATOM     53  N   UNL     1       7.039  13.149 -11.535  1.00  0.00    -0.354 N 
ATOM     54  N   UNL     1       3.800  15.956 -10.698  1.00  0.00    -0.248 NA
ATOM     55  C   UNL     1       2.982  14.432 -12.266  1.00  0.00     0.031 C 
ATOM     56  C   UNL     1       8.031  13.672  -9.666  1.00  0.00     0.029 A 
ATOM     57  C   UNL     1       7.015  14.082 -10.531  1.00  0.00     0.049 A 
ATOM     58  H   UNL     1       6.772  13.299 -12.471  1.00  0.00     0.167 HD
ATOM     59  C   UNL     1       4.868  15.191 -11.141  1.00  0.00     0.074 A 
ATOM     60  C   UNL     1       4.309  14.315 -12.168  1.00  0.00     0.031 C 
ATOM     61  C   UNL     1       6.037  15.142 -10.438  1.00  0.00     0.037 A 
BRANCH  48  62
ATOM     62  C   UNL     1       6.703  10.273 -12.790  1.00  0.00     0.057 A 
ATOM     63  C   UNL     1       7.701  10.640 -13.708  1.00  0.00     0.134 A 
ATOM     64  C   UNL     1       5.537   9.719 -13.360  1.00  0.00     0.134 A 
ATOM     65  F   UNL     1       8.848  11.198 -13.292  1.00  0.00    -0.206 F 
ATOM     66  C   UNL     1       7.520  10.533 -15.091  1.00  0.00     0.040 A 
ATOM     67  C   UNL     1       5.368   9.559 -14.736  1.00  0.00     0.040 A 
ATOM     68  F   UNL     1       4.457   9.400 -12.638  1.00  0.00    -0.206 F 
ATOM     69  C   UNL     1       6.348   9.997 -15.610  1.00  0.00     0.006 A 
ENDBRANCH  48  62
BRANCH  49  70
ATOM     70  C   UNL     1       0.168  15.572 -10.989  1.00  0.00     0.057 A 
ATOM     71  C   UNL     1       0.072  16.596 -11.946  1.00  0.00     0.134 A 
ATOM     72  C   UNL     1      -0.956  14.737 -10.870  1.00  0.00     0.134 A 
ATOM     73  F   UNL     1       1.105  17.423 -12.164  1.00  0.00    -0.206 F 
ATOM     74  C   UNL     1      -1.056  16.753 -12.765  1.00  0.00     0.040 A 
ATOM     75  C   UNL     1      -2.089  14.885 -11.679  1.00  0.00     0.040 A 
ATOM     76  F   UNL     1      -0.955  13.689 -10.034  1.00  0.00    -0.206 F 
ATOM     77  C   UNL     1      -2.135  15.885 -12.643  1.00  0.00     0.006 A 
ENDBRANCH  49  70
BRANCH  61  78
ATOM     78  C   UNL     1       6.223  16.124  -9.312  1.00  0.00     0.057 A 
ATOM     79  C   UNL     1       5.479  16.104  -8.123  1.00  0.00     0.134 A 
ATOM     80  C   UNL     1       7.315  16.997  -9.361  1.00  0.00     0.134 A 
ATOM     81  F   UNL     1       4.464  15.246  -7.954  1.00  0.00    -0.206 F 
ATOM     82  C   UNL     1       5.803  16.925  -7.037  1.00  0.00     0.040 A 
ATOM     83  C   UNL     1       7.667  17.799  -8.273  1.00  0.00     0.040 A 
ATOM     84  F   UNL     1       8.099  17.036 -10.450  1.00  0.00    -0.206 F 
ATOM     85  C   UNL     1       6.909  17.767  -7.106  1.00  0.00     0.006 A 
ENDBRANCH  61  78
ENDBRANCH  35  36
ENDBRANCH  28  30
ENDBRANCH  27  28
ENDBRANCH  26  27
ENDBRANCH  25  26
ENDBRANCH  24  25
ENDBRANCH  23  24
ENDBRANCH   1  23
TORSDOF 19
