REMARK SMILES C[C@H](c1ccccc1Cl)N(C)c1cccc(F)c1C(=O)OCCOCCOC(=O)c1ccc(-c2c3nc(c(-c4c(F)cccc4F)c4ccc([nH]4)c(-c4c(F)cccc4F)c4nc(c(-c5c(F)cccc5F)c5ccc2[nH]5)C=C4)C=C3)cc1
REMARK SMILES IDX 23 1 22 2 21 3 19 4 20 5 18 6 12 7 13 8 14 9 16 10 15 11
REMARK SMILES IDX 17 12 10 13 11 14 2 15 1 16 3 17 4 18 8 19 5 20 7 21 9 22
REMARK SMILES IDX 6 23 24 24 25 25 26 26 27 27 28 28 29 29 30 30 31 31 83 32
REMARK SMILES IDX 32 33 82 34 33 35 34 36 35 37 76 38 36 39 81 40 75 41 77 42
REMARK SMILES IDX 37 43 80 44 74 45 73 46 38 48 64 49 47 50 63 51 48 52 51 53
REMARK SMILES IDX 62 54 78 55 49 56 50 57 61 59 79 60 52 61 39 62 40 63 45 64
REMARK SMILES IDX 41 65 42 66 44 67 46 68 43 69 65 70 66 71 71 72 67 73 68 74
REMARK SMILES IDX 70 75 72 76 69 77 53 78 54 79 59 80 55 81 56 82 58 83 60 84
REMARK SMILES IDX 57 85
REMARK H PARENT 77 47 51 58
REMARK Flexibility Score: inf
ROOT
ATOM      1  C   UNL     1      -4.837  -3.346   3.773  1.00  0.00     0.202 C 
ENDROOT
BRANCH   1   2
ATOM      2  C   UNL     1      -3.856  -2.442   4.523  1.00  0.00     0.261 C 
BRANCH   2   3
ATOM      3  O   UNL     1      -3.670  -1.213   3.805  1.00  0.00    -0.460 OA
BRANCH   3   4
ATOM      4  C   UNL     1      -2.383  -0.832   3.606  1.00  0.00     0.343 C 
ATOM      5  O   UNL     1      -1.399  -1.371   4.083  1.00  0.00    -0.246 OA
BRANCH   4   6
ATOM      6  C   UNL     1      -2.357   0.281   2.635  1.00  0.00     0.119 A 
ATOM      7  C   UNL     1      -1.501   0.287   1.509  1.00  0.00     0.055 A 
ATOM      8  C   UNL     1      -1.558   1.429   0.682  1.00  0.00     0.027 A 
ATOM      9  C   UNL     1      -2.387   2.521   0.957  1.00  0.00     0.005 A 
ATOM     10  C   UNL     1      -3.196   1.376   2.897  1.00  0.00     0.139 A 
ATOM     11  C   UNL     1      -3.214   2.491   2.067  1.00  0.00     0.040 A 
ATOM     12  F   UNL     1      -4.001   1.389   3.971  1.00  0.00    -0.206 F 
BRANCH   7  13
ATOM     13  N   UNL     1      -0.664  -0.756   1.125  1.00  0.00    -0.367 N 
ATOM     14  C   UNL     1      -1.242  -2.030   0.738  1.00  0.00     0.144 C 
BRANCH  13  15
ATOM     15  C   UNL     1       0.811  -0.686   1.254  1.00  0.00     0.110 C 
ATOM     16  C   UNL     1       1.235  -0.585   2.718  1.00  0.00     0.036 C 
BRANCH  15  17
ATOM     17  C   UNL     1       1.394   0.241   0.195  1.00  0.00    -0.007 A 
ATOM     18  C   UNL     1       1.284  -0.212  -1.146  1.00  0.00     0.007 A 
ATOM     19  C   UNL     1       1.957   1.509   0.400  1.00  0.00     0.046 A 
ATOM     20  C   UNL     1       1.698   0.563  -2.228  1.00  0.00     0.000 A 
ATOM     21  C   UNL     1       2.385   2.280  -0.694  1.00  0.00     0.021 A 
ATOM     22  Cl  UNL     1       2.123   2.263   1.942  1.00  0.00    -0.084 Cl
ATOM     23  C   UNL     1       2.251   1.813  -2.001  1.00  0.00     0.002 A 
ENDBRANCH  15  17
ENDBRANCH  13  15
ENDBRANCH   7  13
ENDBRANCH   4   6
ENDBRANCH   3   4
ENDBRANCH   2   3
ENDBRANCH   1   2
BRANCH   1  24
ATOM     24  O   UNL     1      -4.415  -3.862   2.508  1.00  0.00    -0.374 OA
BRANCH  24  25
ATOM     25  C   UNL     1      -4.313  -2.947   1.423  1.00  0.00     0.202 C 
BRANCH  25  26
ATOM     26  C   UNL     1      -5.578  -2.549   0.659  1.00  0.00     0.261 C 
BRANCH  26  27
ATOM     27  O   UNL     1      -6.652  -2.162   1.513  1.00  0.00    -0.460 OA
BRANCH  27  28
ATOM     28  C   UNL     1      -7.495  -3.178   1.806  1.00  0.00     0.338 C 
ATOM     29  O   UNL     1      -7.477  -4.319   1.366  1.00  0.00    -0.246 OA
BRANCH  28  30
ATOM     30  C   UNL     1      -8.379  -2.752   2.895  1.00  0.00     0.060 A 
ATOM     31  C   UNL     1      -8.464  -3.579   4.021  1.00  0.00     0.016 A 
ATOM     32  C   UNL     1      -9.130  -1.579   2.797  1.00  0.00     0.016 A 
ATOM     33  C   UNL     1      -9.349  -3.259   5.041  1.00  0.00     0.010 A 
ATOM     34  C   UNL     1     -10.024  -1.264   3.817  1.00  0.00     0.010 A 
ATOM     35  C   UNL     1     -10.162  -2.124   4.920  1.00  0.00    -0.014 A 
BRANCH  35  36
ATOM     36  C   UNL     1     -11.275  -1.929   5.868  1.00  0.00     0.031 A 
ATOM     37  C   UNL     1     -12.658  -2.325   5.439  1.00  0.00     0.074 A 
ATOM     38  C   UNL     1     -11.042  -1.433   7.094  1.00  0.00     0.049 A 
ATOM     39  N   UNL     1     -13.789  -2.202   6.081  1.00  0.00    -0.248 NA
ATOM     40  C   UNL     1     -12.785  -2.939   4.105  1.00  0.00     0.031 C 
ATOM     41  C   UNL     1      -9.729  -1.056   7.615  1.00  0.00     0.029 A 
ATOM     42  N   UNL     1     -11.906  -1.157   8.121  1.00  0.00    -0.354 N 
ATOM     43  C   UNL     1     -14.759  -2.714   5.230  1.00  0.00     0.074 A 
ATOM     44  C   UNL     1     -14.094  -3.122   4.014  1.00  0.00     0.031 C 
ATOM     45  C   UNL     1      -9.876  -0.589   8.866  1.00  0.00     0.029 A 
ATOM     46  C   UNL     1     -11.295  -0.601   9.216  1.00  0.00     0.049 A 
ATOM     47  H   UNL     1     -12.873  -1.340   8.076  1.00  0.00     0.167 HD
ATOM     48  C   UNL     1     -16.086  -2.840   5.456  1.00  0.00     0.037 A 
ATOM     49  C   UNL     1     -11.829  -0.136  10.361  1.00  0.00     0.037 A 
ATOM     50  C   UNL     1     -16.729  -2.442   6.678  1.00  0.00     0.049 A 
ATOM     51  C   UNL     1     -13.318  -0.234  10.562  1.00  0.00     0.074 A 
ATOM     52  C   UNL     1     -18.065  -2.549   7.019  1.00  0.00     0.029 A 
ATOM     53  N   UNL     1     -16.082  -1.858   7.757  1.00  0.00    -0.354 N 
ATOM     54  N   UNL     1     -14.227  -0.738   9.762  1.00  0.00    -0.248 NA
ATOM     55  C   UNL     1     -13.856   0.296  11.823  1.00  0.00     0.031 C 
ATOM     56  C   UNL     1     -18.236  -1.980   8.282  1.00  0.00     0.029 A 
ATOM     57  C   UNL     1     -16.997  -1.575   8.755  1.00  0.00     0.049 A 
ATOM     58  H   UNL     1     -15.116  -1.674   7.806  1.00  0.00     0.167 HD
ATOM     59  C   UNL     1     -15.438  -0.609  10.430  1.00  0.00     0.074 A 
ATOM     60  C   UNL     1     -15.146   0.008  11.707  1.00  0.00     0.031 C 
ATOM     61  C   UNL     1     -16.681  -0.969  10.024  1.00  0.00     0.037 A 
BRANCH  48  62
ATOM     62  C   UNL     1     -16.937  -3.420   4.367  1.00  0.00     0.057 A 
ATOM     63  C   UNL     1     -17.865  -2.618   3.688  1.00  0.00     0.134 A 
ATOM     64  C   UNL     1     -16.907  -4.783   4.051  1.00  0.00     0.134 A 
ATOM     65  F   UNL     1     -17.944  -1.304   3.943  1.00  0.00    -0.206 F 
ATOM     66  C   UNL     1     -18.750  -3.158   2.754  1.00  0.00     0.040 A 
ATOM     67  C   UNL     1     -17.770  -5.331   3.101  1.00  0.00     0.040 A 
ATOM     68  F   UNL     1     -16.030  -5.602   4.653  1.00  0.00    -0.206 F 
ATOM     69  C   UNL     1     -18.705  -4.519   2.459  1.00  0.00     0.006 A 
ENDBRANCH  48  62
BRANCH  49  70
ATOM     70  C   UNL     1     -10.950   0.467  11.395  1.00  0.00     0.057 A 
ATOM     71  C   UNL     1     -10.287   1.681  11.170  1.00  0.00     0.134 A 
ATOM     72  C   UNL     1     -10.740  -0.162  12.627  1.00  0.00     0.134 A 
ATOM     73  F   UNL     1     -10.443   2.333  10.008  1.00  0.00    -0.206 F 
ATOM     74  C   UNL     1      -9.435   2.238  12.124  1.00  0.00     0.040 A 
ATOM     75  C   UNL     1      -9.912   0.398  13.602  1.00  0.00     0.040 A 
ATOM     76  F   UNL     1     -11.361  -1.316  12.910  1.00  0.00    -0.206 F 
ATOM     77  C   UNL     1      -9.250   1.598  13.347  1.00  0.00     0.006 A 
ENDBRANCH  49  70
BRANCH  61  78
ATOM     78  C   UNL     1     -17.820  -0.735  10.972  1.00  0.00     0.057 A 
ATOM     79  C   UNL     1     -18.486  -1.817  11.563  1.00  0.00     0.134 A 
ATOM     80  C   UNL     1     -18.317   0.549  11.223  1.00  0.00     0.134 A 
ATOM     81  F   UNL     1     -18.069  -3.074  11.350  1.00  0.00    -0.206 F 
ATOM     82  C   UNL     1     -19.618  -1.630  12.357  1.00  0.00     0.040 A 
ATOM     83  C   UNL     1     -19.431   0.750  12.039  1.00  0.00     0.040 A 
ATOM     84  F   UNL     1     -17.720   1.627  10.692  1.00  0.00    -0.206 F 
ATOM     85  C   UNL     1     -20.092  -0.343  12.598  1.00  0.00     0.006 A 
ENDBRANCH  61  78
ENDBRANCH  35  36
ENDBRANCH  28  30
ENDBRANCH  27  28
ENDBRANCH  26  27
ENDBRANCH  25  26
ENDBRANCH  24  25
ENDBRANCH   1  24
TORSDOF 17
