REMARK SMILES O=C(OCCOCCOC(=O)c1cn(C[C@@H]2CCS(=O)(=O)C2)c(=O)[nH]c1=O)c1ccc(-c2c3nc(c(-c4c(F)cccc4F)c4ccc([nH]4)c(-c4c(F)cccc4F)c4nc(c(-c5c(F)cccc5F)c5ccc2[nH]5)C=C4)C=C3)cc1
REMARK SMILES IDX 6 1 5 2 4 3 3 4 2 5 1 6 28 7 29 8 81 9 30 10 80 11 31 12
REMARK SMILES IDX 32 13 33 14 74 15 34 16 79 17 73 18 75 19 35 20 78 21 72 22
REMARK SMILES IDX 71 23 36 25 62 26 45 27 61 28 46 29 49 30 60 31 76 32 47 33
REMARK SMILES IDX 48 34 59 36 77 37 50 38 37 39 38 40 43 41 39 42 40 43 42 44
REMARK SMILES IDX 44 45 41 46 63 47 64 48 69 49 65 50 66 51 68 52 70 53 67 54
REMARK SMILES IDX 51 55 52 56 57 57 53 58 54 59 56 60 58 61 55 62 7 63 8 64
REMARK SMILES IDX 9 65 10 66 11 67 12 68 13 69 26 70 14 71 25 72 27 73 23 74
REMARK SMILES IDX 24 76 15 77 16 78 17 79 22 80 18 81 19 82 20 83 21 84
REMARK H PARENT 75 24 49 35 25 75
REMARK Flexibility Score: inf
ROOT
ATOM      1  O   UNL     1       3.917  -1.333  -0.637  1.00  0.00    -0.374 OA
ENDROOT
BRANCH   1   2
ATOM      2  C   UNL     1       4.379  -1.300   0.713  1.00  0.00     0.202 C 
BRANCH   2   3
ATOM      3  C   UNL     1       4.227   0.064   1.385  1.00  0.00     0.261 C 
BRANCH   3   4
ATOM      4  O   UNL     1       2.864   0.505   1.358  1.00  0.00    -0.460 OA
BRANCH   4   5
ATOM      5  C   UNL     1       2.220   1.239   0.425  1.00  0.00     0.338 C 
ATOM      6  O   UNL     1       1.031   1.487   0.632  1.00  0.00    -0.246 OA
BRANCH   5   7
ATOM      7  C   UNL     1       2.815   1.754  -0.859  1.00  0.00     0.060 A 
ATOM      8  C   UNL     1       1.982   2.590  -1.630  1.00  0.00     0.016 A 
ATOM      9  C   UNL     1       4.064   1.432  -1.397  1.00  0.00     0.016 A 
ATOM     10  C   UNL     1       2.365   3.046  -2.896  1.00  0.00     0.010 A 
ATOM     11  C   UNL     1       4.454   1.875  -2.660  1.00  0.00     0.010 A 
ATOM     12  C   UNL     1       3.602   2.671  -3.420  1.00  0.00    -0.014 A 
BRANCH  12  13
ATOM     13  C   UNL     1       4.075   3.148  -4.729  1.00  0.00     0.031 A 
ATOM     14  C   UNL     1       3.999   2.260  -5.933  1.00  0.00     0.074 A 
ATOM     15  C   UNL     1       4.704   4.335  -4.767  1.00  0.00     0.049 A 
ATOM     16  N   UNL     1       4.397   2.498  -7.155  1.00  0.00    -0.248 NA
ATOM     17  C   UNL     1       3.418   0.922  -5.736  1.00  0.00     0.031 C 
ATOM     18  C   UNL     1       4.903   5.216  -3.613  1.00  0.00     0.029 A 
ATOM     19  N   UNL     1       5.332   4.981  -5.796  1.00  0.00    -0.354 N 
ATOM     20  C   UNL     1       4.105   1.348  -7.878  1.00  0.00     0.074 A 
ATOM     21  C   UNL     1       3.532   0.397  -6.950  1.00  0.00     0.031 C 
ATOM     22  C   UNL     1       5.633   6.275  -3.993  1.00  0.00     0.029 A 
ATOM     23  C   UNL     1       5.952   6.142  -5.410  1.00  0.00     0.049 A 
ATOM     24  H   UNL     1       5.338   4.646  -6.722  1.00  0.00     0.167 HD
ATOM     25  C   UNL     1       4.295   1.124  -9.200  1.00  0.00     0.037 A 
ATOM     26  C   UNL     1       6.703   6.996  -6.127  1.00  0.00     0.037 A 
ATOM     27  C   UNL     1       4.894   2.085 -10.091  1.00  0.00     0.049 A 
ATOM     28  C   UNL     1       6.894   6.724  -7.591  1.00  0.00     0.074 A 
ATOM     29  C   UNL     1       5.048   2.015 -11.464  1.00  0.00     0.029 A 
ATOM     30  N   UNL     1       5.467   3.282  -9.684  1.00  0.00    -0.354 N 
ATOM     31  N   UNL     1       6.473   5.706  -8.302  1.00  0.00    -0.248 NA
ATOM     32  C   UNL     1       7.642   7.728  -8.357  1.00  0.00     0.031 C 
ATOM     33  C   UNL     1       5.757   3.147 -11.881  1.00  0.00     0.029 A 
ATOM     34  C   UNL     1       6.004   3.945 -10.774  1.00  0.00     0.049 A 
ATOM     35  H   UNL     1       5.487   3.612  -8.756  1.00  0.00     0.167 HD
ATOM     36  C   UNL     1       6.875   5.960  -9.604  1.00  0.00     0.074 A 
ATOM     37  C   UNL     1       7.566   7.234  -9.584  1.00  0.00     0.031 C 
ATOM     38  C   UNL     1       6.686   5.213 -10.719  1.00  0.00     0.037 A 
BRANCH  25  39
ATOM     39  C   UNL     1       3.852  -0.194  -9.766  1.00  0.00     0.057 A 
ATOM     40  C   UNL     1       4.785  -1.123 -10.243  1.00  0.00     0.134 A 
ATOM     41  C   UNL     1       2.495  -0.514  -9.908  1.00  0.00     0.134 A 
ATOM     42  F   UNL     1       6.100  -0.878 -10.148  1.00  0.00    -0.206 F 
ATOM     43  C   UNL     1       4.385  -2.317 -10.848  1.00  0.00     0.040 A 
ATOM     44  C   UNL     1       2.083  -1.715 -10.492  1.00  0.00     0.040 A 
ATOM     45  F   UNL     1       1.547   0.328  -9.469  1.00  0.00    -0.206 F 
ATOM     46  C   UNL     1       3.030  -2.617 -10.972  1.00  0.00     0.006 A 
ENDBRANCH  25  39
BRANCH  26  47
ATOM     47  C   UNL     1       7.284   8.195  -5.479  1.00  0.00     0.057 A 
ATOM     48  C   UNL     1       8.342   8.093  -4.568  1.00  0.00     0.134 A 
ATOM     49  C   UNL     1       6.780   9.472  -5.745  1.00  0.00     0.134 A 
ATOM     50  F   UNL     1       8.857   6.894  -4.258  1.00  0.00    -0.206 F 
ATOM     51  C   UNL     1       8.880   9.221  -3.946  1.00  0.00     0.040 A 
ATOM     52  C   UNL     1       7.323  10.611  -5.147  1.00  0.00     0.040 A 
ATOM     53  F   UNL     1       5.771   9.632  -6.614  1.00  0.00    -0.206 F 
ATOM     54  C   UNL     1       8.375  10.485  -4.242  1.00  0.00     0.006 A 
ENDBRANCH  26  47
BRANCH  38  55
ATOM     55  C   UNL     1       7.210   5.779 -12.004  1.00  0.00     0.057 A 
ATOM     56  C   UNL     1       6.330   6.287 -12.967  1.00  0.00     0.134 A 
ATOM     57  C   UNL     1       8.579   5.800 -12.294  1.00  0.00     0.134 A 
ATOM     58  F   UNL     1       5.006   6.288 -12.749  1.00  0.00    -0.206 F 
ATOM     59  C   UNL     1       6.795   6.798 -14.178  1.00  0.00     0.040 A 
ATOM     60  C   UNL     1       9.058   6.332 -13.492  1.00  0.00     0.040 A 
ATOM     61  F   UNL     1       9.471   5.343 -11.403  1.00  0.00    -0.206 F 
ATOM     62  C   UNL     1       8.164   6.827 -14.440  1.00  0.00     0.006 A 
ENDBRANCH  38  55
ENDBRANCH  12  13
ENDBRANCH   5   7
ENDBRANCH   4   5
ENDBRANCH   3   4
ENDBRANCH   2   3
ENDBRANCH   1   2
BRANCH   1  63
ATOM     63  C   UNL     1       2.612  -1.882  -0.833  1.00  0.00     0.202 C 
BRANCH  63  64
ATOM     64  C   UNL     1       2.710  -3.253  -1.505  1.00  0.00     0.261 C 
BRANCH  64  65
ATOM     65  O   UNL     1       3.323  -4.173  -0.587  1.00  0.00    -0.459 OA
BRANCH  65  66
ATOM     66  C   UNL     1       4.677  -4.302  -0.697  1.00  0.00     0.345 C 
ATOM     67  O   UNL     1       5.352  -3.988  -1.661  1.00  0.00    -0.246 OA
BRANCH  66  68
ATOM     68  C   UNL     1       5.192  -4.719   0.621  1.00  0.00     0.141 A 
ATOM     69  C   UNL     1       4.531  -5.637   1.342  1.00  0.00     0.112 A 
ATOM     70  C   UNL     1       6.386  -4.099   1.228  1.00  0.00     0.268 A 
ATOM     71  N   UNL     1       4.904  -5.986   2.627  1.00  0.00    -0.299 N 
ATOM     72  N   UNL     1       6.589  -4.377   2.553  1.00  0.00    -0.273 N 
ATOM     73  O   UNL     1       7.122  -3.312   0.644  1.00  0.00    -0.268 OA
ATOM     74  C   UNL     1       5.898  -5.286   3.304  1.00  0.00     0.328 A 
ATOM     75  H   UNL     1       7.302  -3.874   3.009  1.00  0.00     0.175 HD
ATOM     76  O   UNL     1       6.199  -5.482   4.478  1.00  0.00    -0.248 OA
BRANCH  71  77
ATOM     77  C   UNL     1       4.204  -7.068   3.310  1.00  0.00     0.131 C 
BRANCH  77  78
ATOM     78  C   UNL     1       4.842  -8.469   3.177  1.00  0.00     0.025 C 
ATOM     79  C   UNL     1       6.223  -8.638   3.835  1.00  0.00     0.022 C 
ATOM     80  C   UNL     1       4.982  -8.983   1.740  1.00  0.00     0.142 C 
ATOM     81  C   UNL     1       7.312  -8.264   2.837  1.00  0.00     0.137 C 
ATOM     82  S   UNL     1       6.670  -8.688   1.234  1.00  0.00     0.150 S 
ATOM     83  O   UNL     1       6.705  -7.512   0.390  1.00  0.00    -0.229 OA
ATOM     84  O   UNL     1       7.248  -9.948   0.819  1.00  0.00    -0.229 OA
ENDBRANCH  77  78
ENDBRANCH  71  77
ENDBRANCH  66  68
ENDBRANCH  65  66
ENDBRANCH  64  65
ENDBRANCH  63  64
ENDBRANCH   1  63
TORSDOF 16
