REMARK SMILES Cc1ccc(C(=O)N2CCC3(CCC(=O)N(CC(=O)OCCOCCOC(=O)c4ccc(-c5c6nc(c(-c7c(F)cccc7F)c7ccc([nH]7)c(-c7c(F)cccc7F)c7nc(c(-c8c(F)cccc8F)c8ccc5[nH]8)C=C7)C=C6)cc4)C3)CC2)cc1O
REMARK SMILES IDX 22 1 21 2 20 3 18 4 19 5 17 6 16 7 6 8 7 9 8 10 9 11 85 12
REMARK SMILES IDX 10 13 84 14 11 15 12 16 83 17 13 18 14 19 15 20 5 21 1 22
REMARK SMILES IDX 2 23 3 24 87 25 4 26 86 27 88 28 23 30 24 31 25 32 26 33
REMARK SMILES IDX 27 34 28 35 29 36 30 37 82 38 31 39 81 40 32 41 33 42 34 43
REMARK SMILES IDX 75 44 35 45 80 46 74 47 76 48 36 49 79 50 73 51 72 52 37 54
REMARK SMILES IDX 63 55 46 56 62 57 47 58 50 59 61 60 77 61 48 62 49 63 60 65
REMARK SMILES IDX 78 66 51 67 38 68 39 69 44 70 40 71 41 72 43 73 45 74 42 75
REMARK SMILES IDX 64 76 65 77 70 78 66 79 67 80 69 81 71 82 68 83 52 84 53 85
REMARK SMILES IDX 58 86 54 87 55 88 57 89 59 90 56 91
REMARK H PARENT 88 29 76 53 50 64
REMARK Flexibility Score: inf
ROOT
ATOM      1  C   UNL     1      11.058  -5.006   4.972  1.00  0.00     0.202 C 
ENDROOT
BRANCH   1   2
ATOM      2  C   UNL     1       9.533  -5.114   4.860  1.00  0.00     0.261 C 
BRANCH   2   3
ATOM      3  O   UNL     1       8.961  -4.185   3.920  1.00  0.00    -0.462 OA
BRANCH   3   4
ATOM      4  C   UNL     1       8.059  -3.312   4.439  1.00  0.00     0.325 C 
ATOM      5  O   UNL     1       7.675  -3.312   5.606  1.00  0.00    -0.250 OA
BRANCH   4   6
ATOM      6  C   UNL     1       7.644  -2.197   3.482  1.00  0.00     0.242 C 
BRANCH   6   7
ATOM      7  N   UNL     1       7.831  -2.335   2.036  1.00  0.00    -0.331 N 
ATOM      8  C   UNL     1       2.849   1.502   0.293  1.00  0.00     0.253 C 
ATOM      9  O   UNL     1       2.716   2.639   0.742  1.00  0.00    -0.269 OA
ATOM     10  N   UNL     1       4.090   0.885   0.204  1.00  0.00    -0.339 N 
ATOM     11  C   UNL     1       5.101   1.235   1.181  1.00  0.00     0.120 C 
ATOM     12  C   UNL     1       4.553   0.125  -0.950  1.00  0.00     0.120 C 
ATOM     13  C   UNL     1       5.718  -0.052   1.724  1.00  0.00     0.030 C 
ATOM     14  C   UNL     1       5.261  -1.158  -0.518  1.00  0.00     0.030 C 
ATOM     15  C   UNL     1       6.313  -0.953   0.607  1.00  0.00    -0.008 C 
ATOM     16  C   UNL     1       7.605  -0.322   0.014  1.00  0.00     0.019 C 
ATOM     17  C   UNL     1       6.662  -2.356   1.179  1.00  0.00     0.127 C 
ATOM     18  C   UNL     1       8.781  -0.385   0.983  1.00  0.00     0.101 C 
ATOM     19  C   UNL     1       8.967  -1.811   1.441  1.00  0.00     0.223 C 
ATOM     20  O   UNL     1       9.998  -2.436   1.251  1.00  0.00    -0.275 OA
BRANCH   8  21
ATOM     21  C   UNL     1       1.627   0.696   0.010  1.00  0.00     0.043 A 
ATOM     22  C   UNL     1      -2.062  -1.555  -0.134  1.00  0.00     0.048 C 
ATOM     23  C   UNL     1      -0.791  -0.756  -0.128  1.00  0.00    -0.009 A 
ATOM     24  C   UNL     1       0.426  -1.416   0.076  1.00  0.00     0.008 A 
ATOM     25  C   UNL     1      -0.776   0.639  -0.259  1.00  0.00     0.119 A 
ATOM     26  C   UNL     1       1.619  -0.695   0.165  1.00  0.00     0.014 A 
ATOM     27  C   UNL     1       0.417   1.360  -0.206  1.00  0.00     0.060 A 
BRANCH  25  28
ATOM     28  O   UNL     1      -1.917   1.376  -0.408  1.00  0.00    -0.508 OA
ATOM     29  H   UNL     1      -2.749   0.948  -0.451  1.00  0.00     0.293 HD
ENDBRANCH  25  28
ENDBRANCH   8  21
ENDBRANCH   6   7
ENDBRANCH   4   6
ENDBRANCH   3   4
ENDBRANCH   2   3
ENDBRANCH   1   2
BRANCH   1  30
ATOM     30  O   UNL     1      11.569  -3.741   5.393  1.00  0.00    -0.374 OA
BRANCH  30  31
ATOM     31  C   UNL     1      11.545  -2.671   4.442  1.00  0.00     0.202 C 
BRANCH  31  32
ATOM     32  C   UNL     1      12.389  -2.884   3.185  1.00  0.00     0.261 C 
BRANCH  32  33
ATOM     33  O   UNL     1      11.839  -3.954   2.406  1.00  0.00    -0.460 OA
BRANCH  33  34
ATOM     34  C   UNL     1      12.662  -4.474   1.482  1.00  0.00     0.338 C 
ATOM     35  O   UNL     1      13.797  -4.118   1.202  1.00  0.00    -0.246 OA
BRANCH  34  36
ATOM     36  C   UNL     1      12.030  -5.679   0.925  1.00  0.00     0.060 A 
ATOM     37  C   UNL     1      12.376  -6.923   1.462  1.00  0.00     0.016 A 
ATOM     38  C   UNL     1      11.208  -5.588  -0.199  1.00  0.00     0.016 A 
ATOM     39  C   UNL     1      11.954  -8.092   0.827  1.00  0.00     0.010 A 
ATOM     40  C   UNL     1      10.786  -6.761  -0.834  1.00  0.00     0.010 A 
ATOM     41  C   UNL     1      11.197  -8.018  -0.351  1.00  0.00    -0.014 A 
BRANCH  41  42
ATOM     42  C   UNL     1      10.977  -9.238  -1.168  1.00  0.00     0.031 A 
ATOM     43  C   UNL     1      11.879  -9.500  -2.345  1.00  0.00     0.074 A 
ATOM     44  C   UNL     1      10.007 -10.117  -0.862  1.00  0.00     0.049 A 
ATOM     45  N   UNL     1      11.845 -10.476  -3.216  1.00  0.00    -0.248 NA
ATOM     46  C   UNL     1      12.966  -8.532  -2.568  1.00  0.00     0.031 C 
ATOM     47  C   UNL     1       9.091 -10.006   0.271  1.00  0.00     0.029 A 
ATOM     48  N   UNL     1       9.628 -11.278  -1.490  1.00  0.00    -0.354 N 
ATOM     49  C   UNL     1      12.898 -10.239  -4.090  1.00  0.00     0.074 A 
ATOM     50  C   UNL     1      13.540  -9.016  -3.660  1.00  0.00     0.031 C 
ATOM     51  C   UNL     1       8.246 -11.051   0.250  1.00  0.00     0.029 A 
ATOM     52  C   UNL     1       8.543 -11.888  -0.912  1.00  0.00     0.049 A 
ATOM     53  H   UNL     1      10.091 -11.638  -2.281  1.00  0.00     0.167 HD
ATOM     54  C   UNL     1      13.301 -10.976  -5.152  1.00  0.00     0.037 A 
ATOM     55  C   UNL     1       7.856 -12.984  -1.288  1.00  0.00     0.037 A 
ATOM     56  C   UNL     1      12.673 -12.196  -5.585  1.00  0.00     0.049 A 
ATOM     57  C   UNL     1       8.281 -13.751  -2.513  1.00  0.00     0.074 A 
ATOM     58  C   UNL     1      13.023 -13.018  -6.643  1.00  0.00     0.029 A 
ATOM     59  N   UNL     1      11.562 -12.766  -4.985  1.00  0.00    -0.354 N 
ATOM     60  N   UNL     1       9.290 -13.527  -3.319  1.00  0.00    -0.248 NA
ATOM     61  C   UNL     1       7.471 -14.922  -2.880  1.00  0.00     0.031 C 
ATOM     62  C   UNL     1      12.101 -14.067  -6.705  1.00  0.00     0.029 A 
ATOM     63  C   UNL     1      11.200 -13.918  -5.663  1.00  0.00     0.049 A 
ATOM     64  H   UNL     1      11.098 -12.405  -4.195  1.00  0.00     0.167 HD
ATOM     65  C   UNL     1       9.254 -14.543  -4.267  1.00  0.00     0.074 A 
ATOM     66  C   UNL     1       8.124 -15.386  -3.937  1.00  0.00     0.031 C 
ATOM     67  C   UNL     1      10.086 -14.759  -5.314  1.00  0.00     0.037 A 
BRANCH  54  68
ATOM     68  C   UNL     1      14.473 -10.473  -5.937  1.00  0.00     0.057 A 
ATOM     69  C   UNL     1      15.784 -10.588  -5.458  1.00  0.00     0.134 A 
ATOM     70  C   UNL     1      14.292  -9.908  -7.206  1.00  0.00     0.134 A 
ATOM     71  F   UNL     1      16.021 -11.109  -4.245  1.00  0.00    -0.206 F 
ATOM     72  C   UNL     1      16.874 -10.146  -6.209  1.00  0.00     0.040 A 
ATOM     73  C   UNL     1      15.375  -9.481  -7.974  1.00  0.00     0.040 A 
ATOM     74  F   UNL     1      13.061  -9.775  -7.723  1.00  0.00    -0.206 F 
ATOM     75  C   UNL     1      16.671  -9.596  -7.474  1.00  0.00     0.006 A 
ENDBRANCH  54  68
BRANCH  55  76
ATOM     76  C   UNL     1       6.674 -13.422  -0.506  1.00  0.00     0.057 A 
ATOM     77  C   UNL     1       6.707 -14.586   0.269  1.00  0.00     0.134 A 
ATOM     78  C   UNL     1       5.477 -12.697  -0.534  1.00  0.00     0.134 A 
ATOM     79  F   UNL     1       7.818 -15.336   0.314  1.00  0.00    -0.206 F 
ATOM     80  C   UNL     1       5.587 -15.023   0.978  1.00  0.00     0.040 A 
ATOM     81  C   UNL     1       4.356 -13.110   0.186  1.00  0.00     0.040 A 
ATOM     82  F   UNL     1       5.382 -11.574  -1.261  1.00  0.00    -0.206 F 
ATOM     83  C   UNL     1       4.408 -14.281   0.941  1.00  0.00     0.006 A 
ENDBRANCH  55  76
BRANCH  67  84
ATOM     84  C   UNL     1       9.840 -15.973  -6.158  1.00  0.00     0.057 A 
ATOM     85  C   UNL     1       8.805 -16.021  -7.098  1.00  0.00     0.134 A 
ATOM     86  C   UNL     1      10.692 -17.082  -6.073  1.00  0.00     0.134 A 
ATOM     87  F   UNL     1       7.949 -14.996  -7.220  1.00  0.00    -0.206 F 
ATOM     88  C   UNL     1       8.618 -17.136  -7.918  1.00  0.00     0.040 A 
ATOM     89  C   UNL     1      10.528 -18.193  -6.900  1.00  0.00     0.040 A 
ATOM     90  F   UNL     1      11.709 -17.094  -5.197  1.00  0.00    -0.206 F 
ATOM     91  C   UNL     1       9.487 -18.222  -7.826  1.00  0.00     0.006 A 
ENDBRANCH  67  84
ENDBRANCH  41  42
ENDBRANCH  34  36
ENDBRANCH  33  34
ENDBRANCH  32  33
ENDBRANCH  31  32
ENDBRANCH  30  31
ENDBRANCH   1  30
TORSDOF 17
