REMARK SMILES Nn1c(S[C@@H](C(=O)OCCOCCOC(=O)c2ccc(-c3c4nc(c(-c5c(F)cccc5F)c5ccc([nH]5)c(-c5c(F)cccc5F)c5nc(c(-c6c(F)cccc6F)c6ccc3[nH]6)C=C5)C=C4)cc2)c2ccccc2)nc2ccc(Br)cc2c1=O
REMARK SMILES IDX 10 1 9 2 8 3 6 4 7 5 5 6 4 7 3 8 2 9 85 10 77 11 84 12 86 13
REMARK SMILES IDX 78 14 83 15 79 16 81 17 80 18 82 19 1 20 71 23 72 24 76 25
REMARK SMILES IDX 73 26 75 27 74 28 11 29 12 30 13 31 14 32 15 33 16 34 17 35
REMARK SMILES IDX 18 36 70 37 19 38 69 39 20 40 21 41 22 42 63 43 23 44 68 45
REMARK SMILES IDX 62 46 64 47 24 48 67 49 61 50 60 51 25 53 51 54 34 55 50 56
REMARK SMILES IDX 35 57 38 58 49 59 65 60 36 61 37 62 48 64 66 65 39 66 26 67
REMARK SMILES IDX 27 68 32 69 28 70 29 71 31 72 33 73 30 74 52 75 53 76 58 77
REMARK SMILES IDX 54 78 55 79 57 80 59 81 56 82 40 83 41 84 46 85 42 86 43 87
REMARK SMILES IDX 45 88 47 89 44 90
REMARK H PARENT 1 21 1 22 64 52 38 63
REMARK Flexibility Score: inf
ROOT
ATOM      1  C   UNL     1       4.812  -1.789  -0.744  1.00  0.00     0.202 C 
ENDROOT
BRANCH   1   2
ATOM      2  C   UNL     1       4.681  -0.296  -0.443  1.00  0.00     0.261 C 
BRANCH   2   3
ATOM      3  O   UNL     1       3.628   0.001   0.507  1.00  0.00    -0.462 OA
BRANCH   3   4
ATOM      4  C   UNL     1       2.885   1.115   0.220  1.00  0.00     0.324 C 
ATOM      5  O   UNL     1       3.004   1.722  -0.843  1.00  0.00    -0.251 OA
BRANCH   4   6
ATOM      6  C   UNL     1       2.034   1.643   1.405  1.00  0.00     0.194 C 
BRANCH   6   7
ATOM      7  S   UNL     1       1.446   0.406   2.552  1.00  0.00    -0.066 SA
BRANCH   7   8
ATOM      8  C   UNL     1       0.086  -0.531   1.987  1.00  0.00     0.191 A 
ATOM      9  N   UNL     1      -0.402  -0.587   0.676  1.00  0.00    -0.202 N 
ATOM     10  C   UNL     1      -1.469  -1.429   0.329  1.00  0.00     0.280 A 
ATOM     11  N   UNL     1      -0.430  -1.246   2.940  1.00  0.00    -0.222 NA
ATOM     12  C   UNL     1      -1.993  -2.301   1.388  1.00  0.00     0.069 A 
ATOM     13  O   UNL     1      -1.922  -1.495  -0.814  1.00  0.00    -0.267 OA
ATOM     14  C   UNL     1      -1.449  -2.158   2.660  1.00  0.00     0.079 A 
ATOM     15  C   UNL     1      -2.956  -3.279   1.113  1.00  0.00     0.031 A 
ATOM     16  C   UNL     1      -1.897  -2.999   3.682  1.00  0.00     0.030 A 
ATOM     17  C   UNL     1      -3.382  -4.116   2.140  1.00  0.00     0.018 A 
ATOM     18  C   UNL     1      -2.862  -3.978   3.427  1.00  0.00     0.018 A 
ATOM     19  Br  UNL     1      -4.659  -5.463   1.786  1.00  0.00    -0.051 Br
BRANCH   9  20
ATOM     20  N   UNL     1       0.232   0.045  -0.438  1.00  0.00    -0.334 N 
ATOM     21  H   UNL     1       0.991   0.655  -0.292  1.00  0.00     0.178 HD
ATOM     22  H   UNL     1      -0.090  -0.129  -1.352  1.00  0.00     0.178 HD
ENDBRANCH   9  20
ENDBRANCH   7   8
ENDBRANCH   6   7
BRANCH   6  23
ATOM     23  C   UNL     1       1.097   2.795   1.006  1.00  0.00    -0.023 A 
ATOM     24  C   UNL     1      -0.304   2.722   1.008  1.00  0.00     0.005 A 
ATOM     25  C   UNL     1       1.681   3.950   0.449  1.00  0.00     0.005 A 
ATOM     26  C   UNL     1      -1.065   3.620   0.256  1.00  0.00     0.000 A 
ATOM     27  C   UNL     1       0.916   4.878  -0.255  1.00  0.00     0.000 A 
ATOM     28  C   UNL     1      -0.451   4.680  -0.401  1.00  0.00     0.000 A 
ENDBRANCH   6  23
ENDBRANCH   4   6
ENDBRANCH   3   4
ENDBRANCH   2   3
ENDBRANCH   1   2
BRANCH   1  29
ATOM     29  O   UNL     1       3.891  -2.354  -1.673  1.00  0.00    -0.374 OA
BRANCH  29  30
ATOM     30  C   UNL     1       2.503  -2.155  -1.448  1.00  0.00     0.202 C 
BRANCH  30  31
ATOM     31  C   UNL     1       1.909  -2.696  -0.144  1.00  0.00     0.261 C 
BRANCH  31  32
ATOM     32  O   UNL     1       2.790  -3.423   0.687  1.00  0.00    -0.460 OA
BRANCH  32  33
ATOM     33  C   UNL     1       3.031  -4.695   0.334  1.00  0.00     0.338 C 
ATOM     34  O   UNL     1       2.487  -5.364  -0.523  1.00  0.00    -0.246 OA
BRANCH  33  35
ATOM     35  C   UNL     1       4.242  -5.029   1.091  1.00  0.00     0.060 A 
ATOM     36  C   UNL     1       4.282  -4.830   2.478  1.00  0.00     0.016 A 
ATOM     37  C   UNL     1       5.380  -5.395   0.372  1.00  0.00     0.016 A 
ATOM     38  C   UNL     1       5.477  -5.026   3.156  1.00  0.00     0.010 A 
ATOM     39  C   UNL     1       6.570  -5.608   1.056  1.00  0.00     0.010 A 
ATOM     40  C   UNL     1       6.615  -5.448   2.450  1.00  0.00    -0.014 A 
BRANCH  40  41
ATOM     41  C   UNL     1       7.808  -5.902   3.188  1.00  0.00     0.031 A 
ATOM     42  C   UNL     1       9.067  -5.101   3.210  1.00  0.00     0.074 A 
ATOM     43  C   UNL     1       7.729  -7.106   3.782  1.00  0.00     0.049 A 
ATOM     44  N   UNL     1      10.210  -5.386   3.777  1.00  0.00    -0.248 NA
ATOM     45  C   UNL     1       9.050  -3.818   2.491  1.00  0.00     0.031 C 
ATOM     46  C   UNL     1       6.543  -7.970   3.774  1.00  0.00     0.029 A 
ATOM     47  N   UNL     1       8.655  -7.819   4.490  1.00  0.00    -0.354 N 
ATOM     48  C   UNL     1      11.051  -4.320   3.492  1.00  0.00     0.074 A 
ATOM     49  C   UNL     1      10.296  -3.398   2.667  1.00  0.00     0.031 C 
ATOM     50  C   UNL     1       6.812  -9.091   4.456  1.00  0.00     0.029 A 
ATOM     51  C   UNL     1       8.194  -9.041   4.910  1.00  0.00     0.049 A 
ATOM     52  H   UNL     1       9.563  -7.487   4.680  1.00  0.00     0.167 HD
ATOM     53  C   UNL     1      12.332  -4.135   3.894  1.00  0.00     0.037 A 
ATOM     54  C   UNL     1       8.829 -10.020   5.575  1.00  0.00     0.037 A 
ATOM     55  C   UNL     1      13.067  -5.087   4.690  1.00  0.00     0.049 A 
ATOM     56  C   UNL     1      10.261  -9.803   5.966  1.00  0.00     0.074 A 
ATOM     57  C   UNL     1      14.358  -4.992   5.181  1.00  0.00     0.029 A 
ATOM     58  N   UNL     1      12.578  -6.322   5.096  1.00  0.00    -0.354 N 
ATOM     59  N   UNL     1      11.027  -8.760   5.754  1.00  0.00    -0.248 NA
ATOM     60  C   UNL     1      10.914 -10.897   6.693  1.00  0.00     0.031 C 
ATOM     61  C   UNL     1      14.666  -6.191   5.837  1.00  0.00     0.029 A 
ATOM     62  C   UNL     1      13.550  -7.011   5.805  1.00  0.00     0.049 A 
ATOM     63  H   UNL     1      11.672  -6.660   4.907  1.00  0.00     0.167 HD
ATOM     64  C   UNL     1      12.248  -9.062   6.339  1.00  0.00     0.074 A 
ATOM     65  C   UNL     1      12.106 -10.376   6.938  1.00  0.00     0.031 C 
ATOM     66  C   UNL     1      13.385  -8.324   6.378  1.00  0.00     0.037 A 
BRANCH  53  67
ATOM     67  C   UNL     1      13.016  -2.869   3.463  1.00  0.00     0.057 A 
ATOM     68  C   UNL     1      14.076  -2.900   2.548  1.00  0.00     0.134 A 
ATOM     69  C   UNL     1      12.642  -1.617   3.971  1.00  0.00     0.134 A 
ATOM     70  F   UNL     1      14.492  -4.063   2.026  1.00  0.00    -0.206 F 
ATOM     71  C   UNL     1      14.735  -1.734   2.151  1.00  0.00     0.040 A 
ATOM     72  C   UNL     1      13.276  -0.441   3.562  1.00  0.00     0.040 A 
ATOM     73  F   UNL     1      11.629  -1.512   4.844  1.00  0.00    -0.206 F 
ATOM     74  C   UNL     1      14.330  -0.499   2.653  1.00  0.00     0.006 A 
ENDBRANCH  53  67
BRANCH  54  75
ATOM     75  C   UNL     1       8.115 -11.273   5.918  1.00  0.00     0.057 A 
ATOM     76  C   UNL     1       7.726 -12.188   4.932  1.00  0.00     0.134 A 
ATOM     77  C   UNL     1       7.807 -11.585   7.246  1.00  0.00     0.134 A 
ATOM     78  F   UNL     1       7.977 -11.938   3.638  1.00  0.00    -0.206 F 
ATOM     79  C   UNL     1       7.056 -13.368   5.255  1.00  0.00     0.040 A 
ATOM     80  C   UNL     1       7.164 -12.775   7.586  1.00  0.00     0.040 A 
ATOM     81  F   UNL     1       8.162 -10.751   8.235  1.00  0.00    -0.206 F 
ATOM     82  C   UNL     1       6.783 -13.669   6.587  1.00  0.00     0.006 A 
ENDBRANCH  54  75
BRANCH  66  83
ATOM     83  C   UNL     1      14.545  -8.929   7.114  1.00  0.00     0.057 A 
ATOM     84  C   UNL     1      14.957  -8.408   8.346  1.00  0.00     0.134 A 
ATOM     85  C   UNL     1      15.244 -10.035   6.611  1.00  0.00     0.134 A 
ATOM     86  F   UNL     1      14.334  -7.346   8.880  1.00  0.00    -0.206 F 
ATOM     87  C   UNL     1      16.019  -8.968   9.056  1.00  0.00     0.040 A 
ATOM     88  C   UNL     1      16.287 -10.624   7.327  1.00  0.00     0.040 A 
ATOM     89  F   UNL     1      14.885 -10.594   5.446  1.00  0.00    -0.206 F 
ATOM     90  C   UNL     1      16.679 -10.087   8.552  1.00  0.00     0.006 A 
ENDBRANCH  66  83
ENDBRANCH  40  41
ENDBRANCH  33  35
ENDBRANCH  32  33
ENDBRANCH  31  32
ENDBRANCH  30  31
ENDBRANCH  29  30
ENDBRANCH   1  29
TORSDOF 18
