REMARK SMILES CC[C@](C)(NS(=O)(=O)c1ccc(OC)c(F)c1)C(=O)OCCOCCOC(=O)c1ccc(-c2c3nc(c(-c4c(F)cccc4F)c4ccc([nH]4)c(-c4c(F)cccc4F)c4nc(c(-c5c(F)cccc5F)c5ccc2[nH]5)C=C4)C=C3)cc1
REMARK SMILES IDX 22 1 21 2 20 3 18 4 19 5 3 6 4 7 2 8 1 9 5 10 6 12 7 13 8 14
REMARK SMILES IDX 9 15 10 16 17 17 11 18 15 19 12 20 16 21 13 22 14 23 23 24
REMARK SMILES IDX 24 25 25 26 26 27 27 28 28 29 29 30 30 31 82 32 31 33 81 34
REMARK SMILES IDX 32 35 33 36 34 37 75 38 35 39 80 40 74 41 76 42 36 43 79 44
REMARK SMILES IDX 73 45 72 46 37 48 63 49 46 50 62 51 47 52 50 53 61 54 77 55
REMARK SMILES IDX 48 56 49 57 60 59 78 60 51 61 38 62 39 63 44 64 40 65 41 66
REMARK SMILES IDX 43 67 45 68 42 69 64 70 65 71 70 72 66 73 67 74 69 75 71 76
REMARK SMILES IDX 68 77 52 78 53 79 58 80 54 81 55 82 57 83 59 84 56 85
REMARK H PARENT 5 11 76 47 50 58
REMARK Flexibility Score: inf
ROOT
ATOM      1  C   UNL     1       5.108  -2.026   1.328  1.00  0.00     0.202 C 
ENDROOT
BRANCH   1   2
ATOM      2  C   UNL     1       4.477  -0.624   1.413  1.00  0.00     0.261 C 
BRANCH   2   3
ATOM      3  O   UNL     1       3.246  -0.692   2.147  1.00  0.00    -0.462 OA
BRANCH   3   4
ATOM      4  C   UNL     1       2.251   0.157   1.782  1.00  0.00     0.327 C 
ATOM      5  O   UNL     1       2.411   1.120   1.041  1.00  0.00    -0.250 OA
BRANCH   4   6
ATOM      6  C   UNL     1       0.879  -0.360   2.259  1.00  0.00     0.127 C 
ATOM      7  C   UNL     1       0.366  -1.217   1.069  1.00  0.00     0.042 C 
BRANCH   6   8
ATOM      8  C   UNL     1      -0.072   0.834   2.478  1.00  0.00     0.032 C 
ATOM      9  C   UNL     1      -1.490   0.461   2.909  1.00  0.00     0.006 C 
ENDBRANCH   6   8
BRANCH   6  10
ATOM     10  N   UNL     1       0.916  -1.257   3.451  1.00  0.00    -0.194 NA
ATOM     11  H   UNL     1       1.614  -1.966   3.226  1.00  0.00     0.142 HD
BRANCH  10  12
ATOM     12  S   UNL     1       1.244  -0.814   5.037  1.00  0.00     0.241 S 
ATOM     13  O   UNL     1       0.657   0.469   5.319  1.00  0.00    -0.207 OA
ATOM     14  O   UNL     1       0.903  -1.987   5.820  1.00  0.00    -0.207 OA
BRANCH  12  15
ATOM     15  C   UNL     1       3.001  -0.654   5.120  1.00  0.00     0.085 A 
ATOM     16  C   UNL     1       3.636   0.560   5.368  1.00  0.00     0.026 A 
ATOM     17  C   UNL     1       3.753  -1.788   4.884  1.00  0.00     0.065 A 
ATOM     18  C   UNL     1       5.039   0.636   5.292  1.00  0.00     0.051 A 
ATOM     19  C   UNL     1       5.131  -1.680   4.752  1.00  0.00     0.166 A 
ATOM     20  C   UNL     1       5.801  -0.481   4.939  1.00  0.00     0.154 A 
ATOM     21  F   UNL     1       5.793  -2.751   4.310  1.00  0.00    -0.203 F 
BRANCH  20  22
ATOM     22  O   UNL     1       7.142  -0.271   4.766  1.00  0.00    -0.494 OA
ATOM     23  C   UNL     1       7.926  -1.362   4.280  1.00  0.00     0.278 C 
ENDBRANCH  20  22
ENDBRANCH  12  15
ENDBRANCH  10  12
ENDBRANCH   6  10
ENDBRANCH   4   6
ENDBRANCH   3   4
ENDBRANCH   2   3
ENDBRANCH   1   2
BRANCH   1  24
ATOM     24  O   UNL     1       4.269  -3.032   0.754  1.00  0.00    -0.374 OA
BRANCH  24  25
ATOM     25  C   UNL     1       3.284  -3.612   1.625  1.00  0.00     0.202 C 
BRANCH  25  26
ATOM     26  C   UNL     1       3.707  -4.911   2.344  1.00  0.00     0.261 C 
BRANCH  26  27
ATOM     27  O   UNL     1       3.901  -4.678   3.765  1.00  0.00    -0.460 OA
BRANCH  27  28
ATOM     28  C   UNL     1       4.779  -5.484   4.420  1.00  0.00     0.338 C 
ATOM     29  O   UNL     1       5.373  -6.436   3.944  1.00  0.00    -0.246 OA
BRANCH  28  30
ATOM     30  C   UNL     1       5.087  -4.921   5.771  1.00  0.00     0.060 A 
ATOM     31  C   UNL     1       6.413  -4.531   6.009  1.00  0.00     0.016 A 
ATOM     32  C   UNL     1       4.121  -4.670   6.754  1.00  0.00     0.016 A 
ATOM     33  C   UNL     1       6.754  -3.812   7.161  1.00  0.00     0.010 A 
ATOM     34  C   UNL     1       4.484  -4.016   7.955  1.00  0.00     0.010 A 
ATOM     35  C   UNL     1       5.804  -3.571   8.165  1.00  0.00    -0.014 A 
BRANCH  35  36
ATOM     36  C   UNL     1       6.314  -3.166   9.513  1.00  0.00     0.031 A 
ATOM     37  C   UNL     1       6.918  -4.264  10.355  1.00  0.00     0.074 A 
ATOM     38  C   UNL     1       6.394  -1.892   9.954  1.00  0.00     0.049 A 
ATOM     39  N   UNL     1       7.508  -4.202  11.521  1.00  0.00    -0.248 NA
ATOM     40  C   UNL     1       6.882  -5.616   9.771  1.00  0.00     0.031 C 
ATOM     41  C   UNL     1       5.977  -0.702   9.217  1.00  0.00     0.029 A 
ATOM     42  N   UNL     1       6.890  -1.387  11.141  1.00  0.00    -0.354 N 
ATOM     43  C   UNL     1       7.932  -5.497  11.792  1.00  0.00     0.074 A 
ATOM     44  C   UNL     1       7.526  -6.325  10.681  1.00  0.00     0.031 C 
ATOM     45  C   UNL     1       6.237   0.391   9.963  1.00  0.00     0.029 A 
ATOM     46  C   UNL     1       6.810  -0.016  11.249  1.00  0.00     0.049 A 
ATOM     47  H   UNL     1       7.269  -1.958  11.848  1.00  0.00     0.167 HD
ATOM     48  C   UNL     1       8.596  -5.969  12.870  1.00  0.00     0.037 A 
ATOM     49  C   UNL     1       7.145   0.810  12.268  1.00  0.00     0.037 A 
ATOM     50  C   UNL     1       8.957  -5.180  14.012  1.00  0.00     0.049 A 
ATOM     51  C   UNL     1       7.737   0.235  13.540  1.00  0.00     0.074 A 
ATOM     52  C   UNL     1       9.553  -5.596  15.188  1.00  0.00     0.029 A 
ATOM     53  N   UNL     1       8.740  -3.817  14.128  1.00  0.00    -0.354 N 
ATOM     54  N   UNL     1       8.095  -0.999  13.803  1.00  0.00    -0.248 NA
ATOM     55  C   UNL     1       7.960   1.165  14.662  1.00  0.00     0.031 C 
ATOM     56  C   UNL     1       9.643  -4.495  16.042  1.00  0.00     0.029 A 
ATOM     57  C   UNL     1       9.167  -3.381  15.370  1.00  0.00     0.049 A 
ATOM     58  H   UNL     1       8.341  -3.245  13.433  1.00  0.00     0.167 HD
ATOM     59  C   UNL     1       8.608  -0.986  15.098  1.00  0.00     0.074 A 
ATOM     60  C   UNL     1       8.526   0.379  15.568  1.00  0.00     0.031 C 
ATOM     61  C   UNL     1       9.101  -2.017  15.829  1.00  0.00     0.037 A 
BRANCH  48  62
ATOM     62  C   UNL     1       8.907  -7.434  12.885  1.00  0.00     0.057 A 
ATOM     63  C   UNL     1       8.197  -8.300  13.725  1.00  0.00     0.134 A 
ATOM     64  C   UNL     1       9.901  -7.988  12.069  1.00  0.00     0.134 A 
ATOM     65  F   UNL     1       7.226  -7.831  14.524  1.00  0.00    -0.206 F 
ATOM     66  C   UNL     1       8.471  -9.667  13.760  1.00  0.00     0.040 A 
ATOM     67  C   UNL     1      10.165  -9.358  12.076  1.00  0.00     0.040 A 
ATOM     68  F   UNL     1      10.594  -7.214  11.220  1.00  0.00    -0.206 F 
ATOM     69  C   UNL     1       9.454 -10.200  12.929  1.00  0.00     0.006 A 
ENDBRANCH  48  62
BRANCH  49  70
ATOM     70  C   UNL     1       6.903   2.281  12.171  1.00  0.00     0.057 A 
ATOM     71  C   UNL     1       5.604   2.803  12.116  1.00  0.00     0.134 A 
ATOM     72  C   UNL     1       7.957   3.206  12.200  1.00  0.00     0.134 A 
ATOM     73  F   UNL     1       4.544   1.982  12.112  1.00  0.00    -0.206 F 
ATOM     74  C   UNL     1       5.362   4.179  12.069  1.00  0.00     0.040 A 
ATOM     75  C   UNL     1       7.728   4.586  12.182  1.00  0.00     0.040 A 
ATOM     76  F   UNL     1       9.225   2.782  12.301  1.00  0.00    -0.206 F 
ATOM     77  C   UNL     1       6.426   5.076  12.108  1.00  0.00     0.006 A 
ENDBRANCH  49  70
BRANCH  61  78
ATOM     78  C   UNL     1       9.628  -1.736  17.208  1.00  0.00     0.057 A 
ATOM     79  C   UNL     1      10.995  -1.880  17.488  1.00  0.00     0.134 A 
ATOM     80  C   UNL     1       8.777  -1.455  18.284  1.00  0.00     0.134 A 
ATOM     81  F   UNL     1      11.865  -2.167  16.508  1.00  0.00    -0.206 F 
ATOM     82  C   UNL     1      11.491  -1.782  18.789  1.00  0.00     0.040 A 
ATOM     83  C   UNL     1       9.266  -1.325  19.586  1.00  0.00     0.040 A 
ATOM     84  F   UNL     1       7.459  -1.302  18.087  1.00  0.00    -0.206 F 
ATOM     85  C   UNL     1      10.624  -1.503  19.843  1.00  0.00     0.006 A 
ENDBRANCH  61  78
ENDBRANCH  35  36
ENDBRANCH  28  30
ENDBRANCH  27  28
ENDBRANCH  26  27
ENDBRANCH  25  26
ENDBRANCH  24  25
ENDBRANCH   1  24
TORSDOF 19
