REMARK SMILES O=C(OCCOCCOC(=O)[C@H]1CS[C@H](c2cc(F)ccc2F)[NH2+]1)c1ccc(-c2c3nc(c(-c4c(F)cccc4F)c4ccc([nH]4)c(-c4c(F)cccc4F)c4nc(c(-c5c(F)cccc5F)c5ccc2[nH]5)C=C4)C=C3)cc1
REMARK SMILES IDX 5 1 4 2 3 3 2 4 1 5 25 6 26 7 78 8 27 9 77 10 28 11 29 12
REMARK SMILES IDX 30 13 71 14 31 15 76 16 70 17 72 18 32 19 75 20 69 21 68 22
REMARK SMILES IDX 33 24 59 25 42 26 58 27 43 28 46 29 57 30 73 31 44 32 45 33
REMARK SMILES IDX 56 35 74 36 47 37 34 38 35 39 40 40 36 41 37 42 39 43 41 44
REMARK SMILES IDX 38 45 60 46 61 47 66 48 62 49 63 50 65 51 67 52 64 53 48 54
REMARK SMILES IDX 49 55 54 56 50 57 51 58 53 59 55 60 52 61 6 62 7 63 8 64
REMARK SMILES IDX 9 65 10 66 11 67 12 68 13 69 24 70 14 71 15 72 16 75 17 76
REMARK SMILES IDX 22 77 18 78 21 79 23 80 19 81 20 82
REMARK H PARENT 72 23 46 34 24 73 24 74
REMARK Flexibility Score: inf
ROOT
ATOM      1  C   UNL     1       4.537  -1.360   0.408  1.00  0.00     0.202 C 
ENDROOT
BRANCH   1   2
ATOM      2  C   UNL     1       4.266  -0.062   1.178  1.00  0.00     0.261 C 
BRANCH   2   3
ATOM      3  O   UNL     1       2.864   0.232   1.212  1.00  0.00    -0.460 OA
BRANCH   3   4
ATOM      4  C   UNL     1       2.184   1.081   0.408  1.00  0.00     0.338 C 
ATOM      5  O   UNL     1       0.975   1.218   0.581  1.00  0.00    -0.246 OA
BRANCH   4   6
ATOM      6  C   UNL     1       2.825   1.844  -0.705  1.00  0.00     0.060 A 
ATOM      7  C   UNL     1       3.984   1.454  -1.385  1.00  0.00     0.016 A 
ATOM      8  C   UNL     1       2.149   2.986  -1.157  1.00  0.00     0.016 A 
ATOM      9  C   UNL     1       4.490   2.171  -2.447  1.00  0.00     0.010 A 
ATOM     10  C   UNL     1       2.641   3.717  -2.237  1.00  0.00     0.010 A 
ATOM     11  C   UNL     1       3.821   3.309  -2.866  1.00  0.00    -0.014 A 
BRANCH  11  12
ATOM     12  C   UNL     1       4.495   4.145  -3.857  1.00  0.00     0.031 A 
ATOM     13  C   UNL     1       5.236   5.333  -3.350  1.00  0.00     0.074 A 
ATOM     14  C   UNL     1       4.520   3.760  -5.140  1.00  0.00     0.049 A 
ATOM     15  N   UNL     1       5.788   6.307  -4.014  1.00  0.00    -0.248 NA
ATOM     16  C   UNL     1       5.378   5.434  -1.887  1.00  0.00     0.031 C 
ATOM     17  C   UNL     1       3.955   2.512  -5.659  1.00  0.00     0.029 A 
ATOM     18  N   UNL     1       5.043   4.379  -6.238  1.00  0.00    -0.354 N 
ATOM     19  C   UNL     1       6.296   7.164  -3.050  1.00  0.00     0.074 A 
ATOM     20  C   UNL     1       6.000   6.593  -1.757  1.00  0.00     0.031 C 
ATOM     21  C   UNL     1       4.138   2.473  -6.988  1.00  0.00     0.029 A 
ATOM     22  C   UNL     1       4.760   3.723  -7.409  1.00  0.00     0.049 A 
ATOM     23  H   UNL     1       5.569   5.210  -6.194  1.00  0.00     0.167 HD
ATOM     24  C   UNL     1       6.930   8.340  -3.250  1.00  0.00     0.037 A 
ATOM     25  C   UNL     1       4.930   4.138  -8.676  1.00  0.00     0.037 A 
ATOM     26  C   UNL     1       7.178   8.862  -4.565  1.00  0.00     0.049 A 
ATOM     27  C   UNL     1       5.541   5.496  -8.883  1.00  0.00     0.074 A 
ATOM     28  C   UNL     1       7.755  10.061  -4.930  1.00  0.00     0.029 A 
ATOM     29  N   UNL     1       6.844   8.196  -5.741  1.00  0.00    -0.354 N 
ATOM     30  N   UNL     1       5.956   6.357  -7.981  1.00  0.00    -0.248 NA
ATOM     31  C   UNL     1       5.698   5.951 -10.268  1.00  0.00     0.031 C 
ATOM     32  C   UNL     1       7.716  10.145  -6.326  1.00  0.00     0.029 A 
ATOM     33  C   UNL     1       7.179   8.969  -6.835  1.00  0.00     0.049 A 
ATOM     34  H   UNL     1       6.428   7.304  -5.786  1.00  0.00     0.167 HD
ATOM     35  C   UNL     1       6.449   7.445  -8.685  1.00  0.00     0.074 A 
ATOM     36  C   UNL     1       6.277   7.132 -10.092  1.00  0.00     0.031 C 
ATOM     37  C   UNL     1       6.998   8.595  -8.219  1.00  0.00     0.037 A 
BRANCH  24  38
ATOM     38  C   UNL     1       7.262   9.144  -2.028  1.00  0.00     0.057 A 
ATOM     39  C   UNL     1       8.219   8.733  -1.090  1.00  0.00     0.134 A 
ATOM     40  C   UNL     1       6.536  10.306  -1.738  1.00  0.00     0.134 A 
ATOM     41  F   UNL     1       8.925   7.609  -1.286  1.00  0.00    -0.206 F 
ATOM     42  C   UNL     1       8.406   9.420   0.112  1.00  0.00     0.040 A 
ATOM     43  C   UNL     1       6.736  11.019  -0.555  1.00  0.00     0.040 A 
ATOM     44  F   UNL     1       5.596  10.752  -2.585  1.00  0.00    -0.206 F 
ATOM     45  C   UNL     1       7.663  10.567   0.382  1.00  0.00     0.006 A 
ENDBRANCH  24  38
BRANCH  25  46
ATOM     46  C   UNL     1       4.457   3.289  -9.796  1.00  0.00     0.057 A 
ATOM     47  C   UNL     1       5.352   2.669 -10.673  1.00  0.00     0.134 A 
ATOM     48  C   UNL     1       3.091   3.030  -9.984  1.00  0.00     0.134 A 
ATOM     49  F   UNL     1       6.670   2.884 -10.555  1.00  0.00    -0.206 F 
ATOM     50  C   UNL     1       4.909   1.824 -11.693  1.00  0.00     0.040 A 
ATOM     51  C   UNL     1       2.635   2.168 -10.983  1.00  0.00     0.040 A 
ATOM     52  F   UNL     1       2.178   3.586  -9.172  1.00  0.00    -0.206 F 
ATOM     53  C   UNL     1       3.547   1.564 -11.844  1.00  0.00     0.006 A 
ENDBRANCH  25  46
BRANCH  37  54
ATOM     54  C   UNL     1       7.504   9.569  -9.237  1.00  0.00     0.057 A 
ATOM     55  C   UNL     1       6.640  10.383  -9.976  1.00  0.00     0.134 A 
ATOM     56  C   UNL     1       8.883   9.764  -9.391  1.00  0.00     0.134 A 
ATOM     57  F   UNL     1       5.311  10.232  -9.877  1.00  0.00    -0.206 F 
ATOM     58  C   UNL     1       7.132  11.364 -10.837  1.00  0.00     0.040 A 
ATOM     59  C   UNL     1       9.385  10.759 -10.226  1.00  0.00     0.040 A 
ATOM     60  F   UNL     1       9.758   9.019  -8.699  1.00  0.00    -0.206 F 
ATOM     61  C   UNL     1       8.508  11.562 -10.952  1.00  0.00     0.006 A 
ENDBRANCH  37  54
ENDBRANCH  11  12
ENDBRANCH   4   6
ENDBRANCH   3   4
ENDBRANCH   2   3
ENDBRANCH   1   2
BRANCH   1  62
ATOM     62  O   UNL     1       4.031  -1.477  -0.925  1.00  0.00    -0.374 OA
BRANCH  62  63
ATOM     63  C   UNL     1       2.619  -1.677  -1.089  1.00  0.00     0.202 C 
BRANCH  63  64
ATOM     64  C   UNL     1       2.355  -2.825  -2.069  1.00  0.00     0.261 C 
BRANCH  64  65
ATOM     65  O   UNL     1       2.755  -4.044  -1.432  1.00  0.00    -0.459 OA
BRANCH  65  66
ATOM     66  C   UNL     1       4.097  -4.266  -1.486  1.00  0.00     0.365 C 
ATOM     67  O   UNL     1       4.802  -4.002  -2.448  1.00  0.00    -0.245 OA
BRANCH  66  68
ATOM     68  C   UNL     1       4.611  -4.871  -0.174  1.00  0.00     0.304 C 
ATOM     69  C   UNL     1       3.702  -4.636   1.045  1.00  0.00     0.153 C 
ATOM     70  N   UNL     1       4.910  -6.317  -0.365  1.00  0.00    -0.319 N 
ATOM     71  S   UNL     1       3.183  -6.268   1.573  1.00  0.00    -0.087 SA
ATOM     72  C   UNL     1       4.688  -7.012   0.898  1.00  0.00     0.277 C 
ATOM     73  H   UNL     1       5.882  -6.431  -0.654  1.00  0.00     0.348 HD
ATOM     74  H   UNL     1       4.303  -6.705  -1.087  1.00  0.00     0.348 HD
BRANCH  72  75
ATOM     75  C   UNL     1       5.827  -7.001   1.901  1.00  0.00     0.059 A 
ATOM     76  C   UNL     1       5.672  -7.760   3.080  1.00  0.00     0.053 A 
ATOM     77  C   UNL     1       7.042  -6.316   1.741  1.00  0.00     0.133 A 
ATOM     78  C   UNL     1       6.684  -7.819   4.034  1.00  0.00     0.123 A 
ATOM     79  C   UNL     1       8.053  -6.374   2.705  1.00  0.00     0.043 A 
ATOM     80  F   UNL     1       7.293  -5.568   0.660  1.00  0.00    -0.206 F 
ATOM     81  F   UNL     1       6.504  -8.555   5.138  1.00  0.00    -0.207 F 
ATOM     82  C   UNL     1       7.877  -7.134   3.856  1.00  0.00     0.042 A 
ENDBRANCH  72  75
ENDBRANCH  66  68
ENDBRANCH  65  66
ENDBRANCH  64  65
ENDBRANCH  63  64
ENDBRANCH  62  63
ENDBRANCH   1  62
TORSDOF 15
