REMARK SMILES Cc1cc(C)cc(CSCc2cc(C(=O)OCCOCCOC(=O)c3ccc(-c4c5nc(c(-c6c(F)cccc6F)c6ccc([nH]6)c(-c6c(F)cccc6F)c6nc(c(-c7c(F)cccc7F)c7ccc4[nH]7)C=C6)C=C5)cc3)c(C)o2)c1
REMARK SMILES IDX 18 1 17 2 16 3 14 4 15 5 13 6 11 7 12 8 81 9 79 10 80 11
REMARK SMILES IDX 10 12 9 13 8 14 7 15 1 16 2 17 3 18 82 19 4 20 5 21 6 22
REMARK SMILES IDX 19 23 20 24 21 25 22 26 23 27 24 28 25 29 26 30 78 31 27 32
REMARK SMILES IDX 77 33 28 34 29 35 30 36 71 37 31 38 76 39 70 40 72 41 32 42
REMARK SMILES IDX 75 43 69 44 68 45 33 47 59 48 42 49 58 50 43 51 46 52 57 53
REMARK SMILES IDX 73 54 44 55 45 56 56 58 74 59 47 60 34 61 35 62 40 63 36 64
REMARK SMILES IDX 37 65 39 66 41 67 38 68 60 69 61 70 66 71 62 72 63 73 65 74
REMARK SMILES IDX 67 75 64 76 48 77 49 78 54 79 50 80 51 81 53 82 55 83 52 84
REMARK H PARENT 72 46 46 57
REMARK Flexibility Score: inf
ROOT
ATOM      1  C   UNL     1      -2.614   3.957   1.875  1.00  0.00     0.202 C 
ENDROOT
BRANCH   1   2
ATOM      2  C   UNL     1      -1.171   3.665   1.462  1.00  0.00     0.261 C 
BRANCH   2   3
ATOM      3  O   UNL     1      -0.866   2.288   1.731  1.00  0.00    -0.460 OA
BRANCH   3   4
ATOM      4  C   UNL     1       0.047   2.057   2.716  1.00  0.00     0.341 C 
ATOM      5  O   UNL     1       0.759   2.919   3.217  1.00  0.00    -0.246 OA
BRANCH   4   6
ATOM      6  C   UNL     1       0.053   0.671   3.148  1.00  0.00     0.101 A 
ATOM      7  C   UNL     1      -0.082  -1.581   3.219  1.00  0.00     0.114 A 
ATOM      8  C   UNL     1      -0.562  -0.469   2.560  1.00  0.00     0.062 A 
ATOM      9  O   UNL     1       0.602  -1.168   4.330  1.00  0.00    -0.465 OA
ATOM     10  C   UNL     1       0.637   0.194   4.306  1.00  0.00     0.115 A 
ATOM     11  C   UNL     1       1.254   0.855   5.474  1.00  0.00     0.088 C 
BRANCH   7  12
ATOM     12  C   UNL     1      -0.117  -3.054   3.007  1.00  0.00     0.145 C 
BRANCH  12  13
ATOM     13  S   UNL     1      -1.137  -3.643   1.620  1.00  0.00    -0.149 SA
BRANCH  13  14
ATOM     14  C   UNL     1       0.018  -3.424   0.211  1.00  0.00     0.105 C 
BRANCH  14  15
ATOM     15  C   UNL     1       0.049  -2.009  -0.311  1.00  0.00    -0.038 A 
ATOM     16  C   UNL     1       2.455   0.945  -0.395  1.00  0.00     0.044 C 
ATOM     17  C   UNL     1       1.224   0.108  -0.589  1.00  0.00    -0.051 A 
ATOM     18  C   UNL     1       0.026   0.708  -0.997  1.00  0.00     0.006 A 
ATOM     19  C   UNL     1       1.226  -1.250  -0.242  1.00  0.00     0.008 A 
ATOM     20  C   UNL     1      -1.155  -0.036  -1.095  1.00  0.00    -0.051 A 
ATOM     21  C   UNL     1      -2.467   0.650  -1.344  1.00  0.00     0.044 C 
ATOM     22  C   UNL     1      -1.126  -1.402  -0.787  1.00  0.00     0.008 A 
ENDBRANCH  14  15
ENDBRANCH  13  14
ENDBRANCH  12  13
ENDBRANCH   7  12
ENDBRANCH   4   6
ENDBRANCH   3   4
ENDBRANCH   2   3
ENDBRANCH   1   2
BRANCH   1  23
ATOM     23  O   UNL     1      -2.828   3.985   3.288  1.00  0.00    -0.374 OA
BRANCH  23  24
ATOM     24  C   UNL     1      -3.022   2.723   3.930  1.00  0.00     0.202 C 
BRANCH  24  25
ATOM     25  C   UNL     1      -4.464   2.211   3.945  1.00  0.00     0.261 C 
BRANCH  25  26
ATOM     26  O   UNL     1      -4.921   1.878   2.622  1.00  0.00    -0.460 OA
BRANCH  26  27
ATOM     27  C   UNL     1      -5.741   2.798   2.063  1.00  0.00     0.338 C 
ATOM     28  O   UNL     1      -6.167   3.820   2.575  1.00  0.00    -0.246 OA
BRANCH  27  29
ATOM     29  C   UNL     1      -5.964   2.478   0.639  1.00  0.00     0.060 A 
ATOM     30  C   UNL     1      -5.873   3.532  -0.278  1.00  0.00     0.016 A 
ATOM     31  C   UNL     1      -6.338   1.200   0.217  1.00  0.00     0.016 A 
ATOM     32  C   UNL     1      -6.218   3.327  -1.612  1.00  0.00     0.010 A 
ATOM     33  C   UNL     1      -6.689   0.997  -1.121  1.00  0.00     0.010 A 
ATOM     34  C   UNL     1      -6.669   2.069  -2.031  1.00  0.00    -0.014 A 
BRANCH  34  35
ATOM     35  C   UNL     1      -7.259   1.918  -3.383  1.00  0.00     0.031 A 
ATOM     36  C   UNL     1      -8.755   1.940  -3.535  1.00  0.00     0.074 A 
ATOM     37  C   UNL     1      -6.473   1.791  -4.465  1.00  0.00     0.049 A 
ATOM     38  N   UNL     1      -9.482   1.797  -4.614  1.00  0.00    -0.248 NA
ATOM     39  C   UNL     1      -9.536   2.152  -2.305  1.00  0.00     0.031 C 
ATOM     40  C   UNL     1      -5.011   1.793  -4.453  1.00  0.00     0.029 A 
ATOM     41  N   UNL     1      -6.800   1.629  -5.787  1.00  0.00    -0.354 N 
ATOM     42  C   UNL     1     -10.802   1.897  -4.194  1.00  0.00     0.074 A 
ATOM     43  C   UNL     1     -10.779   2.084  -2.760  1.00  0.00     0.031 C 
ATOM     44  C   UNL     1      -4.566   1.626  -5.709  1.00  0.00     0.029 A 
ATOM     45  C   UNL     1      -5.709   1.480  -6.608  1.00  0.00     0.049 A 
ATOM     46  H   UNL     1      -7.728   1.620  -6.116  1.00  0.00     0.167 HD
ATOM     47  C   UNL     1     -11.932   1.846  -4.939  1.00  0.00     0.037 A 
ATOM     48  C   UNL     1      -5.644   1.235  -7.930  1.00  0.00     0.037 A 
ATOM     49  C   UNL     1     -11.957   1.663  -6.366  1.00  0.00     0.049 A 
ATOM     50  C   UNL     1      -6.916   1.115  -8.726  1.00  0.00     0.074 A 
ATOM     51  C   UNL     1     -13.052   1.621  -7.212  1.00  0.00     0.029 A 
ATOM     52  N   UNL     1     -10.832   1.486  -7.157  1.00  0.00    -0.354 N 
ATOM     53  N   UNL     1      -8.158   1.237  -8.325  1.00  0.00    -0.248 NA
ATOM     54  C   UNL     1      -6.776   0.825 -10.161  1.00  0.00     0.031 C 
ATOM     55  C   UNL     1     -12.592   1.375  -8.510  1.00  0.00     0.029 A 
ATOM     56  C   UNL     1     -11.208   1.309  -8.478  1.00  0.00     0.049 A 
ATOM     57  H   UNL     1      -9.904   1.486  -6.828  1.00  0.00     0.167 HD
ATOM     58  C   UNL     1      -8.944   1.065  -9.457  1.00  0.00     0.074 A 
ATOM     59  C   UNL     1      -8.039   0.839 -10.565  1.00  0.00     0.031 C 
ATOM     60  C   UNL     1     -10.294   1.093  -9.570  1.00  0.00     0.037 A 
BRANCH  47  61
ATOM     61  C   UNL     1     -13.240   1.970  -4.216  1.00  0.00     0.057 A 
ATOM     62  C   UNL     1     -13.684   3.192  -3.696  1.00  0.00     0.134 A 
ATOM     63  C   UNL     1     -14.080   0.859  -4.067  1.00  0.00     0.134 A 
ATOM     64  F   UNL     1     -12.919   4.290  -3.794  1.00  0.00    -0.206 F 
ATOM     65  C   UNL     1     -14.909   3.301  -3.036  1.00  0.00     0.040 A 
ATOM     66  C   UNL     1     -15.317   0.961  -3.429  1.00  0.00     0.040 A 
ATOM     67  F   UNL     1     -13.716  -0.340  -4.546  1.00  0.00    -0.206 F 
ATOM     68  C   UNL     1     -15.732   2.184  -2.906  1.00  0.00     0.006 A 
ENDBRANCH  47  61
BRANCH  48  69
ATOM     69  C   UNL     1      -4.325   1.073  -8.589  1.00  0.00     0.057 A 
ATOM     70  C   UNL     1      -3.835   2.037  -9.478  1.00  0.00     0.134 A 
ATOM     71  C   UNL     1      -3.532  -0.057  -8.358  1.00  0.00     0.134 A 
ATOM     72  F   UNL     1      -4.561   3.129  -9.756  1.00  0.00    -0.206 F 
ATOM     73  C   UNL     1      -2.609   1.876 -10.125  1.00  0.00     0.040 A 
ATOM     74  C   UNL     1      -2.294  -0.220  -8.981  1.00  0.00     0.040 A 
ATOM     75  F   UNL     1      -3.947  -1.015  -7.517  1.00  0.00    -0.206 F 
ATOM     76  C   UNL     1      -1.833   0.746  -9.873  1.00  0.00     0.006 A 
ENDBRANCH  48  69
BRANCH  60  77
ATOM     77  C   UNL     1     -10.875   0.908 -10.941  1.00  0.00     0.057 A 
ATOM     78  C   UNL     1     -10.902  -0.344 -11.569  1.00  0.00     0.134 A 
ATOM     79  C   UNL     1     -11.454   1.987 -11.621  1.00  0.00     0.134 A 
ATOM     80  F   UNL     1     -10.353  -1.414 -10.975  1.00  0.00    -0.206 F 
ATOM     81  C   UNL     1     -11.470  -0.512 -12.833  1.00  0.00     0.040 A 
ATOM     82  C   UNL     1     -12.045   1.826 -12.875  1.00  0.00     0.040 A 
ATOM     83  F   UNL     1     -11.468   3.210 -11.071  1.00  0.00    -0.206 F 
ATOM     84  C   UNL     1     -12.050   0.574 -13.486  1.00  0.00     0.006 A 
ENDBRANCH  60  77
ENDBRANCH  34  35
ENDBRANCH  27  29
ENDBRANCH  26  27
ENDBRANCH  25  26
ENDBRANCH  24  25
ENDBRANCH  23  24
ENDBRANCH   1  23
TORSDOF 18
