REMARK SMILES CCO[C@@H]1CCC[C@]([NH3+])(C(=O)OCCOCCOC(=O)c2ccc(-c3c4nc(c(-c5c(F)cccc5F)c5ccc([nH]5)c(-c5c(F)cccc5F)c5nc(c(-c6c(F)cccc6F)c6ccc3[nH]6)C=C5)C=C4)cc2)C1
REMARK SMILES IDX 15 1 14 2 13 3 12 4 10 5 11 6 8 7 4 8 5 9 75 10 6 11 7 12
REMARK SMILES IDX 3 13 2 14 1 15 9 16 16 20 17 21 18 22 19 23 20 24 21 25
REMARK SMILES IDX 22 26 74 27 23 28 73 29 24 30 25 31 26 32 67 33 27 34 72 35
REMARK SMILES IDX 66 36 68 37 28 38 71 39 65 40 64 41 29 43 55 44 38 45 54 46
REMARK SMILES IDX 39 47 42 48 53 49 69 50 40 51 41 52 52 54 70 55 43 56 30 57
REMARK SMILES IDX 31 58 36 59 32 60 33 61 35 62 37 63 34 64 56 65 57 66 62 67
REMARK SMILES IDX 58 68 59 69 61 70 63 71 60 72 44 73 45 74 50 75 46 76 47 77
REMARK SMILES IDX 49 78 51 79 48 80
REMARK H PARENT 9 17 9 18 9 19 68 42 42 53
REMARK Flexibility Score: inf
ROOT
ATOM      1  O   UNL     1       6.007   1.114   4.936  1.00  0.00    -0.374 OA
ENDROOT
BRANCH   1   2
ATOM      2  C   UNL     1       5.958   2.284   4.122  1.00  0.00     0.202 C 
BRANCH   2   3
ATOM      3  C   UNL     1       6.131   2.084   2.614  1.00  0.00     0.261 C 
BRANCH   3   4
ATOM      4  O   UNL     1       5.271   1.061   2.094  1.00  0.00    -0.459 OA
BRANCH   4   5
ATOM      5  C   UNL     1       5.899  -0.093   1.748  1.00  0.00     0.368 C 
ATOM      6  O   UNL     1       7.116  -0.263   1.782  1.00  0.00    -0.245 OA
BRANCH   5   7
ATOM      7  C   UNL     1       4.934  -1.204   1.249  1.00  0.00     0.195 C 
ATOM      8  C   UNL     1       2.528  -2.037   0.994  1.00  0.00     0.125 C 
ATOM      9  C   UNL     1       2.863  -3.279   1.829  1.00  0.00     0.032 C 
ATOM     10  C   UNL     1       3.438  -0.866   1.387  1.00  0.00     0.113 C 
ATOM     11  C   UNL     1       4.337  -3.656   1.762  1.00  0.00     0.010 C 
ATOM     12  C   UNL     1       5.243  -2.470   2.083  1.00  0.00     0.081 C 
BRANCH   8  13
ATOM     13  O   UNL     1       1.162  -1.713   1.274  1.00  0.00    -0.378 OA
BRANCH  13  14
ATOM     14  C   UNL     1       0.386  -1.361   0.130  1.00  0.00     0.157 C 
ATOM     15  C   UNL     1       0.617   0.078  -0.289  1.00  0.00     0.035 C 
ENDBRANCH  13  14
ENDBRANCH   8  13
BRANCH   7  16
ATOM     16  N   UNL     1       5.259  -1.425  -0.185  1.00  0.00    -0.343 N 
ATOM     17  H   UNL     1       4.649  -2.150  -0.564  1.00  0.00     0.345 HD
ATOM     18  H   UNL     1       6.231  -1.718  -0.273  1.00  0.00     0.345 HD
ATOM     19  H   UNL     1       5.117  -0.557  -0.703  1.00  0.00     0.345 HD
ENDBRANCH   7  16
ENDBRANCH   5   7
ENDBRANCH   4   5
ENDBRANCH   3   4
ENDBRANCH   2   3
ENDBRANCH   1   2
BRANCH   1  20
ATOM     20  C   UNL     1       4.814   0.332   5.016  1.00  0.00     0.202 C 
BRANCH  20  21
ATOM     21  C   UNL     1       3.686   0.883   5.899  1.00  0.00     0.261 C 
BRANCH  21  22
ATOM     22  O   UNL     1       3.089   2.063   5.329  1.00  0.00    -0.460 OA
BRANCH  22  23
ATOM     23  C   UNL     1       3.282   3.199   6.037  1.00  0.00     0.338 C 
ATOM     24  O   UNL     1       3.821   3.309   7.132  1.00  0.00    -0.246 OA
BRANCH  23  25
ATOM     25  C   UNL     1       2.915   4.372   5.224  1.00  0.00     0.060 A 
ATOM     26  C   UNL     1       3.863   5.398   5.106  1.00  0.00     0.016 A 
ATOM     27  C   UNL     1       1.649   4.506   4.649  1.00  0.00     0.016 A 
ATOM     28  C   UNL     1       3.529   6.587   4.463  1.00  0.00     0.010 A 
ATOM     29  C   UNL     1       1.312   5.705   4.012  1.00  0.00     0.010 A 
ATOM     30  C   UNL     1       2.237   6.763   3.951  1.00  0.00    -0.014 A 
BRANCH  30  31
ATOM     31  C   UNL     1       1.812   8.110   3.499  1.00  0.00     0.031 A 
ATOM     32  C   UNL     1       1.026   8.979   4.441  1.00  0.00     0.074 A 
ATOM     33  C   UNL     1       2.151   8.567   2.281  1.00  0.00     0.049 A 
ATOM     34  N   UNL     1       0.531  10.175   4.251  1.00  0.00    -0.248 NA
ATOM     35  C   UNL     1       0.765   8.424   5.779  1.00  0.00     0.031 C 
ATOM     36  C   UNL     1       2.942   7.836   1.294  1.00  0.00     0.029 A 
ATOM     37  N   UNL     1       1.863   9.760   1.668  1.00  0.00    -0.354 N 
ATOM     38  C   UNL     1      -0.102  10.514   5.441  1.00  0.00     0.074 A 
ATOM     39  C   UNL     1       0.045   9.386   6.336  1.00  0.00     0.031 C 
ATOM     40  C   UNL     1       3.066   8.592   0.189  1.00  0.00     0.029 A 
ATOM     41  C   UNL     1       2.341   9.847   0.384  1.00  0.00     0.049 A 
ATOM     42  H   UNL     1       1.362  10.485   2.107  1.00  0.00     0.167 HD
ATOM     43  C   UNL     1      -0.738  11.665   5.763  1.00  0.00     0.037 A 
ATOM     44  C   UNL     1       2.191  10.820  -0.535  1.00  0.00     0.037 A 
ATOM     45  C   UNL     1      -0.886  12.785   4.872  1.00  0.00     0.049 A 
ATOM     46  C   UNL     1       1.419  12.062  -0.178  1.00  0.00     0.074 A 
ATOM     47  C   UNL     1      -1.506  14.000   5.107  1.00  0.00     0.029 A 
ATOM     48  N   UNL     1      -0.412  12.823   3.569  1.00  0.00    -0.354 N 
ATOM     49  N   UNL     1       0.842  12.381   0.956  1.00  0.00    -0.248 NA
ATOM     50  C   UNL     1       1.281  13.082  -1.228  1.00  0.00     0.031 C 
ATOM     51  C   UNL     1      -1.444  14.757   3.933  1.00  0.00     0.029 A 
ATOM     52  C   UNL     1      -0.745  14.032   2.981  1.00  0.00     0.049 A 
ATOM     53  H   UNL     1       0.087  12.098   3.128  1.00  0.00     0.167 HD
ATOM     54  C   UNL     1       0.297  13.645   0.764  1.00  0.00     0.074 A 
ATOM     55  C   UNL     1       0.621  14.039  -0.591  1.00  0.00     0.031 C 
ATOM     56  C   UNL     1      -0.409  14.411   1.632  1.00  0.00     0.037 A 
BRANCH  43  57
ATOM     57  C   UNL     1      -1.341  11.759   7.133  1.00  0.00     0.057 A 
ATOM     58  C   UNL     1      -0.550  11.905   8.280  1.00  0.00     0.134 A 
ATOM     59  C   UNL     1      -2.731  11.728   7.305  1.00  0.00     0.134 A 
ATOM     60  F   UNL     1       0.788  11.925   8.184  1.00  0.00    -0.206 F 
ATOM     61  C   UNL     1      -1.119  11.995   9.551  1.00  0.00     0.040 A 
ATOM     62  C   UNL     1      -3.312  11.842   8.568  1.00  0.00     0.040 A 
ATOM     63  F   UNL     1      -3.545  11.593   6.247  1.00  0.00    -0.206 F 
ATOM     64  C   UNL     1      -2.505  11.971   9.697  1.00  0.00     0.006 A 
ENDBRANCH  43  57
BRANCH  44  65
ATOM     65  C   UNL     1       2.770  10.654  -1.892  1.00  0.00     0.057 A 
ATOM     66  C   UNL     1       3.851  11.431  -2.321  1.00  0.00     0.134 A 
ATOM     67  C   UNL     1       2.241   9.727  -2.798  1.00  0.00     0.134 A 
ATOM     68  F   UNL     1       4.385  12.354  -1.506  1.00  0.00    -0.206 F 
ATOM     69  C   UNL     1       4.378  11.303  -3.607  1.00  0.00     0.040 A 
ATOM     70  C   UNL     1       2.773   9.571  -4.079  1.00  0.00     0.040 A 
ATOM     71  F   UNL     1       1.204   8.953  -2.447  1.00  0.00    -0.206 F 
ATOM     72  C   UNL     1       3.841  10.367  -4.489  1.00  0.00     0.006 A 
ENDBRANCH  44  65
BRANCH  56  73
ATOM     73  C   UNL     1      -0.849  15.764   1.156  1.00  0.00     0.057 A 
ATOM     74  C   UNL     1      -1.892  15.921   0.235  1.00  0.00     0.134 A 
ATOM     75  C   UNL     1      -0.248  16.926   1.658  1.00  0.00     0.134 A 
ATOM     76  F   UNL     1      -2.500  14.847  -0.292  1.00  0.00    -0.206 F 
ATOM     77  C   UNL     1      -2.309  17.185  -0.185  1.00  0.00     0.040 A 
ATOM     78  C   UNL     1      -0.672  18.195   1.264  1.00  0.00     0.040 A 
ATOM     79  F   UNL     1       0.751  16.845   2.550  1.00  0.00    -0.206 F 
ATOM     80  C   UNL     1      -1.702  18.327   0.336  1.00  0.00     0.006 A 
ENDBRANCH  56  73
ENDBRANCH  30  31
ENDBRANCH  23  25
ENDBRANCH  22  23
ENDBRANCH  21  22
ENDBRANCH  20  21
ENDBRANCH   1  20
TORSDOF 17
