REMARK SMILES CCc1ccc(C(=O)OCCOCCOC(=O)c2ccc(-c3c4nc(c(-c5c(F)cccc5F)c5ccc([nH]5)c(-c5c(F)cccc5F)c5nc(c(-c6c(F)cccc6F)c6ccc3[nH]6)C=C5)C=C4)cc2)cc1S(=O)(=O)Cc1cnn(C)c1
REMARK SMILES IDX 11 1 10 2 9 3 7 4 8 5 6 6 3 7 4 8 73 9 5 10 72 11 2 12 1 13
REMARK SMILES IDX 74 14 75 15 76 16 77 17 78 18 79 19 83 20 80 21 81 22 82 23
REMARK SMILES IDX 12 24 13 25 14 26 15 27 16 28 17 29 18 30 19 31 71 32 20 33
REMARK SMILES IDX 70 34 21 35 22 36 23 37 64 38 24 39 69 40 63 41 65 42 25 43
REMARK SMILES IDX 68 44 62 45 61 46 26 48 52 49 35 50 51 51 36 52 39 53 50 54
REMARK SMILES IDX 66 55 37 56 38 57 49 59 67 60 40 61 27 62 28 63 33 64 29 65
REMARK SMILES IDX 30 66 32 67 34 68 31 69 53 70 54 71 59 72 55 73 56 74 58 75
REMARK SMILES IDX 60 76 57 77 41 78 42 79 47 80 43 81 44 82 46 83 48 84 45 85
REMARK H PARENT 65 47 39 58
REMARK Flexibility Score: inf
ROOT
ATOM      1  C   UNL     1       3.439  -8.533   0.024  1.00  0.00     0.202 C 
ENDROOT
BRANCH   1   2
ATOM      2  C   UNL     1       3.969  -7.737  -1.173  1.00  0.00     0.261 C 
BRANCH   2   3
ATOM      3  O   UNL     1       3.611  -6.346  -1.075  1.00  0.00    -0.460 OA
BRANCH   3   4
ATOM      4  C   UNL     1       2.709  -5.920  -1.990  1.00  0.00     0.338 C 
ATOM      5  O   UNL     1       2.282  -6.546  -2.950  1.00  0.00    -0.246 OA
BRANCH   4   6
ATOM      6  C   UNL     1       2.146  -4.614  -1.581  1.00  0.00     0.061 A 
ATOM      7  C   UNL     1       0.957  -2.131  -0.873  1.00  0.00    -0.030 A 
ATOM      8  C   UNL     1       0.197  -3.202  -1.395  1.00  0.00     0.006 A 
ATOM      9  C   UNL     1       2.346  -2.336  -0.720  1.00  0.00     0.071 A 
ATOM     10  C   UNL     1       0.781  -4.415  -1.761  1.00  0.00     0.016 A 
ATOM     11  C   UNL     1       2.923  -3.590  -1.042  1.00  0.00     0.036 A 
BRANCH   7  12
ATOM     12  C   UNL     1       0.179  -0.866  -0.585  1.00  0.00     0.033 C 
ATOM     13  C   UNL     1       0.072  -0.468   0.877  1.00  0.00     0.009 C 
ENDBRANCH   7  12
BRANCH   9  14
ATOM     14  S   UNL     1       3.534  -1.101  -0.187  1.00  0.00     0.182 S 
ATOM     15  O   UNL     1       3.412  -1.037   1.259  1.00  0.00    -0.223 OA
ATOM     16  O   UNL     1       4.807  -1.487  -0.776  1.00  0.00    -0.223 OA
BRANCH  14  17
ATOM     17  C   UNL     1       3.155   0.498  -0.851  1.00  0.00     0.181 C 
BRANCH  17  18
ATOM     18  C   UNL     1       2.813   0.618  -2.297  1.00  0.00     0.005 A 
ATOM     19  C   UNL     1       2.873  -0.327  -3.348  1.00  0.00     0.139 A 
ATOM     20  C   UNL     1       2.321   1.756  -2.913  1.00  0.00     0.113 A 
ATOM     21  N   UNL     1       2.406   0.156  -4.501  1.00  0.00    -0.181 NA
ATOM     22  N   UNL     1       2.094   1.429  -4.216  1.00  0.00    -0.276 N 
ATOM     23  C   UNL     1       1.558   2.284  -5.248  1.00  0.00     0.173 C 
ENDBRANCH  17  18
ENDBRANCH  14  17
ENDBRANCH   9  14
ENDBRANCH   4   6
ENDBRANCH   3   4
ENDBRANCH   2   3
ENDBRANCH   1   2
BRANCH   1  24
ATOM     24  O   UNL     1       2.017  -8.595   0.145  1.00  0.00    -0.374 OA
BRANCH  24  25
ATOM     25  C   UNL     1       1.379  -7.483   0.777  1.00  0.00     0.202 C 
BRANCH  25  26
ATOM     26  C   UNL     1       1.401  -7.488   2.310  1.00  0.00     0.261 C 
BRANCH  26  27
ATOM     27  O   UNL     1       2.731  -7.272   2.817  1.00  0.00    -0.460 OA
BRANCH  27  28
ATOM     28  C   UNL     1       3.289  -8.341   3.430  1.00  0.00     0.338 C 
ATOM     29  O   UNL     1       2.758  -9.412   3.687  1.00  0.00    -0.246 OA
BRANCH  28  30
ATOM     30  C   UNL     1       4.735  -8.114   3.615  1.00  0.00     0.060 A 
ATOM     31  C   UNL     1       5.605  -9.122   3.180  1.00  0.00     0.016 A 
ATOM     32  C   UNL     1       5.230  -6.974   4.252  1.00  0.00     0.016 A 
ATOM     33  C   UNL     1       6.972  -9.020   3.430  1.00  0.00     0.010 A 
ATOM     34  C   UNL     1       6.602  -6.876   4.508  1.00  0.00     0.010 A 
ATOM     35  C   UNL     1       7.473  -7.915   4.131  1.00  0.00    -0.014 A 
BRANCH  35  36
ATOM     36  C   UNL     1       8.882  -7.919   4.589  1.00  0.00     0.031 A 
ATOM     37  C   UNL     1       9.188  -8.310   6.007  1.00  0.00     0.074 A 
ATOM     38  C   UNL     1       9.880  -7.601   3.747  1.00  0.00     0.049 A 
ATOM     39  N   UNL     1      10.341  -8.366   6.623  1.00  0.00    -0.248 NA
ATOM     40  C   UNL     1       8.038  -8.687   6.844  1.00  0.00     0.031 C 
ATOM     41  C   UNL     1       9.714  -7.231   2.343  1.00  0.00     0.029 A 
ATOM     42  N   UNL     1      11.233  -7.532   3.958  1.00  0.00    -0.354 N 
ATOM     43  C   UNL     1      10.056  -8.776   7.919  1.00  0.00     0.074 A 
ATOM     44  C   UNL     1       8.620  -8.927   8.009  1.00  0.00     0.031 C 
ATOM     45  C   UNL     1      10.922  -6.960   1.820  1.00  0.00     0.029 A 
ATOM     46  C   UNL     1      11.939  -7.112   2.859  1.00  0.00     0.049 A 
ATOM     47  H   UNL     1      11.658  -7.761   4.817  1.00  0.00     0.167 HD
ATOM     48  C   UNL     1      10.915  -9.014   8.940  1.00  0.00     0.037 A 
ATOM     49  C   UNL     1      13.254  -6.861   2.714  1.00  0.00     0.037 A 
ATOM     50  C   UNL     1      12.343  -8.863   8.850  1.00  0.00     0.049 A 
ATOM     51  C   UNL     1      14.184  -7.075   3.877  1.00  0.00     0.074 A 
ATOM     52  C   UNL     1      13.300  -9.111   9.818  1.00  0.00     0.029 A 
ATOM     53  N   UNL     1      13.019  -8.410   7.726  1.00  0.00    -0.354 N 
ATOM     54  N   UNL     1      13.910  -7.500   5.087  1.00  0.00    -0.248 NA
ATOM     55  C   UNL     1      15.606  -6.779   3.653  1.00  0.00     0.031 C 
ATOM     56  C   UNL     1      14.551  -8.763   9.296  1.00  0.00     0.029 A 
ATOM     57  C   UNL     1      14.378  -8.344   7.986  1.00  0.00     0.049 A 
ATOM     58  H   UNL     1      12.595  -8.171   6.870  1.00  0.00     0.167 HD
ATOM     59  C   UNL     1      15.124  -7.543   5.761  1.00  0.00     0.074 A 
ATOM     60  C   UNL     1      16.139  -7.111   4.821  1.00  0.00     0.031 C 
ATOM     61  C   UNL     1      15.376  -7.909   7.042  1.00  0.00     0.037 A 
BRANCH  48  62
ATOM     62  C   UNL     1      10.319  -9.433  10.252  1.00  0.00     0.057 A 
ATOM     63  C   UNL     1       9.755 -10.702  10.439  1.00  0.00     0.134 A 
ATOM     64  C   UNL     1      10.317  -8.558  11.345  1.00  0.00     0.134 A 
ATOM     65  F   UNL     1       9.712 -11.583   9.428  1.00  0.00    -0.206 F 
ATOM     66  C   UNL     1       9.183 -11.074  11.657  1.00  0.00     0.040 A 
ATOM     67  C   UNL     1       9.771  -8.927  12.575  1.00  0.00     0.040 A 
ATOM     68  F   UNL     1      10.845  -7.329  11.235  1.00  0.00    -0.206 F 
ATOM     69  C   UNL     1       9.194 -10.186  12.731  1.00  0.00     0.006 A 
ENDBRANCH  48  62
BRANCH  49  70
ATOM     70  C   UNL     1      13.767  -6.369   1.412  1.00  0.00     0.057 A 
ATOM     71  C   UNL     1      14.544  -7.185   0.583  1.00  0.00     0.134 A 
ATOM     72  C   UNL     1      13.485  -5.073   0.964  1.00  0.00     0.134 A 
ATOM     73  F   UNL     1      14.867  -8.428   0.969  1.00  0.00    -0.206 F 
ATOM     74  C   UNL     1      15.028  -6.728  -0.644  1.00  0.00     0.040 A 
ATOM     75  C   UNL     1      13.943  -4.611  -0.271  1.00  0.00     0.040 A 
ATOM     76  F   UNL     1      12.745  -4.244   1.714  1.00  0.00    -0.206 F 
ATOM     77  C   UNL     1      14.721  -5.439  -1.077  1.00  0.00     0.006 A 
ENDBRANCH  49  70
BRANCH  61  78
ATOM     78  C   UNL     1      16.806  -7.884   7.497  1.00  0.00     0.057 A 
ATOM     79  C   UNL     1      17.480  -6.683   7.749  1.00  0.00     0.134 A 
ATOM     80  C   UNL     1      17.503  -9.078   7.725  1.00  0.00     0.134 A 
ATOM     81  F   UNL     1      16.873  -5.505   7.539  1.00  0.00    -0.206 F 
ATOM     82  C   UNL     1      18.804  -6.669   8.194  1.00  0.00     0.040 A 
ATOM     83  C   UNL     1      18.818  -9.077   8.193  1.00  0.00     0.040 A 
ATOM     84  F   UNL     1      16.913 -10.263   7.511  1.00  0.00    -0.206 F 
ATOM     85  C   UNL     1      19.474  -7.870   8.424  1.00  0.00     0.006 A 
ENDBRANCH  61  78
ENDBRANCH  35  36
ENDBRANCH  28  30
ENDBRANCH  27  28
ENDBRANCH  26  27
ENDBRANCH  25  26
ENDBRANCH  24  25
ENDBRANCH   1  24
TORSDOF 18
