REMARK SMILES CC[NH2+][C@]1(C(=O)OCCOCCOC(=O)c2ccc(-c3c4nc(c(-c5c(F)cccc5F)c5ccc([nH]5)c(-c5c(F)cccc5F)c5nc(c(-c6c(F)cccc6F)c6ccc3[nH]6)C=C5)C=C4)cc2)CC[C@@H]([N@@H+](C)CC(C)(C)C)C1
REMARK SMILES IDX 9 1 8 2 7 3 5 4 6 5 4 6 70 7 80 8 71 9 72 10 3 11 2 14 1 15
REMARK SMILES IDX 73 16 74 17 75 19 76 20 77 21 78 22 79 23 10 24 11 25 12 26
REMARK SMILES IDX 13 27 14 28 15 29 16 30 17 31 69 32 18 33 68 34 19 35 20 36
REMARK SMILES IDX 21 37 62 38 22 39 67 40 61 41 63 42 23 43 66 44 60 45 59 46
REMARK SMILES IDX 24 48 50 49 33 50 49 51 34 52 37 53 48 54 64 55 35 56 36 57
REMARK SMILES IDX 47 59 65 60 38 61 25 62 26 63 31 64 27 65 28 66 30 67 32 68
REMARK SMILES IDX 29 69 51 70 52 71 57 72 53 73 54 74 56 75 58 76 55 77 39 78
REMARK SMILES IDX 40 79 45 80 41 81 42 82 44 83 46 84 43 85
REMARK H PARENT 3 12 3 13 73 18 63 47 37 58
REMARK Flexibility Score: inf
ROOT
ATOM      1  C   UNL     1       1.706   0.634   0.160  1.00  0.00     0.202 C 
ENDROOT
BRANCH   1   2
ATOM      2  C   UNL     1       2.558   0.570   1.429  1.00  0.00     0.261 C 
BRANCH   2   3
ATOM      3  O   UNL     1       2.144  -0.504   2.293  1.00  0.00    -0.459 OA
BRANCH   3   4
ATOM      4  C   UNL     1       1.380  -0.154   3.370  1.00  0.00     0.368 C 
ATOM      5  O   UNL     1       1.040   0.993   3.634  1.00  0.00    -0.245 OA
BRANCH   4   6
ATOM      6  C   UNL     1       1.015  -1.389   4.233  1.00  0.00     0.200 C 
ATOM      7  C   UNL     1      -0.492  -1.339   4.561  1.00  0.00     0.087 C 
ATOM      8  C   UNL     1       1.075  -2.736   3.479  1.00  0.00     0.146 C 
ATOM      9  C   UNL     1      -0.847  -2.758   5.002  1.00  0.00     0.072 C 
ATOM     10  C   UNL     1       0.110  -3.675   4.230  1.00  0.00     0.191 C 
BRANCH   6  11
ATOM     11  N   UNL     1       1.734  -1.325   5.521  1.00  0.00    -0.332 N 
ATOM     12  H   UNL     1       1.527  -0.421   5.947  1.00  0.00     0.347 HD
ATOM     13  H   UNL     1       1.405  -2.131   6.053  1.00  0.00     0.347 HD
BRANCH  11  14
ATOM     14  C   UNL     1       3.179  -1.466   5.469  1.00  0.00     0.257 C 
ATOM     15  C   UNL     1       3.748  -0.743   6.683  1.00  0.00     0.071 C 
ENDBRANCH  11  14
ENDBRANCH   6  11
BRANCH  10  16
ATOM     16  N   UNL     1      -0.487  -4.773   3.475  1.00  0.00    -0.334 N 
ATOM     17  C   UNL     1      -0.987  -5.857   4.305  1.00  0.00     0.332 C 
ATOM     18  H   UNL     1       0.381  -5.049   3.016  1.00  0.00     0.348 HD
BRANCH  16  19
ATOM     19  C   UNL     1      -1.156  -4.599   2.185  1.00  0.00     0.268 C 
BRANCH  19  20
ATOM     20  C   UNL     1      -2.655  -4.171   1.984  1.00  0.00     0.011 C 
ATOM     21  C   UNL     1      -2.905  -2.689   2.290  1.00  0.00     0.017 C 
ATOM     22  C   UNL     1      -2.983  -4.371   0.481  1.00  0.00     0.017 C 
ATOM     23  C   UNL     1      -3.648  -5.021   2.788  1.00  0.00     0.017 C 
ENDBRANCH  19  20
ENDBRANCH  16  19
ENDBRANCH  10  16
ENDBRANCH   4   6
ENDBRANCH   3   4
ENDBRANCH   2   3
ENDBRANCH   1   2
BRANCH   1  24
ATOM     24  O   UNL     1       0.386   1.135   0.369  1.00  0.00    -0.374 OA
BRANCH  24  25
ATOM     25  C   UNL     1      -0.600   0.162   0.720  1.00  0.00     0.202 C 
BRANCH  25  26
ATOM     26  C   UNL     1      -1.265  -0.491  -0.494  1.00  0.00     0.261 C 
BRANCH  26  27
ATOM     27  O   UNL     1      -0.350  -1.417  -1.112  1.00  0.00    -0.460 OA
BRANCH  27  28
ATOM     28  C   UNL     1       0.043  -1.064  -2.356  1.00  0.00     0.338 C 
ATOM     29  O   UNL     1      -0.408  -0.164  -3.045  1.00  0.00    -0.246 OA
BRANCH  28  30
ATOM     30  C   UNL     1       1.237  -1.831  -2.761  1.00  0.00     0.060 A 
ATOM     31  C   UNL     1       2.263  -1.105  -3.375  1.00  0.00     0.016 A 
ATOM     32  C   UNL     1       1.317  -3.222  -2.653  1.00  0.00     0.016 A 
ATOM     33  C   UNL     1       3.322  -1.773  -3.979  1.00  0.00     0.010 A 
ATOM     34  C   UNL     1       2.388  -3.894  -3.258  1.00  0.00     0.010 A 
ATOM     35  C   UNL     1       3.359  -3.174  -3.978  1.00  0.00    -0.014 A 
BRANCH  35  36
ATOM     36  C   UNL     1       4.299  -3.847  -4.908  1.00  0.00     0.031 A 
ATOM     37  C   UNL     1       3.780  -4.338  -6.235  1.00  0.00     0.074 A 
ATOM     38  C   UNL     1       5.613  -3.912  -4.633  1.00  0.00     0.049 A 
ATOM     39  N   UNL     1       4.436  -4.852  -7.245  1.00  0.00    -0.248 NA
ATOM     40  C   UNL     1       2.329  -4.230  -6.455  1.00  0.00     0.031 C 
ATOM     41  C   UNL     1       6.243  -3.439  -3.402  1.00  0.00     0.029 A 
ATOM     42  N   UNL     1       6.657  -4.387  -5.387  1.00  0.00    -0.354 N 
ATOM     43  C   UNL     1       3.480  -5.123  -8.217  1.00  0.00     0.074 A 
ATOM     44  C   UNL     1       2.196  -4.757  -7.662  1.00  0.00     0.031 C 
ATOM     45  C   UNL     1       7.570  -3.637  -3.489  1.00  0.00     0.029 A 
ATOM     46  C   UNL     1       7.879  -4.264  -4.773  1.00  0.00     0.049 A 
ATOM     47  H   UNL     1       6.541  -4.779  -6.282  1.00  0.00     0.167 HD
ATOM     48  C   UNL     1       3.656  -5.614  -9.466  1.00  0.00     0.037 A 
ATOM     49  C   UNL     1       9.106  -4.616  -5.201  1.00  0.00     0.037 A 
ATOM     50  C   UNL     1       4.932  -5.971 -10.026  1.00  0.00     0.049 A 
ATOM     51  C   UNL     1       9.270  -5.208  -6.576  1.00  0.00     0.074 A 
ATOM     52  C   UNL     1       5.215  -6.462 -11.288  1.00  0.00     0.029 A 
ATOM     53  N   UNL     1       6.140  -5.878  -9.352  1.00  0.00    -0.354 N 
ATOM     54  N   UNL     1       8.362  -5.431  -7.495  1.00  0.00    -0.248 NA
ATOM     55  C   UNL     1      10.633  -5.588  -6.974  1.00  0.00     0.031 C 
ATOM     56  C   UNL     1       6.591  -6.707 -11.364  1.00  0.00     0.029 A 
ATOM     57  C   UNL     1       7.170  -6.325 -10.165  1.00  0.00     0.049 A 
ATOM     58  H   UNL     1       6.251  -5.543  -8.433  1.00  0.00     0.167 HD
ATOM     59  C   UNL     1       9.045  -5.954  -8.586  1.00  0.00     0.074 A 
ATOM     60  C   UNL     1      10.446  -5.998  -8.220  1.00  0.00     0.031 C 
ATOM     61  C   UNL     1       8.558  -6.364  -9.784  1.00  0.00     0.037 A 
BRANCH  48  62
ATOM     62  C   UNL     1       2.429  -5.811 -10.308  1.00  0.00     0.057 A 
ATOM     63  C   UNL     1       1.727  -4.730 -10.857  1.00  0.00     0.134 A 
ATOM     64  C   UNL     1       1.956  -7.099 -10.589  1.00  0.00     0.134 A 
ATOM     65  F   UNL     1       2.118  -3.470 -10.612  1.00  0.00    -0.206 F 
ATOM     66  C   UNL     1       0.586  -4.922 -11.639  1.00  0.00     0.040 A 
ATOM     67  C   UNL     1       0.831  -7.304 -11.389  1.00  0.00     0.040 A 
ATOM     68  F   UNL     1       2.583  -8.177 -10.096  1.00  0.00    -0.206 F 
ATOM     69  C   UNL     1       0.139  -6.213 -11.911  1.00  0.00     0.006 A 
ENDBRANCH  48  62
BRANCH  49  70
ATOM     70  C   UNL     1      10.284  -4.417  -4.321  1.00  0.00     0.057 A 
ATOM     71  C   UNL     1      11.264  -3.462  -4.618  1.00  0.00     0.134 A 
ATOM     72  C   UNL     1      10.469  -5.195  -3.172  1.00  0.00     0.134 A 
ATOM     73  F   UNL     1      11.154  -2.703  -5.718  1.00  0.00    -0.206 F 
ATOM     74  C   UNL     1      12.393  -3.299  -3.814  1.00  0.00     0.040 A 
ATOM     75  C   UNL     1      11.581  -5.026  -2.346  1.00  0.00     0.040 A 
ATOM     76  F   UNL     1       9.566  -6.127  -2.833  1.00  0.00    -0.206 F 
ATOM     77  C   UNL     1      12.551  -4.081  -2.671  1.00  0.00     0.006 A 
ENDBRANCH  49  70
BRANCH  61  78
ATOM     78  C   UNL     1       9.550  -6.872 -10.789  1.00  0.00     0.057 A 
ATOM     79  C   UNL     1      10.182  -8.113 -10.639  1.00  0.00     0.134 A 
ATOM     80  C   UNL     1       9.859  -6.122 -11.931  1.00  0.00     0.134 A 
ATOM     81  F   UNL     1       9.938  -8.874  -9.562  1.00  0.00    -0.206 F 
ATOM     82  C   UNL     1      11.108  -8.577 -11.575  1.00  0.00     0.040 A 
ATOM     83  C   UNL     1      10.763  -6.587 -12.887  1.00  0.00     0.040 A 
ATOM     84  F   UNL     1       9.281  -4.929 -12.140  1.00  0.00    -0.206 F 
ATOM     85  C   UNL     1      11.397  -7.815 -12.706  1.00  0.00     0.006 A 
ENDBRANCH  61  78
ENDBRANCH  35  36
ENDBRANCH  28  30
ENDBRANCH  27  28
ENDBRANCH  26  27
ENDBRANCH  25  26
ENDBRANCH  24  25
ENDBRANCH   1  24
TORSDOF 19
