REMARK SMILES Nc1ccc(-c2cc(Cl)cc3c2O[C@H](C(F)(F)F)C(C(=O)OCCOCCOC(=O)c2ccc(-c4c5nc(c(-c6c(F)cccc6F)c6ccc([nH]6)c(-c6c(F)cccc6F)c6nc(c(-c7c(F)cccc7F)c7ccc4[nH]7)C=C6)C=C5)cc2)=C3)cc1
REMARK SMILES IDX 25 1 24 2 23 3 22 4 20 5 21 6 19 7 6 8 7 9 12 10 8 11 11 12
REMARK SMILES IDX 13 13 9 14 10 15 85 16 14 17 5 18 2 19 3 20 87 21 4 22 86 23
REMARK SMILES IDX 1 24 15 27 16 28 17 29 18 30 26 31 27 32 28 33 29 34 30 35
REMARK SMILES IDX 31 36 32 37 84 38 33 39 83 40 34 41 35 42 36 43 77 44 37 45
REMARK SMILES IDX 82 46 76 47 78 48 38 49 81 50 75 51 74 52 39 54 65 55 48 56
REMARK SMILES IDX 64 57 49 58 52 59 63 60 79 61 50 62 51 63 62 65 80 66 53 67
REMARK SMILES IDX 40 68 41 69 46 70 42 71 43 72 45 73 47 74 44 75 66 76 67 77
REMARK SMILES IDX 72 78 68 79 69 80 71 81 73 82 70 83 54 84 55 85 60 86 56 87
REMARK SMILES IDX 57 88 59 89 61 90 58 91
REMARK H PARENT 1 25 1 26 78 53 52 64
REMARK Flexibility Score: inf
ROOT
ATOM      1  O   UNL     1      -8.278  -2.058   6.080  1.00  0.00    -0.374 OA
ENDROOT
BRANCH   1   2
ATOM      2  C   UNL     1      -7.504  -3.119   6.632  1.00  0.00     0.202 C 
BRANCH   2   3
ATOM      3  C   UNL     1      -6.772  -4.054   5.664  1.00  0.00     0.261 C 
BRANCH   3   4
ATOM      4  O   UNL     1      -5.909  -3.341   4.768  1.00  0.00    -0.460 OA
BRANCH   4   5
ATOM      5  C   UNL     1      -6.335  -3.323   3.482  1.00  0.00     0.338 C 
ATOM      6  O   UNL     1      -7.291  -3.923   3.019  1.00  0.00    -0.246 OA
BRANCH   5   7
ATOM      7  C   UNL     1      -5.539  -2.356   2.705  1.00  0.00     0.087 C 
ATOM      8  C   UNL     1      -3.329   0.026   0.070  1.00  0.00     0.026 A 
ATOM      9  C   UNL     1      -4.025   0.703  -0.950  1.00  0.00     0.033 A 
ATOM     10  C   UNL     1      -4.080  -0.688   1.029  1.00  0.00     0.135 A 
ATOM     11  C   UNL     1      -5.416   0.673  -1.009  1.00  0.00     0.042 A 
ATOM     12  C   UNL     1      -5.476  -0.751   0.934  1.00  0.00     0.019 A 
ATOM     13  O   UNL     1      -3.393  -1.281   2.057  1.00  0.00    -0.475 OA
ATOM     14  Cl  UNL     1      -6.239   1.504  -2.270  1.00  0.00    -0.084 Cl
ATOM     15  C   UNL     1      -6.145  -0.052  -0.074  1.00  0.00     0.032 A 
ATOM     16  C   UNL     1      -6.226  -1.609   1.832  1.00  0.00     0.027 C 
ATOM     17  C   UNL     1      -4.051  -2.272   2.888  1.00  0.00     0.316 C 
BRANCH   8  18
ATOM     18  C   UNL     1      -1.854   0.029   0.065  1.00  0.00    -0.014 A 
ATOM     19  C   UNL     1       0.983   0.018   0.013  1.00  0.00     0.031 A 
ATOM     20  C   UNL     1       0.267  -1.178  -0.006  1.00  0.00     0.026 A 
ATOM     21  C   UNL     1       0.273   1.219   0.011  1.00  0.00     0.026 A 
ATOM     22  C   UNL     1      -1.132  -1.174   0.027  1.00  0.00     0.011 A 
ATOM     23  C   UNL     1      -1.127   1.227   0.050  1.00  0.00     0.011 A 
BRANCH  19  24
ATOM     24  N   UNL     1       2.363   0.012  -0.098  1.00  0.00    -0.399 N 
ATOM     25  H   UNL     1       2.854  -0.841  -0.096  1.00  0.00     0.156 HD
ATOM     26  H   UNL     1       2.854   0.862  -0.179  1.00  0.00     0.156 HD
ENDBRANCH  19  24
ENDBRANCH   8  18
BRANCH  17  27
ATOM     27  C   UNL     1      -3.351  -3.622   2.677  1.00  0.00     0.430 C 
ATOM     28  F   UNL     1      -2.007  -3.505   2.798  1.00  0.00    -0.167 F 
ATOM     29  F   UNL     1      -3.741  -4.541   3.591  1.00  0.00    -0.167 F 
ATOM     30  F   UNL     1      -3.603  -4.137   1.452  1.00  0.00    -0.167 F 
ENDBRANCH  17  27
ENDBRANCH   5   7
ENDBRANCH   4   5
ENDBRANCH   3   4
ENDBRANCH   2   3
ENDBRANCH   1   2
BRANCH   1  31
ATOM     31  C   UNL     1      -7.602  -0.927   5.534  1.00  0.00     0.202 C 
BRANCH  31  32
ATOM     32  C   UNL     1      -6.882   0.032   6.491  1.00  0.00     0.261 C 
BRANCH  32  33
ATOM     33  O   UNL     1      -5.800  -0.590   7.203  1.00  0.00    -0.460 OA
BRANCH  33  34
ATOM     34  C   UNL     1      -6.027  -0.778   8.527  1.00  0.00     0.338 C 
ATOM     35  O   UNL     1      -7.017  -0.451   9.164  1.00  0.00    -0.246 OA
BRANCH  34  36
ATOM     36  C   UNL     1      -4.967  -1.635   9.088  1.00  0.00     0.060 A 
ATOM     37  C   UNL     1      -3.622  -1.285   8.977  1.00  0.00     0.016 A 
ATOM     38  C   UNL     1      -5.350  -2.788   9.786  1.00  0.00     0.016 A 
ATOM     39  C   UNL     1      -2.659  -2.079   9.603  1.00  0.00     0.010 A 
ATOM     40  C   UNL     1      -4.387  -3.579  10.412  1.00  0.00     0.010 A 
ATOM     41  C   UNL     1      -3.036  -3.214  10.347  1.00  0.00    -0.014 A 
BRANCH  41  42
ATOM     42  C   UNL     1      -2.029  -3.920  11.177  1.00  0.00     0.031 A 
ATOM     43  C   UNL     1      -1.509  -5.276  10.810  1.00  0.00     0.074 A 
ATOM     44  C   UNL     1      -1.591  -3.310  12.296  1.00  0.00     0.049 A 
ATOM     45  N   UNL     1      -0.555  -5.971  11.378  1.00  0.00    -0.248 NA
ATOM     46  C   UNL     1      -2.145  -5.942   9.666  1.00  0.00     0.031 C 
ATOM     47  C   UNL     1      -2.069  -2.016  12.789  1.00  0.00     0.029 A 
ATOM     48  N   UNL     1      -0.644  -3.688  13.212  1.00  0.00    -0.354 N 
ATOM     49  C   UNL     1      -0.455  -7.146  10.646  1.00  0.00     0.074 A 
ATOM     50  C   UNL     1      -1.489  -7.095   9.631  1.00  0.00     0.031 C 
ATOM     51  C   UNL     1      -1.382  -1.688  13.893  1.00  0.00     0.029 A 
ATOM     52  C   UNL     1      -0.441  -2.759  14.203  1.00  0.00     0.049 A 
ATOM     53  H   UNL     1      -0.157  -4.542  13.164  1.00  0.00     0.167 HD
ATOM     54  C   UNL     1       0.432  -8.162  10.794  1.00  0.00     0.037 A 
ATOM     55  C   UNL     1       0.413  -2.768  15.242  1.00  0.00     0.037 A 
ATOM     56  C   UNL     1       1.433  -8.224  11.832  1.00  0.00     0.049 A 
ATOM     57  C   UNL     1       1.348  -3.932  15.413  1.00  0.00     0.074 A 
ATOM     58  C   UNL     1       2.396  -9.196  12.047  1.00  0.00     0.029 A 
ATOM     59  N   UNL     1       1.585  -7.287  12.844  1.00  0.00    -0.354 N 
ATOM     60  N   UNL     1       1.500  -4.992  14.656  1.00  0.00    -0.248 NA
ATOM     61  C   UNL     1       2.237  -3.893  16.581  1.00  0.00     0.031 C 
ATOM     62  C   UNL     1       3.091  -8.877  13.220  1.00  0.00     0.029 A 
ATOM     63  C   UNL     1       2.603  -7.674  13.704  1.00  0.00     0.049 A 
ATOM     64  H   UNL     1       1.049  -6.467  12.938  1.00  0.00     0.167 HD
ATOM     65  C   UNL     1       2.516  -5.734  15.243  1.00  0.00     0.074 A 
ATOM     66  C   UNL     1       2.964  -4.986  16.400  1.00  0.00     0.031 C 
ATOM     67  C   UNL     1       3.032  -6.929  14.862  1.00  0.00     0.037 A 
BRANCH  54  68
ATOM     68  C   UNL     1       0.353  -9.293   9.807  1.00  0.00     0.057 A 
ATOM     69  C   UNL     1      -0.043 -10.575  10.207  1.00  0.00     0.134 A 
ATOM     70  C   UNL     1       0.702  -9.118   8.460  1.00  0.00     0.134 A 
ATOM     71  F   UNL     1      -0.379 -10.818  11.482  1.00  0.00    -0.206 F 
ATOM     72  C   UNL     1      -0.094 -11.639   9.304  1.00  0.00     0.040 A 
ATOM     73  C   UNL     1       0.627 -10.167   7.542  1.00  0.00     0.040 A 
ATOM     74  F   UNL     1       1.087  -7.915   8.008  1.00  0.00    -0.206 F 
ATOM     75  C   UNL     1       0.233 -11.434   7.965  1.00  0.00     0.006 A 
ENDBRANCH  54  68
BRANCH  55  76
ATOM     76  C   UNL     1       0.443  -1.630  16.195  1.00  0.00     0.057 A 
ATOM     77  C   UNL     1      -0.625  -1.380  17.066  1.00  0.00     0.134 A 
ATOM     78  C   UNL     1       1.557  -0.787  16.282  1.00  0.00     0.134 A 
ATOM     79  F   UNL     1      -1.725  -2.145  17.026  1.00  0.00    -0.206 F 
ATOM     80  C   UNL     1      -0.585  -0.335  17.989  1.00  0.00     0.040 A 
ATOM     81  C   UNL     1       1.624   0.242  17.222  1.00  0.00     0.040 A 
ATOM     82  F   UNL     1       2.618  -0.986  15.485  1.00  0.00    -0.206 F 
ATOM     83  C   UNL     1       0.548   0.471  18.078  1.00  0.00     0.006 A 
ENDBRANCH  55  76
BRANCH  67  84
ATOM     84  C   UNL     1       4.152  -7.481  15.699  1.00  0.00     0.057 A 
ATOM     85  C   UNL     1       5.456  -7.551  15.192  1.00  0.00     0.134 A 
ATOM     86  C   UNL     1       3.948  -7.929  17.012  1.00  0.00     0.134 A 
ATOM     87  F   UNL     1       5.725  -7.148  13.941  1.00  0.00    -0.206 F 
ATOM     88  C   UNL     1       6.515  -8.037  15.961  1.00  0.00     0.040 A 
ATOM     89  C   UNL     1       5.005  -8.385  17.802  1.00  0.00     0.040 A 
ATOM     90  F   UNL     1       2.727  -7.875  17.566  1.00  0.00    -0.206 F 
ATOM     91  C   UNL     1       6.293  -8.443  17.275  1.00  0.00     0.006 A 
ENDBRANCH  67  84
ENDBRANCH  41  42
ENDBRANCH  34  36
ENDBRANCH  33  34
ENDBRANCH  32  33
ENDBRANCH  31  32
ENDBRANCH   1  31
TORSDOF 17
