REMARK SMILES O=C(OCCOCCOC(=O)c1nnn(-c2cccc(OC(F)(F)F)c2)c1-c1ccncc1)c1ccc(-c2c3nc(c(-c4c(F)cccc4F)c4ccc([nH]4)c(-c4c(F)cccc4F)c4nc(c(-c5c(F)cccc5F)c5ccc2[nH]5)C=C4)C=C3)cc1
REMARK SMILES IDX 7 1 6 2 5 3 4 4 3 5 2 6 1 7 34 8 35 9 87 10 36 11 86 12
REMARK SMILES IDX 37 13 38 14 39 15 80 16 40 17 85 18 79 19 81 20 41 21 84 22
REMARK SMILES IDX 78 23 77 24 42 26 68 27 51 28 67 29 52 30 55 31 66 32 82 33
REMARK SMILES IDX 53 34 54 35 65 37 83 38 56 39 43 40 44 41 49 42 45 43 46 44
REMARK SMILES IDX 48 45 50 46 47 47 69 48 70 49 75 50 71 51 72 52 74 53 76 54
REMARK SMILES IDX 73 55 57 56 58 57 63 58 59 59 60 60 62 61 64 62 61 63 8 64
REMARK SMILES IDX 9 65 10 66 11 67 12 68 13 69 27 70 14 71 15 72 28 73 29 74
REMARK SMILES IDX 33 75 30 76 32 77 31 78 16 79 17 80 26 81 18 82 20 83 19 84
REMARK SMILES IDX 21 85 22 86 23 87 24 88 25 89
REMARK H PARENT 81 25 55 36
REMARK Flexibility Score: inf
ROOT
ATOM      1  C   UNL     1       3.292   0.593   1.935  1.00  0.00     0.202 C 
ENDROOT
BRANCH   1   2
ATOM      2  O   UNL     1       4.362   0.128   1.096  1.00  0.00    -0.374 OA
BRANCH   2   3
ATOM      3  C   UNL     1       4.770   1.016   0.054  1.00  0.00     0.202 C 
BRANCH   3   4
ATOM      4  C   UNL     1       4.636   0.473  -1.365  1.00  0.00     0.261 C 
BRANCH   4   5
ATOM      5  O   UNL     1       3.281   0.362  -1.854  1.00  0.00    -0.460 OA
BRANCH   5   6
ATOM      6  C   UNL     1       2.261   0.020  -1.033  1.00  0.00     0.338 C 
ATOM      7  O   UNL     1       1.335   0.781  -0.783  1.00  0.00    -0.246 OA
BRANCH   6   8
ATOM      8  C   UNL     1       2.170  -1.433  -0.742  1.00  0.00     0.060 A 
ATOM      9  C   UNL     1       3.276  -2.280  -0.792  1.00  0.00     0.016 A 
ATOM     10  C   UNL     1       0.895  -1.972  -0.521  1.00  0.00     0.016 A 
ATOM     11  C   UNL     1       3.099  -3.642  -0.867  1.00  0.00     0.010 A 
ATOM     12  C   UNL     1       0.717  -3.348  -0.535  1.00  0.00     0.010 A 
ATOM     13  C   UNL     1       1.810  -4.166  -0.816  1.00  0.00    -0.014 A 
BRANCH  13  14
ATOM     14  C   UNL     1       1.698  -5.587  -1.102  1.00  0.00     0.031 A 
ATOM     15  C   UNL     1       2.486  -6.492  -0.220  1.00  0.00     0.074 A 
ATOM     16  C   UNL     1       0.930  -6.048  -2.106  1.00  0.00     0.049 A 
ATOM     17  N   UNL     1       3.393  -7.356  -0.548  1.00  0.00    -0.248 NA
ATOM     18  C   UNL     1       2.298  -6.335   1.230  1.00  0.00     0.031 C 
ATOM     19  C   UNL     1      -0.066  -5.320  -2.897  1.00  0.00     0.029 A 
ATOM     20  N   UNL     1       0.814  -7.324  -2.561  1.00  0.00    -0.354 N 
ATOM     21  C   UNL     1       3.773  -7.977   0.641  1.00  0.00     0.074 A 
ATOM     22  C   UNL     1       3.158  -7.232   1.708  1.00  0.00     0.031 C 
ATOM     23  C   UNL     1      -0.848  -6.209  -3.545  1.00  0.00     0.029 A 
ATOM     24  C   UNL     1      -0.320  -7.544  -3.321  1.00  0.00     0.049 A 
ATOM     25  H   UNL     1       1.475  -8.027  -2.366  1.00  0.00     0.167 HD
ATOM     26  C   UNL     1       4.405  -9.182   0.657  1.00  0.00     0.037 A 
ATOM     27  C   UNL     1      -0.840  -8.747  -3.655  1.00  0.00     0.037 A 
ATOM     28  C   UNL     1       5.096  -9.441  -0.577  1.00  0.00     0.049 A 
ATOM     29  C   UNL     1       0.227  -9.766  -3.502  1.00  0.00     0.074 A 
ATOM     30  C   UNL     1       6.117  -8.820  -1.270  1.00  0.00     0.029 A 
ATOM     31  N   UNL     1       4.556 -10.344  -1.458  1.00  0.00    -0.354 N 
ATOM     32  N   UNL     1       1.272  -9.857  -4.276  1.00  0.00    -0.248 NA
ATOM     33  C   UNL     1       0.346 -10.438  -2.216  1.00  0.00     0.031 C 
ATOM     34  C   UNL     1       5.809  -9.023  -2.647  1.00  0.00     0.029 A 
ATOM     35  C   UNL     1       4.635  -9.774  -2.701  1.00  0.00     0.049 A 
ATOM     36  H   UNL     1       4.184 -11.229  -1.239  1.00  0.00     0.167 HD
ATOM     37  C   UNL     1       2.309 -10.231  -3.433  1.00  0.00     0.074 A 
ATOM     38  C   UNL     1       1.660 -10.671  -2.203  1.00  0.00     0.031 C 
ATOM     39  C   UNL     1       3.603  -9.890  -3.704  1.00  0.00     0.037 A 
BRANCH  26  40
ATOM     40  C   UNL     1       4.093 -10.270   1.660  1.00  0.00     0.057 A 
ATOM     41  C   UNL     1       4.845 -11.460   1.646  1.00  0.00     0.134 A 
ATOM     42  C   UNL     1       2.907 -10.325   2.421  1.00  0.00     0.134 A 
ATOM     43  F   UNL     1       5.993 -11.543   0.956  1.00  0.00    -0.206 F 
ATOM     44  C   UNL     1       4.401 -12.637   2.262  1.00  0.00     0.040 A 
ATOM     45  C   UNL     1       2.481 -11.480   3.081  1.00  0.00     0.040 A 
ATOM     46  F   UNL     1       2.046  -9.303   2.490  1.00  0.00    -0.206 F 
ATOM     47  C   UNL     1       3.208 -12.653   2.972  1.00  0.00     0.006 A 
ENDBRANCH  26  40
BRANCH  27  48
ATOM     48  C   UNL     1      -2.273  -9.089  -3.774  1.00  0.00     0.057 A 
ATOM     49  C   UNL     1      -2.692 -10.239  -4.452  1.00  0.00     0.134 A 
ATOM     50  C   UNL     1      -3.255  -8.422  -3.018  1.00  0.00     0.134 A 
ATOM     51  F   UNL     1      -1.816 -10.971  -5.156  1.00  0.00    -0.206 F 
ATOM     52  C   UNL     1      -4.012 -10.703  -4.379  1.00  0.00     0.040 A 
ATOM     53  C   UNL     1      -4.578  -8.865  -2.948  1.00  0.00     0.040 A 
ATOM     54  F   UNL     1      -2.947  -7.365  -2.252  1.00  0.00    -0.206 F 
ATOM     55  C   UNL     1      -4.958 -10.018  -3.622  1.00  0.00     0.006 A 
ENDBRANCH  27  48
BRANCH  39  56
ATOM     56  C   UNL     1       3.912  -9.313  -5.055  1.00  0.00     0.057 A 
ATOM     57  C   UNL     1       3.411  -8.081  -5.500  1.00  0.00     0.134 A 
ATOM     58  C   UNL     1       4.869  -9.938  -5.862  1.00  0.00     0.134 A 
ATOM     59  F   UNL     1       2.574  -7.360  -4.743  1.00  0.00    -0.206 F 
ATOM     60  C   UNL     1       3.810  -7.519  -6.716  1.00  0.00     0.040 A 
ATOM     61  C   UNL     1       5.301  -9.371  -7.063  1.00  0.00     0.040 A 
ATOM     62  F   UNL     1       5.441 -11.087  -5.468  1.00  0.00    -0.206 F 
ATOM     63  C   UNL     1       4.763  -8.162  -7.499  1.00  0.00     0.006 A 
ENDBRANCH  39  56
ENDBRANCH  13  14
ENDBRANCH   6   8
ENDBRANCH   5   6
ENDBRANCH   4   5
ENDBRANCH   3   4
ENDBRANCH   2   3
ENDBRANCH   1   2
BRANCH   1  64
ATOM     64  C   UNL     1       3.578   1.773   2.874  1.00  0.00     0.261 C 
BRANCH  64  65
ATOM     65  O   UNL     1       3.794   2.990   2.144  1.00  0.00    -0.458 OA
BRANCH  65  66
ATOM     66  C   UNL     1       5.098   3.345   1.936  1.00  0.00     0.361 C 
ATOM     67  O   UNL     1       6.052   2.820   2.479  1.00  0.00    -0.244 OA
BRANCH  66  68
ATOM     68  C   UNL     1       5.220   4.342   0.882  1.00  0.00     0.198 A 
ATOM     69  N   UNL     1       6.210   4.272  -0.075  1.00  0.00    -0.122 NA
ATOM     70  C   UNL     1       4.379   5.402   0.584  1.00  0.00     0.109 A 
ATOM     71  N   UNL     1       6.035   5.271  -0.931  1.00  0.00    -0.061 NA
ATOM     72  N   UNL     1       5.082   6.071  -0.412  1.00  0.00    -0.212 N 
BRANCH  70  73
ATOM     73  C   UNL     1       3.108   5.861   1.149  1.00  0.00     0.006 A 
ATOM     74  C   UNL     1       2.922   5.943   2.528  1.00  0.00     0.030 A 
ATOM     75  C   UNL     1       2.056   6.240   0.308  1.00  0.00     0.030 A 
ATOM     76  C   UNL     1       1.703   6.396   3.005  1.00  0.00     0.111 A 
ATOM     77  C   UNL     1       0.876   6.686   0.882  1.00  0.00     0.111 A 
ATOM     78  N   UNL     1       0.679   6.772   2.212  1.00  0.00    -0.265 NA
ENDBRANCH  70  73
BRANCH  72  79
ATOM     79  C   UNL     1       5.066   7.457  -0.668  1.00  0.00     0.071 A 
ATOM     80  C   UNL     1       5.127   7.959  -1.965  1.00  0.00     0.029 A 
ATOM     81  C   UNL     1       5.002   8.317   0.439  1.00  0.00     0.075 A 
ATOM     82  C   UNL     1       5.024   9.339  -2.144  1.00  0.00     0.006 A 
ATOM     83  C   UNL     1       4.939   9.692   0.265  1.00  0.00     0.131 A 
ATOM     84  C   UNL     1       4.923  10.196  -1.038  1.00  0.00     0.047 A 
BRANCH  83  85
ATOM     85  O   UNL     1       4.886  10.614   1.270  1.00  0.00    -0.406 OA
BRANCH  85  86
ATOM     86  C   UNL     1       5.038  10.135   2.602  1.00  0.00     0.573 C 
ATOM     87  F   UNL     1       4.042   9.285   2.934  1.00  0.00    -0.132 F 
ATOM     88  F   UNL     1       6.225   9.508   2.761  1.00  0.00    -0.132 F 
ATOM     89  F   UNL     1       4.998  11.180   3.455  1.00  0.00    -0.132 F 
ENDBRANCH  85  86
ENDBRANCH  83  85
ENDBRANCH  72  79
ENDBRANCH  66  68
ENDBRANCH  65  66
ENDBRANCH  64  65
ENDBRANCH   1  64
TORSDOF 18
