REMARK SMILES O=C(CCn1cc(/C=C\C(=O)c2ccc(F)cc2)c(-c2cccc(Cl)c2)n1)OCCOCCOC(=O)c1ccc(-c2c3nc(c(-c4c(F)cccc4F)c4ccc([nH]4)c(-c4c(F)cccc4F)c4nc(c(-c5c(F)cccc5F)c5ccc2[nH]5)C=C4)C=C3)cc1
REMARK SMILES IDX 29 1 28 2 2 3 1 4 3 5 4 6 5 7 6 8 27 9 7 10 19 11 8 12 9 13
REMARK SMILES IDX 10 14 11 15 12 16 13 17 18 18 14 19 17 20 15 21 16 22 20 23
REMARK SMILES IDX 21 24 26 25 22 26 24 27 23 28 25 29 30 30 31 31 32 32 33 33
REMARK SMILES IDX 34 34 35 35 36 36 37 37 38 38 90 39 39 40 89 41 40 42 41 43
REMARK SMILES IDX 42 44 83 45 43 46 88 47 82 48 84 49 44 50 87 51 81 52 80 53
REMARK SMILES IDX 45 55 71 56 54 57 70 58 55 59 58 60 69 61 85 62 56 63 57 64
REMARK SMILES IDX 68 66 86 67 59 68 46 69 47 70 52 71 48 72 49 73 51 74 53 75
REMARK SMILES IDX 50 76 72 77 73 78 78 79 74 80 75 81 77 82 79 83 76 84 60 85
REMARK SMILES IDX 61 86 66 87 62 88 63 89 65 90 67 91 64 92
REMARK H PARENT 84 54 58 65
REMARK Flexibility Score: inf
ROOT
ATOM      1  C   UNL     1       3.981  -0.057  -0.872  1.00  0.00     0.261 C 
ENDROOT
BRANCH   1   2
ATOM      2  O   UNL     1       2.648   0.163  -0.410  1.00  0.00    -0.463 OA
BRANCH   2   3
ATOM      3  C   UNL     1       2.387   0.334   0.910  1.00  0.00     0.307 C 
ATOM      4  O   UNL     1       1.379  -0.151   1.413  1.00  0.00    -0.252 OA
BRANCH   3   5
ATOM      5  C   UNL     1       3.247   1.337   1.633  1.00  0.00     0.146 C 
BRANCH   5   6
ATOM      6  C   UNL     1       4.122   0.799   2.754  1.00  0.00     0.156 C 
BRANCH   6   7
ATOM      7  N   UNL     1       5.048  -0.253   2.383  1.00  0.00    -0.271 N 
ATOM      8  C   UNL     1       6.231  -0.160   1.694  1.00  0.00     0.117 A 
ATOM      9  N   UNL     1       4.706  -1.515   2.662  1.00  0.00    -0.172 NA
ATOM     10  C   UNL     1       6.522  -1.446   1.260  1.00  0.00     0.021 A 
ATOM     11  C   UNL     1       5.508  -2.253   1.891  1.00  0.00     0.100 A 
BRANCH  10  12
ATOM     12  C   UNL     1       7.573  -1.778   0.321  1.00  0.00     0.016 C 
ATOM     13  C   UNL     1       7.890  -2.900  -0.373  1.00  0.00     0.053 C 
BRANCH  13  14
ATOM     14  C   UNL     1       7.348  -4.327  -0.524  1.00  0.00     0.185 C 
ATOM     15  O   UNL     1       7.886  -5.091  -1.317  1.00  0.00    -0.289 OA
BRANCH  14  16
ATOM     16  C   UNL     1       6.053  -4.703   0.234  1.00  0.00     0.022 A 
ATOM     17  C   UNL     1       4.930  -3.442  -0.434  1.00  0.00     0.015 A 
ATOM     18  C   UNL     1       5.486  -5.621   1.950  1.00  0.00     0.015 A 
ATOM     19  C   UNL     1       3.487  -3.024   0.490  1.00  0.00     0.040 A 
ATOM     20  C   UNL     1       3.992  -5.058   2.779  1.00  0.00     0.040 A 
ATOM     21  C   UNL     1       3.074  -3.781   2.031  1.00  0.00     0.123 A 
ATOM     22  F   UNL     1       1.954  -3.368   2.643  1.00  0.00    -0.207 F 
ENDBRANCH  14  16
ENDBRANCH  13  14
ENDBRANCH  10  12
BRANCH  11  23
ATOM     23  C   UNL     1       5.389  -3.756   1.724  1.00  0.00     0.004 A 
ATOM     24  C   UNL     1       4.258  -5.066   0.670  1.00  0.00     0.010 A 
ATOM     25  C   UNL     1       7.083  -4.303   2.135  1.00  0.00     0.031 A 
ATOM     26  C   UNL     1       4.984  -6.605   0.120  1.00  0.00     0.002 A 
ATOM     27  C   UNL     1       7.641  -5.850   1.513  1.00  0.00     0.041 A 
ATOM     28  C   UNL     1       6.639  -6.930   0.545  1.00  0.00     0.020 A 
ATOM     29  Cl  UNL     1       9.243  -6.360   1.893  1.00  0.00    -0.084 Cl
ENDBRANCH  11  23
ENDBRANCH   6   7
ENDBRANCH   5   6
ENDBRANCH   3   5
ENDBRANCH   2   3
ENDBRANCH   1   2
BRANCH   1  30
ATOM     30  C   UNL     1       4.848   1.145  -1.261  1.00  0.00     0.202 C 
BRANCH  30  31
ATOM     31  O   UNL     1       4.310   2.451  -1.393  1.00  0.00    -0.374 OA
BRANCH  31  32
ATOM     32  C   UNL     1       2.957   2.664  -1.765  1.00  0.00     0.202 C 
BRANCH  32  33
ATOM     33  C   UNL     1       2.506   2.185  -3.134  1.00  0.00     0.261 C 
BRANCH  33  34
ATOM     34  O   UNL     1       2.870   0.839  -3.387  1.00  0.00    -0.460 OA
BRANCH  34  35
ATOM     35  C   UNL     1       4.013   0.693  -4.090  1.00  0.00     0.338 C 
ATOM     36  O   UNL     1       4.825   1.556  -4.375  1.00  0.00    -0.246 OA
BRANCH  35  37
ATOM     37  C   UNL     1       4.078  -0.691  -4.585  1.00  0.00     0.060 A 
ATOM     38  C   UNL     1       5.211  -0.984  -5.341  1.00  0.00     0.016 A 
ATOM     39  C   UNL     1       2.850  -1.323  -4.811  1.00  0.00     0.016 A 
ATOM     40  C   UNL     1       4.991  -1.490  -6.599  1.00  0.00     0.010 A 
ATOM     41  C   UNL     1       2.650  -1.883  -6.040  1.00  0.00     0.010 A 
ATOM     42  C   UNL     1       3.672  -1.771  -6.975  1.00  0.00    -0.014 A 
BRANCH  42  43
ATOM     43  C   UNL     1       3.373  -2.094  -8.352  1.00  0.00     0.031 A 
ATOM     44  C   UNL     1       3.783  -3.486  -8.630  1.00  0.00     0.074 A 
ATOM     45  C   UNL     1       2.733  -1.254  -9.197  1.00  0.00     0.049 A 
ATOM     46  N   UNL     1       4.824  -3.865  -9.290  1.00  0.00    -0.248 NA
ATOM     47  C   UNL     1       3.149  -4.558  -7.840  1.00  0.00     0.031 C 
ATOM     48  C   UNL     1       2.112   0.053  -8.949  1.00  0.00     0.029 A 
ATOM     49  N   UNL     1       2.462  -1.456 -10.521  1.00  0.00    -0.354 N 
ATOM     50  C   UNL     1       4.832  -5.248  -9.183  1.00  0.00     0.074 A 
ATOM     51  C   UNL     1       3.964  -5.581  -8.089  1.00  0.00     0.031 C 
ATOM     52  C   UNL     1       1.335   0.401 -10.008  1.00  0.00     0.029 A 
ATOM     53  C   UNL     1       1.518  -0.573 -11.067  1.00  0.00     0.049 A 
ATOM     54  H   UNL     1       2.895  -2.164 -11.050  1.00  0.00     0.167 HD
ATOM     55  C   UNL     1       5.314  -6.025 -10.186  1.00  0.00     0.037 A 
ATOM     56  C   UNL     1       0.942  -0.717 -12.295  1.00  0.00     0.037 A 
ATOM     57  C   UNL     1       6.141  -5.257 -11.080  1.00  0.00     0.049 A 
ATOM     58  C   UNL     1       1.842  -1.617 -13.073  1.00  0.00     0.074 A 
ATOM     59  C   UNL     1       7.346  -4.600 -10.929  1.00  0.00     0.029 A 
ATOM     60  N   UNL     1       5.526  -4.683 -12.167  1.00  0.00    -0.354 N 
ATOM     61  N   UNL     1       3.057  -1.281 -13.414  1.00  0.00    -0.248 NA
ATOM     62  C   UNL     1       1.585  -3.047 -12.959  1.00  0.00     0.031 C 
ATOM     63  C   UNL     1       7.180  -3.363 -11.616  1.00  0.00     0.029 A 
ATOM     64  C   UNL     1       5.939  -3.375 -12.253  1.00  0.00     0.049 A 
ATOM     65  H   UNL     1       4.898  -5.132 -12.779  1.00  0.00     0.167 HD
ATOM     66  C   UNL     1       3.820  -2.407 -13.140  1.00  0.00     0.074 A 
ATOM     67  C   UNL     1       2.850  -3.469 -12.864  1.00  0.00     0.031 C 
ATOM     68  C   UNL     1       5.150  -2.317 -12.848  1.00  0.00     0.037 A 
BRANCH  55  69
ATOM     69  C   UNL     1       4.737  -7.368 -10.523  1.00  0.00     0.057 A 
ATOM     70  C   UNL     1       3.412  -7.758 -10.226  1.00  0.00     0.134 A 
ATOM     71  C   UNL     1       5.437  -8.232 -11.376  1.00  0.00     0.134 A 
ATOM     72  F   UNL     1       2.565  -6.973  -9.548  1.00  0.00    -0.206 F 
ATOM     73  C   UNL     1       2.842  -8.941 -10.696  1.00  0.00     0.040 A 
ATOM     74  C   UNL     1       4.856  -9.392 -11.901  1.00  0.00     0.040 A 
ATOM     75  F   UNL     1       6.686  -7.943 -11.771  1.00  0.00    -0.206 F 
ATOM     76  C   UNL     1       3.558  -9.754 -11.555  1.00  0.00     0.006 A 
ENDBRANCH  55  69
BRANCH  56  77
ATOM     77  C   UNL     1      -0.488  -0.552 -12.683  1.00  0.00     0.057 A 
ATOM     78  C   UNL     1      -1.516  -0.736 -11.744  1.00  0.00     0.134 A 
ATOM     79  C   UNL     1      -0.891  -0.544 -14.031  1.00  0.00     0.134 A 
ATOM     80  F   UNL     1      -1.243  -0.828 -10.435  1.00  0.00    -0.206 F 
ATOM     81  C   UNL     1      -2.853  -0.935 -12.117  1.00  0.00     0.040 A 
ATOM     82  C   UNL     1      -2.229  -0.738 -14.419  1.00  0.00     0.040 A 
ATOM     83  F   UNL     1       0.016  -0.422 -15.012  1.00  0.00    -0.206 F 
ATOM     84  C   UNL     1      -3.213  -0.951 -13.459  1.00  0.00     0.006 A 
ENDBRANCH  56  77
BRANCH  68  85
ATOM     85  C   UNL     1       5.824  -0.974 -12.986  1.00  0.00     0.057 A 
ATOM     86  C   UNL     1       6.925  -0.877 -13.842  1.00  0.00     0.134 A 
ATOM     87  C   UNL     1       5.562   0.141 -12.171  1.00  0.00     0.134 A 
ATOM     88  F   UNL     1       7.267  -1.919 -14.616  1.00  0.00    -0.206 F 
ATOM     89  C   UNL     1       7.742   0.255 -13.876  1.00  0.00     0.040 A 
ATOM     90  C   UNL     1       6.354   1.296 -12.217  1.00  0.00     0.040 A 
ATOM     91  F   UNL     1       4.580   0.119 -11.261  1.00  0.00    -0.206 F 
ATOM     92  C   UNL     1       7.457   1.349 -13.063  1.00  0.00     0.006 A 
ENDBRANCH  68  85
ENDBRANCH  42  43
ENDBRANCH  35  37
ENDBRANCH  34  35
ENDBRANCH  33  34
ENDBRANCH  32  33
ENDBRANCH  31  32
ENDBRANCH  30  31
ENDBRANCH   1  30
TORSDOF 20
