REMARK SMILES Cc1ccc([C@@]23C[C@@H]4C[C@@H](C[C@@](C(=O)N5CCC(C(=O)OCCOCCOC(=O)c6ccc(-c7c8nc(c(-c9c(F)cccc9F)c9ccc([nH]9)c(-c9c(F)cccc9F)c9nc(c(-c%10c(F)cccc%10F)c%10ccc7[nH]%10)C=C9)C=C8)cc6)CC5)(C4)C2)C3)cc1
REMARK SMILES IDX 24 1 23 2 22 3 21 4 19 5 20 6 18 7 13 8 14 9 15 10 16 11
REMARK SMILES IDX 85 12 17 13 84 14 12 15 6 16 7 17 87 18 88 19 8 20 10 21
REMARK SMILES IDX 9 22 86 23 11 24 5 25 1 26 2 27 3 28 90 29 4 30 89 31 25 32
REMARK SMILES IDX 26 33 27 34 28 35 29 36 30 37 31 38 83 39 32 40 82 41 33 42
REMARK SMILES IDX 34 43 35 44 76 45 36 46 81 47 75 48 77 49 37 50 80 51 74 52
REMARK SMILES IDX 73 53 38 55 64 56 47 57 63 58 48 59 51 60 62 61 78 62 49 63
REMARK SMILES IDX 50 64 61 66 79 67 52 68 39 69 40 70 45 71 41 72 42 73 44 74
REMARK SMILES IDX 46 75 43 76 65 77 66 78 71 79 67 80 68 81 70 82 72 83 69 84
REMARK SMILES IDX 53 85 54 86 59 87 55 88 56 89 58 90 60 91 57 92
REMARK H PARENT 77 54 51 65
REMARK Flexibility Score: inf
ROOT
ATOM      1  O   UNL     1      -6.558  -3.135  -6.853  1.00  0.00    -0.374 OA
ENDROOT
BRANCH   1   2
ATOM      2  C   UNL     1      -7.363  -2.323  -6.017  1.00  0.00     0.202 C 
BRANCH   2   3
ATOM      3  C   UNL     1      -8.066  -3.276  -5.111  1.00  0.00     0.261 C 
BRANCH   3   4
ATOM      4  O   UNL     1      -7.212  -3.754  -4.068  1.00  0.00    -0.463 OA
BRANCH   4   5
ATOM      5  C   UNL     1      -6.284  -4.729  -4.355  1.00  0.00     0.309 C 
ATOM      6  O   UNL     1      -6.310  -5.524  -5.262  1.00  0.00    -0.252 OA
BRANCH   5   7
ATOM      7  C   UNL     1      -5.167  -4.603  -3.345  1.00  0.00     0.103 C 
ATOM      8  C   UNL     1      -5.593  -2.402  -0.064  1.00  0.00     0.228 C 
ATOM      9  O   UNL     1      -6.468  -2.909   0.639  1.00  0.00    -0.274 OA
ATOM     10  N   UNL     1      -4.789  -3.175  -0.921  1.00  0.00    -0.342 N 
ATOM     11  C   UNL     1      -4.840  -4.622  -0.816  1.00  0.00     0.120 C 
ATOM     12  C   UNL     1      -4.023  -2.734  -2.098  1.00  0.00     0.120 C 
ATOM     13  C   UNL     1      -5.630  -5.164  -1.990  1.00  0.00     0.037 C 
ATOM     14  C   UNL     1      -4.775  -3.116  -3.337  1.00  0.00     0.037 C 
BRANCH   8  15
ATOM     15  C   UNL     1      -5.277  -0.899   0.052  1.00  0.00     0.051 C 
ATOM     16  C   UNL     1      -3.162   0.550   0.220  1.00  0.00    -0.003 C 
ATOM     17  C   UNL     1      -3.659   1.222  -1.097  1.00  0.00     0.015 C 
ATOM     18  C   UNL     1      -3.768  -0.845   0.304  1.00  0.00     0.028 C 
ATOM     19  C   UNL     1      -3.766   1.301   1.431  1.00  0.00     0.015 C 
ATOM     20  C   UNL     1      -5.197   1.306  -1.155  1.00  0.00    -0.009 C 
ATOM     21  C   UNL     1      -5.319   1.286   1.353  1.00  0.00    -0.009 C 
ATOM     22  C   UNL     1      -5.730   2.044   0.080  1.00  0.00     0.007 C 
ATOM     23  C   UNL     1      -5.781  -0.110  -1.173  1.00  0.00     0.020 C 
ATOM     24  C   UNL     1      -5.879  -0.170   1.285  1.00  0.00     0.020 C 
BRANCH  16  25
ATOM     25  C   UNL     1      -1.623   0.438   0.227  1.00  0.00    -0.042 A 
ATOM     26  C   UNL     1       2.701   0.104  -0.030  1.00  0.00     0.044 C 
ATOM     27  C   UNL     1       1.213   0.240   0.058  1.00  0.00    -0.051 A 
ATOM     28  C   UNL     1       0.437  -0.908   0.144  1.00  0.00     0.004 A 
ATOM     29  C   UNL     1       0.575   1.485   0.063  1.00  0.00     0.004 A 
ATOM     30  C   UNL     1      -0.948  -0.806   0.245  1.00  0.00     0.004 A 
ATOM     31  C   UNL     1      -0.823   1.583   0.144  1.00  0.00     0.004 A 
ENDBRANCH  16  25
ENDBRANCH   8  15
ENDBRANCH   5   7
ENDBRANCH   4   5
ENDBRANCH   3   4
ENDBRANCH   2   3
ENDBRANCH   1   2
BRANCH   1  32
ATOM     32  C   UNL     1      -5.881  -2.459  -7.892  1.00  0.00     0.202 C 
BRANCH  32  33
ATOM     33  C   UNL     1      -6.822  -1.685  -8.826  1.00  0.00     0.261 C 
BRANCH  33  34
ATOM     34  O   UNL     1      -7.762  -2.602  -9.427  1.00  0.00    -0.460 OA
BRANCH  34  35
ATOM     35  C   UNL     1      -9.050  -2.535  -8.990  1.00  0.00     0.338 C 
ATOM     36  O   UNL     1      -9.683  -1.509  -8.798  1.00  0.00    -0.246 OA
BRANCH  35  37
ATOM     37  C   UNL     1      -9.473  -3.873  -8.475  1.00  0.00     0.060 A 
ATOM     38  C   UNL     1     -10.645  -3.987  -7.699  1.00  0.00     0.016 A 
ATOM     39  C   UNL     1      -8.537  -4.904  -8.468  1.00  0.00     0.016 A 
ATOM     40  C   UNL     1     -10.789  -5.043  -6.784  1.00  0.00     0.010 A 
ATOM     41  C   UNL     1      -8.642  -5.889  -7.508  1.00  0.00     0.010 A 
ATOM     42  C   UNL     1      -9.737  -5.941  -6.625  1.00  0.00    -0.014 A 
BRANCH  42  43
ATOM     43  C   UNL     1      -9.558  -6.872  -5.503  1.00  0.00     0.031 A 
ATOM     44  C   UNL     1      -9.385  -8.303  -5.818  1.00  0.00     0.074 A 
ATOM     45  C   UNL     1      -9.242  -6.435  -4.255  1.00  0.00     0.049 A 
ATOM     46  N   UNL     1      -9.325  -9.213  -4.915  1.00  0.00    -0.248 NA
ATOM     47  C   UNL     1      -9.296  -8.858  -7.170  1.00  0.00     0.031 C 
ATOM     48  C   UNL     1      -8.533  -7.138  -3.180  1.00  0.00     0.029 A 
ATOM     49  N   UNL     1      -9.520  -5.202  -3.655  1.00  0.00    -0.354 N 
ATOM     50  C   UNL     1      -8.775 -10.323  -5.496  1.00  0.00     0.074 A 
ATOM     51  C   UNL     1      -8.959 -10.126  -6.909  1.00  0.00     0.031 C 
ATOM     52  C   UNL     1      -8.721  -6.489  -2.017  1.00  0.00     0.029 A 
ATOM     53  C   UNL     1      -9.649  -5.402  -2.271  1.00  0.00     0.049 A 
ATOM     54  H   UNL     1      -9.610  -4.341  -4.123  1.00  0.00     0.167 HD
ATOM     55  C   UNL     1      -8.095 -11.186  -4.691  1.00  0.00     0.037 A 
ATOM     56  C   UNL     1     -10.838  -5.131  -1.674  1.00  0.00     0.037 A 
ATOM     57  C   UNL     1      -8.327 -10.873  -3.262  1.00  0.00     0.049 A 
ATOM     58  C   UNL     1     -11.462  -6.440  -1.263  1.00  0.00     0.074 A 
ATOM     59  C   UNL     1      -7.551 -10.501  -2.179  1.00  0.00     0.029 A 
ATOM     60  N   UNL     1      -9.643 -10.659  -2.848  1.00  0.00    -0.354 N 
ATOM     61  N   UNL     1     -10.864  -7.583  -1.469  1.00  0.00    -0.248 NA
ATOM     62  C   UNL     1     -12.754  -6.623  -0.623  1.00  0.00     0.031 C 
ATOM     63  C   UNL     1      -8.430 -10.011  -1.145  1.00  0.00     0.029 A 
ATOM     64  C   UNL     1      -9.742 -10.135  -1.575  1.00  0.00     0.049 A 
ATOM     65  H   UNL     1     -10.425 -10.862  -3.411  1.00  0.00     0.167 HD
ATOM     66  C   UNL     1     -11.582  -8.619  -0.990  1.00  0.00     0.074 A 
ATOM     67  C   UNL     1     -12.806  -7.969  -0.528  1.00  0.00     0.031 C 
ATOM     68  C   UNL     1     -11.083  -9.896  -1.016  1.00  0.00     0.037 A 
BRANCH  55  69
ATOM     69  C   UNL     1      -7.135 -12.237  -5.213  1.00  0.00     0.057 A 
ATOM     70  C   UNL     1      -6.650 -13.243  -4.360  1.00  0.00     0.134 A 
ATOM     71  C   UNL     1      -6.595 -12.284  -6.520  1.00  0.00     0.134 A 
ATOM     72  F   UNL     1      -7.026 -13.303  -3.075  1.00  0.00    -0.206 F 
ATOM     73  C   UNL     1      -5.744 -14.232  -4.781  1.00  0.00     0.040 A 
ATOM     74  C   UNL     1      -5.737 -13.300  -6.969  1.00  0.00     0.040 A 
ATOM     75  F   UNL     1      -6.809 -11.319  -7.421  1.00  0.00    -0.206 F 
ATOM     76  C   UNL     1      -5.303 -14.280  -6.096  1.00  0.00     0.006 A 
ENDBRANCH  55  69
BRANCH  56  77
ATOM     77  C   UNL     1     -11.421  -3.869  -2.241  1.00  0.00     0.057 A 
ATOM     78  C   UNL     1     -10.706  -2.670  -1.994  1.00  0.00     0.134 A 
ATOM     79  C   UNL     1     -12.237  -3.869  -3.378  1.00  0.00     0.134 A 
ATOM     80  F   UNL     1      -9.875  -2.588  -0.943  1.00  0.00    -0.206 F 
ATOM     81  C   UNL     1     -10.691  -1.596  -2.898  1.00  0.00     0.040 A 
ATOM     82  C   UNL     1     -12.229  -2.796  -4.291  1.00  0.00     0.040 A 
ATOM     83  F   UNL     1     -12.932  -4.966  -3.713  1.00  0.00    -0.206 F 
ATOM     84  C   UNL     1     -11.423  -1.677  -4.076  1.00  0.00     0.006 A 
ENDBRANCH  56  77
BRANCH  68  85
ATOM     85  C   UNL     1     -11.900 -11.068  -0.562  1.00  0.00     0.057 A 
ATOM     86  C   UNL     1     -12.800 -11.000   0.505  1.00  0.00     0.134 A 
ATOM     87  C   UNL     1     -11.804 -12.326  -1.191  1.00  0.00     0.134 A 
ATOM     88  F   UNL     1     -12.830  -9.939   1.325  1.00  0.00    -0.206 F 
ATOM     89  C   UNL     1     -13.693 -12.035   0.787  1.00  0.00     0.040 A 
ATOM     90  C   UNL     1     -12.647 -13.388  -0.880  1.00  0.00     0.040 A 
ATOM     91  F   UNL     1     -10.908 -12.591  -2.149  1.00  0.00    -0.206 F 
ATOM     92  C   UNL     1     -13.633 -13.227   0.076  1.00  0.00     0.006 A 
ENDBRANCH  68  85
ENDBRANCH  42  43
ENDBRANCH  35  37
ENDBRANCH  34  35
ENDBRANCH  33  34
ENDBRANCH  32  33
ENDBRANCH   1  32
TORSDOF 16
