REMARK SMILES O=C(OCCOCCOC(=O)c1ccc(-c2c3nc(c(-c4c(F)cccc4F)c4ccc([nH]4)c(-c4c(F)cccc4F)c4nc(c(-c5c(F)cccc5F)c5ccc2[nH]5)C=C4)C=C3)cc1)C1=Cc2cc(Cl)cc(C#Cc3ccccc3)c2O[C@@H]1C(F)(F)F
REMARK SMILES IDX 6 1 5 2 4 3 3 4 2 5 1 6 66 7 67 8 84 9 68 10 83 11 69 12
REMARK SMILES IDX 82 13 70 14 73 15 71 16 72 17 85 18 86 19 87 20 88 21 74 22
REMARK SMILES IDX 75 23 76 24 77 25 81 26 78 27 80 28 79 29 7 30 8 31 9 32
REMARK SMILES IDX 10 33 11 34 12 35 13 36 65 37 14 38 64 39 15 40 16 41 17 42
REMARK SMILES IDX 58 43 18 44 63 45 57 46 59 47 19 48 62 49 56 50 55 51 20 53
REMARK SMILES IDX 46 54 29 55 45 56 30 57 33 58 44 59 60 60 31 61 32 62 43 64
REMARK SMILES IDX 61 65 34 66 21 67 22 68 27 69 23 70 24 71 26 72 28 73 25 74
REMARK SMILES IDX 47 75 48 76 53 77 49 78 50 79 52 80 54 81 51 82 35 83 36 84
REMARK SMILES IDX 41 85 37 86 38 87 40 88 42 89 39 90
REMARK H PARENT 59 52 33 63
REMARK Flexibility Score: inf
ROOT
ATOM      1  O   UNL     1       3.653  -2.185  -1.013  1.00  0.00    -0.374 OA
ENDROOT
BRANCH   1   2
ATOM      2  C   UNL     1       4.167  -0.752  -0.733  1.00  0.00     0.202 C 
BRANCH   2   3
ATOM      3  C   UNL     1       3.134   1.057  -0.107  1.00  0.00     0.261 C 
BRANCH   3   4
ATOM      4  O   UNL     1       2.306   2.014  -0.999  1.00  0.00    -0.460 OA
BRANCH   4   5
ATOM      5  C   UNL     1       2.635   1.946  -2.292  1.00  0.00     0.338 C 
ATOM      6  O   UNL     1       2.170   2.510  -3.247  1.00  0.00    -0.246 OA
BRANCH   5   7
ATOM      7  C   UNL     1       3.501   0.803  -2.149  1.00  0.00     0.087 C 
ATOM      8  C   UNL     1       4.806   1.259  -1.565  1.00  0.00     0.027 C 
ATOM      9  C   UNL     1       2.238  -0.358  -1.248  1.00  0.00     0.316 C 
ATOM     10  C   UNL     1       5.320   0.867   0.143  1.00  0.00     0.020 A 
ATOM     11  O   UNL     1       2.752  -0.739   0.564  1.00  0.00    -0.474 OA
ATOM     12  C   UNL     1       6.465   1.432   0.625  1.00  0.00     0.032 A 
ATOM     13  C   UNL     1       4.268  -0.008   1.246  1.00  0.00     0.143 A 
ATOM     14  C   UNL     1       6.636   1.270   2.002  1.00  0.00     0.043 A 
ATOM     15  C   UNL     1       4.491  -0.063   2.590  1.00  0.00     0.069 A 
ATOM     16  Cl  UNL     1       8.090   1.916   2.698  1.00  0.00    -0.084 Cl
ATOM     17  C   UNL     1       5.701   0.605   2.906  1.00  0.00     0.041 A 
BRANCH   9  18
ATOM     18  C   UNL     1       1.804  -1.358  -2.385  1.00  0.00     0.430 C 
ATOM     19  F   UNL     1       1.072  -2.409  -1.976  1.00  0.00    -0.167 F 
ATOM     20  F   UNL     1       1.000  -0.663  -3.244  1.00  0.00    -0.167 F 
ATOM     21  F   UNL     1       2.824  -1.795  -3.163  1.00  0.00    -0.167 F 
ENDBRANCH   9  18
BRANCH  15  22
ATOM     22  C   UNL     1       3.710  -0.698   3.598  1.00  0.00    -0.058 C 
ATOM     23  C   UNL     1       3.244  -1.315   4.538  1.00  0.00    -0.062 C 
BRANCH  23  24
ATOM     24  C   UNL     1       2.991  -2.173   5.663  1.00  0.00     0.025 A 
ATOM     25  C   UNL     1       3.322  -1.754   6.959  1.00  0.00     0.017 A 
ATOM     26  C   UNL     1       2.674  -3.522   5.448  1.00  0.00     0.017 A 
ATOM     27  C   UNL     1       3.411  -2.684   8.004  1.00  0.00     0.001 A 
ATOM     28  C   UNL     1       2.777  -4.453   6.490  1.00  0.00     0.001 A 
ATOM     29  C   UNL     1       3.162  -4.036   7.764  1.00  0.00     0.000 A 
ENDBRANCH  23  24
ENDBRANCH  15  22
ENDBRANCH   5   7
ENDBRANCH   4   5
ENDBRANCH   3   4
ENDBRANCH   2   3
ENDBRANCH   1   2
BRANCH   1  30
ATOM     30  C   UNL     1       2.893  -3.086  -0.202  1.00  0.00     0.202 C 
BRANCH  30  31
ATOM     31  C   UNL     1       3.474  -3.841   0.978  1.00  0.00     0.261 C 
BRANCH  31  32
ATOM     32  O   UNL     1       4.383  -3.116   1.782  1.00  0.00    -0.460 OA
BRANCH  32  33
ATOM     33  C   UNL     1       5.696  -3.423   1.638  1.00  0.00     0.338 C 
ATOM     34  O   UNL     1       6.250  -3.942   0.692  1.00  0.00    -0.246 OA
BRANCH  33  35
ATOM     35  C   UNL     1       6.297  -3.099   2.946  1.00  0.00     0.060 A 
ATOM     36  C   UNL     1       7.306  -2.150   3.112  1.00  0.00     0.016 A 
ATOM     37  C   UNL     1       5.703  -3.677   4.057  1.00  0.00     0.016 A 
ATOM     38  C   UNL     1       7.629  -1.687   4.410  1.00  0.00     0.010 A 
ATOM     39  C   UNL     1       5.991  -3.175   5.318  1.00  0.00     0.010 A 
ATOM     40  C   UNL     1       6.937  -2.163   5.533  1.00  0.00    -0.014 A 
BRANCH  40  41
ATOM     41  C   UNL     1       7.225  -1.778   6.956  1.00  0.00     0.031 A 
ATOM     42  C   UNL     1       7.613  -2.881   7.915  1.00  0.00     0.074 A 
ATOM     43  C   UNL     1       6.994  -0.551   7.479  1.00  0.00     0.049 A 
ATOM     44  N   UNL     1       7.770  -2.836   9.214  1.00  0.00    -0.248 NA
ATOM     45  C   UNL     1       7.725  -4.239   7.352  1.00  0.00     0.031 C 
ATOM     46  C   UNL     1       6.407   0.585   6.784  1.00  0.00     0.029 A 
ATOM     47  N   UNL     1       7.200  -0.058   8.752  1.00  0.00    -0.354 N 
ATOM     48  C   UNL     1       7.950  -4.156   9.601  1.00  0.00     0.074 A 
ATOM     49  C   UNL     1       7.698  -4.979   8.444  1.00  0.00     0.031 C 
ATOM     50  C   UNL     1       6.369   1.657   7.594  1.00  0.00     0.029 A 
ATOM     51  C   UNL     1       6.896   1.280   8.899  1.00  0.00     0.049 A 
ATOM     52  H   UNL     1       7.535  -0.614   9.493  1.00  0.00     0.167 HD
ATOM     53  C   UNL     1       8.394  -4.652  10.777  1.00  0.00     0.037 A 
ATOM     54  C   UNL     1       7.033   2.108   9.957  1.00  0.00     0.037 A 
ATOM     55  C   UNL     1       8.739  -3.842  11.906  1.00  0.00     0.049 A 
ATOM     56  C   UNL     1       7.594   1.564  11.248  1.00  0.00     0.074 A 
ATOM     57  C   UNL     1       9.322  -4.230  13.097  1.00  0.00     0.029 A 
ATOM     58  N   UNL     1       8.539  -2.474  11.977  1.00  0.00    -0.354 N 
ATOM     59  N   UNL     1       7.938   0.336  11.549  1.00  0.00    -0.248 NA
ATOM     60  C   UNL     1       7.802   2.525  12.345  1.00  0.00     0.031 C 
ATOM     61  C   UNL     1       9.434  -3.100  13.911  1.00  0.00     0.029 A 
ATOM     62  C   UNL     1       8.976  -2.002  13.201  1.00  0.00     0.049 A 
ATOM     63  H   UNL     1       8.146  -1.921  11.264  1.00  0.00     0.167 HD
ATOM     64  C   UNL     1       8.450   0.388  12.841  1.00  0.00     0.074 A 
ATOM     65  C   UNL     1       8.377   1.767  13.267  1.00  0.00     0.031 C 
ATOM     66  C   UNL     1       8.938  -0.621  13.604  1.00  0.00     0.037 A 
BRANCH  53  67
ATOM     67  C   UNL     1       8.605  -6.137  10.849  1.00  0.00     0.057 A 
ATOM     68  C   UNL     1       9.561  -6.782  10.047  1.00  0.00     0.134 A 
ATOM     69  C   UNL     1       7.838  -6.932  11.706  1.00  0.00     0.134 A 
ATOM     70  F   UNL     1      10.321  -6.079   9.193  1.00  0.00    -0.206 F 
ATOM     71  C   UNL     1       9.701  -8.168  10.050  1.00  0.00     0.040 A 
ATOM     72  C   UNL     1       8.003  -8.317  11.751  1.00  0.00     0.040 A 
ATOM     73  F   UNL     1       6.913  -6.380  12.505  1.00  0.00    -0.206 F 
ATOM     74  C   UNL     1       8.924  -8.940  10.909  1.00  0.00     0.006 A 
ENDBRANCH  53  67
BRANCH  54  75
ATOM     75  C   UNL     1       6.715   3.562   9.852  1.00  0.00     0.057 A 
ATOM     76  C   UNL     1       7.738   4.522   9.905  1.00  0.00     0.134 A 
ATOM     77  C   UNL     1       5.401   4.038   9.782  1.00  0.00     0.134 A 
ATOM     78  F   UNL     1       9.019   4.135   9.999  1.00  0.00    -0.206 F 
ATOM     79  C   UNL     1       7.466   5.892   9.938  1.00  0.00     0.040 A 
ATOM     80  C   UNL     1       5.116   5.408   9.785  1.00  0.00     0.040 A 
ATOM     81  F   UNL     1       4.373   3.180   9.723  1.00  0.00    -0.206 F 
ATOM     82  C   UNL     1       6.149   6.339   9.878  1.00  0.00     0.006 A 
ENDBRANCH  54  75
BRANCH  66  83
ATOM     83  C   UNL     1       9.505  -0.278  14.951  1.00  0.00     0.057 A 
ATOM     84  C   UNL     1       8.700   0.125  16.022  1.00  0.00     0.134 A 
ATOM     85  C   UNL     1      10.877  -0.432  15.196  1.00  0.00     0.134 A 
ATOM     86  F   UNL     1       7.380   0.299  15.854  1.00  0.00    -0.206 F 
ATOM     87  C   UNL     1       9.241   0.381  17.284  1.00  0.00     0.040 A 
ATOM     88  C   UNL     1      11.424  -0.213  16.460  1.00  0.00     0.040 A 
ATOM     89  F   UNL     1      11.704  -0.830  14.217  1.00  0.00    -0.206 F 
ATOM     90  C   UNL     1      10.604   0.201  17.508  1.00  0.00     0.006 A 
ENDBRANCH  66  83
ENDBRANCH  40  41
ENDBRANCH  33  35
ENDBRANCH  32  33
ENDBRANCH  31  32
ENDBRANCH  30  31
ENDBRANCH   1  30
TORSDOF 17
