REMARK SMILES Cc1ccc(Cl)c(Nc2ccccc2C(=O)N[C@@H](C)C(=O)OCCOCCOC(=O)c2ccc(-c3c4nc(c(-c5c(F)cccc5F)c5ccc([nH]5)c(-c5c(F)cccc5F)c5nc(c(-c6c(F)cccc6F)c6ccc3[nH]6)C=C5)C=C4)cc2)c1Cl
REMARK SMILES IDX 24 1 23 2 22 3 20 4 21 5 18 6 19 7 17 8 15 9 16 10 14 12
REMARK SMILES IDX 9 13 10 14 11 15 13 16 12 17 8 18 7 20 1 21 2 22 3 23 85 24
REMARK SMILES IDX 4 25 86 26 5 27 6 28 25 29 26 30 27 31 28 32 29 33 30 34
REMARK SMILES IDX 31 35 32 36 84 37 33 38 83 39 34 40 35 41 36 42 77 43 37 44
REMARK SMILES IDX 82 45 76 46 78 47 38 48 81 49 75 50 74 51 39 53 65 54 48 55
REMARK SMILES IDX 64 56 49 57 52 58 63 59 79 60 50 61 51 62 62 64 80 65 53 66
REMARK SMILES IDX 40 67 41 68 46 69 42 70 43 71 45 72 47 73 44 74 66 75 67 76
REMARK SMILES IDX 72 77 68 78 69 79 71 80 73 81 70 82 54 83 55 84 60 85 56 86
REMARK SMILES IDX 57 87 59 88 61 89 58 90
REMARK H PARENT 17 11 8 19 78 52 52 63
REMARK Flexibility Score: inf
ROOT
ATOM      1  C   UNL     1       0.535   3.672  -0.962  1.00  0.00     0.202 C 
ENDROOT
BRANCH   1   2
ATOM      2  C   UNL     1      -0.586   3.205   0.069  1.00  0.00     0.261 C 
BRANCH   2   3
ATOM      3  O   UNL     1      -0.420   1.967   0.842  1.00  0.00    -0.462 OA
BRANCH   3   4
ATOM      4  C   UNL     1      -1.572   1.260   1.131  1.00  0.00     0.328 C 
ATOM      5  O   UNL     1      -2.692   1.725   0.917  1.00  0.00    -0.250 OA
BRANCH   4   6
ATOM      6  C   UNL     1      -1.376  -0.264   1.554  1.00  0.00     0.189 C 
ATOM      7  C   UNL     1      -2.562  -0.727   2.408  1.00  0.00     0.043 C 
BRANCH   6   8
ATOM      8  N   UNL     1      -0.143  -0.683   2.214  1.00  0.00    -0.339 N 
ATOM      9  C   UNL     1       0.653  -1.808   2.267  1.00  0.00     0.254 C 
ATOM     10  O   UNL     1       1.475  -1.703   3.196  1.00  0.00    -0.269 OA
ATOM     11  H   UNL     1       0.222   0.036   2.778  1.00  0.00     0.164 HD
BRANCH   9  12
ATOM     12  C   UNL     1       0.754  -3.078   1.404  1.00  0.00     0.063 A 
ATOM     13  C   UNL     1      -0.043  -3.671   0.386  1.00  0.00     0.051 A 
ATOM     14  C   UNL     1       0.389  -4.885  -0.242  1.00  0.00     0.027 A 
ATOM     15  C   UNL     1       1.603  -5.492   0.047  1.00  0.00     0.002 A 
ATOM     16  C   UNL     1       1.966  -3.783   1.697  1.00  0.00     0.016 A 
ATOM     17  C   UNL     1       2.396  -4.939   1.027  1.00  0.00     0.001 A 
BRANCH  13  18
ATOM     18  N   UNL     1      -1.123  -3.083  -0.313  1.00  0.00    -0.352 N 
ATOM     19  H   UNL     1      -2.038  -3.296  -0.019  1.00  0.00     0.167 HD
BRANCH  18  20
ATOM     20  C   UNL     1      -0.957  -2.189  -1.432  1.00  0.00     0.077 A 
ATOM     21  C   UNL     1       1.401   0.245  -0.593  1.00  0.00     0.046 C 
ATOM     22  C   UNL     1       0.311  -0.228  -1.504  1.00  0.00    -0.030 A 
ATOM     23  C   UNL     1      -0.800   0.499  -1.942  1.00  0.00     0.006 A 
ATOM     24  C   UNL     1       0.276  -1.592  -1.641  1.00  0.00     0.069 A 
ATOM     25  C   UNL     1      -1.986  -0.166  -2.258  1.00  0.00     0.023 A 
ATOM     26  Cl  UNL     1       1.763  -2.452  -1.841  1.00  0.00    -0.082 Cl
ATOM     27  C   UNL     1      -2.087  -1.510  -1.917  1.00  0.00     0.066 A 
ATOM     28  Cl  UNL     1      -3.631  -2.274  -1.932  1.00  0.00    -0.082 Cl
ENDBRANCH  18  20
ENDBRANCH  13  18
ENDBRANCH   9  12
ENDBRANCH   6   8
ENDBRANCH   4   6
ENDBRANCH   3   4
ENDBRANCH   2   3
ENDBRANCH   1   2
BRANCH   1  29
ATOM     29  O   UNL     1       1.308   2.706  -1.677  1.00  0.00    -0.374 OA
BRANCH  29  30
ATOM     30  C   UNL     1       2.733   2.931  -1.784  1.00  0.00     0.202 C 
BRANCH  30  31
ATOM     31  C   UNL     1       3.597   2.516  -0.567  1.00  0.00     0.261 C 
BRANCH  31  32
ATOM     32  O   UNL     1       2.920   2.918   0.623  1.00  0.00    -0.460 OA
BRANCH  32  33
ATOM     33  C   UNL     1       3.643   3.454   1.603  1.00  0.00     0.338 C 
ATOM     34  O   UNL     1       4.874   3.422   1.765  1.00  0.00    -0.246 OA
BRANCH  33  35
ATOM     35  C   UNL     1       2.728   4.327   2.327  1.00  0.00     0.060 A 
ATOM     36  C   UNL     1       2.184   5.392   1.595  1.00  0.00     0.016 A 
ATOM     37  C   UNL     1       2.471   4.189   3.688  1.00  0.00     0.016 A 
ATOM     38  C   UNL     1       1.387   6.337   2.211  1.00  0.00     0.010 A 
ATOM     39  C   UNL     1       1.714   5.175   4.328  1.00  0.00     0.010 A 
ATOM     40  C   UNL     1       1.226   6.279   3.597  1.00  0.00    -0.014 A 
BRANCH  40  41
ATOM     41  C   UNL     1       0.893   7.553   4.269  1.00  0.00     0.031 A 
ATOM     42  C   UNL     1       2.039   8.402   4.757  1.00  0.00     0.074 A 
ATOM     43  C   UNL     1      -0.360   8.032   4.309  1.00  0.00     0.049 A 
ATOM     44  N   UNL     1       2.015   9.559   5.365  1.00  0.00    -0.248 NA
ATOM     45  C   UNL     1       3.395   7.879   4.510  1.00  0.00     0.031 C 
ATOM     46  C   UNL     1      -1.544   7.372   3.767  1.00  0.00     0.029 A 
ATOM     47  N   UNL     1      -0.832   9.210   4.830  1.00  0.00    -0.354 N 
ATOM     48  C   UNL     1       3.345   9.890   5.590  1.00  0.00     0.074 A 
ATOM     49  C   UNL     1       4.151   8.809   5.070  1.00  0.00     0.031 C 
ATOM     50  C   UNL     1      -2.615   8.151   3.999  1.00  0.00     0.029 A 
ATOM     51  C   UNL     1      -2.193   9.344   4.734  1.00  0.00     0.049 A 
ATOM     52  H   UNL     1      -0.249   9.893   5.233  1.00  0.00     0.167 HD
ATOM     53  C   UNL     1       3.855  10.997   6.175  1.00  0.00     0.037 A 
ATOM     54  C   UNL     1      -3.003  10.307   5.212  1.00  0.00     0.037 A 
ATOM     55  C   UNL     1       3.067  12.085   6.685  1.00  0.00     0.049 A 
ATOM     56  C   UNL     1      -2.419  11.484   5.951  1.00  0.00     0.074 A 
ATOM     57  C   UNL     1       3.501  13.241   7.309  1.00  0.00     0.029 A 
ATOM     58  N   UNL     1       1.685  12.152   6.632  1.00  0.00    -0.354 N 
ATOM     59  N   UNL     1      -1.164  11.778   6.188  1.00  0.00    -0.248 NA
ATOM     60  C   UNL     1      -3.373  12.467   6.487  1.00  0.00     0.031 C 
ATOM     61  C   UNL     1       2.377  13.988   7.675  1.00  0.00     0.029 A 
ATOM     62  C   UNL     1       1.247  13.322   7.229  1.00  0.00     0.049 A 
ATOM     63  H   UNL     1       1.100  11.469   6.229  1.00  0.00     0.167 HD
ATOM     64  C   UNL     1      -1.177  12.992   6.867  1.00  0.00     0.074 A 
ATOM     65  C   UNL     1      -2.563  13.385   6.995  1.00  0.00     0.031 C 
ATOM     66  C   UNL     1      -0.133  13.718   7.338  1.00  0.00     0.037 A 
BRANCH  53  67
ATOM     67  C   UNL     1       5.343  11.063   6.334  1.00  0.00     0.057 A 
ATOM     68  C   UNL     1       6.200  11.288   5.249  1.00  0.00     0.134 A 
ATOM     69  C   UNL     1       5.922  10.925   7.601  1.00  0.00     0.134 A 
ATOM     70  F   UNL     1       5.707  11.403   4.006  1.00  0.00    -0.206 F 
ATOM     71  C   UNL     1       7.583  11.358   5.418  1.00  0.00     0.040 A 
ATOM     72  C   UNL     1       7.301  11.020   7.787  1.00  0.00     0.040 A 
ATOM     73  F   UNL     1       5.155  10.705   8.680  1.00  0.00    -0.206 F 
ATOM     74  C   UNL     1       8.136  11.233   6.692  1.00  0.00     0.006 A 
ENDBRANCH  53  67
BRANCH  54  75
ATOM     75  C   UNL     1      -4.472  10.190   5.043  1.00  0.00     0.057 A 
ATOM     76  C   UNL     1      -5.184  11.079   4.232  1.00  0.00     0.134 A 
ATOM     77  C   UNL     1      -5.203   9.215   5.733  1.00  0.00     0.134 A 
ATOM     78  F   UNL     1      -4.541  12.053   3.570  1.00  0.00    -0.206 F 
ATOM     79  C   UNL     1      -6.575  11.019   4.130  1.00  0.00     0.040 A 
ATOM     80  C   UNL     1      -6.589   9.125   5.618  1.00  0.00     0.040 A 
ATOM     81  F   UNL     1      -4.577   8.336   6.530  1.00  0.00    -0.206 F 
ATOM     82  C   UNL     1      -7.280  10.036   4.821  1.00  0.00     0.006 A 
ENDBRANCH  54  75
BRANCH  66  83
ATOM     83  C   UNL     1      -0.439  15.039   7.985  1.00  0.00     0.057 A 
ATOM     84  C   UNL     1      -1.050  15.132   9.242  1.00  0.00     0.134 A 
ATOM     85  C   UNL     1      -0.085  16.238   7.351  1.00  0.00     0.134 A 
ATOM     86  F   UNL     1      -1.422  14.023   9.900  1.00  0.00    -0.206 F 
ATOM     87  C   UNL     1      -1.327  16.368   9.830  1.00  0.00     0.040 A 
ATOM     88  C   UNL     1      -0.331  17.479   7.942  1.00  0.00     0.040 A 
ATOM     89  F   UNL     1       0.515  16.224   6.152  1.00  0.00    -0.206 F 
ATOM     90  C   UNL     1      -0.962  17.546   9.182  1.00  0.00     0.006 A 
ENDBRANCH  66  83
ENDBRANCH  40  41
ENDBRANCH  33  35
ENDBRANCH  32  33
ENDBRANCH  31  32
ENDBRANCH  30  31
ENDBRANCH  29  30
ENDBRANCH   1  29
TORSDOF 18
