REMARK SMILES O=C(OCCOCCOC(=O)[C@H]1CCCN(c2cc(-c3ccccn3)nc(-c3ccccc3F)n2)C1)c1ccc(-c2c3nc(c(-c4c(F)cccc4F)c4ccc([nH]4)c(-c4c(F)cccc4F)c4nc(c(-c5c(F)cccc5F)c5ccc2[nH]5)C=C4)C=C3)cc1
REMARK SMILES IDX 6 1 5 2 4 3 3 4 2 5 1 6 37 7 38 8 90 9 39 10 89 11 40 12
REMARK SMILES IDX 41 13 42 14 83 15 43 16 88 17 82 18 84 19 44 20 87 21 81 22
REMARK SMILES IDX 80 23 45 25 71 26 54 27 70 28 55 29 58 30 69 31 85 32 56 33
REMARK SMILES IDX 57 34 68 36 86 37 59 38 46 39 47 40 52 41 48 42 49 43 51 44
REMARK SMILES IDX 53 45 50 46 72 47 73 48 78 49 74 50 75 51 77 52 79 53 76 54
REMARK SMILES IDX 60 55 61 56 66 57 62 58 63 59 65 60 67 61 64 62 7 63 8 64
REMARK SMILES IDX 9 65 10 66 11 67 12 68 13 69 36 70 14 71 16 72 15 73 17 74
REMARK SMILES IDX 18 75 35 76 19 77 27 78 26 79 20 80 21 81 25 82 22 83 24 84
REMARK SMILES IDX 23 85 28 86 29 87 33 88 30 89 32 90 34 91 31 92
REMARK H PARENT 84 24 58 35
REMARK Flexibility Score: inf
ROOT
ATOM      1  O   UNL     1       4.489   1.879  -2.548  1.00  0.00    -0.374 OA
ENDROOT
BRANCH   1   2
ATOM      2  C   UNL     1       3.970   1.575  -1.246  1.00  0.00     0.202 C 
BRANCH   2   3
ATOM      3  C   UNL     1       3.350   0.183  -1.072  1.00  0.00     0.261 C 
BRANCH   3   4
ATOM      4  O   UNL     1       4.304  -0.843  -1.407  1.00  0.00    -0.460 OA
BRANCH   4   5
ATOM      5  C   UNL     1       4.402  -1.558  -2.553  1.00  0.00     0.338 C 
ATOM      6  O   UNL     1       5.294  -2.397  -2.660  1.00  0.00    -0.246 OA
BRANCH   5   7
ATOM      7  C   UNL     1       3.466  -1.378  -3.699  1.00  0.00     0.060 A 
ATOM      8  C   UNL     1       2.812  -0.184  -3.988  1.00  0.00     0.016 A 
ATOM      9  C   UNL     1       3.292  -2.456  -4.583  1.00  0.00     0.016 A 
ATOM     10  C   UNL     1       1.930  -0.076  -5.039  1.00  0.00     0.010 A 
ATOM     11  C   UNL     1       2.458  -2.335  -5.700  1.00  0.00     0.010 A 
ATOM     12  C   UNL     1       1.762  -1.142  -5.913  1.00  0.00    -0.014 A 
BRANCH  12  13
ATOM     13  C   UNL     1       0.767  -0.942  -6.977  1.00  0.00     0.031 A 
ATOM     14  C   UNL     1      -0.574  -1.583  -6.819  1.00  0.00     0.074 A 
ATOM     15  C   UNL     1       1.011  -0.000  -7.908  1.00  0.00     0.049 A 
ATOM     16  N   UNL     1      -1.625  -1.483  -7.584  1.00  0.00    -0.248 NA
ATOM     17  C   UNL     1      -0.772  -2.425  -5.626  1.00  0.00     0.031 C 
ATOM     18  C   UNL     1       2.248   0.785  -8.006  1.00  0.00     0.029 A 
ATOM     19  N   UNL     1       0.215   0.516  -8.893  1.00  0.00    -0.354 N 
ATOM     20  C   UNL     1      -2.599  -2.263  -6.979  1.00  0.00     0.074 A 
ATOM     21  C   UNL     1      -2.021  -2.835  -5.786  1.00  0.00     0.031 C 
ATOM     22  C   UNL     1       2.102   1.721  -8.955  1.00  0.00     0.029 A 
ATOM     23  C   UNL     1       0.803   1.544  -9.591  1.00  0.00     0.049 A 
ATOM     24  H   UNL     1      -0.692   0.183  -9.084  1.00  0.00     0.167 HD
ATOM     25  C   UNL     1      -3.865  -2.474  -7.399  1.00  0.00     0.037 A 
ATOM     26  C   UNL     1       0.344   2.240 -10.646  1.00  0.00     0.037 A 
ATOM     27  C   UNL     1      -4.406  -1.873  -8.586  1.00  0.00     0.049 A 
ATOM     28  C   UNL     1      -1.023   1.887 -11.162  1.00  0.00     0.074 A 
ATOM     29  C   UNL     1      -5.640  -2.075  -9.172  1.00  0.00     0.029 A 
ATOM     30  N   UNL     1      -3.735  -0.936  -9.363  1.00  0.00    -0.354 N 
ATOM     31  N   UNL     1      -1.909   1.063 -10.651  1.00  0.00    -0.248 NA
ATOM     32  C   UNL     1      -1.448   2.531 -12.409  1.00  0.00     0.031 C 
ATOM     33  C   UNL     1      -5.698  -1.295 -10.330  1.00  0.00     0.029 A 
ATOM     34  C   UNL     1      -4.523  -0.564 -10.436  1.00  0.00     0.049 A 
ATOM     35  H   UNL     1      -2.833  -0.588  -9.176  1.00  0.00     0.167 HD
ATOM     36  C   UNL     1      -2.998   1.095 -11.508  1.00  0.00     0.074 A 
ATOM     37  C   UNL     1      -2.672   2.045 -12.555  1.00  0.00     0.031 C 
ATOM     38  C   UNL     1      -4.157   0.395 -11.448  1.00  0.00     0.037 A 
BRANCH  25  39
ATOM     39  C   UNL     1      -4.708  -3.432  -6.615  1.00  0.00     0.057 A 
ATOM     40  C   UNL     1      -4.982  -4.707  -7.125  1.00  0.00     0.134 A 
ATOM     41  C   UNL     1      -5.265  -3.096  -5.376  1.00  0.00     0.134 A 
ATOM     42  F   UNL     1      -4.467  -5.095  -8.301  1.00  0.00    -0.206 F 
ATOM     43  C   UNL     1      -5.797  -5.608  -6.438  1.00  0.00     0.040 A 
ATOM     44  C   UNL     1      -6.065  -3.997  -4.670  1.00  0.00     0.040 A 
ATOM     45  F   UNL     1      -5.013  -1.902  -4.818  1.00  0.00    -0.206 F 
ATOM     46  C   UNL     1      -6.341  -5.253  -5.206  1.00  0.00     0.006 A 
ENDBRANCH  25  39
BRANCH  26  47
ATOM     47  C   UNL     1       1.191   3.266 -11.310  1.00  0.00     0.057 A 
ATOM     48  C   UNL     1       2.406   2.924 -11.921  1.00  0.00     0.134 A 
ATOM     49  C   UNL     1       0.804   4.610 -11.374  1.00  0.00     0.134 A 
ATOM     50  F   UNL     1       2.840   1.654 -11.903  1.00  0.00    -0.206 F 
ATOM     51  C   UNL     1       3.209   3.875 -12.553  1.00  0.00     0.040 A 
ATOM     52  C   UNL     1       1.582   5.567 -12.031  1.00  0.00     0.040 A 
ATOM     53  F   UNL     1      -0.355   5.006 -10.828  1.00  0.00    -0.206 F 
ATOM     54  C   UNL     1       2.792   5.201 -12.618  1.00  0.00     0.006 A 
ENDBRANCH  26  47
BRANCH  38  55
ATOM     55  C   UNL     1      -5.156   0.648 -12.534  1.00  0.00     0.057 A 
ATOM     56  C   UNL     1      -6.356   1.313 -12.254  1.00  0.00     0.134 A 
ATOM     57  C   UNL     1      -4.962   0.168 -13.835  1.00  0.00     0.134 A 
ATOM     58  F   UNL     1      -6.603   1.784 -11.022  1.00  0.00    -0.206 F 
ATOM     59  C   UNL     1      -7.338   1.479 -13.229  1.00  0.00     0.040 A 
ATOM     60  C   UNL     1      -5.924   0.355 -14.826  1.00  0.00     0.040 A 
ATOM     61  F   UNL     1      -3.827  -0.467 -14.164  1.00  0.00    -0.206 F 
ATOM     62  C   UNL     1      -7.120   1.002 -14.521  1.00  0.00     0.006 A 
ENDBRANCH  38  55
ENDBRANCH  12  13
ENDBRANCH   5   7
ENDBRANCH   4   5
ENDBRANCH   3   4
ENDBRANCH   2   3
ENDBRANCH   1   2
BRANCH   1  63
ATOM     63  C   UNL     1       5.792   1.355  -2.844  1.00  0.00     0.202 C 
BRANCH  63  64
ATOM     64  C   UNL     1       6.712   2.479  -3.323  1.00  0.00     0.261 C 
BRANCH  64  65
ATOM     65  O   UNL     1       6.829   3.419  -2.248  1.00  0.00    -0.463 OA
BRANCH  65  66
ATOM     66  C   UNL     1       5.849   4.369  -2.237  1.00  0.00     0.310 C 
ATOM     67  O   UNL     1       5.292   4.822  -3.228  1.00  0.00    -0.252 OA
BRANCH  66  68
ATOM     68  C   UNL     1       5.490   4.688  -0.807  1.00  0.00     0.118 C 
ATOM     69  C   UNL     1       6.672   5.338  -0.086  1.00  0.00     0.019 C 
ATOM     70  C   UNL     1       4.190   5.496  -0.771  1.00  0.00     0.133 C 
ATOM     71  C   UNL     1       6.269   5.874   1.283  1.00  0.00     0.022 C 
ATOM     72  N   UNL     1       3.975   6.004   0.580  1.00  0.00    -0.356 N 
ATOM     73  C   UNL     1       5.053   6.786   1.164  1.00  0.00     0.118 C 
BRANCH  72  74
ATOM     74  C   UNL     1       2.675   6.221   0.986  1.00  0.00     0.133 A 
ATOM     75  C   UNL     1       2.171   7.499   1.087  1.00  0.00     0.077 A 
ATOM     76  N   UNL     1       1.945   5.151   1.341  1.00  0.00    -0.211 NA
ATOM     77  C   UNL     1       0.893   7.644   1.587  1.00  0.00     0.095 A 
ATOM     78  C   UNL     1       0.710   5.380   1.829  1.00  0.00     0.165 A 
ATOM     79  N   UNL     1       0.145   6.590   1.964  1.00  0.00    -0.226 NA
BRANCH  77  80
ATOM     80  C   UNL     1       0.310   8.978   1.764  1.00  0.00     0.089 A 
ATOM     81  C   UNL     1       0.014   9.792   0.671  1.00  0.00     0.030 A 
ATOM     82  N   UNL     1       0.163   9.405   3.046  1.00  0.00    -0.255 NA
ATOM     83  C   UNL     1      -0.457  11.082   0.898  1.00  0.00     0.004 A 
ATOM     84  C   UNL     1      -0.309  10.655   3.235  1.00  0.00     0.112 A 
ATOM     85  C   UNL     1      -0.623  11.525   2.204  1.00  0.00     0.020 A 
ENDBRANCH  77  80
BRANCH  78  86
ATOM     86  C   UNL     1      -0.019   4.246   2.394  1.00  0.00     0.055 A 
ATOM     87  C   UNL     1       0.559   3.439   3.393  1.00  0.00     0.015 A 
ATOM     88  C   UNL     1      -1.330   3.953   2.003  1.00  0.00     0.134 A 
ATOM     89  C   UNL     1      -0.161   2.397   3.989  1.00  0.00     0.001 A 
ATOM     90  C   UNL     1      -2.051   2.909   2.585  1.00  0.00     0.040 A 
ATOM     91  F   UNL     1      -1.926   4.664   1.034  1.00  0.00    -0.206 F 
ATOM     92  C   UNL     1      -1.468   2.134   3.586  1.00  0.00     0.003 A 
ENDBRANCH  78  86
ENDBRANCH  72  74
ENDBRANCH  66  68
ENDBRANCH  65  66
ENDBRANCH  64  65
ENDBRANCH  63  64
ENDBRANCH   1  63
TORSDOF 17
