REMARK SMILES O=C(CCC[NH2+][C@H]1CCOC2(CCOCC2)C1)OCCOCCOC(=O)c1ccc(-c2c3nc(c(-c4c(F)cccc4F)c4ccc([nH]4)c(-c4c(F)cccc4F)c4nc(c(-c5c(F)cccc5F)c5ccc2[nH]5)C=C4)C=C3)cc1
REMARK SMILES IDX 20 1 19 2 18 3 2 4 1 5 3 6 4 7 5 8 6 9 7 12 8 13 17 14 9 15
REMARK SMILES IDX 11 16 10 17 12 18 16 19 13 20 15 21 14 22 21 23 22 24 23 25
REMARK SMILES IDX 24 26 25 27 26 28 27 29 28 30 80 31 29 32 79 33 30 34 31 35
REMARK SMILES IDX 32 36 73 37 33 38 78 39 72 40 74 41 34 42 77 43 71 44 70 45
REMARK SMILES IDX 35 47 61 48 44 49 60 50 45 51 48 52 59 53 75 54 46 55 47 56
REMARK SMILES IDX 58 58 76 59 49 60 36 61 37 62 42 63 38 64 39 65 41 66 43 67
REMARK SMILES IDX 40 68 62 69 63 70 68 71 64 72 65 73 67 74 69 75 66 76 50 77
REMARK SMILES IDX 51 78 56 79 52 80 53 81 55 82 57 83 54 84
REMARK H PARENT 6 10 6 11 74 46 48 57
REMARK Flexibility Score: inf
ROOT
ATOM      1  C   UNL     1       5.394   3.307  -1.009  1.00  0.00     0.202 C 
ENDROOT
BRANCH   1   2
ATOM      2  C   UNL     1       6.756   3.708  -1.567  1.00  0.00     0.261 C 
BRANCH   2   3
ATOM      3  O   UNL     1       6.727   4.557  -2.709  1.00  0.00    -0.463 OA
BRANCH   3   4
ATOM      4  C   UNL     1       6.934   4.026  -3.938  1.00  0.00     0.306 C 
ATOM      5  O   UNL     1       7.529   4.670  -4.797  1.00  0.00    -0.252 OA
BRANCH   4   6
ATOM      6  C   UNL     1       6.301   2.685  -4.247  1.00  0.00     0.128 C 
BRANCH   6   7
ATOM      7  C   UNL     1       7.268   1.520  -4.454  1.00  0.00     0.073 C 
BRANCH   7   8
ATOM      8  C   UNL     1       7.868   0.832  -3.209  1.00  0.00     0.261 C 
BRANCH   8   9
ATOM      9  N   UNL     1       6.878   0.289  -2.280  1.00  0.00    -0.344 N 
ATOM     10  H   UNL     1       6.396  -0.471  -2.759  1.00  0.00     0.346 HD
ATOM     11  H   UNL     1       6.297   1.089  -2.028  1.00  0.00     0.346 HD
BRANCH   9  12
ATOM     12  C   UNL     1       7.361  -0.241  -0.988  1.00  0.00     0.187 C 
ATOM     13  C   UNL     1       8.442  -1.309  -1.158  1.00  0.00     0.093 C 
ATOM     14  C   UNL     1       7.848   0.808   0.031  1.00  0.00     0.100 C 
ATOM     15  C   UNL     1       8.876  -1.862   0.191  1.00  0.00     0.167 C 
ATOM     16  C   UNL     1       8.344   0.185   1.358  1.00  0.00     0.078 C 
ATOM     17  O   UNL     1       9.316  -0.829   1.070  1.00  0.00    -0.374 OA
ATOM     18  C   UNL     1       7.185  -0.372   2.215  1.00  0.00     0.064 C 
ATOM     19  C   UNL     1       9.075   1.276   2.174  1.00  0.00     0.064 C 
ATOM     20  C   UNL     1       7.668  -0.771   3.605  1.00  0.00     0.163 C 
ATOM     21  C   UNL     1       9.429   0.792   3.576  1.00  0.00     0.163 C 
ATOM     22  O   UNL     1       8.255   0.351   4.256  1.00  0.00    -0.381 OA
ENDBRANCH   9  12
ENDBRANCH   8   9
ENDBRANCH   7   8
ENDBRANCH   6   7
ENDBRANCH   4   6
ENDBRANCH   3   4
ENDBRANCH   2   3
ENDBRANCH   1   2
BRANCH   1  23
ATOM     23  O   UNL     1       4.273   3.403  -1.871  1.00  0.00    -0.374 OA
BRANCH  23  24
ATOM     24  C   UNL     1       3.730   4.716  -2.008  1.00  0.00     0.202 C 
BRANCH  24  25
ATOM     25  C   UNL     1       2.805   5.140  -0.857  1.00  0.00     0.261 C 
BRANCH  25  26
ATOM     26  O   UNL     1       3.523   5.297   0.386  1.00  0.00    -0.460 OA
BRANCH  26  27
ATOM     27  C   UNL     1       3.367   4.297   1.292  1.00  0.00     0.338 C 
ATOM     28  O   UNL     1       2.590   3.357   1.220  1.00  0.00    -0.246 OA
BRANCH  27  29
ATOM     29  C   UNL     1       4.468   4.355   2.288  1.00  0.00     0.060 A 
ATOM     30  C   UNL     1       5.043   3.143   2.698  1.00  0.00     0.016 A 
ATOM     31  C   UNL     1       4.963   5.562   2.788  1.00  0.00     0.016 A 
ATOM     32  C   UNL     1       6.083   3.136   3.629  1.00  0.00     0.010 A 
ATOM     33  C   UNL     1       5.994   5.551   3.737  1.00  0.00     0.010 A 
ATOM     34  C   UNL     1       6.545   4.338   4.178  1.00  0.00    -0.014 A 
BRANCH  34  35
ATOM     35  C   UNL     1       7.429   4.316   5.371  1.00  0.00     0.031 A 
ATOM     36  C   UNL     1       6.784   4.166   6.718  1.00  0.00     0.074 A 
ATOM     37  C   UNL     1       8.765   4.438   5.280  1.00  0.00     0.049 A 
ATOM     38  N   UNL     1       7.301   4.300   7.911  1.00  0.00    -0.248 NA
ATOM     39  C   UNL     1       5.350   3.837   6.712  1.00  0.00     0.031 C 
ATOM     40  C   UNL     1       9.526   4.502   4.037  1.00  0.00     0.029 A 
ATOM     41  N   UNL     1       9.719   4.527   6.265  1.00  0.00    -0.354 N 
ATOM     42  C   UNL     1       6.247   4.117   8.796  1.00  0.00     0.074 A 
ATOM     43  C   UNL     1       5.069   3.838   8.004  1.00  0.00     0.031 C 
ATOM     44  C   UNL     1      10.834   4.602   4.333  1.00  0.00     0.029 A 
ATOM     45  C   UNL     1      10.995   4.694   5.785  1.00  0.00     0.049 A 
ATOM     46  H   UNL     1       9.508   4.475   7.226  1.00  0.00     0.167 HD
ATOM     47  C   UNL     1       6.250   4.215  10.146  1.00  0.00     0.037 A 
ATOM     48  C   UNL     1      12.148   4.942   6.441  1.00  0.00     0.037 A 
ATOM     49  C   UNL     1       7.417   4.522  10.926  1.00  0.00     0.049 A 
ATOM     50  C   UNL     1      12.125   5.111   7.941  1.00  0.00     0.074 A 
ATOM     51  C   UNL     1       7.520   4.691  12.295  1.00  0.00     0.029 A 
ATOM     52  N   UNL     1       8.686   4.721  10.400  1.00  0.00    -0.354 N 
ATOM     53  N   UNL     1      11.116   5.000   8.772  1.00  0.00    -0.248 NA
ATOM     54  C   UNL     1      13.393   5.476   8.593  1.00  0.00     0.031 C 
ATOM     55  C   UNL     1       8.837   5.057  12.589  1.00  0.00     0.029 A 
ATOM     56  C   UNL     1       9.572   5.041  11.414  1.00  0.00     0.049 A 
ATOM     57  H   UNL     1       8.920   4.646   9.447  1.00  0.00     0.167 HD
ATOM     58  C   UNL     1      11.626   5.268  10.038  1.00  0.00     0.074 A 
ATOM     59  C   UNL     1      13.039   5.534   9.870  1.00  0.00     0.031 C 
ATOM     60  C   UNL     1      10.980   5.297  11.231  1.00  0.00     0.037 A 
BRANCH  47  61
ATOM     61  C   UNL     1       4.919   4.107  10.829  1.00  0.00     0.057 A 
ATOM     62  C   UNL     1       4.200   2.907  10.898  1.00  0.00     0.134 A 
ATOM     63  C   UNL     1       4.319   5.251  11.374  1.00  0.00     0.134 A 
ATOM     64  F   UNL     1       4.704   1.781  10.371  1.00  0.00    -0.206 F 
ATOM     65  C   UNL     1       2.913   2.859  11.439  1.00  0.00     0.040 A 
ATOM     66  C   UNL     1       3.049   5.209  11.948  1.00  0.00     0.040 A 
ATOM     67  F   UNL     1       4.952   6.434  11.341  1.00  0.00    -0.206 F 
ATOM     68  C   UNL     1       2.335   4.013  11.967  1.00  0.00     0.006 A 
ENDBRANCH  47  61
BRANCH  48  69
ATOM     69  C   UNL     1      13.416   5.110   5.680  1.00  0.00     0.057 A 
ATOM     70  C   UNL     1      14.473   4.201   5.813  1.00  0.00     0.134 A 
ATOM     71  C   UNL     1      13.606   6.188   4.805  1.00  0.00     0.134 A 
ATOM     72  F   UNL     1      14.372   3.166   6.660  1.00  0.00    -0.206 F 
ATOM     73  C   UNL     1      15.669   4.357   5.105  1.00  0.00     0.040 A 
ATOM     74  C   UNL     1      14.782   6.339   4.068  1.00  0.00     0.040 A 
ATOM     75  F   UNL     1      12.639   7.102   4.637  1.00  0.00    -0.206 F 
ATOM     76  C   UNL     1      15.820   5.423   4.221  1.00  0.00     0.006 A 
ENDBRANCH  48  69
BRANCH  60  77
ATOM     77  C   UNL     1      11.789   5.589  12.464  1.00  0.00     0.057 A 
ATOM     78  C   UNL     1      12.270   6.872  12.753  1.00  0.00     0.134 A 
ATOM     79  C   UNL     1      12.004   4.588  13.421  1.00  0.00     0.134 A 
ATOM     80  F   UNL     1      12.105   7.875  11.877  1.00  0.00    -0.206 F 
ATOM     81  C   UNL     1      12.944   7.147  13.946  1.00  0.00     0.040 A 
ATOM     82  C   UNL     1      12.651   4.857  14.628  1.00  0.00     0.040 A 
ATOM     83  F   UNL     1      11.559   3.340  13.213  1.00  0.00    -0.206 F 
ATOM     84  C   UNL     1      13.125   6.140  14.892  1.00  0.00     0.006 A 
ENDBRANCH  60  77
ENDBRANCH  34  35
ENDBRANCH  27  29
ENDBRANCH  26  27
ENDBRANCH  25  26
ENDBRANCH  24  25
ENDBRANCH  23  24
ENDBRANCH   1  23
TORSDOF 18
