REMARK SMILES O=C(COc1ccc2c3c(c(=O)oc2c1)CCC3)NCCCC(=O)OCCOCCOC(=O)c1ccc(-c2c3nc(c(-c4c(F)cccc4F)c4ccc([nH]4)c(-c4c(F)cccc4F)c4nc(c(-c5c(F)cccc5F)c5ccc2[nH]5)C=C4)C=C3)cc1
REMARK SMILES IDX 26 1 25 2 23 3 24 4 22 5 21 6 20 7 19 8 1 9 2 10 3 12 4 13
REMARK SMILES IDX 5 14 6 15 15 16 7 17 14 18 8 19 13 20 9 21 11 22 10 23 18 24
REMARK SMILES IDX 12 25 16 26 17 27 27 28 28 29 29 30 30 31 31 32 32 33 33 34
REMARK SMILES IDX 34 35 35 36 87 37 36 38 86 39 37 40 38 41 39 42 80 43 40 44
REMARK SMILES IDX 85 45 79 46 81 47 41 48 84 49 78 50 77 51 42 53 68 54 51 55
REMARK SMILES IDX 67 56 52 57 55 58 66 59 82 60 53 61 54 62 65 64 83 65 56 66
REMARK SMILES IDX 43 67 44 68 49 69 45 70 46 71 48 72 50 73 47 74 69 75 70 76
REMARK SMILES IDX 75 77 71 78 72 79 74 80 76 81 73 82 57 83 58 84 63 85 59 86
REMARK SMILES IDX 60 87 62 88 64 89 61 90
REMARK H PARENT 19 11 81 52 55 63
REMARK Flexibility Score: inf
ROOT
ATOM      1  C   UNL     1       5.550  -4.025  -2.704  1.00  0.00     0.261 C 
ENDROOT
BRANCH   1   2
ATOM      2  O   UNL     1       4.906  -2.735  -2.640  1.00  0.00    -0.463 OA
BRANCH   2   3
ATOM      3  C   UNL     1       5.450  -1.749  -3.396  1.00  0.00     0.305 C 
ATOM      4  O   UNL     1       6.491  -1.850  -4.032  1.00  0.00    -0.252 OA
BRANCH   3   5
ATOM      5  C   UNL     1       4.673  -0.452  -3.318  1.00  0.00     0.124 C 
BRANCH   5   6
ATOM      6  C   UNL     1       3.144  -0.529  -3.303  1.00  0.00     0.033 C 
BRANCH   6   7
ATOM      7  C   UNL     1       2.522  -1.084  -2.027  1.00  0.00     0.116 C 
BRANCH   7   8
ATOM      8  N   UNL     1       3.065  -0.483  -0.833  1.00  0.00    -0.353 N 
ATOM      9  O   UNL     1       1.583   1.268  -0.709  1.00  0.00    -0.271 OA
ATOM     10  C   UNL     1       2.493   0.609  -0.217  1.00  0.00     0.257 C 
ATOM     11  H   UNL     1       3.881  -0.871  -0.440  1.00  0.00     0.163 HD
BRANCH  10  12
ATOM     12  C   UNL     1       3.076   0.911   1.168  1.00  0.00     0.329 C 
BRANCH  12  13
ATOM     13  O   UNL     1       3.813  -0.157   1.768  1.00  0.00    -0.484 OA
BRANCH  13  14
ATOM     14  C   UNL     1       3.054  -1.081   2.437  1.00  0.00     0.123 A 
ATOM     15  C   UNL     1       3.586  -1.564   3.636  1.00  0.00     0.047 A 
ATOM     16  C   UNL     1       1.851  -1.598   1.963  1.00  0.00     0.094 A 
ATOM     17  C   UNL     1       2.900  -2.534   4.380  1.00  0.00     0.016 A 
ATOM     18  C   UNL     1       1.183  -2.563   2.707  1.00  0.00     0.142 A 
ATOM     19  C   UNL     1       1.685  -3.040   3.916  1.00  0.00     0.021 A 
ATOM     20  O   UNL     1      -0.041  -3.030   2.177  1.00  0.00    -0.422 OA
ATOM     21  C   UNL     1       0.895  -4.037   4.605  1.00  0.00    -0.027 A 
ATOM     22  C   UNL     1      -0.832  -3.950   2.858  1.00  0.00     0.339 A 
ATOM     23  C   UNL     1      -0.269  -4.456   4.108  1.00  0.00     0.042 A 
ATOM     24  C   UNL     1       1.239  -4.717   5.875  1.00  0.00     0.037 C 
ATOM     25  O   UNL     1      -1.906  -4.337   2.416  1.00  0.00    -0.246 OA
ATOM     26  C   UNL     1      -0.923  -5.491   4.946  1.00  0.00     0.044 C 
ATOM     27  C   UNL     1       0.074  -5.691   6.091  1.00  0.00     0.010 C 
ENDBRANCH  13  14
ENDBRANCH  12  13
ENDBRANCH  10  12
ENDBRANCH   7   8
ENDBRANCH   6   7
ENDBRANCH   5   6
ENDBRANCH   3   5
ENDBRANCH   2   3
ENDBRANCH   1   2
BRANCH   1  28
ATOM     28  C   UNL     1       4.571  -5.097  -3.192  1.00  0.00     0.202 C 
BRANCH  28  29
ATOM     29  O   UNL     1       4.254  -5.041  -4.585  1.00  0.00    -0.374 OA
BRANCH  29  30
ATOM     30  C   UNL     1       3.301  -4.056  -4.979  1.00  0.00     0.202 C 
BRANCH  30  31
ATOM     31  C   UNL     1       1.830  -4.468  -4.843  1.00  0.00     0.261 C 
BRANCH  31  32
ATOM     32  O   UNL     1       1.492  -4.809  -3.487  1.00  0.00    -0.460 OA
BRANCH  32  33
ATOM     33  C   UNL     1       1.348  -6.138  -3.270  1.00  0.00     0.338 C 
ATOM     34  O   UNL     1       1.361  -7.030  -4.109  1.00  0.00    -0.246 OA
BRANCH  33  35
ATOM     35  C   UNL     1       1.314  -6.431  -1.826  1.00  0.00     0.060 A 
ATOM     36  C   UNL     1       2.138  -7.463  -1.358  1.00  0.00     0.016 A 
ATOM     37  C   UNL     1       0.420  -5.798  -0.963  1.00  0.00     0.016 A 
ATOM     38  C   UNL     1       2.020  -7.918  -0.045  1.00  0.00     0.010 A 
ATOM     39  C   UNL     1       0.302  -6.263   0.352  1.00  0.00     0.010 A 
ATOM     40  C   UNL     1       1.067  -7.352   0.812  1.00  0.00    -0.014 A 
BRANCH  40  41
ATOM     41  C   UNL     1       0.738  -8.025   2.100  1.00  0.00     0.031 A 
ATOM     42  C   UNL     1      -0.587  -8.740   2.229  1.00  0.00     0.074 A 
ATOM     43  C   UNL     1       1.605  -8.036   3.132  1.00  0.00     0.049 A 
ATOM     44  N   UNL     1      -1.115  -9.336   3.271  1.00  0.00    -0.248 NA
ATOM     45  C   UNL     1      -1.439  -8.769   1.029  1.00  0.00     0.031 C 
ATOM     46  C   UNL     1       2.908  -7.372   3.161  1.00  0.00     0.029 A 
ATOM     47  N   UNL     1       1.501  -8.616   4.374  1.00  0.00    -0.354 N 
ATOM     48  C   UNL     1      -2.360  -9.796   2.851  1.00  0.00     0.074 A 
ATOM     49  C   UNL     1      -2.532  -9.363   1.482  1.00  0.00     0.031 C 
ATOM     50  C   UNL     1       3.472  -7.561   4.369  1.00  0.00     0.029 A 
ATOM     51  C   UNL     1       2.562  -8.339   5.205  1.00  0.00     0.049 A 
ATOM     52  H   UNL     1       0.739  -9.178   4.644  1.00  0.00     0.167 HD
ATOM     53  C   UNL     1      -3.268 -10.541   3.527  1.00  0.00     0.037 A 
ATOM     54  C   UNL     1       2.749  -8.638   6.505  1.00  0.00     0.037 A 
ATOM     55  C   UNL     1      -3.090 -11.007   4.876  1.00  0.00     0.049 A 
ATOM     56  C   UNL     1       1.708  -9.425   7.250  1.00  0.00     0.074 A 
ATOM     57  C   UNL     1      -3.920 -11.824   5.625  1.00  0.00     0.029 A 
ATOM     58  N   UNL     1      -2.003 -10.698   5.677  1.00  0.00    -0.354 N 
ATOM     59  N   UNL     1       0.539  -9.850   6.840  1.00  0.00    -0.248 NA
ATOM     60  C   UNL     1       2.026  -9.777   8.642  1.00  0.00     0.031 C 
ATOM     61  C   UNL     1      -3.348 -11.985   6.891  1.00  0.00     0.029 A 
ATOM     62  C   UNL     1      -2.143 -11.304   6.915  1.00  0.00     0.049 A 
ATOM     63  H   UNL     1      -1.244 -10.133   5.407  1.00  0.00     0.167 HD
ATOM     64  C   UNL     1      -0.005 -10.549   7.910  1.00  0.00     0.074 A 
ATOM     65  C   UNL     1       0.954 -10.474   8.993  1.00  0.00     0.031 C 
ATOM     66  C   UNL     1      -1.183 -11.213   7.983  1.00  0.00     0.037 A 
BRANCH  53  67
ATOM     67  C   UNL     1      -4.533 -10.916   2.809  1.00  0.00     0.057 A 
ATOM     68  C   UNL     1      -4.538 -11.846   1.760  1.00  0.00     0.134 A 
ATOM     69  C   UNL     1      -5.766 -10.375   3.196  1.00  0.00     0.134 A 
ATOM     70  F   UNL     1      -3.390 -12.396   1.335  1.00  0.00    -0.206 F 
ATOM     71  C   UNL     1      -5.718 -12.204   1.105  1.00  0.00     0.040 A 
ATOM     72  C   UNL     1      -6.956 -10.745   2.566  1.00  0.00     0.040 A 
ATOM     73  F   UNL     1      -5.836  -9.488   4.200  1.00  0.00    -0.206 F 
ATOM     74  C   UNL     1      -6.933 -11.658   1.513  1.00  0.00     0.006 A 
ENDBRANCH  53  67
BRANCH  54  75
ATOM     75  C   UNL     1       3.948  -8.150   7.228  1.00  0.00     0.057 A 
ATOM     76  C   UNL     1       5.076  -8.955   7.400  1.00  0.00     0.134 A 
ATOM     77  C   UNL     1       3.958  -6.886   7.827  1.00  0.00     0.134 A 
ATOM     78  F   UNL     1       5.099 -10.200   6.904  1.00  0.00    -0.206 F 
ATOM     79  C   UNL     1       6.180  -8.512   8.133  1.00  0.00     0.040 A 
ATOM     80  C   UNL     1       5.063  -6.418   8.538  1.00  0.00     0.040 A 
ATOM     81  F   UNL     1       2.873  -6.103   7.772  1.00  0.00    -0.206 F 
ATOM     82  C   UNL     1       6.179  -7.235   8.694  1.00  0.00     0.006 A 
ENDBRANCH  54  75
BRANCH  66  83
ATOM     83  C   UNL     1      -1.466 -11.961   9.250  1.00  0.00     0.057 A 
ATOM     84  C   UNL     1      -1.844 -11.311  10.431  1.00  0.00     0.134 A 
ATOM     85  C   UNL     1      -1.364 -13.358   9.282  1.00  0.00     0.134 A 
ATOM     86  F   UNL     1      -1.942  -9.973  10.469  1.00  0.00    -0.206 F 
ATOM     87  C   UNL     1      -2.086 -12.023  11.607  1.00  0.00     0.040 A 
ATOM     88  C   UNL     1      -1.625 -14.082  10.444  1.00  0.00     0.040 A 
ATOM     89  F   UNL     1      -1.010 -14.039   8.182  1.00  0.00    -0.206 F 
ATOM     90  C   UNL     1      -1.980 -13.414  11.614  1.00  0.00     0.006 A 
ENDBRANCH  66  83
ENDBRANCH  40  41
ENDBRANCH  33  35
ENDBRANCH  32  33
ENDBRANCH  31  32
ENDBRANCH  30  31
ENDBRANCH  29  30
ENDBRANCH  28  29
ENDBRANCH   1  28
TORSDOF 20
