REMARK SMILES NS(=O)(=O)c1ccc(/N=C/c2ccc(O)c(C(=O)OCCOCCOC(=O)c3ccc(-c4c5nc(c(-c6c(F)cccc6F)c6ccc([nH]6)c(-c6c(F)cccc6F)c6nc(c(-c7c(F)cccc7F)c7ccc4[nH]7)C=C6)C=C5)cc3)c2)cc1
REMARK SMILES IDX 21 1 20 2 19 3 17 4 18 5 16 6 11 7 12 8 82 9 13 10 14 11
REMARK SMILES IDX 10 12 9 13 8 14 5 15 6 16 84 17 7 18 83 19 2 20 3 21 4 22
REMARK SMILES IDX 1 23 15 26 22 28 23 29 24 30 25 31 26 32 27 33 28 34 29 35
REMARK SMILES IDX 81 36 30 37 80 38 31 39 32 40 33 41 74 42 34 43 79 44 73 45
REMARK SMILES IDX 75 46 35 47 78 48 72 49 71 50 36 52 62 53 45 54 61 55 46 56
REMARK SMILES IDX 49 57 60 58 76 59 47 60 48 61 59 63 77 64 50 65 37 66 38 67
REMARK SMILES IDX 43 68 39 69 40 70 42 71 44 72 41 73 63 74 64 75 69 76 65 77
REMARK SMILES IDX 66 78 68 79 70 80 67 81 51 82 52 83 57 84 53 85 54 86 56 87
REMARK SMILES IDX 58 88 55 89
REMARK H PARENT 1 24 1 25 15 27 75 51 49 62
REMARK Flexibility Score: inf
ROOT
ATOM      1  C   UNL     1       0.632   1.274 -13.757  1.00  0.00     0.202 C 
ENDROOT
BRANCH   1   2
ATOM      2  C   UNL     1       1.988   0.894 -13.149  1.00  0.00     0.261 C 
BRANCH   2   3
ATOM      3  O   UNL     1       2.167   1.432 -11.829  1.00  0.00    -0.460 OA
BRANCH   3   4
ATOM      4  C   UNL     1       3.009   2.491 -11.768  1.00  0.00     0.342 C 
ATOM      5  O   UNL     1       3.682   2.943 -12.684  1.00  0.00    -0.246 OA
BRANCH   4   6
ATOM      6  C   UNL     1       2.844   3.239 -10.503  1.00  0.00     0.102 A 
ATOM      7  C   UNL     1       2.402   3.392  -8.132  1.00  0.00    -0.006 A 
ATOM      8  C   UNL     1       2.492   4.788  -8.199  1.00  0.00     0.013 A 
ATOM      9  C   UNL     1       2.566   2.608  -9.282  1.00  0.00     0.029 A 
ATOM     10  C   UNL     1       2.744   5.412  -9.419  1.00  0.00     0.048 A 
ATOM     11  C   UNL     1       2.922   4.641 -10.562  1.00  0.00     0.130 A 
BRANCH   7  12
ATOM     12  C   UNL     1       2.124   2.794  -6.807  1.00  0.00     0.119 C 
ATOM     13  N   UNL     1       2.005   1.520  -6.635  1.00  0.00    -0.256 NA
BRANCH  13  14
ATOM     14  C   UNL     1       1.718   0.994  -5.358  1.00  0.00     0.063 A 
ATOM     15  C   UNL     1       1.071  -0.279  -2.932  1.00  0.00     0.082 A 
ATOM     16  C   UNL     1       1.760  -0.981  -3.920  1.00  0.00     0.024 A 
ATOM     17  C   UNL     1       0.713   1.054  -3.134  1.00  0.00     0.024 A 
ATOM     18  C   UNL     1       2.079  -0.340  -5.122  1.00  0.00     0.030 A 
ATOM     19  C   UNL     1       1.030   1.681  -4.345  1.00  0.00     0.030 A 
BRANCH  15  20
ATOM     20  S   UNL     1       0.601  -1.088  -1.433  1.00  0.00     0.238 S 
ATOM     21  O   UNL     1       1.291  -2.350  -1.329  1.00  0.00    -0.207 OA
ATOM     22  O   UNL     1      -0.831  -0.962  -1.272  1.00  0.00    -0.207 OA
BRANCH  20  23
ATOM     23  N   UNL     1       1.288  -0.110  -0.251  1.00  0.00    -0.225 NA
ATOM     24  H   UNL     1       1.076  -0.490   0.671  1.00  0.00     0.137 HD
ATOM     25  H   UNL     1       0.907   0.833  -0.326  1.00  0.00     0.137 HD
ENDBRANCH  20  23
ENDBRANCH  15  20
ENDBRANCH  13  14
ENDBRANCH   7  12
BRANCH  11  26
ATOM     26  O   UNL     1       3.134   5.337 -11.723  1.00  0.00    -0.507 OA
ATOM     27  H   UNL     1       3.178   6.273 -11.707  1.00  0.00     0.293 HD
ENDBRANCH  11  26
ENDBRANCH   4   6
ENDBRANCH   3   4
ENDBRANCH   2   3
ENDBRANCH   1   2
BRANCH   1  28
ATOM     28  O   UNL     1       0.347   2.659 -13.937  1.00  0.00    -0.374 OA
BRANCH  28  29
ATOM     29  C   UNL     1      -0.052   3.415 -12.795  1.00  0.00     0.202 C 
BRANCH  29  30
ATOM     30  C   UNL     1      -1.466   3.204 -12.238  1.00  0.00     0.261 C 
BRANCH  30  31
ATOM     31  O   UNL     1      -1.686   1.866 -11.759  1.00  0.00    -0.460 OA
BRANCH  31  32
ATOM     32  C   UNL     1      -2.493   1.113 -12.547  1.00  0.00     0.338 C 
ATOM     33  O   UNL     1      -3.077   1.463 -13.558  1.00  0.00    -0.246 OA
BRANCH  32  34
ATOM     34  C   UNL     1      -2.434  -0.296 -12.118  1.00  0.00     0.060 A 
ATOM     35  C   UNL     1      -2.071  -1.251 -13.077  1.00  0.00     0.016 A 
ATOM     36  C   UNL     1      -2.799  -0.684 -10.829  1.00  0.00     0.016 A 
ATOM     37  C   UNL     1      -2.116  -2.606 -12.762  1.00  0.00     0.010 A 
ATOM     38  C   UNL     1      -2.850  -2.046 -10.517  1.00  0.00     0.010 A 
ATOM     39  C   UNL     1      -2.543  -3.014 -11.492  1.00  0.00    -0.014 A 
BRANCH  39  40
ATOM     40  C   UNL     1      -2.788  -4.452 -11.225  1.00  0.00     0.031 A 
ATOM     41  C   UNL     1      -4.202  -4.962 -11.193  1.00  0.00     0.074 A 
ATOM     42  C   UNL     1      -1.760  -5.297 -11.033  1.00  0.00     0.049 A 
ATOM     43  N   UNL     1      -4.645  -6.165 -10.930  1.00  0.00    -0.248 NA
ATOM     44  C   UNL     1      -5.259  -3.983 -11.495  1.00  0.00     0.031 C 
ATOM     45  C   UNL     1      -0.345  -4.929 -11.077  1.00  0.00     0.029 A 
ATOM     46  N   UNL     1      -1.751  -6.640 -10.754  1.00  0.00    -0.354 N 
ATOM     47  C   UNL     1      -6.029  -6.086 -11.024  1.00  0.00     0.074 A 
ATOM     48  C   UNL     1      -6.354  -4.711 -11.334  1.00  0.00     0.031 C 
ATOM     49  C   UNL     1       0.396  -6.021 -10.823  1.00  0.00     0.029 A 
ATOM     50  C   UNL     1      -0.492  -7.152 -10.561  1.00  0.00     0.049 A 
ATOM     51  H   UNL     1      -2.569  -7.184 -10.696  1.00  0.00     0.167 HD
ATOM     52  C   UNL     1      -6.944  -7.073 -10.873  1.00  0.00     0.037 A 
ATOM     53  C   UNL     1      -0.102  -8.386 -10.190  1.00  0.00     0.037 A 
ATOM     54  C   UNL     1      -6.615  -8.440 -10.562  1.00  0.00     0.049 A 
ATOM     55  C   UNL     1      -1.144  -9.448  -9.951  1.00  0.00     0.074 A 
ATOM     56  C   UNL     1      -7.468  -9.520 -10.410  1.00  0.00     0.029 A 
ATOM     57  N   UNL     1      -5.330  -8.914 -10.343  1.00  0.00    -0.354 N 
ATOM     58  N   UNL     1      -2.447  -9.372 -10.071  1.00  0.00    -0.248 NA
ATOM     59  C   UNL     1      -0.658 -10.769  -9.529  1.00  0.00     0.031 C 
ATOM     60  C   UNL     1      -6.705 -10.631 -10.040  1.00  0.00     0.029 A 
ATOM     61  C   UNL     1      -5.370 -10.262 -10.027  1.00  0.00     0.049 A 
ATOM     62  H   UNL     1      -4.510  -8.372 -10.404  1.00  0.00     0.167 HD
ATOM     63  C   UNL     1      -2.933 -10.640  -9.772  1.00  0.00     0.074 A 
ATOM     64  C   UNL     1      -1.782 -11.468  -9.479  1.00  0.00     0.031 C 
ATOM     65  C   UNL     1      -4.216 -11.079  -9.745  1.00  0.00     0.037 A 
BRANCH  52  66
ATOM     66  C   UNL     1      -8.394  -6.704 -11.013  1.00  0.00     0.057 A 
ATOM     67  C   UNL     1      -8.956  -6.349 -12.247  1.00  0.00     0.134 A 
ATOM     68  C   UNL     1      -9.248  -6.740  -9.903  1.00  0.00     0.134 A 
ATOM     69  F   UNL     1      -8.193  -6.284 -13.348  1.00  0.00    -0.206 F 
ATOM     70  C   UNL     1     -10.307  -6.018 -12.366  1.00  0.00     0.040 A 
ATOM     71  C   UNL     1     -10.607  -6.441 -10.015  1.00  0.00     0.040 A 
ATOM     72  F   UNL     1      -8.779  -7.077  -8.692  1.00  0.00    -0.206 F 
ATOM     73  C   UNL     1     -11.139  -6.071 -11.249  1.00  0.00     0.006 A 
ENDBRANCH  52  66
BRANCH  53  74
ATOM     74  C   UNL     1       1.341  -8.687 -10.005  1.00  0.00     0.057 A 
ATOM     75  C   UNL     1       2.012  -9.574 -10.853  1.00  0.00     0.134 A 
ATOM     76  C   UNL     1       2.077  -8.114  -8.960  1.00  0.00     0.134 A 
ATOM     77  F   UNL     1       1.357 -10.174 -11.858  1.00  0.00    -0.206 F 
ATOM     78  C   UNL     1       3.357  -9.897 -10.659  1.00  0.00     0.040 A 
ATOM     79  C   UNL     1       3.429  -8.404  -8.772  1.00  0.00     0.040 A 
ATOM     80  F   UNL     1       1.494  -7.253  -8.113  1.00  0.00    -0.206 F 
ATOM     81  C   UNL     1       4.070  -9.306  -9.618  1.00  0.00     0.006 A 
ENDBRANCH  53  74
BRANCH  65  82
ATOM     82  C   UNL     1      -4.443 -12.532  -9.433  1.00  0.00     0.057 A 
ATOM     83  C   UNL     1      -4.229 -13.062  -8.154  1.00  0.00     0.134 A 
ATOM     84  C   UNL     1      -4.922 -13.404 -10.420  1.00  0.00     0.134 A 
ATOM     85  F   UNL     1      -3.760 -12.286  -7.165  1.00  0.00    -0.206 F 
ATOM     86  C   UNL     1      -4.454 -14.412  -7.877  1.00  0.00     0.040 A 
ATOM     87  C   UNL     1      -5.183 -14.748 -10.146  1.00  0.00     0.040 A 
ATOM     88  F   UNL     1      -5.161 -12.961 -11.664  1.00  0.00    -0.206 F 
ATOM     89  C   UNL     1      -4.941 -15.257  -8.873  1.00  0.00     0.006 A 
ENDBRANCH  65  82
ENDBRANCH  39  40
ENDBRANCH  32  34
ENDBRANCH  31  32
ENDBRANCH  30  31
ENDBRANCH  29  30
ENDBRANCH  28  29
ENDBRANCH   1  28
TORSDOF 19
