REMARK SMILES [NH3+][C@H](CCC(=O)OCCOCCOC(=O)c1ccc(-c2c3nc(c(-c4c(F)cccc4F)c4ccc([nH]4)c(-c4c(F)cccc4F)c4nc(c(-c5c(F)cccc5F)c5ccc2[nH]5)C=C4)C=C3)cc1)c1nccc2[nH]ccc12
REMARK SMILES IDX 9 1 8 2 7 3 5 4 6 5 4 6 3 7 2 8 1 9 70 13 71 14 78 15 72 16
REMARK SMILES IDX 74 17 77 18 73 19 75 20 76 21 10 23 11 24 12 25 13 26 14 27
REMARK SMILES IDX 15 28 16 29 17 30 69 31 18 32 68 33 19 34 20 35 21 36 62 37
REMARK SMILES IDX 22 38 67 39 61 40 63 41 23 42 66 43 60 44 59 45 24 47 50 48
REMARK SMILES IDX 33 49 49 50 34 51 37 52 48 53 64 54 35 55 36 56 47 58 65 59
REMARK SMILES IDX 38 60 25 61 26 62 31 63 27 64 28 65 30 66 32 67 29 68 51 69
REMARK SMILES IDX 52 70 57 71 53 72 54 73 56 74 58 75 55 76 39 77 40 78 45 79
REMARK SMILES IDX 41 80 42 81 44 82 46 83 43 84
REMARK H PARENT 1 10 1 11 1 12 75 22 63 46 37 57
REMARK Flexibility Score: inf
ROOT
ATOM      1  C   UNL     1       4.400  -0.298  -3.023  1.00  0.00     0.202 C 
ENDROOT
BRANCH   1   2
ATOM      2  C   UNL     1       3.333  -1.334  -3.380  1.00  0.00     0.261 C 
BRANCH   2   3
ATOM      3  O   UNL     1       2.120  -1.096  -2.644  1.00  0.00    -0.463 OA
BRANCH   3   4
ATOM      4  C   UNL     1       1.692  -2.116  -1.856  1.00  0.00     0.306 C 
ATOM      5  O   UNL     1       2.199  -3.231  -1.817  1.00  0.00    -0.252 OA
BRANCH   4   6
ATOM      6  C   UNL     1       0.512  -1.740  -0.993  1.00  0.00     0.129 C 
BRANCH   6   7
ATOM      7  C   UNL     1       0.159  -0.247  -0.912  1.00  0.00     0.083 C 
BRANCH   7   8
ATOM      8  C   UNL     1      -1.019   0.198  -1.826  1.00  0.00     0.232 C 
BRANCH   8   9
ATOM      9  N   UNL     1      -0.682   0.046  -3.244  1.00  0.00    -0.350 N 
ATOM     10  H   UNL     1      -1.472   0.346  -3.815  1.00  0.00     0.345 HD
ATOM     11  H   UNL     1      -0.472  -0.932  -3.440  1.00  0.00     0.345 HD
ATOM     12  H   UNL     1       0.132   0.620  -3.463  1.00  0.00     0.345 HD
ENDBRANCH   8   9
BRANCH   8  13
ATOM     13  C   UNL     1      -2.379  -0.402  -1.386  1.00  0.00     0.107 A 
ATOM     14  N   UNL     1      -2.310  -1.008  -0.152  1.00  0.00    -0.254 NA
ATOM     15  C   UNL     1      -3.595   0.294  -1.625  1.00  0.00     0.027 A 
ATOM     16  C   UNL     1      -2.950  -0.431   0.883  1.00  0.00     0.114 A 
ATOM     17  C   UNL     1      -4.188   0.922  -0.527  1.00  0.00     0.049 A 
ATOM     18  C   UNL     1      -4.524   0.432  -2.697  1.00  0.00     0.030 A 
ATOM     19  C   UNL     1      -3.775   0.675   0.776  1.00  0.00     0.047 A 
ATOM     20  N   UNL     1      -5.196   1.716  -1.017  1.00  0.00    -0.361 N 
ATOM     21  C   UNL     1      -5.535   1.269  -2.268  1.00  0.00     0.083 A 
ATOM     22  H   UNL     1      -5.606   2.479  -0.549  1.00  0.00     0.166 HD
ENDBRANCH   8  13
ENDBRANCH   7   8
ENDBRANCH   6   7
ENDBRANCH   4   6
ENDBRANCH   3   4
ENDBRANCH   2   3
ENDBRANCH   1   2
BRANCH   1  23
ATOM     23  O   UNL     1       4.974  -0.406  -1.721  1.00  0.00    -0.374 OA
BRANCH  23  24
ATOM     24  C   UNL     1       4.186   0.020  -0.610  1.00  0.00     0.202 C 
BRANCH  24  25
ATOM     25  C   UNL     1       4.098   1.534  -0.378  1.00  0.00     0.261 C 
BRANCH  25  26
ATOM     26  O   UNL     1       3.466   2.229  -1.470  1.00  0.00    -0.460 OA
BRANCH  26  27
ATOM     27  C   UNL     1       4.295   3.008  -2.196  1.00  0.00     0.338 C 
ATOM     28  O   UNL     1       5.488   3.233  -1.974  1.00  0.00    -0.246 OA
BRANCH  27  29
ATOM     29  C   UNL     1       3.646   3.459  -3.437  1.00  0.00     0.060 A 
ATOM     30  C   UNL     1       4.336   3.244  -4.636  1.00  0.00     0.016 A 
ATOM     31  C   UNL     1       2.435   4.157  -3.433  1.00  0.00     0.016 A 
ATOM     32  C   UNL     1       3.853   3.781  -5.826  1.00  0.00     0.010 A 
ATOM     33  C   UNL     1       1.950   4.695  -4.633  1.00  0.00     0.010 A 
ATOM     34  C   UNL     1       2.678   4.546  -5.828  1.00  0.00    -0.014 A 
BRANCH  34  35
ATOM     35  C   UNL     1       2.305   5.279  -7.065  1.00  0.00     0.031 A 
ATOM     36  C   UNL     1       2.584   6.755  -7.168  1.00  0.00     0.074 A 
ATOM     37  C   UNL     1       1.803   4.617  -8.123  1.00  0.00     0.049 A 
ATOM     38  N   UNL     1       2.402   7.566  -8.180  1.00  0.00    -0.248 NA
ATOM     39  C   UNL     1       3.145   7.404  -5.972  1.00  0.00     0.031 C 
ATOM     40  C   UNL     1       1.504   3.186  -8.159  1.00  0.00     0.029 A 
ATOM     41  N   UNL     1       1.463   5.064  -9.376  1.00  0.00    -0.354 N 
ATOM     42  C   UNL     1       2.837   8.814  -7.749  1.00  0.00     0.074 A 
ATOM     43  C   UNL     1       3.244   8.664  -6.368  1.00  0.00     0.031 C 
ATOM     44  C   UNL     1       1.028   2.871  -9.375  1.00  0.00     0.029 A 
ATOM     45  C   UNL     1       0.966   4.080 -10.195  1.00  0.00     0.049 A 
ATOM     46  H   UNL     1       1.566   6.001  -9.660  1.00  0.00     0.167 HD
ATOM     47  C   UNL     1       2.910   9.975  -8.444  1.00  0.00     0.037 A 
ATOM     48  C   UNL     1       0.505   4.147 -11.459  1.00  0.00     0.037 A 
ATOM     49  C   UNL     1       2.497  10.129  -9.816  1.00  0.00     0.049 A 
ATOM     50  C   UNL     1       0.545   5.462 -12.192  1.00  0.00     0.074 A 
ATOM     51  C   UNL     1       2.530  11.266 -10.604  1.00  0.00     0.029 A 
ATOM     52  N   UNL     1       1.971   9.115 -10.602  1.00  0.00    -0.354 N 
ATOM     53  N   UNL     1       0.985   6.627 -11.781  1.00  0.00    -0.248 NA
ATOM     54  C   UNL     1       0.037   5.466 -13.571  1.00  0.00     0.031 C 
ATOM     55  C   UNL     1       1.984  10.951 -11.853  1.00  0.00     0.029 A 
ATOM     56  C   UNL     1       1.660   9.604 -11.861  1.00  0.00     0.049 A 
ATOM     57  H   UNL     1       1.839   8.184 -10.309  1.00  0.00     0.167 HD
ATOM     58  C   UNL     1       0.828   7.494 -12.857  1.00  0.00     0.074 A 
ATOM     59  C   UNL     1       0.278   6.714 -13.945  1.00  0.00     0.031 C 
ATOM     60  C   UNL     1       1.111   8.818 -12.936  1.00  0.00     0.037 A 
BRANCH  47  61
ATOM     61  C   UNL     1       3.453  11.177  -7.727  1.00  0.00     0.057 A 
ATOM     62  C   UNL     1       4.811  11.288  -7.398  1.00  0.00     0.134 A 
ATOM     63  C   UNL     1       2.621  12.255  -7.398  1.00  0.00     0.134 A 
ATOM     64  F   UNL     1       5.661  10.287  -7.673  1.00  0.00    -0.206 F 
ATOM     65  C   UNL     1       5.317  12.417  -6.751  1.00  0.00     0.040 A 
ATOM     66  C   UNL     1       3.120  13.400  -6.775  1.00  0.00     0.040 A 
ATOM     67  F   UNL     1       1.312  12.217  -7.689  1.00  0.00    -0.206 F 
ATOM     68  C   UNL     1       4.471  13.481  -6.445  1.00  0.00     0.006 A 
ENDBRANCH  47  61
BRANCH  48  69
ATOM     69  C   UNL     1      -0.048   2.935 -12.114  1.00  0.00     0.057 A 
ATOM     70  C   UNL     1       0.593   2.332 -13.203  1.00  0.00     0.134 A 
ATOM     71  C   UNL     1      -1.255   2.369 -11.684  1.00  0.00     0.134 A 
ATOM     72  F   UNL     1       1.740   2.841 -13.677  1.00  0.00    -0.206 F 
ATOM     73  C   UNL     1       0.043   1.227 -13.855  1.00  0.00     0.040 A 
ATOM     74  C   UNL     1      -1.801   1.246 -12.307  1.00  0.00     0.040 A 
ATOM     75  F   UNL     1      -1.918   2.898 -10.645  1.00  0.00    -0.206 F 
ATOM     76  C   UNL     1      -1.156   0.678 -13.403  1.00  0.00     0.006 A 
ENDBRANCH  48  69
BRANCH  60  77
ATOM     77  C   UNL     1       0.857   9.495 -14.253  1.00  0.00     0.057 A 
ATOM     78  C   UNL     1      -0.440   9.723 -14.732  1.00  0.00     0.134 A 
ATOM     79  C   UNL     1       1.924   9.932 -15.049  1.00  0.00     0.134 A 
ATOM     80  F   UNL     1      -1.507   9.320 -14.026  1.00  0.00    -0.206 F 
ATOM     81  C   UNL     1      -0.666  10.327 -15.971  1.00  0.00     0.040 A 
ATOM     82  C   UNL     1       1.710  10.564 -16.275  1.00  0.00     0.040 A 
ATOM     83  F   UNL     1       3.192   9.757 -14.647  1.00  0.00    -0.206 F 
ATOM     84  C   UNL     1       0.412  10.753 -16.745  1.00  0.00     0.006 A 
ENDBRANCH  60  77
ENDBRANCH  34  35
ENDBRANCH  27  29
ENDBRANCH  26  27
ENDBRANCH  25  26
ENDBRANCH  24  25
ENDBRANCH  23  24
ENDBRANCH   1  23
TORSDOF 18
