REMARK SMILES CCN1C[C@@H](C(=O)OCCOCCOC(=O)c2ccc(-c3c4nc(c(-c5c(F)cccc5F)c5ccc([nH]5)c(-c5c(F)cccc5F)c5nc(c(-c6c(F)cccc6F)c6ccc3[nH]6)C=C5)C=C4)cc2)CC1=O
REMARK SMILES IDX 12 1 11 2 10 3 9 4 8 5 6 6 7 7 5 8 3 9 4 10 72 11 71 12
REMARK SMILES IDX 73 13 2 14 1 15 13 16 14 17 15 18 16 19 17 20 18 21 70 22
REMARK SMILES IDX 19 23 69 24 20 25 21 26 22 27 63 28 23 29 68 30 62 31 64 32
REMARK SMILES IDX 24 33 67 34 61 35 60 36 25 38 51 39 34 40 50 41 35 42 38 43
REMARK SMILES IDX 49 44 65 45 36 46 37 47 48 49 66 50 39 51 26 52 27 53 32 54
REMARK SMILES IDX 28 55 29 56 31 57 33 58 30 59 52 60 53 61 58 62 54 63 55 64
REMARK SMILES IDX 57 65 59 66 56 67 40 68 41 69 46 70 42 71 43 72 45 73 47 74
REMARK SMILES IDX 44 75
REMARK H PARENT 64 37 38 48
REMARK Flexibility Score: inf
ROOT
ATOM      1  C   UNL     1       2.234  -0.821  -7.839  1.00  0.00     0.202 C 
ENDROOT
BRANCH   1   2
ATOM      2  O   UNL     1       3.015   0.150  -8.536  1.00  0.00    -0.374 OA
BRANCH   2   3
ATOM      3  C   UNL     1       4.177   0.660  -7.882  1.00  0.00     0.202 C 
BRANCH   3   4
ATOM      4  C   UNL     1       3.924   1.685  -6.775  1.00  0.00     0.261 C 
BRANCH   4   5
ATOM      5  O   UNL     1       3.172   1.094  -5.701  1.00  0.00    -0.463 OA
BRANCH   5   6
ATOM      6  C   UNL     1       2.052   1.760  -5.332  1.00  0.00     0.311 C 
ATOM      7  O   UNL     1       1.749   2.888  -5.699  1.00  0.00    -0.252 OA
BRANCH   6   8
ATOM      8  C   UNL     1       1.174   0.967  -4.404  1.00  0.00     0.128 C 
ATOM      9  N   UNL     1       0.829   0.539  -2.147  1.00  0.00    -0.342 N 
ATOM     10  C   UNL     1       1.207   1.610  -3.033  1.00  0.00     0.135 C 
ATOM     11  C   UNL     1       0.944  -0.703  -2.748  1.00  0.00     0.223 C 
ATOM     12  C   UNL     1       1.524  -0.492  -4.124  1.00  0.00     0.117 C 
ATOM     13  O   UNL     1       0.660  -1.788  -2.270  1.00  0.00    -0.275 OA
BRANCH   9  14
ATOM     14  C   UNL     1       0.281   0.793  -0.827  1.00  0.00     0.116 C 
ATOM     15  C   UNL     1       0.977   0.012   0.274  1.00  0.00     0.027 C 
ENDBRANCH   9  14
ENDBRANCH   6   8
ENDBRANCH   5   6
ENDBRANCH   4   5
ENDBRANCH   3   4
ENDBRANCH   2   3
ENDBRANCH   1   2
BRANCH   1  16
ATOM     16  C   UNL     1       2.811  -2.240  -7.760  1.00  0.00     0.261 C 
BRANCH  16  17
ATOM     17  O   UNL     1       4.020  -2.300  -6.980  1.00  0.00    -0.460 OA
BRANCH  17  18
ATOM     18  C   UNL     1       5.127  -2.645  -7.680  1.00  0.00     0.338 C 
ATOM     19  O   UNL     1       5.189  -2.969  -8.858  1.00  0.00    -0.246 OA
BRANCH  18  20
ATOM     20  C   UNL     1       6.340  -2.416  -6.873  1.00  0.00     0.060 A 
ATOM     21  C   UNL     1       7.336  -1.601  -7.427  1.00  0.00     0.016 A 
ATOM     22  C   UNL     1       6.546  -3.059  -5.651  1.00  0.00     0.016 A 
ATOM     23  C   UNL     1       8.565  -1.466  -6.784  1.00  0.00     0.010 A 
ATOM     24  C   UNL     1       7.786  -2.931  -5.013  1.00  0.00     0.010 A 
ATOM     25  C   UNL     1       8.812  -2.164  -5.595  1.00  0.00    -0.014 A 
BRANCH  25  26
ATOM     26  C   UNL     1      10.191  -2.205  -5.051  1.00  0.00     0.031 A 
ATOM     27  C   UNL     1      11.064  -3.391  -5.358  1.00  0.00     0.074 A 
ATOM     28  C   UNL     1      10.679  -1.179  -4.331  1.00  0.00     0.049 A 
ATOM     29  N   UNL     1      12.289  -3.643  -4.973  1.00  0.00    -0.248 NA
ATOM     30  C   UNL     1      10.477  -4.431  -6.219  1.00  0.00     0.031 C 
ATOM     31  C   UNL     1       9.949   0.043  -3.998  1.00  0.00     0.029 A 
ATOM     32  N   UNL     1      11.909  -1.008  -3.745  1.00  0.00    -0.354 N 
ATOM     33  C   UNL     1      12.621  -4.863  -5.548  1.00  0.00     0.074 A 
ATOM     34  C   UNL     1      11.459  -5.319  -6.279  1.00  0.00     0.031 C 
ATOM     35  C   UNL     1      10.740   0.832  -3.251  1.00  0.00     0.029 A 
ATOM     36  C   UNL     1      12.020   0.160  -3.033  1.00  0.00     0.049 A 
ATOM     37  H   UNL     1      12.640  -1.662  -3.827  1.00  0.00     0.167 HD
ATOM     38  C   UNL     1      13.794  -5.538  -5.484  1.00  0.00     0.037 A 
ATOM     39  C   UNL     1      13.033   0.623  -2.275  1.00  0.00     0.037 A 
ATOM     40  C   UNL     1      14.948  -5.094  -4.749  1.00  0.00     0.049 A 
ATOM     41  C   UNL     1      14.301  -0.180  -2.160  1.00  0.00     0.074 A 
ATOM     42  C   UNL     1      16.178  -5.716  -4.614  1.00  0.00     0.029 A 
ATOM     43  N   UNL     1      15.014  -3.916  -4.023  1.00  0.00    -0.354 N 
ATOM     44  N   UNL     1      14.607  -1.327  -2.716  1.00  0.00    -0.248 NA
ATOM     45  C   UNL     1      15.367   0.379  -1.314  1.00  0.00     0.031 C 
ATOM     46  C   UNL     1      16.976  -4.930  -3.776  1.00  0.00     0.029 A 
ATOM     47  C   UNL     1      16.258  -3.799  -3.425  1.00  0.00     0.049 A 
ATOM     48  H   UNL     1      14.285  -3.259  -3.943  1.00  0.00     0.167 HD
ATOM     49  C   UNL     1      15.905  -1.615  -2.308  1.00  0.00     0.074 A 
ATOM     50  C   UNL     1      16.334  -0.515  -1.470  1.00  0.00     0.031 C 
ATOM     51  C   UNL     1      16.672  -2.692  -2.601  1.00  0.00     0.037 A 
BRANCH  38  52
ATOM     52  C   UNL     1      13.880  -6.840  -6.224  1.00  0.00     0.057 A 
ATOM     53  C   UNL     1      13.974  -6.885  -7.621  1.00  0.00     0.134 A 
ATOM     54  C   UNL     1      13.903  -8.057  -5.533  1.00  0.00     0.134 A 
ATOM     55  F   UNL     1      13.943  -5.754  -8.341  1.00  0.00    -0.206 F 
ATOM     56  C   UNL     1      14.072  -8.097  -8.306  1.00  0.00     0.040 A 
ATOM     57  C   UNL     1      14.023  -9.274  -6.205  1.00  0.00     0.040 A 
ATOM     58  F   UNL     1      13.820  -8.083  -4.194  1.00  0.00    -0.206 F 
ATOM     59  C   UNL     1      14.104  -9.297  -7.597  1.00  0.00     0.006 A 
ENDBRANCH  38  52
BRANCH  39  60
ATOM     60  C   UNL     1      12.886   1.905  -1.541  1.00  0.00     0.057 A 
ATOM     61  C   UNL     1      13.624   3.039  -1.897  1.00  0.00     0.134 A 
ATOM     62  C   UNL     1      12.025   2.014  -0.442  1.00  0.00     0.134 A 
ATOM     63  F   UNL     1      14.484   2.989  -2.925  1.00  0.00    -0.206 F 
ATOM     64  C   UNL     1      13.527   4.230  -1.175  1.00  0.00     0.040 A 
ATOM     65  C   UNL     1      11.899   3.205   0.273  1.00  0.00     0.040 A 
ATOM     66  F   UNL     1      11.290   0.962  -0.051  1.00  0.00    -0.206 F 
ATOM     67  C   UNL     1      12.658   4.316  -0.088  1.00  0.00     0.006 A 
ENDBRANCH  39  60
BRANCH  51  68
ATOM     68  C   UNL     1      18.063  -2.720  -2.041  1.00  0.00     0.057 A 
ATOM     69  C   UNL     1      18.309  -2.974  -0.686  1.00  0.00     0.134 A 
ATOM     70  C   UNL     1      19.172  -2.528  -2.876  1.00  0.00     0.134 A 
ATOM     71  F   UNL     1      17.289  -3.154   0.167  1.00  0.00    -0.206 F 
ATOM     72  C   UNL     1      19.608  -3.017  -0.177  1.00  0.00     0.040 A 
ATOM     73  C   UNL     1      20.476  -2.592  -2.383  1.00  0.00     0.040 A 
ATOM     74  F   UNL     1      19.005  -2.289  -4.185  1.00  0.00    -0.206 F 
ATOM     75  C   UNL     1      20.696  -2.832  -1.028  1.00  0.00     0.006 A 
ENDBRANCH  51  68
ENDBRANCH  25  26
ENDBRANCH  18  20
ENDBRANCH  17  18
ENDBRANCH  16  17
ENDBRANCH   1  16
TORSDOF 15
