REMARK SMILES C[C@@H](CC(=O)OCCOCCOC(=O)c1ccc(-c2c3nc(c(-c4c(F)cccc4F)c4ccc([nH]4)c(-c4c(F)cccc4F)c4nc(c(-c5c(F)cccc5F)c5ccc2[nH]5)C=C4)C=C3)cc1)NC(=O)CCn1cccn1
REMARK SMILES IDX 7 1 6 2 4 3 5 4 3 5 2 6 1 7 69 8 70 9 71 11 72 12 73 13
REMARK SMILES IDX 74 14 75 15 78 16 76 17 77 18 8 19 9 20 10 21 11 22 12 23
REMARK SMILES IDX 13 24 14 25 15 26 16 27 68 28 17 29 67 30 18 31 19 32 20 33
REMARK SMILES IDX 61 34 21 35 66 36 60 37 62 38 22 39 65 40 59 41 58 42 23 44
REMARK SMILES IDX 49 45 32 46 48 47 33 48 36 49 47 50 63 51 34 52 35 53 46 55
REMARK SMILES IDX 64 56 37 57 24 58 25 59 30 60 26 61 27 62 29 63 31 64 28 65
REMARK SMILES IDX 50 66 51 67 56 68 52 69 53 70 55 71 57 72 54 73 38 74 39 75
REMARK SMILES IDX 44 76 40 77 41 78 43 79 45 80 42 81
REMARK H PARENT 69 10 62 43 36 54
REMARK Flexibility Score: inf
ROOT
ATOM      1  C   UNL     1       0.675   4.476  -1.194  1.00  0.00     0.261 C 
ENDROOT
BRANCH   1   2
ATOM      2  O   UNL     1       0.917   3.266  -0.459  1.00  0.00    -0.463 OA
BRANCH   2   3
ATOM      3  C   UNL     1       1.076   3.383   0.875  1.00  0.00     0.307 C 
ATOM      4  O   UNL     1       1.221   4.443   1.472  1.00  0.00    -0.252 OA
BRANCH   3   5
ATOM      5  C   UNL     1       1.074   2.056   1.596  1.00  0.00     0.147 C 
BRANCH   5   6
ATOM      6  C   UNL     1       0.611   0.759   0.914  1.00  0.00     0.090 C 
ATOM      7  C   UNL     1       0.985   0.523  -0.545  1.00  0.00     0.031 C 
BRANCH   6   8
ATOM      8  N   UNL     1      -0.792   0.408   1.118  1.00  0.00    -0.353 N 
ATOM      9  C   UNL     1      -1.342  -0.528   1.944  1.00  0.00     0.222 C 
ATOM     10  H   UNL     1      -1.436   0.923   0.579  1.00  0.00     0.163 HD
ATOM     11  O   UNL     1      -2.537  -0.796   1.807  1.00  0.00    -0.275 OA
BRANCH   9  12
ATOM     12  C   UNL     1      -0.522  -1.194   3.030  1.00  0.00     0.123 C 
BRANCH  12  13
ATOM     13  C   UNL     1       0.176  -2.473   2.567  1.00  0.00     0.154 C 
BRANCH  13  14
ATOM     14  N   UNL     1       1.529  -2.270   2.073  1.00  0.00    -0.272 N 
ATOM     15  C   UNL     1       2.560  -1.643   2.724  1.00  0.00     0.108 A 
ATOM     16  N   UNL     1       1.837  -2.602   0.805  1.00  0.00    -0.182 NA
ATOM     17  C   UNL     1       3.557  -1.478   1.789  1.00  0.00     0.042 A 
ATOM     18  C   UNL     1       3.069  -2.117   0.634  1.00  0.00     0.135 A 
ENDBRANCH  13  14
ENDBRANCH  12  13
ENDBRANCH   9  12
ENDBRANCH   6   8
ENDBRANCH   5   6
ENDBRANCH   3   5
ENDBRANCH   2   3
ENDBRANCH   1   2
BRANCH   1  19
ATOM     19  C   UNL     1      -0.767   4.481  -1.702  1.00  0.00     0.202 C 
BRANCH  19  20
ATOM     20  O   UNL     1      -1.765   4.676  -0.701  1.00  0.00    -0.374 OA
BRANCH  20  21
ATOM     21  C   UNL     1      -2.174   3.537   0.059  1.00  0.00     0.202 C 
BRANCH  21  22
ATOM     22  C   UNL     1      -3.073   2.537  -0.678  1.00  0.00     0.261 C 
BRANCH  22  23
ATOM     23  O   UNL     1      -2.312   1.782  -1.649  1.00  0.00    -0.460 OA
BRANCH  23  24
ATOM     24  C   UNL     1      -2.793   1.847  -2.913  1.00  0.00     0.338 C 
ATOM     25  O   UNL     1      -3.857   2.340  -3.272  1.00  0.00    -0.246 OA
BRANCH  24  26
ATOM     26  C   UNL     1      -1.769   1.440  -3.892  1.00  0.00     0.060 A 
ATOM     27  C   UNL     1      -1.335   2.416  -4.799  1.00  0.00     0.016 A 
ATOM     28  C   UNL     1      -1.336   0.119  -4.018  1.00  0.00     0.016 A 
ATOM     29  C   UNL     1      -0.509   2.067  -5.866  1.00  0.00     0.010 A 
ATOM     30  C   UNL     1      -0.512  -0.231  -5.099  1.00  0.00     0.010 A 
ATOM     31  C   UNL     1      -0.126   0.733  -6.051  1.00  0.00    -0.014 A 
BRANCH  31  32
ATOM     32  C   UNL     1       0.556   0.344  -7.315  1.00  0.00     0.031 A 
ATOM     33  C   UNL     1      -0.238  -0.312  -8.415  1.00  0.00     0.074 A 
ATOM     34  C   UNL     1       1.855   0.630  -7.519  1.00  0.00     0.049 A 
ATOM     35  N   UNL     1       0.162  -0.740  -9.586  1.00  0.00    -0.248 NA
ATOM     36  C   UNL     1      -1.675  -0.503  -8.163  1.00  0.00     0.031 C 
ATOM     37  C   UNL     1       2.727   1.317  -6.568  1.00  0.00     0.029 A 
ATOM     38  N   UNL     1       2.667   0.374  -8.597  1.00  0.00    -0.354 N 
ATOM     39  C   UNL     1      -0.969  -1.258 -10.207  1.00  0.00     0.074 A 
ATOM     40  C   UNL     1      -2.066  -1.112  -9.274  1.00  0.00     0.031 C 
ATOM     41  C   UNL     1       3.957   1.419  -7.102  1.00  0.00     0.029 A 
ATOM     42  C   UNL     1       3.969   0.771  -8.413  1.00  0.00     0.049 A 
ATOM     43  H   UNL     1       2.346  -0.054  -9.424  1.00  0.00     0.167 HD
ATOM     44  C   UNL     1      -1.086  -1.799 -11.444  1.00  0.00     0.037 A 
ATOM     45  C   UNL     1       5.054   0.607  -9.196  1.00  0.00     0.037 A 
ATOM     46  C   UNL     1      -0.001  -1.940 -12.381  1.00  0.00     0.049 A 
ATOM     47  C   UNL     1       4.917  -0.086 -10.527  1.00  0.00     0.074 A 
ATOM     48  C   UNL     1      -0.035  -2.453 -13.667  1.00  0.00     0.029 A 
ATOM     49  N   UNL     1       1.313  -1.580 -12.131  1.00  0.00    -0.354 N 
ATOM     50  N   UNL     1       3.840  -0.550 -11.112  1.00  0.00    -0.248 NA
ATOM     51  C   UNL     1       6.150  -0.281 -11.306  1.00  0.00     0.031 C 
ATOM     52  C   UNL     1       1.268  -2.459 -14.172  1.00  0.00     0.029 A 
ATOM     53  C   UNL     1       2.106  -1.895 -13.223  1.00  0.00     0.049 A 
ATOM     54  H   UNL     1       1.637  -1.162 -11.300  1.00  0.00     0.167 HD
ATOM     55  C   UNL     1       4.260  -1.067 -12.333  1.00  0.00     0.074 A 
ATOM     56  C   UNL     1       5.688  -0.846 -12.412  1.00  0.00     0.031 C 
ATOM     57  C   UNL     1       3.526  -1.669 -13.300  1.00  0.00     0.037 A 
BRANCH  44  58
ATOM     58  C   UNL     1      -2.436  -2.312 -11.854  1.00  0.00     0.057 A 
ATOM     59  C   UNL     1      -3.497  -1.452 -12.163  1.00  0.00     0.134 A 
ATOM     60  C   UNL     1      -2.659  -3.689 -11.993  1.00  0.00     0.134 A 
ATOM     61  F   UNL     1      -3.352  -0.124 -12.043  1.00  0.00    -0.206 F 
ATOM     62  C   UNL     1      -4.737  -1.943 -12.576  1.00  0.00     0.040 A 
ATOM     63  C   UNL     1      -3.885  -4.190 -12.430  1.00  0.00     0.040 A 
ATOM     64  F   UNL     1      -1.682  -4.568 -11.722  1.00  0.00    -0.206 F 
ATOM     65  C   UNL     1      -4.931  -3.316 -12.718  1.00  0.00     0.006 A 
ENDBRANCH  44  58
BRANCH  45  66
ATOM     66  C   UNL     1       6.385   1.074  -8.729  1.00  0.00     0.057 A 
ATOM     67  C   UNL     1       7.054   2.125  -9.366  1.00  0.00     0.134 A 
ATOM     68  C   UNL     1       7.034   0.454  -7.654  1.00  0.00     0.134 A 
ATOM     69  F   UNL     1       6.497   2.741 -10.419  1.00  0.00    -0.206 F 
ATOM     70  C   UNL     1       8.328   2.532  -8.962  1.00  0.00     0.040 A 
ATOM     71  C   UNL     1       8.294   0.868  -7.222  1.00  0.00     0.040 A 
ATOM     72  F   UNL     1       6.448  -0.562  -7.003  1.00  0.00    -0.206 F 
ATOM     73  C   UNL     1       8.948   1.905  -7.883  1.00  0.00     0.006 A 
ENDBRANCH  45  66
BRANCH  57  74
ATOM     74  C   UNL     1       4.242  -2.111 -14.545  1.00  0.00     0.057 A 
ATOM     75  C   UNL     1       5.105  -3.214 -14.551  1.00  0.00     0.134 A 
ATOM     76  C   UNL     1       4.020  -1.459 -15.766  1.00  0.00     0.134 A 
ATOM     77  F   UNL     1       5.371  -3.876 -13.415  1.00  0.00    -0.206 F 
ATOM     78  C   UNL     1       5.735  -3.642 -15.722  1.00  0.00     0.040 A 
ATOM     79  C   UNL     1       4.623  -1.894 -16.948  1.00  0.00     0.040 A 
ATOM     80  F   UNL     1       3.198  -0.402 -15.834  1.00  0.00    -0.206 F 
ATOM     81  C   UNL     1       5.487  -2.987 -16.927  1.00  0.00     0.006 A 
ENDBRANCH  57  74
ENDBRANCH  31  32
ENDBRANCH  24  26
ENDBRANCH  23  24
ENDBRANCH  22  23
ENDBRANCH  21  22
ENDBRANCH  20  21
ENDBRANCH  19  20
ENDBRANCH   1  19
TORSDOF 19
