REMARK SMILES O=C(COc1ccc(Cl)c2ccccc12)N[C@@H](Cc1c[nH]c2ccccc12)C(=O)OCCOCCOC(=O)c1ccc(-c2c3nc(c(-c4c(F)cccc4F)c4ccc([nH]4)c(-c4c(F)cccc4F)c4nc(c(-c5c(F)cccc5F)c5ccc2[nH]5)C=C4)C=C3)cc1
REMARK SMILES IDX 32 1 31 2 30 3 28 4 29 5 17 6 16 7 1 8 2 9 3 11 4 12 5 13
REMARK SMILES IDX 6 14 15 15 7 16 10 17 14 18 8 19 11 20 13 21 9 22 12 23
REMARK SMILES IDX 18 24 19 25 20 26 27 27 21 28 22 29 26 30 23 32 25 33 24 34
REMARK SMILES IDX 33 35 34 36 35 37 36 38 37 39 38 40 39 41 40 42 92 43 41 44
REMARK SMILES IDX 91 45 42 46 43 47 44 48 85 49 45 50 90 51 84 52 86 53 46 54
REMARK SMILES IDX 89 55 83 56 82 57 47 59 73 60 56 61 72 62 57 63 60 64 71 65
REMARK SMILES IDX 87 66 58 67 59 68 70 70 88 71 61 72 48 73 49 74 54 75 50 76
REMARK SMILES IDX 51 77 53 78 55 79 52 80 74 81 75 82 80 83 76 84 77 85 79 86
REMARK SMILES IDX 81 87 78 88 62 89 63 90 68 91 64 92 65 93 67 94 69 95 66 96
REMARK H PARENT 16 10 21 31 86 58 60 69
REMARK Flexibility Score: inf
ROOT
ATOM      1  C   UNL     1       3.482  -3.264   4.966  1.00  0.00     0.202 C 
ENDROOT
BRANCH   1   2
ATOM      2  C   UNL     1       3.465  -4.033   3.641  1.00  0.00     0.261 C 
BRANCH   2   3
ATOM      3  O   UNL     1       3.316  -3.172   2.496  1.00  0.00    -0.462 OA
BRANCH   3   4
ATOM      4  C   UNL     1       2.426  -3.623   1.566  1.00  0.00     0.329 C 
ATOM      5  O   UNL     1       1.842  -4.702   1.625  1.00  0.00    -0.250 OA
BRANCH   4   6
ATOM      6  C   UNL     1       2.260  -2.676   0.371  1.00  0.00     0.196 C 
BRANCH   6   7
ATOM      7  N   UNL     1       2.734  -1.278   0.473  1.00  0.00    -0.339 N 
ATOM      8  O   UNL     1       0.918  -0.469  -0.653  1.00  0.00    -0.271 OA
ATOM      9  C   UNL     1       2.026  -0.270  -0.151  1.00  0.00     0.258 C 
ATOM     10  H   UNL     1       3.550  -1.068   0.982  1.00  0.00     0.164 HD
BRANCH   9  11
ATOM     11  C   UNL     1       2.700   1.107  -0.293  1.00  0.00     0.329 C 
BRANCH  11  12
ATOM     12  O   UNL     1       3.405   1.676   0.790  1.00  0.00    -0.483 OA
BRANCH  12  13
ATOM     13  C   UNL     1       2.686   2.358   1.747  1.00  0.00     0.128 A 
ATOM     14  C   UNL     1       1.386   2.000   2.113  1.00  0.00     0.048 A 
ATOM     15  C   UNL     1       3.393   3.344   2.486  1.00  0.00     0.025 A 
ATOM     16  C   UNL     1       0.833   2.504   3.287  1.00  0.00     0.025 A 
ATOM     17  C   UNL     1       2.831   3.861   3.684  1.00  0.00     0.004 A 
ATOM     18  C   UNL     1       4.645   3.843   2.059  1.00  0.00     0.012 A 
ATOM     19  C   UNL     1       1.557   3.394   4.083  1.00  0.00     0.049 A 
ATOM     20  C   UNL     1       3.576   4.815   4.421  1.00  0.00     0.010 A 
ATOM     21  C   UNL     1       5.333   4.820   2.779  1.00  0.00     0.001 A 
ATOM     22  Cl  UNL     1       0.817   3.880   5.573  1.00  0.00    -0.084 Cl
ATOM     23  C   UNL     1       4.805   5.296   3.969  1.00  0.00     0.001 A 
ENDBRANCH  12  13
ENDBRANCH  11  12
ENDBRANCH   9  11
ENDBRANCH   6   7
BRANCH   6  24
ATOM     24  C   UNL     1       2.868  -3.378  -0.861  1.00  0.00     0.074 C 
BRANCH  24  25
ATOM     25  C   UNL     1       4.317  -3.745  -0.684  1.00  0.00    -0.020 A 
ATOM     26  C   UNL     1       5.397  -2.884  -0.716  1.00  0.00     0.087 A 
ATOM     27  C   UNL     1       4.841  -5.056  -0.425  1.00  0.00     0.003 A 
ATOM     28  N   UNL     1       6.533  -3.608  -0.473  1.00  0.00    -0.361 N 
ATOM     29  C   UNL     1       6.224  -4.936  -0.297  1.00  0.00     0.046 A 
ATOM     30  C   UNL     1       4.265  -6.337  -0.280  1.00  0.00     0.010 A 
ATOM     31  H   UNL     1       7.442  -3.232  -0.430  1.00  0.00     0.166 HD
ATOM     32  C   UNL     1       7.062  -6.029  -0.039  1.00  0.00     0.026 A 
ATOM     33  C   UNL     1       5.088  -7.442  -0.030  1.00  0.00     0.001 A 
ATOM     34  C   UNL     1       6.466  -7.287   0.087  1.00  0.00     0.002 A 
ENDBRANCH  24  25
ENDBRANCH   6  24
ENDBRANCH   4   6
ENDBRANCH   3   4
ENDBRANCH   2   3
ENDBRANCH   1   2
BRANCH   1  35
ATOM     35  O   UNL     1       2.361  -2.436   5.264  1.00  0.00    -0.374 OA
BRANCH  35  36
ATOM     36  C   UNL     1       2.027  -1.414   4.336  1.00  0.00     0.202 C 
BRANCH  36  37
ATOM     37  C   UNL     1       3.042  -0.289   4.100  1.00  0.00     0.261 C 
BRANCH  37  38
ATOM     38  O   UNL     1       4.409  -0.681   3.950  1.00  0.00    -0.460 OA
BRANCH  38  39
ATOM     39  C   UNL     1       5.227  -0.225   4.924  1.00  0.00     0.338 C 
ATOM     40  O   UNL     1       4.937   0.458   5.900  1.00  0.00    -0.246 OA
BRANCH  39  41
ATOM     41  C   UNL     1       6.571  -0.772   4.725  1.00  0.00     0.060 A 
ATOM     42  C   UNL     1       7.052  -1.688   5.667  1.00  0.00     0.016 A 
ATOM     43  C   UNL     1       7.384  -0.308   3.688  1.00  0.00     0.016 A 
ATOM     44  C   UNL     1       8.371  -2.121   5.593  1.00  0.00     0.010 A 
ATOM     45  C   UNL     1       8.709  -0.741   3.619  1.00  0.00     0.010 A 
ATOM     46  C   UNL     1       9.215  -1.624   4.590  1.00  0.00    -0.014 A 
BRANCH  46  47
ATOM     47  C   UNL     1      10.659  -1.941   4.639  1.00  0.00     0.031 A 
ATOM     48  C   UNL     1      11.612  -0.938   5.223  1.00  0.00     0.074 A 
ATOM     49  C   UNL     1      11.104  -3.127   4.192  1.00  0.00     0.049 A 
ATOM     50  N   UNL     1      12.909  -1.016   5.371  1.00  0.00    -0.248 NA
ATOM     51  C   UNL     1      11.024   0.324   5.699  1.00  0.00     0.031 C 
ATOM     52  C   UNL     1      10.266  -4.180   3.622  1.00  0.00     0.029 A 
ATOM     53  N   UNL     1      12.374  -3.641   4.147  1.00  0.00    -0.354 N 
ATOM     54  C   UNL     1      13.293   0.182   5.960  1.00  0.00     0.074 A 
ATOM     55  C   UNL     1      12.098   0.985   6.106  1.00  0.00     0.031 C 
ATOM     56  C   UNL     1      11.048  -5.215   3.271  1.00  0.00     0.029 A 
ATOM     57  C   UNL     1      12.439  -4.886   3.575  1.00  0.00     0.049 A 
ATOM     58  H   UNL     1      13.162  -3.162   4.491  1.00  0.00     0.167 HD
ATOM     59  C   UNL     1      14.528   0.572   6.356  1.00  0.00     0.037 A 
ATOM     60  C   UNL     1      13.506  -5.666   3.317  1.00  0.00     0.037 A 
ATOM     61  C   UNL     1      15.714  -0.229   6.202  1.00  0.00     0.049 A 
ATOM     62  C   UNL     1      14.874  -5.199   3.728  1.00  0.00     0.074 A 
ATOM     63  C   UNL     1      17.011   0.062   6.585  1.00  0.00     0.029 A 
ATOM     64  N   UNL     1      15.744  -1.483   5.607  1.00  0.00    -0.354 N 
ATOM     65  N   UNL     1      15.222  -4.080   4.317  1.00  0.00    -0.248 NA
ATOM     66  C   UNL     1      15.997  -6.105   3.448  1.00  0.00     0.031 C 
ATOM     67  C   UNL     1      17.833  -0.998   6.184  1.00  0.00     0.029 A 
ATOM     68  C   UNL     1      17.041  -1.968   5.590  1.00  0.00     0.049 A 
ATOM     69  H   UNL     1      14.959  -1.957   5.250  1.00  0.00     0.167 HD
ATOM     70  C   UNL     1      16.598  -4.153   4.494  1.00  0.00     0.074 A 
ATOM     71  C   UNL     1      17.018  -5.434   3.962  1.00  0.00     0.031 C 
ATOM     72  C   UNL     1      17.437  -3.243   5.047  1.00  0.00     0.037 A 
BRANCH  59  73
ATOM     73  C   UNL     1      14.652   1.936   6.970  1.00  0.00     0.057 A 
ATOM     74  C   UNL     1      14.157   2.217   8.250  1.00  0.00     0.134 A 
ATOM     75  C   UNL     1      15.270   2.981   6.272  1.00  0.00     0.134 A 
ATOM     76  F   UNL     1      13.539   1.264   8.965  1.00  0.00    -0.206 F 
ATOM     77  C   UNL     1      14.245   3.497   8.802  1.00  0.00     0.040 A 
ATOM     78  C   UNL     1      15.386   4.258   6.823  1.00  0.00     0.040 A 
ATOM     79  F   UNL     1      15.768   2.779   5.043  1.00  0.00    -0.206 F 
ATOM     80  C   UNL     1      14.864   4.521   8.088  1.00  0.00     0.006 A 
ENDBRANCH  59  73
BRANCH  60  81
ATOM     81  C   UNL     1      13.309  -6.965   2.629  1.00  0.00     0.057 A 
ATOM     82  C   UNL     1      13.452  -8.179   3.308  1.00  0.00     0.134 A 
ATOM     83  C   UNL     1      12.948  -7.019   1.277  1.00  0.00     0.134 A 
ATOM     84  F   UNL     1      13.813  -8.191   4.600  1.00  0.00    -0.206 F 
ATOM     85  C   UNL     1      13.248  -9.402   2.667  1.00  0.00     0.040 A 
ATOM     86  C   UNL     1      12.721  -8.233   0.628  1.00  0.00     0.040 A 
ATOM     87  F   UNL     1      12.787  -5.888   0.573  1.00  0.00    -0.206 F 
ATOM     88  C   UNL     1      12.874  -9.431   1.324  1.00  0.00     0.006 A 
ENDBRANCH  60  81
BRANCH  72  89
ATOM     89  C   UNL     1      18.891  -3.607   5.112  1.00  0.00     0.057 A 
ATOM     90  C   UNL     1      19.705  -3.592   3.973  1.00  0.00     0.134 A 
ATOM     91  C   UNL     1      19.491  -3.936   6.334  1.00  0.00     0.134 A 
ATOM     92  F   UNL     1      19.186  -3.297   2.771  1.00  0.00    -0.206 F 
ATOM     93  C   UNL     1      21.062  -3.910   4.043  1.00  0.00     0.040 A 
ATOM     94  C   UNL     1      20.852  -4.234   6.421  1.00  0.00     0.040 A 
ATOM     95  F   UNL     1      18.768  -3.961   7.464  1.00  0.00    -0.206 F 
ATOM     96  C   UNL     1      21.640  -4.225   5.271  1.00  0.00     0.006 A 
ENDBRANCH  72  89
ENDBRANCH  46  47
ENDBRANCH  39  41
ENDBRANCH  38  39
ENDBRANCH  37  38
ENDBRANCH  36  37
ENDBRANCH  35  36
ENDBRANCH   1  35
TORSDOF 20
