REMARK SMILES CCc1ccnc(C(=O)c2[nH]c3ccc(OC(F)(F)F)cc3c2CC(=O)OCCOCCOC(=O)c2ccc(-c3c4nc(c(-c5c(F)cccc5F)c5ccc([nH]5)c(-c5c(F)cccc5F)c5nc(c(-c6c(F)cccc6F)c6ccc3[nH]6)C=C5)C=C4)cc2)c1
REMARK SMILES IDX 29 1 28 2 27 3 25 4 26 5 24 6 23 7 10 8 11 9 12 10 22 12
REMARK SMILES IDX 13 13 21 14 14 15 15 16 8 17 9 18 7 19 3 20 4 21 90 22 5 23
REMARK SMILES IDX 6 24 2 25 1 26 16 27 17 28 18 29 19 30 20 31 30 32 31 33
REMARK SMILES IDX 32 34 33 35 34 36 35 37 36 38 37 39 89 40 38 41 88 42 39 43
REMARK SMILES IDX 40 44 41 45 82 46 42 47 87 48 81 49 83 50 43 51 86 52 80 53
REMARK SMILES IDX 79 54 44 56 70 57 53 58 69 59 54 60 57 61 68 62 84 63 55 64
REMARK SMILES IDX 56 65 67 67 85 68 58 69 45 70 46 71 51 72 47 73 48 74 50 75
REMARK SMILES IDX 52 76 49 77 71 78 72 79 77 80 73 81 74 82 76 83 78 84 75 85
REMARK SMILES IDX 59 86 60 87 65 88 61 89 62 90 64 91 66 92 63 93
REMARK H PARENT 11 11 83 55 57 66
REMARK Flexibility Score: inf
ROOT
ATOM      1  C   UNL     1       5.114  -5.238   7.167  1.00  0.00     0.202 C 
ENDROOT
BRANCH   1   2
ATOM      2  C   UNL     1       6.327  -4.400   6.747  1.00  0.00     0.261 C 
BRANCH   2   3
ATOM      3  O   UNL     1       5.957  -3.321   5.860  1.00  0.00    -0.463 OA
BRANCH   3   4
ATOM      4  C   UNL     1       6.828  -3.094   4.840  1.00  0.00     0.310 C 
ATOM      5  O   UNL     1       7.912  -3.664   4.731  1.00  0.00    -0.252 OA
BRANCH   4   6
ATOM      6  C   UNL     1       6.408  -2.039   3.841  1.00  0.00     0.161 C 
BRANCH   6   7
ATOM      7  C   UNL     1       5.047  -1.404   3.973  1.00  0.00     0.000 A 
ATOM      8  C   UNL     1       3.851  -1.825   3.383  1.00  0.00     0.093 A 
ATOM      9  N   UNL     1       2.876  -0.942   3.800  1.00  0.00    -0.352 N 
ATOM     10  C   UNL     1       3.444   0.169   4.377  1.00  0.00     0.046 A 
ATOM     11  H   UNL     1       1.907  -1.087   3.698  1.00  0.00     0.167 HD
ATOM     12  C   UNL     1       4.798  -0.106   4.531  1.00  0.00     0.008 A 
ATOM     13  C   UNL     1       2.872   1.388   4.758  1.00  0.00     0.030 A 
ATOM     14  C   UNL     1       5.622   0.893   5.089  1.00  0.00     0.057 A 
ATOM     15  C   UNL     1       3.724   2.381   5.263  1.00  0.00     0.049 A 
ATOM     16  C   UNL     1       5.090   2.149   5.414  1.00  0.00     0.130 A 
BRANCH   8  17
ATOM     17  C   UNL     1       3.640  -2.972   2.503  1.00  0.00     0.227 C 
ATOM     18  O   UNL     1       4.466  -3.878   2.405  1.00  0.00    -0.285 OA
BRANCH  17  19
ATOM     19  C   UNL     1       2.413  -3.059   1.650  1.00  0.00     0.113 A 
ATOM     20  C   UNL     1       0.877  -2.117   0.056  1.00  0.00    -0.044 A 
ATOM     21  C   UNL     1       0.295  -3.389  -0.038  1.00  0.00     0.024 A 
ATOM     22  C   UNL     1       1.975  -1.962   0.909  1.00  0.00     0.036 A 
ATOM     23  C   UNL     1       0.797  -4.423   0.735  1.00  0.00     0.112 A 
ATOM     24  N   UNL     1       1.830  -4.283   1.589  1.00  0.00    -0.253 NA
BRANCH  20  25
ATOM     25  C   UNL     1       0.341  -1.013  -0.827  1.00  0.00     0.032 C 
ATOM     26  C   UNL     1       0.711   0.409  -0.424  1.00  0.00     0.009 C 
ENDBRANCH  20  25
ENDBRANCH  17  19
ENDBRANCH   8  17
BRANCH  16  27
ATOM     27  O   UNL     1       6.020   3.048   5.857  1.00  0.00    -0.406 OA
BRANCH  27  28
ATOM     28  C   UNL     1       5.656   4.418   5.867  1.00  0.00     0.573 C 
ATOM     29  F   UNL     1       5.169   4.811   4.670  1.00  0.00    -0.132 F 
ATOM     30  F   UNL     1       4.742   4.665   6.829  1.00  0.00    -0.132 F 
ATOM     31  F   UNL     1       6.757   5.155   6.133  1.00  0.00    -0.132 F 
ENDBRANCH  27  28
ENDBRANCH  16  27
ENDBRANCH   6   7
ENDBRANCH   4   6
ENDBRANCH   3   4
ENDBRANCH   2   3
ENDBRANCH   1   2
BRANCH   1  32
ATOM     32  O   UNL     1       4.560  -6.091   6.161  1.00  0.00    -0.374 OA
BRANCH  32  33
ATOM     33  C   UNL     1       3.923  -5.441   5.061  1.00  0.00     0.202 C 
BRANCH  33  34
ATOM     34  C   UNL     1       2.471  -5.016   5.302  1.00  0.00     0.261 C 
BRANCH  34  35
ATOM     35  O   UNL     1       2.330  -4.203   6.479  1.00  0.00    -0.460 OA
BRANCH  35  36
ATOM     36  C   UNL     1       1.643  -4.795   7.480  1.00  0.00     0.338 C 
ATOM     37  O   UNL     1       0.988  -5.831   7.424  1.00  0.00    -0.246 OA
BRANCH  36  38
ATOM     38  C   UNL     1       1.885  -4.106   8.757  1.00  0.00     0.060 A 
ATOM     39  C   UNL     1       2.299  -4.899   9.833  1.00  0.00     0.016 A 
ATOM     40  C   UNL     1       1.623  -2.745   8.934  1.00  0.00     0.016 A 
ATOM     41  C   UNL     1       2.378  -4.351  11.108  1.00  0.00     0.010 A 
ATOM     42  C   UNL     1       1.700  -2.195  10.219  1.00  0.00     0.010 A 
ATOM     43  C   UNL     1       2.031  -3.009  11.317  1.00  0.00    -0.014 A 
BRANCH  43  44
ATOM     44  C   UNL     1       1.868  -2.535  12.711  1.00  0.00     0.031 A 
ATOM     45  C   UNL     1       0.493  -2.521  13.320  1.00  0.00     0.074 A 
ATOM     46  C   UNL     1       2.944  -2.218  13.453  1.00  0.00     0.049 A 
ATOM     47  N   UNL     1       0.132  -2.260  14.550  1.00  0.00    -0.248 NA
ATOM     48  C   UNL     1      -0.626  -2.849  12.422  1.00  0.00     0.031 C 
ATOM     49  C   UNL     1       4.325  -2.219  12.975  1.00  0.00     0.029 A 
ATOM     50  N   UNL     1       3.041  -1.853  14.771  1.00  0.00    -0.354 N 
ATOM     51  C   UNL     1      -1.250  -2.402  14.576  1.00  0.00     0.074 A 
ATOM     52  C   UNL     1      -1.669  -2.730  13.231  1.00  0.00     0.031 C 
ATOM     53  C   UNL     1       5.137  -1.881  13.992  1.00  0.00     0.029 A 
ATOM     54  C   UNL     1       4.331  -1.630  15.185  1.00  0.00     0.049 A 
ATOM     55  H   UNL     1       2.260  -1.759  15.363  1.00  0.00     0.167 HD
ATOM     56  C   UNL     1      -2.093  -2.286  15.630  1.00  0.00     0.037 A 
ATOM     57  C   UNL     1       4.804  -1.272  16.393  1.00  0.00     0.037 A 
ATOM     58  C   UNL     1      -1.673  -1.958  16.967  1.00  0.00     0.049 A 
ATOM     59  C   UNL     1       3.843  -1.113  17.541  1.00  0.00     0.074 A 
ATOM     60  C   UNL     1      -2.445  -1.824  18.108  1.00  0.00     0.029 A 
ATOM     61  N   UNL     1      -0.361  -1.705  17.339  1.00  0.00    -0.354 N 
ATOM     62  N   UNL     1       2.543  -1.286  17.562  1.00  0.00    -0.248 NA
ATOM     63  C   UNL     1       4.418  -0.721  18.836  1.00  0.00     0.031 C 
ATOM     64  C   UNL     1      -1.604  -1.452  19.162  1.00  0.00     0.029 A 
ATOM     65  C   UNL     1      -0.303  -1.397  18.688  1.00  0.00     0.049 A 
ATOM     66  H   UNL     1       0.414  -1.740  16.733  1.00  0.00     0.167 HD
ATOM     67  C   UNL     1       2.148  -1.050  18.872  1.00  0.00     0.074 A 
ATOM     68  C   UNL     1       3.349  -0.736  19.620  1.00  0.00     0.031 C 
ATOM     69  C   UNL     1       0.904  -1.088  19.411  1.00  0.00     0.037 A 
BRANCH  56  70
ATOM     70  C   UNL     1      -3.555  -2.501  15.370  1.00  0.00     0.057 A 
ATOM     71  C   UNL     1      -4.081  -3.775  15.114  1.00  0.00     0.134 A 
ATOM     72  C   UNL     1      -4.452  -1.426  15.392  1.00  0.00     0.134 A 
ATOM     73  F   UNL     1      -3.274  -4.846  15.064  1.00  0.00    -0.206 F 
ATOM     74  C   UNL     1      -5.442  -3.968  14.868  1.00  0.00     0.040 A 
ATOM     75  C   UNL     1      -5.818  -1.609  15.170  1.00  0.00     0.040 A 
ATOM     76  F   UNL     1      -4.015  -0.180  15.632  1.00  0.00    -0.206 F 
ATOM     77  C   UNL     1      -6.315  -2.883  14.901  1.00  0.00     0.006 A 
ENDBRANCH  56  70
BRANCH  57  78
ATOM     78  C   UNL     1       6.260  -1.057  16.585  1.00  0.00     0.057 A 
ATOM     79  C   UNL     1       7.033  -1.940  17.347  1.00  0.00     0.134 A 
ATOM     80  C   UNL     1       6.912   0.042  16.012  1.00  0.00     0.134 A 
ATOM     81  F   UNL     1       6.462  -2.999  17.939  1.00  0.00    -0.206 F 
ATOM     82  C   UNL     1       8.399  -1.730  17.547  1.00  0.00     0.040 A 
ATOM     83  C   UNL     1       8.281   0.251  16.184  1.00  0.00     0.040 A 
ATOM     84  F   UNL     1       6.227   0.923  15.269  1.00  0.00    -0.206 F 
ATOM     85  C   UNL     1       9.027  -0.634  16.958  1.00  0.00     0.006 A 
ENDBRANCH  57  78
BRANCH  69  86
ATOM     86  C   UNL     1       0.788  -0.807  20.880  1.00  0.00     0.057 A 
ATOM     87  C   UNL     1       0.942   0.485  21.398  1.00  0.00     0.134 A 
ATOM     88  C   UNL     1       0.491  -1.837  21.782  1.00  0.00     0.134 A 
ATOM     89  F   UNL     1       1.238   1.512  20.587  1.00  0.00    -0.206 F 
ATOM     90  C   UNL     1       0.831   0.738  22.766  1.00  0.00     0.040 A 
ATOM     91  C   UNL     1       0.353  -1.591  23.148  1.00  0.00     0.040 A 
ATOM     92  F   UNL     1       0.322  -3.095  21.348  1.00  0.00    -0.206 F 
ATOM     93  C   UNL     1       0.531  -0.301  23.645  1.00  0.00     0.006 A 
ENDBRANCH  69  86
ENDBRANCH  43  44
ENDBRANCH  36  38
ENDBRANCH  35  36
ENDBRANCH  34  35
ENDBRANCH  33  34
ENDBRANCH  32  33
ENDBRANCH   1  32
TORSDOF 20
