REMARK SMILES C[C@@H]1CN(C(=O)C[NH+]2CCC(CC(=O)OCCOCCOC(=O)c3ccc(-c4c5nc(c(-c6c(F)cccc6F)c6ccc([nH]6)c(-c6c(F)cccc6F)c6nc(c(-c7c(F)cccc7F)c7ccc4[nH]7)C=C6)C=C5)cc3)CC2)C[C@@H](C)O1
REMARK SMILES IDX 17 1 16 2 15 3 13 4 14 5 12 6 11 7 8 8 9 9 79 10 10 12 78 13
REMARK SMILES IDX 7 14 5 15 1 16 2 17 3 18 83 19 4 20 81 21 80 22 82 23 6 24
REMARK SMILES IDX 18 25 19 26 20 27 21 28 22 29 23 30 24 31 25 32 77 33 26 34
REMARK SMILES IDX 76 35 27 36 28 37 29 38 70 39 30 40 75 41 69 42 71 43 31 44
REMARK SMILES IDX 74 45 68 46 67 47 32 49 58 50 41 51 57 52 42 53 45 54 56 55
REMARK SMILES IDX 72 56 43 57 44 58 55 60 73 61 46 62 33 63 34 64 39 65 35 66
REMARK SMILES IDX 36 67 38 68 40 69 37 70 59 71 60 72 65 73 61 74 62 75 64 76
REMARK SMILES IDX 66 77 63 78 47 79 48 80 53 81 49 82 50 83 52 84 54 85 51 86
REMARK H PARENT 8 11 71 48 45 59
REMARK Flexibility Score: inf
ROOT
ATOM      1  C   UNL     1       0.708  -5.902  -5.416  1.00  0.00     0.202 C 
ENDROOT
BRANCH   1   2
ATOM      2  C   UNL     1       1.394  -4.865  -6.306  1.00  0.00     0.261 C 
BRANCH   2   3
ATOM      3  O   UNL     1       2.004  -3.866  -5.478  1.00  0.00    -0.463 OA
BRANCH   3   4
ATOM      4  C   UNL     1       1.455  -2.634  -5.554  1.00  0.00     0.306 C 
ATOM      5  O   UNL     1       0.678  -2.252  -6.420  1.00  0.00    -0.252 OA
BRANCH   4   6
ATOM      6  C   UNL     1       1.841  -1.761  -4.387  1.00  0.00     0.126 C 
BRANCH   6   7
ATOM      7  C   UNL     1       2.471  -2.448  -3.138  1.00  0.00     0.011 C 
ATOM      8  N   UNL     1       4.194  -0.938  -1.323  1.00  0.00    -0.327 N 
ATOM      9  C   UNL     1       2.927  -1.396  -0.776  1.00  0.00     0.262 C 
ATOM     10  C   UNL     1       4.785  -2.092  -2.020  1.00  0.00     0.262 C 
ATOM     11  H   UNL     1       4.783  -0.614  -0.556  1.00  0.00     0.348 HD
ATOM     12  C   UNL     1       1.927  -1.797  -1.849  1.00  0.00     0.066 C 
ATOM     13  C   UNL     1       4.006  -2.516  -3.266  1.00  0.00     0.066 C 
BRANCH   8  14
ATOM     14  C   UNL     1       4.124   0.276  -2.185  1.00  0.00     0.363 C 
BRANCH  14  15
ATOM     15  C   UNL     1       3.636   1.576  -1.488  1.00  0.00     0.277 C 
ATOM     16  C   UNL     1       0.193   0.733  -0.362  1.00  0.00     0.040 C 
ATOM     17  C   UNL     1       0.084   1.506  -1.680  1.00  0.00     0.135 C 
ATOM     18  C   UNL     1       1.327   1.573  -2.604  1.00  0.00     0.151 C 
ATOM     19  O   UNL     1      -0.295   2.859  -1.371  1.00  0.00    -0.372 OA
ATOM     20  N   UNL     1       2.442   2.179  -1.891  1.00  0.00    -0.333 N 
ATOM     21  C   UNL     1       0.754   3.608  -0.718  1.00  0.00     0.135 C 
ATOM     22  C   UNL     1       2.107   3.546  -1.470  1.00  0.00     0.151 C 
ATOM     23  C   UNL     1       0.224   5.031  -0.641  1.00  0.00     0.040 C 
ATOM     24  O   UNL     1       4.354   2.123  -0.644  1.00  0.00    -0.268 OA
ENDBRANCH  14  15
ENDBRANCH   8  14
ENDBRANCH   6   7
ENDBRANCH   4   6
ENDBRANCH   3   4
ENDBRANCH   2   3
ENDBRANCH   1   2
BRANCH   1  25
ATOM     25  O   UNL     1      -0.518  -5.510  -4.803  1.00  0.00    -0.374 OA
BRANCH  25  26
ATOM     26  C   UNL     1      -0.468  -4.698  -3.630  1.00  0.00     0.202 C 
BRANCH  26  27
ATOM     27  C   UNL     1       0.024  -5.362  -2.332  1.00  0.00     0.261 C 
BRANCH  27  28
ATOM     28  O   UNL     1       1.430  -5.683  -2.367  1.00  0.00    -0.460 OA
BRANCH  28  29
ATOM     29  C   UNL     1       1.720  -7.003  -2.377  1.00  0.00     0.338 C 
ATOM     30  O   UNL     1       0.930  -7.933  -2.268  1.00  0.00    -0.246 OA
BRANCH  29  31
ATOM     31  C   UNL     1       3.126  -7.216  -2.769  1.00  0.00     0.060 A 
ATOM     32  C   UNL     1       3.360  -8.025  -3.890  1.00  0.00     0.016 A 
ATOM     33  C   UNL     1       4.195  -6.723  -2.019  1.00  0.00     0.016 A 
ATOM     34  C   UNL     1       4.656  -8.397  -4.229  1.00  0.00     0.010 A 
ATOM     35  C   UNL     1       5.500  -7.106  -2.356  1.00  0.00     0.010 A 
ATOM     36  C   UNL     1       5.732  -7.982  -3.435  1.00  0.00    -0.014 A 
BRANCH  36  37
ATOM     37  C   UNL     1       7.063  -8.604  -3.648  1.00  0.00     0.031 A 
ATOM     38  C   UNL     1       7.527  -9.685  -2.710  1.00  0.00     0.074 A 
ATOM     39  C   UNL     1       7.827  -8.262  -4.700  1.00  0.00     0.049 A 
ATOM     40  N   UNL     1       8.647 -10.363  -2.708  1.00  0.00    -0.248 NA
ATOM     41  C   UNL     1       6.602 -10.049  -1.626  1.00  0.00     0.031 C 
ATOM     42  C   UNL     1       7.474  -7.264  -5.707  1.00  0.00     0.029 A 
ATOM     43  N   UNL     1       9.061  -8.718  -5.091  1.00  0.00    -0.354 N 
ATOM     44  C   UNL     1       8.565 -11.226  -1.622  1.00  0.00     0.074 A 
ATOM     45  C   UNL     1       7.304 -10.957  -0.966  1.00  0.00     0.031 C 
ATOM     46  C   UNL     1       8.477  -7.173  -6.596  1.00  0.00     0.029 A 
ATOM     47  C   UNL     1       9.554  -8.081  -6.201  1.00  0.00     0.049 A 
ATOM     48  H   UNL     1       9.545  -9.434  -4.619  1.00  0.00     0.167 HD
ATOM     49  C   UNL     1       9.453 -12.165  -1.213  1.00  0.00     0.037 A 
ATOM     50  C   UNL     1      10.748  -8.196  -6.815  1.00  0.00     0.037 A 
ATOM     51  C   UNL     1      10.712 -12.426  -1.863  1.00  0.00     0.049 A 
ATOM     52  C   UNL     1      11.755  -9.190  -6.304  1.00  0.00     0.074 A 
ATOM     53  C   UNL     1      11.671 -13.369  -1.538  1.00  0.00     0.029 A 
ATOM     54  N   UNL     1      11.194 -11.731  -2.963  1.00  0.00    -0.354 N 
ATOM     55  N   UNL     1      11.658 -10.019  -5.292  1.00  0.00    -0.248 NA
ATOM     56  C   UNL     1      13.034  -9.269  -7.023  1.00  0.00     0.031 C 
ATOM     57  C   UNL     1      12.761 -13.201  -2.401  1.00  0.00     0.029 A 
ATOM     58  C   UNL     1      12.452 -12.200  -3.308  1.00  0.00     0.049 A 
ATOM     59  H   UNL     1      10.712 -11.011  -3.431  1.00  0.00     0.167 HD
ATOM     60  C   UNL     1      12.851 -10.733  -5.267  1.00  0.00     0.074 A 
ATOM     61  C   UNL     1      13.649 -10.248  -6.374  1.00  0.00     0.031 C 
ATOM     62  C   UNL     1      13.245 -11.705  -4.407  1.00  0.00     0.037 A 
BRANCH  49  63
ATOM     63  C   UNL     1       9.105 -12.945   0.024  1.00  0.00     0.057 A 
ATOM     64  C   UNL     1       8.048 -13.865   0.055  1.00  0.00     0.134 A 
ATOM     65  C   UNL     1       9.835 -12.767   1.206  1.00  0.00     0.134 A 
ATOM     66  F   UNL     1       7.298 -14.076  -1.038  1.00  0.00    -0.206 F 
ATOM     67  C   UNL     1       7.703 -14.545   1.225  1.00  0.00     0.040 A 
ATOM     68  C   UNL     1       9.522 -13.465   2.373  1.00  0.00     0.040 A 
ATOM     69  F   UNL     1      10.866 -11.909   1.248  1.00  0.00    -0.206 F 
ATOM     70  C   UNL     1       8.444 -14.348   2.388  1.00  0.00     0.006 A 
ENDBRANCH  49  63
BRANCH  50  71
ATOM     71  C   UNL     1      11.055  -7.323  -7.976  1.00  0.00     0.057 A 
ATOM     72  C   UNL     1      11.153  -7.838  -9.273  1.00  0.00     0.134 A 
ATOM     73  C   UNL     1      11.238  -5.943  -7.813  1.00  0.00     0.134 A 
ATOM     74  F   UNL     1      11.010  -9.153  -9.489  1.00  0.00    -0.206 F 
ATOM     75  C   UNL     1      11.423  -7.013 -10.367  1.00  0.00     0.040 A 
ATOM     76  C   UNL     1      11.483  -5.104  -8.900  1.00  0.00     0.040 A 
ATOM     77  F   UNL     1      11.154  -5.388  -6.595  1.00  0.00    -0.206 F 
ATOM     78  C   UNL     1      11.580  -5.640 -10.182  1.00  0.00     0.006 A 
ENDBRANCH  50  71
BRANCH  62  79
ATOM     79  C   UNL     1      14.591 -12.333  -4.641  1.00  0.00     0.057 A 
ATOM     80  C   UNL     1      15.787 -11.640  -4.407  1.00  0.00     0.134 A 
ATOM     81  C   UNL     1      14.693 -13.664  -5.068  1.00  0.00     0.134 A 
ATOM     82  F   UNL     1      15.764 -10.359  -4.009  1.00  0.00    -0.206 F 
ATOM     83  C   UNL     1      17.031 -12.240  -4.614  1.00  0.00     0.040 A 
ATOM     84  C   UNL     1      15.930 -14.284  -5.248  1.00  0.00     0.040 A 
ATOM     85  F   UNL     1      13.589 -14.391  -5.301  1.00  0.00    -0.206 F 
ATOM     86  C   UNL     1      17.105 -13.568  -5.028  1.00  0.00     0.006 A 
ENDBRANCH  62  79
ENDBRANCH  36  37
ENDBRANCH  29  31
ENDBRANCH  28  29
ENDBRANCH  27  28
ENDBRANCH  26  27
ENDBRANCH  25  26
ENDBRANCH   1  25
TORSDOF 17
