REMARK SMILES COC(=O)c1ccc(C)c2c1[C@H]1C=CC[C@H]1[C@@H](c1ccc(C(=O)OCCOCCOC(=O)c3ccc(-c4c5nc(c(-c6c(F)cccc6F)c6ccc([nH]6)c(-c6c(F)cccc6F)c6nc(c(-c7c(F)cccc7F)c7ccc4[nH]7)C=C6)C=C5)cc3)cc1)N2
REMARK SMILES IDX 26 1 25 2 24 3 22 4 23 5 21 6 18 7 19 8 88 9 20 10 87 11
REMARK SMILES IDX 17 12 5 13 6 14 11 15 7 16 10 17 12 18 8 19 89 20 13 21
REMARK SMILES IDX 16 22 9 23 14 25 15 26 3 27 4 28 2 29 1 30 27 31 28 32 29 33
REMARK SMILES IDX 30 34 31 35 32 36 33 37 34 38 86 39 35 40 85 41 36 42 37 43
REMARK SMILES IDX 38 44 79 45 39 46 84 47 78 48 80 49 40 50 83 51 77 52 76 53
REMARK SMILES IDX 41 55 67 56 50 57 66 58 51 59 54 60 65 61 81 62 52 63 53 64
REMARK SMILES IDX 64 66 82 67 55 68 42 69 43 70 48 71 44 72 45 73 47 74 49 75
REMARK SMILES IDX 46 76 68 77 69 78 74 79 70 80 71 81 73 82 75 83 72 84 56 85
REMARK SMILES IDX 57 86 62 87 58 88 59 89 61 90 63 91 60 92
REMARK H PARENT 89 24 80 54 54 65
REMARK Flexibility Score: inf
ROOT
ATOM      1  C   UNL     1       5.642   7.493  -4.427  1.00  0.00     0.202 C 
ENDROOT
BRANCH   1   2
ATOM      2  C   UNL     1       5.022   8.740  -3.790  1.00  0.00     0.261 C 
BRANCH   2   3
ATOM      3  O   UNL     1       4.897   8.584  -2.369  1.00  0.00    -0.460 OA
BRANCH   3   4
ATOM      4  C   UNL     1       3.618   8.556  -1.925  1.00  0.00     0.338 C 
ATOM      5  O   UNL     1       2.613   8.845  -2.555  1.00  0.00    -0.246 OA
BRANCH   4   6
ATOM      6  C   UNL     1       3.563   7.917  -0.596  1.00  0.00     0.060 A 
ATOM      7  C   UNL     1       3.252   6.643   1.907  1.00  0.00    -0.025 A 
ATOM      8  C   UNL     1       2.440   6.315   0.807  1.00  0.00     0.007 A 
ATOM      9  C   UNL     1       4.270   7.596   1.697  1.00  0.00     0.007 A 
ATOM     10  C   UNL     1       2.577   6.951  -0.421  1.00  0.00     0.016 A 
ATOM     11  C   UNL     1       4.435   8.222   0.450  1.00  0.00     0.016 A 
BRANCH   7  12
ATOM     12  C   UNL     1       3.017   6.052   3.305  1.00  0.00     0.114 C 
ATOM     13  C   UNL     1       0.351   2.902   2.244  1.00  0.00     0.065 A 
ATOM     14  C   UNL     1      -0.988   3.224   2.001  1.00  0.00     0.016 A 
ATOM     15  C   UNL     1       1.232   3.848   2.817  1.00  0.00    -0.003 A 
ATOM     16  C   UNL     1      -1.471   4.481   2.341  1.00  0.00     0.006 A 
ATOM     17  C   UNL     1       0.728   5.130   3.173  1.00  0.00     0.042 A 
ATOM     18  C   UNL     1       2.698   3.519   3.037  1.00  0.00     0.050 C 
ATOM     19  C   UNL     1      -0.631   5.441   2.929  1.00  0.00    -0.028 A 
ATOM     20  N   UNL     1       1.600   6.107   3.642  1.00  0.00    -0.377 N 
ATOM     21  C   UNL     1       3.520   3.208   1.808  1.00  0.00    -0.023 C 
ATOM     22  C   UNL     1       3.539   4.649   3.664  1.00  0.00     0.031 C 
ATOM     23  C   UNL     1      -1.250   6.790   3.194  1.00  0.00     0.046 C 
ATOM     24  H   UNL     1       1.258   6.840   4.204  1.00  0.00     0.161 HD
ATOM     25  C   UNL     1       4.775   3.665   1.918  1.00  0.00    -0.030 C 
ATOM     26  C   UNL     1       4.979   4.384   3.210  1.00  0.00     0.034 C 
BRANCH  13  27
ATOM     27  C   UNL     1       0.801   1.539   1.880  1.00  0.00     0.338 C 
ATOM     28  O   UNL     1       1.417   0.789   2.621  1.00  0.00    -0.246 OA
BRANCH  27  29
ATOM     29  O   UNL     1       0.465   1.303   0.588  1.00  0.00    -0.465 OA
ATOM     30  C   UNL     1       0.915   0.041   0.093  1.00  0.00     0.282 C 
ENDBRANCH  27  29
ENDBRANCH  13  27
ENDBRANCH   7  12
ENDBRANCH   4   6
ENDBRANCH   3   4
ENDBRANCH   2   3
ENDBRANCH   1   2
BRANCH   1  31
ATOM     31  O   UNL     1       4.927   6.272  -4.248  1.00  0.00    -0.374 OA
BRANCH  31  32
ATOM     32  C   UNL     1       5.145   5.565  -3.023  1.00  0.00     0.202 C 
BRANCH  32  33
ATOM     33  C   UNL     1       6.485   4.830  -2.894  1.00  0.00     0.261 C 
BRANCH  33  34
ATOM     34  O   UNL     1       7.564   5.750  -2.632  1.00  0.00    -0.460 OA
BRANCH  34  35
ATOM     35  C   UNL     1       8.513   5.822  -3.594  1.00  0.00     0.338 C 
ATOM     36  O   UNL     1       8.608   5.141  -4.603  1.00  0.00    -0.246 OA
BRANCH  35  37
ATOM     37  C   UNL     1       9.352   7.009  -3.358  1.00  0.00     0.060 A 
ATOM     38  C   UNL     1       9.351   8.018  -4.331  1.00  0.00     0.016 A 
ATOM     39  C   UNL     1      10.188   7.093  -2.244  1.00  0.00     0.016 A 
ATOM     40  C   UNL     1      10.214   9.103  -4.210  1.00  0.00     0.010 A 
ATOM     41  C   UNL     1      11.072   8.171  -2.136  1.00  0.00     0.010 A 
ATOM     42  C   UNL     1      11.111   9.160  -3.136  1.00  0.00    -0.014 A 
BRANCH  42  43
ATOM     43  C   UNL     1      12.212  10.149  -3.162  1.00  0.00     0.031 A 
ATOM     44  C   UNL     1      13.530   9.739  -3.757  1.00  0.00     0.074 A 
ATOM     45  C   UNL     1      12.036  11.395  -2.692  1.00  0.00     0.049 A 
ATOM     46  N   UNL     1      14.639  10.424  -3.872  1.00  0.00    -0.248 NA
ATOM     47  C   UNL     1      13.605   8.372  -4.297  1.00  0.00     0.031 C 
ATOM     48  C   UNL     1      10.791  11.925  -2.140  1.00  0.00     0.029 A 
ATOM     49  N   UNL     1      12.918  12.441  -2.603  1.00  0.00    -0.354 N 
ATOM     50  C   UNL     1      15.541   9.574  -4.500  1.00  0.00     0.074 A 
ATOM     51  C   UNL     1      14.861   8.315  -4.714  1.00  0.00     0.031 C 
ATOM     52  C   UNL     1      10.993  13.198  -1.757  1.00  0.00     0.029 A 
ATOM     53  C   UNL     1      12.385  13.560  -2.013  1.00  0.00     0.049 A 
ATOM     54  H   UNL     1      13.845  12.394  -2.931  1.00  0.00     0.167 HD
ATOM     55  C   UNL     1      16.819   9.823  -4.871  1.00  0.00     0.037 A 
ATOM     56  C   UNL     1      12.967  14.734  -1.701  1.00  0.00     0.037 A 
ATOM     57  C   UNL     1      17.500  11.069  -4.640  1.00  0.00     0.049 A 
ATOM     58  C   UNL     1      14.421  14.948  -2.030  1.00  0.00     0.074 A 
ATOM     59  C   UNL     1      18.791  11.425  -4.988  1.00  0.00     0.029 A 
ATOM     60  N   UNL     1      16.946  12.159  -3.986  1.00  0.00    -0.354 N 
ATOM     61  N   UNL     1      15.259  14.150  -2.648  1.00  0.00    -0.248 NA
ATOM     62  C   UNL     1      15.011  16.229  -1.613  1.00  0.00     0.031 C 
ATOM     63  C   UNL     1      19.034  12.713  -4.499  1.00  0.00     0.029 A 
ATOM     64  C   UNL     1      17.879  13.178  -3.891  1.00  0.00     0.049 A 
ATOM     65  H   UNL     1      16.025  12.202  -3.640  1.00  0.00     0.167 HD
ATOM     66  C   UNL     1      16.462  14.843  -2.722  1.00  0.00     0.074 A 
ATOM     67  C   UNL     1      16.241  16.130  -2.095  1.00  0.00     0.031 C 
ATOM     68  C   UNL     1      17.642  14.452  -3.263  1.00  0.00     0.037 A 
BRANCH  55  69
ATOM     69  C   UNL     1      17.568   8.707  -5.536  1.00  0.00     0.057 A 
ATOM     70  C   UNL     1      18.594   8.035  -4.861  1.00  0.00     0.134 A 
ATOM     71  C   UNL     1      17.282   8.301  -6.846  1.00  0.00     0.134 A 
ATOM     72  F   UNL     1      18.919   8.374  -3.604  1.00  0.00    -0.206 F 
ATOM     73  C   UNL     1      19.309   7.000  -5.465  1.00  0.00     0.040 A 
ATOM     74  C   UNL     1      17.974   7.251  -7.452  1.00  0.00     0.040 A 
ATOM     75  F   UNL     1      16.298   8.892  -7.541  1.00  0.00    -0.206 F 
ATOM     76  C   UNL     1      18.995   6.601  -6.762  1.00  0.00     0.006 A 
ENDBRANCH  55  69
BRANCH  56  77
ATOM     77  C   UNL     1      12.187  15.802  -1.027  1.00  0.00     0.057 A 
ATOM     78  C   UNL     1      11.775  15.675   0.305  1.00  0.00     0.134 A 
ATOM     79  C   UNL     1      11.874  16.994  -1.689  1.00  0.00     0.134 A 
ATOM     80  F   UNL     1      12.046  14.557   0.995  1.00  0.00    -0.206 F 
ATOM     81  C   UNL     1      11.077  16.694   0.954  1.00  0.00     0.040 A 
ATOM     82  C   UNL     1      11.197  18.031  -1.045  1.00  0.00     0.040 A 
ATOM     83  F   UNL     1      12.265  17.184  -2.958  1.00  0.00    -0.206 F 
ATOM     84  C   UNL     1      10.794  17.881   0.280  1.00  0.00     0.006 A 
ENDBRANCH  56  77
BRANCH  68  85
ATOM     85  C   UNL     1      18.772  15.440  -3.228  1.00  0.00     0.057 A 
ATOM     86  C   UNL     1      19.209  16.064  -4.404  1.00  0.00     0.134 A 
ATOM     87  C   UNL     1      19.442  15.757  -2.040  1.00  0.00     0.134 A 
ATOM     88  F   UNL     1      18.616  15.799  -5.578  1.00  0.00    -0.206 F 
ATOM     89  C   UNL     1      20.273  16.967  -4.399  1.00  0.00     0.040 A 
ATOM     90  C   UNL     1      20.490  16.679  -2.018  1.00  0.00     0.040 A 
ATOM     91  F   UNL     1      19.063  15.205  -0.878  1.00  0.00    -0.206 F 
ATOM     92  C   UNL     1      20.912  17.283  -3.202  1.00  0.00     0.006 A 
ENDBRANCH  68  85
ENDBRANCH  42  43
ENDBRANCH  35  37
ENDBRANCH  34  35
ENDBRANCH  33  34
ENDBRANCH  32  33
ENDBRANCH  31  32
ENDBRANCH   1  31
TORSDOF 17
