REMARK SMILES Cc1ccc(C(=O)OCCOCCOC(=O)c2ccc(-c3c4nc(c(-c5c(F)cccc5F)c5ccc([nH]5)c(-c5c(F)cccc5F)c5nc(c(-c6c(F)cccc6F)c6ccc3[nH]6)C=C5)C=C4)cc2)cc1S(=O)(=O)N(C)[C@H]1CCSC1
REMARK SMILES IDX 10 1 9 2 8 3 6 4 7 5 5 6 1 7 2 8 3 9 72 10 4 11 71 12 73 13
REMARK SMILES IDX 74 14 75 15 76 16 77 17 78 18 79 19 82 20 80 21 81 22 11 23
REMARK SMILES IDX 12 24 13 25 14 26 15 27 16 28 17 29 18 30 70 31 19 32 69 33
REMARK SMILES IDX 20 34 21 35 22 36 63 37 23 38 68 39 62 40 64 41 24 42 67 43
REMARK SMILES IDX 61 44 60 45 25 47 51 48 34 49 50 50 35 51 38 52 49 53 65 54
REMARK SMILES IDX 36 55 37 56 48 58 66 59 39 60 26 61 27 62 32 63 28 64 29 65
REMARK SMILES IDX 31 66 33 67 30 68 52 69 53 70 58 71 54 72 55 73 57 74 59 75
REMARK SMILES IDX 56 76 40 77 41 78 46 79 42 80 43 81 45 82 47 83 44 84
REMARK H PARENT 64 46 38 57
REMARK Flexibility Score: inf
ROOT
ATOM      1  C   UNL     1      -2.955   3.393  -4.222  1.00  0.00     0.202 C 
ENDROOT
BRANCH   1   2
ATOM      2  C   UNL     1      -3.288   4.184  -2.999  1.00  0.00     0.261 C 
BRANCH   2   3
ATOM      3  O   UNL     1      -2.393   3.872  -1.923  1.00  0.00    -0.460 OA
BRANCH   3   4
ATOM      4  C   UNL     1      -2.474   2.690  -1.248  1.00  0.00     0.338 C 
ATOM      5  O   UNL     1      -3.422   1.956  -1.091  1.00  0.00    -0.246 OA
BRANCH   4   6
ATOM      6  C   UNL     1      -1.082   2.331  -0.912  1.00  0.00     0.061 A 
ATOM      7  C   UNL     1       2.966   0.946  -1.210  1.00  0.00     0.046 C 
ATOM      8  C   UNL     1       1.605   1.551  -1.062  1.00  0.00    -0.031 A 
ATOM      9  C   UNL     1       0.587   0.625  -0.735  1.00  0.00     0.006 A 
ATOM     10  C   UNL     1       1.239   2.893  -1.277  1.00  0.00     0.086 A 
ATOM     11  C   UNL     1      -0.753   1.001  -0.688  1.00  0.00     0.016 A 
ATOM     12  C   UNL     1      -0.083   3.282  -1.094  1.00  0.00     0.037 A 
BRANCH  10  13
ATOM     13  S   UNL     1       2.238   4.215  -1.951  1.00  0.00     0.243 S 
ATOM     14  O   UNL     1       2.356   3.964  -3.369  1.00  0.00    -0.207 OA
ATOM     15  O   UNL     1       1.693   5.465  -1.456  1.00  0.00    -0.207 OA
BRANCH  13  16
ATOM     16  N   UNL     1       3.722   4.041  -1.208  1.00  0.00    -0.197 NA
ATOM     17  C   UNL     1       4.875   3.740  -2.054  1.00  0.00     0.125 C 
BRANCH  16  18
ATOM     18  C   UNL     1       3.795   4.303   0.238  1.00  0.00     0.083 C 
ATOM     19  C   UNL     1       4.663   3.318   1.006  1.00  0.00     0.032 C 
ATOM     20  C   UNL     1       4.288   5.698   0.602  1.00  0.00     0.089 C 
ATOM     21  C   UNL     1       4.537   3.753   2.454  1.00  0.00     0.071 C 
ATOM     22  S   UNL     1       4.681   5.565   2.383  1.00  0.00    -0.160 SA
ENDBRANCH  16  18
ENDBRANCH  13  16
ENDBRANCH  10  13
ENDBRANCH   4   6
ENDBRANCH   3   4
ENDBRANCH   2   3
ENDBRANCH   1   2
BRANCH   1  23
ATOM     23  O   UNL     1      -3.352   2.064  -3.927  1.00  0.00    -0.374 OA
BRANCH  23  24
ATOM     24  C   UNL     1      -3.197   1.137  -4.980  1.00  0.00     0.202 C 
BRANCH  24  25
ATOM     25  C   UNL     1      -4.040   1.500  -6.210  1.00  0.00     0.261 C 
BRANCH  25  26
ATOM     26  O   UNL     1      -5.437   1.543  -5.842  1.00  0.00    -0.460 OA
BRANCH  26  27
ATOM     27  C   UNL     1      -5.992   2.778  -5.685  1.00  0.00     0.338 C 
ATOM     28  O   UNL     1      -5.852   3.721  -6.447  1.00  0.00    -0.246 OA
BRANCH  27  29
ATOM     29  C   UNL     1      -6.553   2.909  -4.305  1.00  0.00     0.060 A 
ATOM     30  C   UNL     1      -6.952   4.170  -3.816  1.00  0.00     0.016 A 
ATOM     31  C   UNL     1      -6.343   1.863  -3.414  1.00  0.00     0.016 A 
ATOM     32  C   UNL     1      -6.963   4.426  -2.433  1.00  0.00     0.010 A 
ATOM     33  C   UNL     1      -6.255   2.150  -2.069  1.00  0.00     0.010 A 
ATOM     34  C   UNL     1      -6.514   3.437  -1.562  1.00  0.00    -0.014 A 
BRANCH  34  35
ATOM     35  C   UNL     1      -6.119   3.623  -0.155  1.00  0.00     0.031 A 
ATOM     36  C   UNL     1      -6.726   2.736   0.866  1.00  0.00     0.074 A 
ATOM     37  C   UNL     1      -4.987   4.304   0.163  1.00  0.00     0.049 A 
ATOM     38  N   UNL     1      -6.528   2.849   2.133  1.00  0.00    -0.248 NA
ATOM     39  C   UNL     1      -7.655   1.653   0.550  1.00  0.00     0.031 C 
ATOM     40  C   UNL     1      -4.091   4.087   1.305  1.00  0.00     0.029 A 
ATOM     41  N   UNL     1      -4.343   5.338  -0.522  1.00  0.00    -0.354 N 
ATOM     42  C   UNL     1      -6.924   1.669   2.720  1.00  0.00     0.074 A 
ATOM     43  C   UNL     1      -7.768   1.048   1.735  1.00  0.00     0.031 C 
ATOM     44  C   UNL     1      -3.214   5.104   1.401  1.00  0.00     0.029 A 
ATOM     45  C   UNL     1      -3.591   6.084   0.400  1.00  0.00     0.049 A 
ATOM     46  H   UNL     1      -4.407   5.514  -1.489  1.00  0.00     0.167 HD
ATOM     47  C   UNL     1      -6.339   1.315   3.902  1.00  0.00     0.037 A 
ATOM     48  C   UNL     1      -3.824   7.412   0.568  1.00  0.00     0.037 A 
ATOM     49  C   UNL     1      -5.493   2.420   4.401  1.00  0.00     0.049 A 
ATOM     50  C   UNL     1      -4.346   7.596   1.961  1.00  0.00     0.074 A 
ATOM     51  C   UNL     1      -4.123   2.588   4.533  1.00  0.00     0.029 A 
ATOM     52  N   UNL     1      -6.050   3.694   4.559  1.00  0.00    -0.354 N 
ATOM     53  N   UNL     1      -4.917   6.619   2.615  1.00  0.00    -0.248 NA
ATOM     54  C   UNL     1      -4.158   8.786   2.781  1.00  0.00     0.031 C 
ATOM     55  C   UNL     1      -3.863   3.982   4.682  1.00  0.00     0.029 A 
ATOM     56  C   UNL     1      -5.072   4.664   4.668  1.00  0.00     0.049 A 
ATOM     57  H   UNL     1      -7.018   3.876   4.589  1.00  0.00     0.167 HD
ATOM     58  C   UNL     1      -5.037   6.962   3.921  1.00  0.00     0.074 A 
ATOM     59  C   UNL     1      -4.622   8.354   3.970  1.00  0.00     0.031 C 
ATOM     60  C   UNL     1      -5.420   6.069   4.875  1.00  0.00     0.037 A 
BRANCH  47  61
ATOM     61  C   UNL     1      -6.320  -0.090   4.506  1.00  0.00     0.057 A 
ATOM     62  C   UNL     1      -5.537  -0.359   5.650  1.00  0.00     0.134 A 
ATOM     63  C   UNL     1      -6.972  -1.236   4.002  1.00  0.00     0.134 A 
ATOM     64  F   UNL     1      -4.872   0.611   6.292  1.00  0.00    -0.206 F 
ATOM     65  C   UNL     1      -5.384  -1.643   6.204  1.00  0.00     0.040 A 
ATOM     66  C   UNL     1      -6.842  -2.521   4.556  1.00  0.00     0.040 A 
ATOM     67  F   UNL     1      -7.775  -1.210   2.940  1.00  0.00    -0.206 F 
ATOM     68  C   UNL     1      -6.036  -2.734   5.655  1.00  0.00     0.006 A 
ENDBRANCH  47  61
BRANCH  48  69
ATOM     69  C   UNL     1      -4.232   8.047  -0.722  1.00  0.00     0.057 A 
ATOM     70  C   UNL     1      -3.235   8.138  -1.720  1.00  0.00     0.134 A 
ATOM     71  C   UNL     1      -5.558   8.023  -1.169  1.00  0.00     0.134 A 
ATOM     72  F   UNL     1      -1.937   8.148  -1.372  1.00  0.00    -0.206 F 
ATOM     73  C   UNL     1      -3.531   8.047  -3.086  1.00  0.00     0.040 A 
ATOM     74  C   UNL     1      -5.864   7.931  -2.538  1.00  0.00     0.040 A 
ATOM     75  F   UNL     1      -6.569   7.921  -0.295  1.00  0.00    -0.206 F 
ATOM     76  C   UNL     1      -4.849   7.891  -3.496  1.00  0.00     0.006 A 
ENDBRANCH  48  69
BRANCH  60  77
ATOM     77  C   UNL     1      -6.106   6.486   6.138  1.00  0.00     0.057 A 
ATOM     78  C   UNL     1      -6.857   7.667   6.241  1.00  0.00     0.134 A 
ATOM     79  C   UNL     1      -6.212   5.598   7.227  1.00  0.00     0.134 A 
ATOM     80  F   UNL     1      -6.938   8.544   5.230  1.00  0.00    -0.206 F 
ATOM     81  C   UNL     1      -7.613   7.973   7.373  1.00  0.00     0.040 A 
ATOM     82  C   UNL     1      -7.016   5.865   8.334  1.00  0.00     0.040 A 
ATOM     83  F   UNL     1      -5.577   4.417   7.245  1.00  0.00    -0.206 F 
ATOM     84  C   UNL     1      -7.707   7.064   8.417  1.00  0.00     0.006 A 
ENDBRANCH  60  77
ENDBRANCH  34  35
ENDBRANCH  27  29
ENDBRANCH  26  27
ENDBRANCH  25  26
ENDBRANCH  24  25
ENDBRANCH  23  24
ENDBRANCH   1  23
TORSDOF 17
