REMARK SMILES CC[C@@H](COC)NC(=O)NC[C@@H]1CC[C@H](C(=O)OCCOCCOC(=O)c2ccc(-c3c4nc(c(-c5c(F)cccc5F)c5ccc([nH]5)c(-c5c(F)cccc5F)c5nc(c(-c6c(F)cccc6F)c6ccc3[nH]6)C=C5)C=C4)cc2)O1
REMARK SMILES IDX 19 1 18 2 16 3 17 4 15 5 12 6 13 7 81 8 14 9 11 10 10 11
REMARK SMILES IDX 7 12 8 13 9 15 3 17 2 18 1 19 4 20 5 21 6 22 20 23 21 24
REMARK SMILES IDX 22 25 23 26 24 27 25 28 26 29 27 30 28 31 80 32 29 33 79 34
REMARK SMILES IDX 30 35 31 36 32 37 73 38 33 39 78 40 72 41 74 42 34 43 77 44
REMARK SMILES IDX 71 45 70 46 35 48 61 49 44 50 60 51 45 52 48 53 59 54 75 55
REMARK SMILES IDX 46 56 47 57 58 59 76 60 49 61 36 62 37 63 42 64 38 65 39 66
REMARK SMILES IDX 41 67 43 68 40 69 62 70 63 71 68 72 64 73 65 74 67 75 69 76
REMARK SMILES IDX 66 77 50 78 51 79 56 80 52 81 53 82 55 83 57 84 54 85
REMARK H PARENT 7 14 10 16 74 47 48 58
REMARK Flexibility Score: inf
ROOT
ATOM      1  C   UNL     1       0.672  -3.205  -3.861  1.00  0.00     0.261 C 
ENDROOT
BRANCH   1   2
ATOM      2  O   UNL     1       1.714  -2.285  -4.225  1.00  0.00    -0.461 OA
BRANCH   2   3
ATOM      3  C   UNL     1       2.562  -1.941  -3.221  1.00  0.00     0.335 C 
ATOM      4  O   UNL     1       2.342  -2.179  -2.038  1.00  0.00    -0.249 OA
BRANCH   3   5
ATOM      5  C   UNL     1       3.850  -1.277  -3.740  1.00  0.00     0.228 C 
ATOM      6  C   UNL     1       4.284   1.028  -3.681  1.00  0.00     0.138 C 
ATOM      7  C   UNL     1       3.502   0.727  -4.948  1.00  0.00     0.037 C 
ATOM      8  O   UNL     1       4.215  -0.174  -2.887  1.00  0.00    -0.361 OA
ATOM      9  C   UNL     1       3.826  -0.729  -5.162  1.00  0.00     0.047 C 
BRANCH   6  10
ATOM     10  C   UNL     1       3.844   2.252  -2.858  1.00  0.00     0.149 C 
BRANCH  10  11
ATOM     11  N   UNL     1       2.927   3.148  -3.539  1.00  0.00    -0.336 N 
ATOM     12  N   UNL     1       0.746   2.473  -2.932  1.00  0.00    -0.333 N 
ATOM     13  C   UNL     1       1.596   3.287  -3.561  1.00  0.00     0.315 C 
ATOM     14  H   UNL     1      -0.191   2.760  -3.031  1.00  0.00     0.165 HD
ATOM     15  O   UNL     1       1.135   4.220  -4.221  1.00  0.00    -0.249 OA
ATOM     16  H   UNL     1       3.388   3.800  -4.114  1.00  0.00     0.165 HD
BRANCH  12  17
ATOM     17  C   UNL     1       0.876   1.256  -2.130  1.00  0.00     0.109 C 
BRANCH  17  18
ATOM     18  C   UNL     1       0.770   1.605  -0.639  1.00  0.00     0.024 C 
ATOM     19  C   UNL     1       1.094   0.428   0.272  1.00  0.00     0.006 C 
ENDBRANCH  17  18
BRANCH  17  20
ATOM     20  C   UNL     1      -0.161   0.219  -2.605  1.00  0.00     0.184 C 
BRANCH  20  21
ATOM     21  O   UNL     1      -1.507   0.683  -2.478  1.00  0.00    -0.383 OA
ATOM     22  C   UNL     1      -2.240  -0.002  -1.470  1.00  0.00     0.194 C 
ENDBRANCH  20  21
ENDBRANCH  17  20
ENDBRANCH  12  17
ENDBRANCH  10  11
ENDBRANCH   6  10
ENDBRANCH   3   5
ENDBRANCH   2   3
ENDBRANCH   1   2
BRANCH   1  23
ATOM     23  C   UNL     1       0.115  -3.908  -5.100  1.00  0.00     0.202 C 
BRANCH  23  24
ATOM     24  O   UNL     1       1.061  -4.699  -5.819  1.00  0.00    -0.374 OA
BRANCH  24  25
ATOM     25  C   UNL     1       2.066  -4.008  -6.564  1.00  0.00     0.202 C 
BRANCH  25  26
ATOM     26  C   UNL     1       1.574  -3.211  -7.780  1.00  0.00     0.261 C 
BRANCH  26  27
ATOM     27  O   UNL     1       0.837  -2.020  -7.425  1.00  0.00    -0.460 OA
BRANCH  27  28
ATOM     28  C   UNL     1      -0.388  -1.924  -7.990  1.00  0.00     0.338 C 
ATOM     29  O   UNL     1      -0.919  -2.740  -8.744  1.00  0.00    -0.246 OA
BRANCH  28  30
ATOM     30  C   UNL     1      -1.121  -0.734  -7.532  1.00  0.00     0.060 A 
ATOM     31  C   UNL     1      -2.334  -0.927  -6.858  1.00  0.00     0.016 A 
ATOM     32  C   UNL     1      -0.740   0.545  -7.945  1.00  0.00     0.016 A 
ATOM     33  C   UNL     1      -3.197   0.150  -6.647  1.00  0.00     0.010 A 
ATOM     34  C   UNL     1      -1.611   1.624  -7.735  1.00  0.00     0.010 A 
ATOM     35  C   UNL     1      -2.864   1.425  -7.126  1.00  0.00    -0.014 A 
BRANCH  35  36
ATOM     36  C   UNL     1      -3.879   2.511  -7.109  1.00  0.00     0.031 A 
ATOM     37  C   UNL     1      -4.662   2.820  -8.360  1.00  0.00     0.074 A 
ATOM     38  C   UNL     1      -4.127   3.206  -5.985  1.00  0.00     0.049 A 
ATOM     39  N   UNL     1      -5.570   3.742  -8.566  1.00  0.00    -0.248 NA
ATOM     40  C   UNL     1      -4.391   1.974  -9.533  1.00  0.00     0.031 C 
ATOM     41  C   UNL     1      -3.468   2.995  -4.698  1.00  0.00     0.029 A 
ATOM     42  N   UNL     1      -4.999   4.241  -5.754  1.00  0.00    -0.354 N 
ATOM     43  C   UNL     1      -5.971   3.594  -9.888  1.00  0.00     0.074 A 
ATOM     44  C   UNL     1      -5.196   2.504 -10.443  1.00  0.00     0.031 C 
ATOM     45  C   UNL     1      -3.948   3.887  -3.814  1.00  0.00     0.029 A 
ATOM     46  C   UNL     1      -4.928   4.744  -4.479  1.00  0.00     0.049 A 
ATOM     47  H   UNL     1      -5.616   4.590  -6.438  1.00  0.00     0.167 HD
ATOM     48  C   UNL     1      -6.904   4.294 -10.576  1.00  0.00     0.037 A 
ATOM     49  C   UNL     1      -5.566   5.789  -3.917  1.00  0.00     0.037 A 
ATOM     50  C   UNL     1      -7.689   5.372 -10.034  1.00  0.00     0.049 A 
ATOM     51  C   UNL     1      -6.554   6.590  -4.721  1.00  0.00     0.074 A 
ATOM     52  C   UNL     1      -8.679   6.115 -10.655  1.00  0.00     0.029 A 
ATOM     53  N   UNL     1      -7.569   5.864  -8.745  1.00  0.00    -0.354 N 
ATOM     54  N   UNL     1      -6.946   6.419  -5.960  1.00  0.00    -0.248 NA
ATOM     55  C   UNL     1      -7.191   7.731  -4.044  1.00  0.00     0.031 C 
ATOM     56  C   UNL     1      -9.136   7.080  -9.751  1.00  0.00     0.029 A 
ATOM     57  C   UNL     1      -8.453   6.915  -8.558  1.00  0.00     0.049 A 
ATOM     58  H   UNL     1      -6.948   5.519  -8.064  1.00  0.00     0.167 HD
ATOM     59  C   UNL     1      -7.888   7.412  -6.202  1.00  0.00     0.074 A 
ATOM     60  C   UNL     1      -8.017   8.177  -4.980  1.00  0.00     0.031 C 
ATOM     61  C   UNL     1      -8.584   7.664  -7.337  1.00  0.00     0.037 A 
BRANCH  48  62
ATOM     62  C   UNL     1      -7.129   3.923 -12.011  1.00  0.00     0.057 A 
ATOM     63  C   UNL     1      -7.861   2.785 -12.370  1.00  0.00     0.134 A 
ATOM     64  C   UNL     1      -6.662   4.747 -13.043  1.00  0.00     0.134 A 
ATOM     65  F   UNL     1      -8.328   1.952 -11.427  1.00  0.00    -0.206 F 
ATOM     66  C   UNL     1      -8.112   2.473 -13.707  1.00  0.00     0.040 A 
ATOM     67  C   UNL     1      -6.921   4.455 -14.383  1.00  0.00     0.040 A 
ATOM     68  F   UNL     1      -5.961   5.856 -12.764  1.00  0.00    -0.206 F 
ATOM     69  C   UNL     1      -7.647   3.313 -14.717  1.00  0.00     0.006 A 
ENDBRANCH  48  62
BRANCH  49  70
ATOM     70  C   UNL     1      -5.277   6.161  -2.511  1.00  0.00     0.057 A 
ATOM     71  C   UNL     1      -6.215   5.943  -1.497  1.00  0.00     0.134 A 
ATOM     72  C   UNL     1      -4.070   6.773  -2.158  1.00  0.00     0.134 A 
ATOM     73  F   UNL     1      -7.402   5.387  -1.782  1.00  0.00    -0.206 F 
ATOM     74  C   UNL     1      -5.968   6.333  -0.180  1.00  0.00     0.040 A 
ATOM     75  C   UNL     1      -3.800   7.148  -0.842  1.00  0.00     0.040 A 
ATOM     76  F   UNL     1      -3.137   7.017  -3.089  1.00  0.00    -0.206 F 
ATOM     77  C   UNL     1      -4.754   6.933   0.151  1.00  0.00     0.006 A 
ENDBRANCH  49  70
BRANCH  61  78
ATOM     78  C   UNL     1      -9.573   8.790  -7.304  1.00  0.00     0.057 A 
ATOM     79  C   UNL     1      -9.168  10.129  -7.353  1.00  0.00     0.134 A 
ATOM     80  C   UNL     1     -10.949   8.530  -7.262  1.00  0.00     0.134 A 
ATOM     81  F   UNL     1      -7.864  10.443  -7.382  1.00  0.00    -0.206 F 
ATOM     82  C   UNL     1     -10.096  11.172  -7.345  1.00  0.00     0.040 A 
ATOM     83  C   UNL     1     -11.887   9.564  -7.273  1.00  0.00     0.040 A 
ATOM     84  F   UNL     1     -11.403   7.269  -7.221  1.00  0.00    -0.206 F 
ATOM     85  C   UNL     1     -11.461  10.890  -7.311  1.00  0.00     0.006 A 
ENDBRANCH  61  78
ENDBRANCH  35  36
ENDBRANCH  28  30
ENDBRANCH  27  28
ENDBRANCH  26  27
ENDBRANCH  25  26
ENDBRANCH  24  25
ENDBRANCH  23  24
ENDBRANCH   1  23
TORSDOF 20
