REMARK SMILES Cc1nn([C@H]2CCS(=O)(=O)C2)c(C)c1/C=C(\CC(=O)OCCOCCOC(=O)c1ccc(-c2c3nc(c(-c4c(F)cccc4F)c4ccc([nH]4)c(-c4c(F)cccc4F)c4nc(c(-c5c(F)cccc5F)c5ccc2[nH]5)C=C4)C=C3)cc1)c1nc2ccccc2s1
REMARK SMILES IDX 22 1 21 2 20 3 18 4 19 5 17 6 16 7 15 8 14 9 1 10 2 11 3 12
REMARK SMILES IDX 4 13 12 14 13 15 5 16 6 17 11 18 7 19 8 20 9 21 10 22 83 23
REMARK SMILES IDX 84 24 91 25 85 26 90 27 86 28 89 29 87 30 88 31 23 32 24 33
REMARK SMILES IDX 25 34 26 35 27 36 28 37 29 38 30 39 82 40 31 41 81 42 32 43
REMARK SMILES IDX 33 44 34 45 75 46 35 47 80 48 74 49 76 50 36 51 79 52 73 53
REMARK SMILES IDX 72 54 37 56 63 57 46 58 62 59 47 60 50 61 61 62 77 63 48 64
REMARK SMILES IDX 49 65 60 67 78 68 51 69 38 70 39 71 44 72 40 73 41 74 43 75
REMARK SMILES IDX 45 76 42 77 64 78 65 79 70 80 66 81 67 82 69 83 71 84 68 85
REMARK SMILES IDX 52 86 53 87 58 88 54 89 55 90 57 91 59 92 56 93
REMARK H PARENT 76 55 50 66
REMARK Flexibility Score: inf
ROOT
ATOM      1  C   UNL     1       2.803 -11.973   4.314  1.00  0.00     0.202 C 
ENDROOT
BRANCH   1   2
ATOM      2  C   UNL     1       2.097 -10.903   3.463  1.00  0.00     0.261 C 
BRANCH   2   3
ATOM      3  O   UNL     1       2.985 -10.220   2.538  1.00  0.00    -0.463 OA
BRANCH   3   4
ATOM      4  C   UNL     1       3.119  -8.887   2.742  1.00  0.00     0.310 C 
ATOM      5  O   UNL     1       2.410  -8.245   3.516  1.00  0.00    -0.252 OA
BRANCH   4   6
ATOM      6  C   UNL     1       4.394  -8.256   2.180  1.00  0.00     0.161 C 
BRANCH   6   7
ATOM      7  C   UNL     1       4.939  -8.266   0.764  1.00  0.00    -0.000 C 
ATOM      8  C   UNL     1       4.425  -7.509  -0.239  1.00  0.00     0.019 C 
BRANCH   8   9
ATOM      9  C   UNL     1       3.212  -6.734  -0.218  1.00  0.00     0.019 A 
ATOM     10  C   UNL     1       2.442  -6.898  -2.729  1.00  0.00     0.069 C 
ATOM     11  C   UNL     1       2.293  -6.553  -1.290  1.00  0.00     0.067 A 
ATOM     12  N   UNL     1       1.182  -5.928  -0.877  1.00  0.00    -0.177 NA
ATOM     13  N   UNL     1       1.408  -5.681   0.428  1.00  0.00    -0.265 N 
ATOM     14  C   UNL     1       2.737  -5.855   0.750  1.00  0.00     0.043 A 
ATOM     15  C   UNL     1       3.390  -5.144   1.883  1.00  0.00     0.067 C 
BRANCH  13  16
ATOM     16  C   UNL     1       0.308  -5.187   1.252  1.00  0.00     0.123 C 
ATOM     17  C   UNL     1      -1.046  -5.852   0.908  1.00  0.00     0.044 C 
ATOM     18  C   UNL     1       0.463  -5.446   2.750  1.00  0.00     0.164 C 
ATOM     19  C   UNL     1      -2.060  -5.390   1.948  1.00  0.00     0.139 C 
ATOM     20  S   UNL     1      -1.132  -5.117   3.440  1.00  0.00     0.152 S 
ATOM     21  O   UNL     1      -1.189  -3.699   3.759  1.00  0.00    -0.229 OA
ATOM     22  O   UNL     1      -1.454  -6.138   4.404  1.00  0.00    -0.229 OA
ENDBRANCH  13  16
ENDBRANCH   8   9
BRANCH   7  23
ATOM     23  C   UNL     1       6.227  -8.893   0.536  1.00  0.00     0.121 A 
ATOM     24  N   UNL     1       6.450 -10.152   0.226  1.00  0.00    -0.236 NA
ATOM     25  S   UNL     1       7.684  -8.048   0.968  1.00  0.00    -0.114 S 
ATOM     26  C   UNL     1       7.673 -10.577   0.735  1.00  0.00     0.082 A 
ATOM     27  C   UNL     1       8.484  -9.557   1.224  1.00  0.00     0.055 A 
ATOM     28  C   UNL     1       8.102 -11.913   0.908  1.00  0.00     0.030 A 
ATOM     29  C   UNL     1       9.707  -9.830   1.862  1.00  0.00     0.021 A 
ATOM     30  C   UNL     1       9.246 -12.201   1.653  1.00  0.00     0.002 A 
ATOM     31  C   UNL     1      10.043 -11.166   2.116  1.00  0.00     0.002 A 
ENDBRANCH   7  23
ENDBRANCH   6   7
ENDBRANCH   4   6
ENDBRANCH   3   4
ENDBRANCH   2   3
ENDBRANCH   1   2
BRANCH   1  32
ATOM     32  O   UNL     1       3.850 -11.579   5.193  1.00  0.00    -0.374 OA
BRANCH  32  33
ATOM     33  C   UNL     1       4.939 -10.827   4.691  1.00  0.00     0.202 C 
BRANCH  33  34
ATOM     34  C   UNL     1       5.785 -11.390   3.547  1.00  0.00     0.261 C 
BRANCH  34  35
ATOM     35  O   UNL     1       5.085 -11.787   2.361  1.00  0.00    -0.460 OA
BRANCH  35  36
ATOM     36  C   UNL     1       4.961 -13.127   2.209  1.00  0.00     0.338 C 
ATOM     37  O   UNL     1       5.097 -13.954   3.101  1.00  0.00    -0.246 OA
BRANCH  36  38
ATOM     38  C   UNL     1       4.882 -13.529   0.785  1.00  0.00     0.060 A 
ATOM     39  C   UNL     1       5.085 -14.887   0.546  1.00  0.00     0.016 A 
ATOM     40  C   UNL     1       4.974 -12.613  -0.266  1.00  0.00     0.016 A 
ATOM     41  C   UNL     1       5.632 -15.284  -0.659  1.00  0.00     0.010 A 
ATOM     42  C   UNL     1       5.582 -12.998  -1.459  1.00  0.00     0.010 A 
ATOM     43  C   UNL     1       5.976 -14.324  -1.621  1.00  0.00    -0.014 A 
BRANCH  43  44
ATOM     44  C   UNL     1       6.475 -14.830  -2.895  1.00  0.00     0.031 A 
ATOM     45  C   UNL     1       5.369 -15.437  -3.672  1.00  0.00     0.074 A 
ATOM     46  C   UNL     1       7.741 -14.787  -3.361  1.00  0.00     0.049 A 
ATOM     47  N   UNL     1       5.140 -16.697  -3.833  1.00  0.00    -0.248 NA
ATOM     48  C   UNL     1       4.275 -14.561  -4.118  1.00  0.00     0.031 C 
ATOM     49  C   UNL     1       8.881 -14.026  -2.852  1.00  0.00     0.029 A 
ATOM     50  N   UNL     1       8.261 -15.403  -4.468  1.00  0.00    -0.354 N 
ATOM     51  C   UNL     1       3.976 -16.768  -4.588  1.00  0.00     0.074 A 
ATOM     52  C   UNL     1       3.388 -15.457  -4.550  1.00  0.00     0.031 C 
ATOM     53  C   UNL     1       9.884 -14.053  -3.765  1.00  0.00     0.029 A 
ATOM     54  C   UNL     1       9.516 -14.940  -4.859  1.00  0.00     0.049 A 
ATOM     55  H   UNL     1       7.785 -16.117  -4.950  1.00  0.00     0.167 HD
ATOM     56  C   UNL     1       3.758 -17.829  -5.409  1.00  0.00     0.037 A 
ATOM     57  C   UNL     1      10.171 -15.240  -6.015  1.00  0.00     0.037 A 
ATOM     58  C   UNL     1       4.575 -18.953  -5.017  1.00  0.00     0.049 A 
ATOM     59  C   UNL     1       9.582 -16.488  -6.555  1.00  0.00     0.074 A 
ATOM     60  C   UNL     1       4.709 -19.718  -3.874  1.00  0.00     0.029 A 
ATOM     61  N   UNL     1       5.698 -19.199  -5.766  1.00  0.00    -0.354 N 
ATOM     62  N   UNL     1       9.753 -17.663  -6.024  1.00  0.00    -0.248 NA
ATOM     63  C   UNL     1       8.448 -16.366  -7.456  1.00  0.00     0.031 C 
ATOM     64  C   UNL     1       6.100 -20.023  -3.789  1.00  0.00     0.029 A 
ATOM     65  C   UNL     1       6.727 -19.492  -4.916  1.00  0.00     0.049 A 
ATOM     66  H   UNL     1       5.753 -19.169  -6.748  1.00  0.00     0.167 HD
ATOM     67  C   UNL     1       8.514 -18.272  -6.135  1.00  0.00     0.074 A 
ATOM     68  C   UNL     1       7.782 -17.471  -7.113  1.00  0.00     0.031 C 
ATOM     69  C   UNL     1       8.107 -19.188  -5.209  1.00  0.00     0.037 A 
BRANCH  56  70
ATOM     70  C   UNL     1       3.200 -17.689  -6.811  1.00  0.00     0.057 A 
ATOM     71  C   UNL     1       3.066 -18.850  -7.595  1.00  0.00     0.134 A 
ATOM     72  C   UNL     1       3.103 -16.477  -7.528  1.00  0.00     0.134 A 
ATOM     73  F   UNL     1       3.128 -20.069  -7.039  1.00  0.00    -0.206 F 
ATOM     74  C   UNL     1       2.971 -18.808  -8.991  1.00  0.00     0.040 A 
ATOM     75  C   UNL     1       2.960 -16.425  -8.916  1.00  0.00     0.040 A 
ATOM     76  F   UNL     1       3.234 -15.275  -6.958  1.00  0.00    -0.206 F 
ATOM     77  C   UNL     1       2.935 -17.592  -9.658  1.00  0.00     0.006 A 
ENDBRANCH  56  70
BRANCH  57  78
ATOM     78  C   UNL     1      11.076 -14.415  -6.857  1.00  0.00     0.057 A 
ATOM     79  C   UNL     1      11.840 -14.990  -7.890  1.00  0.00     0.134 A 
ATOM     80  C   UNL     1      10.970 -13.016  -6.886  1.00  0.00     0.134 A 
ATOM     81  F   UNL     1      11.973 -16.322  -7.981  1.00  0.00    -0.206 F 
ATOM     82  C   UNL     1      12.426 -14.224  -8.909  1.00  0.00     0.040 A 
ATOM     83  C   UNL     1      11.554 -12.239  -7.895  1.00  0.00     0.040 A 
ATOM     84  F   UNL     1      10.213 -12.364  -5.992  1.00  0.00    -0.206 F 
ATOM     85  C   UNL     1      12.270 -12.843  -8.921  1.00  0.00     0.006 A 
ENDBRANCH  57  78
BRANCH  69  86
ATOM     86  C   UNL     1       9.142 -19.768  -4.286  1.00  0.00     0.057 A 
ATOM     87  C   UNL     1       9.904 -19.029  -3.368  1.00  0.00     0.134 A 
ATOM     88  C   UNL     1       9.273 -21.161  -4.244  1.00  0.00     0.134 A 
ATOM     89  F   UNL     1       9.780 -17.698  -3.268  1.00  0.00    -0.206 F 
ATOM     90  C   UNL     1      10.786 -19.654  -2.479  1.00  0.00     0.040 A 
ATOM     91  C   UNL     1      10.119 -21.797  -3.336  1.00  0.00     0.040 A 
ATOM     92  F   UNL     1       8.541 -21.934  -5.063  1.00  0.00    -0.206 F 
ATOM     93  C   UNL     1      10.889 -21.042  -2.456  1.00  0.00     0.006 A 
ENDBRANCH  69  86
ENDBRANCH  43  44
ENDBRANCH  36  38
ENDBRANCH  35  36
ENDBRANCH  34  35
ENDBRANCH  33  34
ENDBRANCH  32  33
ENDBRANCH   1  32
TORSDOF 18
