REMARK SMILES C[C@@H](Sc1nc2ccccc2c(=O)n1N)C(=O)OCCOCCOC(=O)c1ccc(-c2c3nc(c(-c4c(F)cccc4F)c4ccc([nH]4)c(-c4c(F)cccc4F)c4nc(c(-c5c(F)cccc5F)c5ccc2[nH]5)C=C4)C=C3)cc1
REMARK SMILES IDX 20 1 19 2 18 3 16 4 17 5 2 6 1 7 3 8 4 9 5 10 14 11 6 12
REMARK SMILES IDX 12 13 7 14 11 15 13 16 8 17 10 18 9 19 15 20 21 23 22 24
REMARK SMILES IDX 23 25 24 26 25 27 26 28 27 29 28 30 80 31 29 32 79 33 30 34
REMARK SMILES IDX 31 35 32 36 73 37 33 38 78 39 72 40 74 41 34 42 77 43 71 44
REMARK SMILES IDX 70 45 35 47 61 48 44 49 60 50 45 51 48 52 59 53 75 54 46 55
REMARK SMILES IDX 47 56 58 58 76 59 49 60 36 61 37 62 42 63 38 64 39 65 41 66
REMARK SMILES IDX 43 67 40 68 62 69 63 70 68 71 64 72 65 73 67 74 69 75 66 76
REMARK SMILES IDX 50 77 51 78 56 79 52 80 53 81 55 82 57 83 54 84
REMARK H PARENT 15 21 15 22 74 46 48 57
REMARK Flexibility Score: inf
ROOT
ATOM      1  C   UNL     1      -3.686   0.430   0.713  1.00  0.00     0.202 C 
ENDROOT
BRANCH   1   2
ATOM      2  C   UNL     1      -2.965   1.780   0.701  1.00  0.00     0.261 C 
BRANCH   2   3
ATOM      3  O   UNL     1      -1.580   1.643   0.342  1.00  0.00    -0.462 OA
BRANCH   3   4
ATOM      4  C   UNL     1      -0.686   1.898   1.338  1.00  0.00     0.319 C 
ATOM      5  O   UNL     1      -0.989   2.265   2.469  1.00  0.00    -0.251 OA
BRANCH   4   6
ATOM      6  C   UNL     1       0.760   1.692   0.898  1.00  0.00     0.161 C 
ATOM      7  C   UNL     1       0.949   0.818  -0.338  1.00  0.00     0.032 C 
BRANCH   6   8
ATOM      8  S   UNL     1       1.470   3.355   0.664  1.00  0.00    -0.071 SA
BRANCH   8   9
ATOM      9  C   UNL     1       3.177   2.989   0.639  1.00  0.00     0.191 A 
ATOM     10  N   UNL     1       3.798   3.209  -0.473  1.00  0.00    -0.222 NA
ATOM     11  N   UNL     1       3.802   2.559   1.807  1.00  0.00    -0.202 N 
ATOM     12  C   UNL     1       5.188   3.044  -0.498  1.00  0.00     0.079 A 
ATOM     13  C   UNL     1       5.183   2.359   1.862  1.00  0.00     0.280 A 
ATOM     14  C   UNL     1       5.873   3.340  -1.679  1.00  0.00     0.029 A 
ATOM     15  C   UNL     1       5.922   2.647   0.620  1.00  0.00     0.068 A 
ATOM     16  O   UNL     1       5.773   1.987   2.876  1.00  0.00    -0.267 OA
ATOM     17  C   UNL     1       7.266   3.254  -1.734  1.00  0.00     0.002 A 
ATOM     18  C   UNL     1       7.317   2.552   0.576  1.00  0.00     0.016 A 
ATOM     19  C   UNL     1       7.988   2.863  -0.606  1.00  0.00     0.001 A 
BRANCH  11  20
ATOM     20  N   UNL     1       3.071   2.300   3.013  1.00  0.00    -0.334 N 
ATOM     21  H   UNL     1       2.095   2.424   3.033  1.00  0.00     0.178 HD
ATOM     22  H   UNL     1       3.546   1.998   3.821  1.00  0.00     0.178 HD
ENDBRANCH  11  20
ENDBRANCH   8   9
ENDBRANCH   6   8
ENDBRANCH   4   6
ENDBRANCH   3   4
ENDBRANCH   2   3
ENDBRANCH   1   2
BRANCH   1  23
ATOM     23  O   UNL     1      -3.237  -0.519   1.677  1.00  0.00    -0.374 OA
BRANCH  23  24
ATOM     24  C   UNL     1      -2.035  -1.235   1.393  1.00  0.00     0.202 C 
BRANCH  24  25
ATOM     25  C   UNL     1      -2.126  -2.330   0.324  1.00  0.00     0.261 C 
BRANCH  25  26
ATOM     26  O   UNL     1      -2.325  -1.785  -0.996  1.00  0.00    -0.460 OA
BRANCH  26  27
ATOM     27  C   UNL     1      -3.486  -2.140  -1.591  1.00  0.00     0.338 C 
ATOM     28  O   UNL     1      -4.332  -2.920  -1.168  1.00  0.00    -0.246 OA
BRANCH  27  29
ATOM     29  C   UNL     1      -3.716  -1.315  -2.789  1.00  0.00     0.060 A 
ATOM     30  C   UNL     1      -4.900  -0.567  -2.849  1.00  0.00     0.016 A 
ATOM     31  C   UNL     1      -2.836  -1.338  -3.873  1.00  0.00     0.016 A 
ATOM     32  C   UNL     1      -5.226   0.134  -4.008  1.00  0.00     0.010 A 
ATOM     33  C   UNL     1      -3.173  -0.644  -5.040  1.00  0.00     0.010 A 
ATOM     34  C   UNL     1      -4.381   0.071  -5.123  1.00  0.00    -0.014 A 
BRANCH  34  35
ATOM     35  C   UNL     1      -4.818   0.651  -6.416  1.00  0.00     0.031 A 
ATOM     36  C   UNL     1      -5.414  -0.251  -7.460  1.00  0.00     0.074 A 
ATOM     37  C   UNL     1      -4.684   1.967  -6.657  1.00  0.00     0.049 A 
ATOM     38  N   UNL     1      -5.787   0.029  -8.682  1.00  0.00    -0.248 NA
ATOM     39  C   UNL     1      -5.614  -1.657  -7.075  1.00  0.00     0.031 C 
ATOM     40  C   UNL     1      -4.157   2.950  -5.712  1.00  0.00     0.029 A 
ATOM     41  N   UNL     1      -4.967   2.699  -7.783  1.00  0.00    -0.354 N 
ATOM     42  C   UNL     1      -6.252  -1.166  -9.218  1.00  0.00     0.074 A 
ATOM     43  C   UNL     1      -6.101  -2.177  -8.193  1.00  0.00     0.031 C 
ATOM     44  C   UNL     1      -4.129   4.154  -6.308  1.00  0.00     0.029 A 
ATOM     45  C   UNL     1      -4.604   4.020  -7.684  1.00  0.00     0.049 A 
ATOM     46  H   UNL     1      -5.389   2.314  -8.585  1.00  0.00     0.167 HD
ATOM     47  C   UNL     1      -6.760  -1.396 -10.451  1.00  0.00     0.037 A 
ATOM     48  C   UNL     1      -4.620   4.999  -8.609  1.00  0.00     0.037 A 
ATOM     49  C   UNL     1      -6.921  -0.387 -11.464  1.00  0.00     0.049 A 
ATOM     50  C   UNL     1      -5.123   4.699  -9.997  1.00  0.00     0.074 A 
ATOM     51  C   UNL     1      -7.477  -0.514 -12.725  1.00  0.00     0.029 A 
ATOM     52  N   UNL     1      -6.516   0.931 -11.335  1.00  0.00    -0.354 N 
ATOM     53  N   UNL     1      -5.599   3.577 -10.479  1.00  0.00    -0.248 NA
ATOM     54  C   UNL     1      -5.084   5.801 -10.970  1.00  0.00     0.031 C 
ATOM     55  C   UNL     1      -7.361   0.717 -13.379  1.00  0.00     0.029 A 
ATOM     56  C   UNL     1      -6.773   1.621 -12.508  1.00  0.00     0.049 A 
ATOM     57  H   UNL     1      -6.105   1.321 -10.529  1.00  0.00     0.167 HD
ATOM     58  C   UNL     1      -5.934   3.842 -11.802  1.00  0.00     0.074 A 
ATOM     59  C   UNL     1      -5.619   5.234 -12.043  1.00  0.00     0.031 C 
ATOM     60  C   UNL     1      -6.455   3.007 -12.733  1.00  0.00     0.037 A 
BRANCH  47  61
ATOM     61  C   UNL     1      -7.157  -2.802 -10.788  1.00  0.00     0.057 A 
ATOM     62  C   UNL     1      -8.317  -3.389 -10.269  1.00  0.00     0.134 A 
ATOM     63  C   UNL     1      -6.393  -3.558 -11.686  1.00  0.00     0.134 A 
ATOM     64  F   UNL     1      -9.085  -2.721  -9.396  1.00  0.00    -0.206 F 
ATOM     65  C   UNL     1      -8.696  -4.686 -10.621  1.00  0.00     0.040 A 
ATOM     66  C   UNL     1      -6.773  -4.847 -12.062  1.00  0.00     0.040 A 
ATOM     67  F   UNL     1      -5.272  -3.051 -12.222  1.00  0.00    -0.206 F 
ATOM     68  C   UNL     1      -7.927  -5.415 -11.526  1.00  0.00     0.006 A 
ENDBRANCH  47  61
BRANCH  48  69
ATOM     69  C   UNL     1      -4.106   6.349  -8.271  1.00  0.00     0.057 A 
ATOM     70  C   UNL     1      -4.962   7.452  -8.177  1.00  0.00     0.134 A 
ATOM     71  C   UNL     1      -2.739   6.572  -8.060  1.00  0.00     0.134 A 
ATOM     72  F   UNL     1      -6.277   7.306  -8.395  1.00  0.00    -0.206 F 
ATOM     73  C   UNL     1      -4.476   8.731  -7.902  1.00  0.00     0.040 A 
ATOM     74  C   UNL     1      -2.243   7.841  -7.760  1.00  0.00     0.040 A 
ATOM     75  F   UNL     1      -1.867   5.556  -8.139  1.00  0.00    -0.206 F 
ATOM     76  C   UNL     1      -3.113   8.927  -7.687  1.00  0.00     0.006 A 
ENDBRANCH  48  69
BRANCH  60  77
ATOM     77  C   UNL     1      -6.738   3.576 -14.091  1.00  0.00     0.057 A 
ATOM     78  C   UNL     1      -5.710   3.847 -15.002  1.00  0.00     0.134 A 
ATOM     79  C   UNL     1      -8.054   3.800 -14.513  1.00  0.00     0.134 A 
ATOM     80  F   UNL     1      -4.427   3.664 -14.654  1.00  0.00    -0.206 F 
ATOM     81  C   UNL     1      -5.981   4.333 -16.282  1.00  0.00     0.040 A 
ATOM     82  C   UNL     1      -8.339   4.265 -15.798  1.00  0.00     0.040 A 
ATOM     83  F   UNL     1      -9.085   3.553 -13.691  1.00  0.00    -0.206 F 
ATOM     84  C   UNL     1      -7.300   4.535 -16.686  1.00  0.00     0.006 A 
ENDBRANCH  60  77
ENDBRANCH  34  35
ENDBRANCH  27  29
ENDBRANCH  26  27
ENDBRANCH  25  26
ENDBRANCH  24  25
ENDBRANCH  23  24
ENDBRANCH   1  23
TORSDOF 17
