REMARK SMILES Cc1c(NC(=O)c2cccc(-c3cc4ccccc4oc3=O)c2)cccc1C(=O)OCCOCCOC(=O)c1ccc(-c2c3nc(c(-c4c(F)cccc4F)c4ccc([nH]4)c(-c4c(F)cccc4F)c4nc(c(-c5c(F)cccc5F)c5ccc2[nH]5)C=C4)C=C3)cc1
REMARK SMILES IDX 32 1 31 2 30 3 28 4 29 5 27 6 1 7 2 8 3 9 24 10 26 11 25 12
REMARK SMILES IDX 4 13 5 14 6 16 7 17 8 18 23 19 9 20 11 21 10 22 12 23 13 24
REMARK SMILES IDX 21 25 14 26 20 27 22 28 15 29 19 30 16 31 18 32 17 33 33 34
REMARK SMILES IDX 34 35 35 36 36 37 37 38 38 39 39 40 40 41 92 42 41 43 91 44
REMARK SMILES IDX 42 45 43 46 44 47 85 48 45 49 90 50 84 51 86 52 46 53 89 54
REMARK SMILES IDX 83 55 82 56 47 58 73 59 56 60 72 61 57 62 60 63 71 64 87 65
REMARK SMILES IDX 58 66 59 67 70 69 88 70 61 71 48 72 49 73 54 74 50 75 51 76
REMARK SMILES IDX 53 77 55 78 52 79 74 80 75 81 80 82 76 83 77 84 79 85 81 86
REMARK SMILES IDX 78 87 62 88 63 89 68 90 64 91 65 92 67 93 69 94 66 95
REMARK H PARENT 4 15 86 57 60 68
REMARK Flexibility Score: inf
ROOT
ATOM      1  C   UNL     1       2.235   2.785  -2.311  1.00  0.00     0.202 C 
ENDROOT
BRANCH   1   2
ATOM      2  C   UNL     1       2.674   2.434  -0.927  1.00  0.00     0.261 C 
BRANCH   2   3
ATOM      3  O   UNL     1       1.838   1.502  -0.209  1.00  0.00    -0.460 OA
BRANCH   3   4
ATOM      4  C   UNL     1       0.703   1.855   0.459  1.00  0.00     0.338 C 
ATOM      5  O   UNL     1       0.257   2.972   0.593  1.00  0.00    -0.246 OA
BRANCH   4   6
ATOM      6  C   UNL     1      -0.031   0.599   0.843  1.00  0.00     0.065 A 
ATOM      7  C   UNL     1       2.030  -0.968   0.928  1.00  0.00     0.047 C 
ATOM      8  C   UNL     1       0.542  -0.696   0.916  1.00  0.00    -0.013 A 
ATOM      9  C   UNL     1      -0.332  -1.814   0.917  1.00  0.00     0.045 A 
ATOM     10  C   UNL     1      -1.716  -1.637   1.005  1.00  0.00     0.026 A 
ATOM     11  C   UNL     1      -1.429   0.751   0.943  1.00  0.00     0.016 A 
ATOM     12  C   UNL     1      -2.264  -0.360   1.035  1.00  0.00     0.003 A 
BRANCH   9  13
ATOM     13  N   UNL     1       0.233  -3.098   0.809  1.00  0.00    -0.322 N 
ATOM     14  C   UNL     1      -0.214  -4.268   0.243  1.00  0.00     0.255 C 
ATOM     15  H   UNL     1       1.123  -3.174   1.222  1.00  0.00     0.170 HD
ATOM     16  O   UNL     1       0.435  -5.295   0.451  1.00  0.00    -0.269 OA
BRANCH  14  17
ATOM     17  C   UNL     1      -1.365  -4.341  -0.697  1.00  0.00     0.040 A 
ATOM     18  C   UNL     1      -2.088  -5.534  -0.740  1.00  0.00     0.014 A 
ATOM     19  C   UNL     1      -1.653  -3.336  -1.633  1.00  0.00     0.022 A 
ATOM     20  C   UNL     1      -3.125  -5.694  -1.657  1.00  0.00     0.001 A 
ATOM     21  C   UNL     1      -2.678  -3.494  -2.589  1.00  0.00    -0.010 A 
ATOM     22  C   UNL     1      -3.423  -4.678  -2.566  1.00  0.00     0.009 A 
BRANCH  21  23
ATOM     23  C   UNL     1      -2.958  -2.567  -3.729  1.00  0.00     0.068 A 
ATOM     24  C   UNL     1      -2.838  -1.223  -3.681  1.00  0.00     0.028 A 
ATOM     25  C   UNL     1      -2.350  -3.002  -5.036  1.00  0.00     0.344 A 
ATOM     26  C   UNL     1      -1.416  -0.865  -3.626  1.00  0.00     0.018 A 
ATOM     27  O   UNL     1      -0.981  -2.722  -5.128  1.00  0.00    -0.422 OA
ATOM     28  O   UNL     1      -2.985  -3.578  -5.908  1.00  0.00    -0.246 OA
ATOM     29  C   UNL     1      -0.984   0.131  -2.795  1.00  0.00     0.012 A 
ATOM     30  C   UNL     1      -0.492  -1.717  -4.269  1.00  0.00     0.138 A 
ATOM     31  C   UNL     1       0.370   0.168  -2.538  1.00  0.00     0.001 A 
ATOM     32  C   UNL     1       0.869  -1.659  -4.005  1.00  0.00     0.048 A 
ATOM     33  C   UNL     1       1.302  -0.715  -3.093  1.00  0.00     0.004 A 
ENDBRANCH  21  23
ENDBRANCH  14  17
ENDBRANCH   9  13
ENDBRANCH   4   6
ENDBRANCH   3   4
ENDBRANCH   2   3
ENDBRANCH   1   2
BRANCH   1  34
ATOM     34  O   UNL     1       1.031   3.515  -2.171  1.00  0.00    -0.374 OA
BRANCH  34  35
ATOM     35  C   UNL     1       0.370   3.883  -3.366  1.00  0.00     0.202 C 
BRANCH  35  36
ATOM     36  C   UNL     1       1.294   4.442  -4.460  1.00  0.00     0.261 C 
BRANCH  36  37
ATOM     37  O   UNL     1       1.846   5.716  -4.049  1.00  0.00    -0.460 OA
BRANCH  37  38
ATOM     38  C   UNL     1       3.126   5.719  -3.577  1.00  0.00     0.338 C 
ATOM     39  O   UNL     1       4.091   5.249  -4.158  1.00  0.00    -0.246 OA
BRANCH  38  40
ATOM     40  C   UNL     1       3.127   6.079  -2.122  1.00  0.00     0.060 A 
ATOM     41  C   UNL     1       4.276   5.865  -1.331  1.00  0.00     0.016 A 
ATOM     42  C   UNL     1       1.893   6.248  -1.506  1.00  0.00     0.016 A 
ATOM     43  C   UNL     1       4.154   5.661   0.056  1.00  0.00     0.010 A 
ATOM     44  C   UNL     1       1.766   5.887  -0.184  1.00  0.00     0.010 A 
ATOM     45  C   UNL     1       2.882   5.577   0.613  1.00  0.00    -0.014 A 
BRANCH  45  46
ATOM     46  C   UNL     1       2.527   5.094   1.957  1.00  0.00     0.031 A 
ATOM     47  C   UNL     1       1.714   6.009   2.797  1.00  0.00     0.074 A 
ATOM     48  C   UNL     1       2.648   3.786   2.313  1.00  0.00     0.049 A 
ATOM     49  N   UNL     1       1.379   5.745   4.006  1.00  0.00    -0.248 NA
ATOM     50  C   UNL     1       1.225   7.324   2.370  1.00  0.00     0.031 C 
ATOM     51  C   UNL     1       1.892   3.038   3.326  1.00  0.00     0.029 A 
ATOM     52  N   UNL     1       3.492   2.794   1.799  1.00  0.00    -0.354 N 
ATOM     53  C   UNL     1       0.403   6.629   4.387  1.00  0.00     0.074 A 
ATOM     54  C   UNL     1       0.432   7.664   3.391  1.00  0.00     0.031 C 
ATOM     55  C   UNL     1       2.487   1.854   3.566  1.00  0.00     0.029 A 
ATOM     56  C   UNL     1       3.713   1.829   2.790  1.00  0.00     0.049 A 
ATOM     57  H   UNL     1       3.869   2.778   0.890  1.00  0.00     0.167 HD
ATOM     58  C   UNL     1      -0.370   6.287   5.453  1.00  0.00     0.037 A 
ATOM     59  C   UNL     1       4.977   1.564   3.204  1.00  0.00     0.037 A 
ATOM     60  C   UNL     1       0.194   5.097   6.114  1.00  0.00     0.049 A 
ATOM     61  C   UNL     1       5.047   2.051   4.618  1.00  0.00     0.074 A 
ATOM     62  C   UNL     1      -0.188   3.770   6.197  1.00  0.00     0.029 A 
ATOM     63  N   UNL     1       1.528   5.141   6.536  1.00  0.00    -0.354 N 
ATOM     64  N   UNL     1       4.271   3.006   5.065  1.00  0.00    -0.248 NA
ATOM     65  C   UNL     1       5.798   1.385   5.674  1.00  0.00     0.031 C 
ATOM     66  C   UNL     1       0.968   3.010   6.564  1.00  0.00     0.029 A 
ATOM     67  C   UNL     1       2.043   3.875   6.740  1.00  0.00     0.049 A 
ATOM     68  H   UNL     1       2.037   5.973   6.671  1.00  0.00     0.167 HD
ATOM     69  C   UNL     1       4.278   2.976   6.422  1.00  0.00     0.074 A 
ATOM     70  C   UNL     1       5.300   1.998   6.763  1.00  0.00     0.031 C 
ATOM     71  C   UNL     1       3.420   3.694   7.199  1.00  0.00     0.037 A 
BRANCH  58  72
ATOM     72  C   UNL     1      -1.691   6.924   5.833  1.00  0.00     0.057 A 
ATOM     73  C   UNL     1      -2.347   6.529   7.015  1.00  0.00     0.134 A 
ATOM     74  C   UNL     1      -2.415   7.863   5.066  1.00  0.00     0.134 A 
ATOM     75  F   UNL     1      -1.810   5.617   7.838  1.00  0.00    -0.206 F 
ATOM     76  C   UNL     1      -3.597   7.036   7.407  1.00  0.00     0.040 A 
ATOM     77  C   UNL     1      -3.642   8.414   5.471  1.00  0.00     0.040 A 
ATOM     78  F   UNL     1      -2.017   8.267   3.856  1.00  0.00    -0.206 F 
ATOM     79  C   UNL     1      -4.242   7.996   6.644  1.00  0.00     0.006 A 
ENDBRANCH  58  72
BRANCH  59  80
ATOM     80  C   UNL     1       5.942   1.650   2.061  1.00  0.00     0.057 A 
ATOM     81  C   UNL     1       5.865   0.611   1.105  1.00  0.00     0.134 A 
ATOM     82  C   UNL     1       6.458   2.870   1.604  1.00  0.00     0.134 A 
ATOM     83  F   UNL     1       5.357  -0.584   1.453  1.00  0.00    -0.206 F 
ATOM     84  C   UNL     1       6.141   0.814  -0.255  1.00  0.00     0.040 A 
ATOM     85  C   UNL     1       6.731   3.084   0.240  1.00  0.00     0.040 A 
ATOM     86  F   UNL     1       6.545   3.923   2.428  1.00  0.00    -0.206 F 
ATOM     87  C   UNL     1       6.530   2.072  -0.699  1.00  0.00     0.006 A 
ENDBRANCH  59  80
BRANCH  71  88
ATOM     88  C   UNL     1       3.873   4.263   8.512  1.00  0.00     0.057 A 
ATOM     89  C   UNL     1       5.229   4.446   8.837  1.00  0.00     0.134 A 
ATOM     90  C   UNL     1       2.954   4.837   9.410  1.00  0.00     0.134 A 
ATOM     91  F   UNL     1       6.216   4.076   8.008  1.00  0.00    -0.206 F 
ATOM     92  C   UNL     1       5.639   5.076  10.011  1.00  0.00     0.040 A 
ATOM     93  C   UNL     1       3.356   5.533  10.549  1.00  0.00     0.040 A 
ATOM     94  F   UNL     1       1.630   4.787   9.203  1.00  0.00    -0.206 F 
ATOM     95  C   UNL     1       4.702   5.632  10.867  1.00  0.00     0.006 A 
ENDBRANCH  71  88
ENDBRANCH  45  46
ENDBRANCH  38  40
ENDBRANCH  37  38
ENDBRANCH  36  37
ENDBRANCH  35  36
ENDBRANCH  34  35
ENDBRANCH   1  34
TORSDOF 17
