REMARK SMILES O=C(OCCOCCOC(=O)c1ccc(-c2c3nc(c(-c4c(F)cccc4F)c4ccc([nH]4)c(-c4c(F)cccc4F)c4nc(c(-c5c(F)cccc5F)c5ccc2[nH]5)C=C4)C=C3)cc1)c1ccc(/C=C/c2ccnc(-c3cccc([N+](=O)[O-])c3)[n+]2[O-])cc1
REMARK SMILES IDX 5 1 4 2 3 3 2 4 1 5 66 6 67 7 89 8 68 9 88 10 69 11 70 12
REMARK SMILES IDX 71 13 72 14 73 15 86 16 74 17 76 18 87 19 75 20 77 21 78 22
REMARK SMILES IDX 85 23 79 24 81 25 80 26 82 27 83 28 84 29 6 30 7 31 8 32
REMARK SMILES IDX 9 33 10 34 11 35 12 36 13 37 65 38 14 39 64 40 15 41 16 42
REMARK SMILES IDX 17 43 58 44 18 45 63 46 57 47 59 48 19 49 62 50 56 51 55 52
REMARK SMILES IDX 20 54 46 55 29 56 45 57 30 58 33 59 44 60 60 61 31 62 32 63
REMARK SMILES IDX 43 65 61 66 34 67 21 68 22 69 27 70 23 71 24 72 26 73 28 74
REMARK SMILES IDX 25 75 47 76 48 77 53 78 49 79 50 80 52 81 54 82 51 83 35 84
REMARK SMILES IDX 36 85 41 86 37 87 38 88 40 89 42 90 39 91
REMARK H PARENT 59 53 33 64
REMARK Flexibility Score: inf
ROOT
ATOM      1  C   UNL     1       4.161   1.331  -0.731  1.00  0.00     0.202 C 
ENDROOT
BRANCH   1   2
ATOM      2  C   UNL     1       3.817  -0.115  -1.085  1.00  0.00     0.261 C 
BRANCH   2   3
ATOM      3  O   UNL     1       2.423  -0.376  -0.825  1.00  0.00    -0.460 OA
BRANCH   3   4
ATOM      4  C   UNL     1       1.941  -1.311   0.032  1.00  0.00     0.338 C 
ATOM      5  O   UNL     1       0.754  -1.617   0.026  1.00  0.00    -0.246 OA
BRANCH   4   6
ATOM      6  C   UNL     1       2.850  -1.980   0.991  1.00  0.00     0.060 A 
ATOM      7  C   UNL     1       3.721  -1.256   1.801  1.00  0.00     0.016 A 
ATOM      8  C   UNL     1       2.776  -3.364   1.150  1.00  0.00     0.016 A 
ATOM      9  C   UNL     1       4.591  -1.892   2.675  1.00  0.00     0.009 A 
ATOM     10  C   UNL     1       3.635  -4.008   2.050  1.00  0.00     0.009 A 
ATOM     11  C   UNL     1       4.574  -3.278   2.796  1.00  0.00    -0.025 A 
BRANCH  11  12
ATOM     12  C   UNL     1       5.498  -3.975   3.694  1.00  0.00     0.012 C 
ATOM     13  C   UNL     1       6.588  -3.421   4.253  1.00  0.00     0.053 C 
BRANCH  13  14
ATOM     14  C   UNL     1       7.503  -4.202   5.090  1.00  0.00     0.134 A 
ATOM     15  C   UNL     1       7.839  -3.740   6.362  1.00  0.00     0.100 A 
ATOM     16  N   UNL     1       8.021  -5.410   4.611  1.00  0.00    -0.228 N 
ATOM     17  C   UNL     1       8.640  -4.541   7.141  1.00  0.00     0.259 A 
ATOM     18  C   UNL     1       8.822  -6.157   5.470  1.00  0.00     0.333 A 
ATOM     19  O   UNL     1       7.760  -5.819   3.422  1.00  0.00    -0.710 OA
ATOM     20  N   UNL     1       9.116  -5.734   6.738  1.00  0.00    -0.049 NA
BRANCH  18  21
ATOM     21  C   UNL     1       9.314  -7.457   5.027  1.00  0.00     0.076 A 
ATOM     22  C   UNL     1       8.862  -8.637   5.639  1.00  0.00     0.017 A 
ATOM     23  C   UNL     1      10.161  -7.556   3.909  1.00  0.00     0.102 A 
ATOM     24  C   UNL     1       9.211  -9.889   5.127  1.00  0.00     0.008 A 
ATOM     25  C   UNL     1      10.508  -8.811   3.399  1.00  0.00     0.270 A 
ATOM     26  C   UNL     1      10.031  -9.981   4.002  1.00  0.00     0.085 A 
BRANCH  25  27
ATOM     27  N   UNL     1      11.359  -8.896   2.207  1.00  0.00     0.062 N 
ATOM     28  O   UNL     1      11.613 -10.023   1.760  1.00  0.00    -0.258 OA
ATOM     29  O   UNL     1      11.787  -7.837   1.724  1.00  0.00    -0.258 OA
ENDBRANCH  25  27
ENDBRANCH  18  21
ENDBRANCH  13  14
ENDBRANCH  11  12
ENDBRANCH   4   6
ENDBRANCH   3   4
ENDBRANCH   2   3
ENDBRANCH   1   2
BRANCH   1  30
ATOM     30  O   UNL     1       3.932   1.664   0.636  1.00  0.00    -0.374 OA
BRANCH  30  31
ATOM     31  C   UNL     1       2.586   2.036   0.969  1.00  0.00     0.202 C 
BRANCH  31  32
ATOM     32  C   UNL     1       2.628   3.119   2.053  1.00  0.00     0.261 C 
BRANCH  32  33
ATOM     33  O   UNL     1       3.142   4.317   1.456  1.00  0.00    -0.460 OA
BRANCH  33  34
ATOM     34  C   UNL     1       4.491   4.333   1.317  1.00  0.00     0.338 C 
ATOM     35  O   UNL     1       5.315   3.849   2.074  1.00  0.00    -0.246 OA
BRANCH  34  36
ATOM     36  C   UNL     1       4.795   4.852  -0.036  1.00  0.00     0.060 A 
ATOM     37  C   UNL     1       5.947   4.392  -0.693  1.00  0.00     0.016 A 
ATOM     38  C   UNL     1       3.922   5.736  -0.678  1.00  0.00     0.016 A 
ATOM     39  C   UNL     1       6.254   4.853  -1.973  1.00  0.00     0.010 A 
ATOM     40  C   UNL     1       4.224   6.193  -1.954  1.00  0.00     0.010 A 
ATOM     41  C   UNL     1       5.411   5.787  -2.585  1.00  0.00    -0.014 A 
BRANCH  41  42
ATOM     42  C   UNL     1       5.840   6.561  -3.766  1.00  0.00     0.031 A 
ATOM     43  C   UNL     1       6.377   7.940  -3.517  1.00  0.00     0.074 A 
ATOM     44  C   UNL     1       5.620   6.112  -5.011  1.00  0.00     0.049 A 
ATOM     45  N   UNL     1       6.571   8.923  -4.353  1.00  0.00    -0.248 NA
ATOM     46  C   UNL     1       6.698   8.261  -2.115  1.00  0.00     0.031 C 
ATOM     47  C   UNL     1       5.104   4.790  -5.354  1.00  0.00     0.029 A 
ATOM     48  N   UNL     1       5.753   6.753  -6.215  1.00  0.00    -0.354 N 
ATOM     49  C   UNL     1       6.999   9.990  -3.574  1.00  0.00     0.074 A 
ATOM     50  C   UNL     1       7.015   9.542  -2.200  1.00  0.00     0.031 C 
ATOM     51  C   UNL     1       4.920   4.731  -6.685  1.00  0.00     0.029 A 
ATOM     52  C   UNL     1       5.266   6.024  -7.271  1.00  0.00     0.049 A 
ATOM     53  H   UNL     1       6.158   7.645  -6.312  1.00  0.00     0.167 HD
ATOM     54  C   UNL     1       7.343  11.236  -3.974  1.00  0.00     0.037 A 
ATOM     55  C   UNL     1       5.079   6.386  -8.555  1.00  0.00     0.037 A 
ATOM     56  C   UNL     1       7.315  11.662  -5.346  1.00  0.00     0.049 A 
ATOM     57  C   UNL     1       5.450   7.781  -8.984  1.00  0.00     0.074 A 
ATOM     58  C   UNL     1       7.688  12.880  -5.881  1.00  0.00     0.029 A 
ATOM     59  N   UNL     1       6.873  10.875  -6.401  1.00  0.00    -0.354 N 
ATOM     60  N   UNL     1       5.901   8.776  -8.257  1.00  0.00    -0.248 NA
ATOM     61  C   UNL     1       5.290   8.104 -10.408  1.00  0.00     0.031 C 
ATOM     62  C   UNL     1       7.426  12.847  -7.255  1.00  0.00     0.029 A 
ATOM     63  C   UNL     1       6.942  11.589  -7.583  1.00  0.00     0.049 A 
ATOM     64  H   UNL     1       6.558   9.946  -6.319  1.00  0.00     0.167 HD
ATOM     65  C   UNL     1       6.106   9.832  -9.136  1.00  0.00     0.074 A 
ATOM     66  C   UNL     1       5.730   9.355 -10.451  1.00  0.00     0.031 C 
ATOM     67  C   UNL     1       6.569  11.081  -8.881  1.00  0.00     0.037 A 
BRANCH  54  68
ATOM     68  C   UNL     1       7.732  12.214  -2.905  1.00  0.00     0.057 A 
ATOM     69  C   UNL     1       8.908  12.073  -2.156  1.00  0.00     0.134 A 
ATOM     70  C   UNL     1       6.900  13.299  -2.598  1.00  0.00     0.134 A 
ATOM     71  F   UNL     1       9.739  11.044  -2.383  1.00  0.00    -0.206 F 
ATOM     72  C   UNL     1       9.222  12.949  -1.115  1.00  0.00     0.040 A 
ATOM     73  C   UNL     1       7.218  14.199  -1.580  1.00  0.00     0.040 A 
ATOM     74  F   UNL     1       5.758  13.495  -3.274  1.00  0.00    -0.206 F 
ATOM     75  C   UNL     1       8.377  14.018  -0.827  1.00  0.00     0.006 A 
ENDBRANCH  54  68
BRANCH  55  76
ATOM     76  C   UNL     1       4.503   5.410  -9.512  1.00  0.00     0.057 A 
ATOM     77  C   UNL     1       5.298   4.802 -10.489  1.00  0.00     0.134 A 
ATOM     78  C   UNL     1       3.157   5.028  -9.444  1.00  0.00     0.134 A 
ATOM     79  F   UNL     1       6.589   5.140 -10.614  1.00  0.00    -0.206 F 
ATOM     80  C   UNL     1       4.777   3.849 -11.366  1.00  0.00     0.040 A 
ATOM     81  C   UNL     1       2.628   4.061 -10.301  1.00  0.00     0.040 A 
ATOM     82  F   UNL     1       2.345   5.569  -8.525  1.00  0.00    -0.206 F 
ATOM     83  C   UNL     1       3.439   3.469 -11.267  1.00  0.00     0.006 A 
ENDBRANCH  55  76
BRANCH  67  84
ATOM     84  C   UNL     1       6.742  12.007 -10.049  1.00  0.00     0.057 A 
ATOM     85  C   UNL     1       5.652  12.620 -10.677  1.00  0.00     0.134 A 
ATOM     86  C   UNL     1       8.026  12.349 -10.494  1.00  0.00     0.134 A 
ATOM     87  F   UNL     1       4.398  12.326 -10.303  1.00  0.00    -0.206 F 
ATOM     88  C   UNL     1       5.833  13.534 -11.716  1.00  0.00     0.040 A 
ATOM     89  C   UNL     1       8.220  13.280 -11.513  1.00  0.00     0.040 A 
ATOM     90  F   UNL     1       9.112  11.804  -9.924  1.00  0.00    -0.206 F 
ATOM     91  C   UNL     1       7.121  13.874 -12.129  1.00  0.00     0.006 A 
ENDBRANCH  67  84
ENDBRANCH  41  42
ENDBRANCH  34  36
ENDBRANCH  33  34
ENDBRANCH  32  33
ENDBRANCH  31  32
ENDBRANCH  30  31
ENDBRANCH   1  30
TORSDOF 18
