REMARK SMILES O=C(OCCOCCOC(=O)c1cc([C@@H]2C=NN=C2c2ccc(F)cc2)c2c(ccc3ccccc32)n1)c1ccc(-c2c3nc(c(-c4c(F)cccc4F)c4ccc([nH]4)c(-c4c(F)cccc4F)c4nc(c(-c5c(F)cccc5F)c5ccc2[nH]5)C=C4)C=C3)cc1
REMARK SMILES IDX 6 1 5 2 4 3 3 4 2 5 1 6 38 7 39 8 91 9 40 10 90 11 41 12
REMARK SMILES IDX 42 13 43 14 84 15 44 16 89 17 83 18 85 19 45 20 88 21 82 22
REMARK SMILES IDX 81 23 46 25 72 26 55 27 71 28 56 29 59 30 70 31 86 32 57 33
REMARK SMILES IDX 58 34 69 36 87 37 60 38 47 39 48 40 53 41 49 42 50 43 52 44
REMARK SMILES IDX 54 45 51 46 73 47 74 48 79 49 75 50 76 51 78 52 80 53 77 54
REMARK SMILES IDX 61 55 62 56 67 57 63 58 64 59 66 60 68 61 65 62 7 63 8 64
REMARK SMILES IDX 9 65 10 66 11 67 12 68 13 69 37 70 14 71 28 72 27 73 29 74
REMARK SMILES IDX 36 75 30 76 31 77 35 78 32 79 34 80 33 81 15 82 16 83 19 84
REMARK SMILES IDX 17 85 18 86 20 87 21 88 26 89 22 90 25 91 23 92 24 93
REMARK H PARENT 85 24 59 35
REMARK Flexibility Score: inf
ROOT
ATOM      1  O   UNL     1       4.254  -1.369   0.198  1.00  0.00    -0.374 OA
ENDROOT
BRANCH   1   2
ATOM      2  C   UNL     1       4.776  -0.234   0.887  1.00  0.00     0.202 C 
BRANCH   2   3
ATOM      3  C   UNL     1       4.568   1.139   0.254  1.00  0.00     0.261 C 
BRANCH   3   4
ATOM      4  O   UNL     1       3.189   1.561   0.262  1.00  0.00    -0.460 OA
BRANCH   4   5
ATOM      5  C   UNL     1       2.175   0.820  -0.240  1.00  0.00     0.338 C 
ATOM      6  O   UNL     1       1.133   0.661   0.390  1.00  0.00    -0.246 OA
BRANCH   5   7
ATOM      7  C   UNL     1       2.224   0.494  -1.684  1.00  0.00     0.060 A 
ATOM      8  C   UNL     1       3.396   0.330  -2.421  1.00  0.00     0.016 A 
ATOM      9  C   UNL     1       0.986   0.483  -2.342  1.00  0.00     0.016 A 
ATOM     10  C   UNL     1       3.367   0.473  -3.789  1.00  0.00     0.010 A 
ATOM     11  C   UNL     1       0.942   0.537  -3.719  1.00  0.00     0.010 A 
ATOM     12  C   UNL     1       2.138   0.646  -4.420  1.00  0.00    -0.014 A 
BRANCH  12  13
ATOM     13  C   UNL     1       2.147   0.807  -5.860  1.00  0.00     0.031 A 
ATOM     14  C   UNL     1       2.741  -0.353  -6.577  1.00  0.00     0.074 A 
ATOM     15  C   UNL     1       1.574   1.871  -6.452  1.00  0.00     0.049 A 
ATOM     16  N   UNL     1       3.769  -0.369  -7.359  1.00  0.00    -0.248 NA
ATOM     17  C   UNL     1       2.222  -1.693  -6.242  1.00  0.00     0.031 C 
ATOM     18  C   UNL     1       0.771   2.934  -5.840  1.00  0.00     0.029 A 
ATOM     19  N   UNL     1       1.510   2.173  -7.775  1.00  0.00    -0.354 N 
ATOM     20  C   UNL     1       3.903  -1.690  -7.775  1.00  0.00     0.074 A 
ATOM     21  C   UNL     1       3.038  -2.481  -6.940  1.00  0.00     0.031 C 
ATOM     22  C   UNL     1       0.103   3.604  -6.806  1.00  0.00     0.029 A 
ATOM     23  C   UNL     1       0.543   3.118  -8.100  1.00  0.00     0.049 A 
ATOM     24  H   UNL     1       2.097   1.757  -8.446  1.00  0.00     0.167 HD
ATOM     25  C   UNL     1       4.536  -2.010  -8.935  1.00  0.00     0.037 A 
ATOM     26  C   UNL     1       0.098   3.390  -9.352  1.00  0.00     0.037 A 
ATOM     27  C   UNL     1       5.425  -0.964  -9.360  1.00  0.00     0.049 A 
ATOM     28  C   UNL     1       1.128   2.886 -10.299  1.00  0.00     0.074 A 
ATOM     29  C   UNL     1       6.552  -0.384  -8.811  1.00  0.00     0.029 A 
ATOM     30  N   UNL     1       4.977  -0.084 -10.313  1.00  0.00    -0.354 N 
ATOM     31  N   UNL     1       2.325   3.395 -10.403  1.00  0.00    -0.248 NA
ATOM     32  C   UNL     1       0.986   1.516 -10.772  1.00  0.00     0.031 C 
ATOM     33  C   UNL     1       6.427   1.005  -9.101  1.00  0.00     0.029 A 
ATOM     34  C   UNL     1       5.280   1.181  -9.875  1.00  0.00     0.049 A 
ATOM     35  H   UNL     1       4.523  -0.317 -11.155  1.00  0.00     0.167 HD
ATOM     36  C   UNL     1       3.164   2.300 -10.550  1.00  0.00     0.074 A 
ATOM     37  C   UNL     1       2.276   1.172 -10.828  1.00  0.00     0.031 C 
ATOM     38  C   UNL     1       4.466   2.344 -10.145  1.00  0.00     0.037 A 
BRANCH  25  39
ATOM     39  C   UNL     1       4.067  -3.116  -9.838  1.00  0.00     0.057 A 
ATOM     40  C   UNL     1       2.734  -3.579  -9.868  1.00  0.00     0.134 A 
ATOM     41  C   UNL     1       4.879  -3.556 -10.894  1.00  0.00     0.134 A 
ATOM     42  F   UNL     1       1.806  -3.144  -9.005  1.00  0.00    -0.206 F 
ATOM     43  C   UNL     1       2.250  -4.439 -10.855  1.00  0.00     0.040 A 
ATOM     44  C   UNL     1       4.389  -4.377 -11.919  1.00  0.00     0.040 A 
ATOM     45  F   UNL     1       6.151  -3.146 -11.000  1.00  0.00    -0.206 F 
ATOM     46  C   UNL     1       3.072  -4.823 -11.900  1.00  0.00     0.006 A 
ENDBRANCH  25  39
BRANCH  26  47
ATOM     47  C   UNL     1      -1.297   3.654  -9.781  1.00  0.00     0.057 A 
ATOM     48  C   UNL     1      -2.401   3.169  -9.056  1.00  0.00     0.134 A 
ATOM     49  C   UNL     1      -1.573   4.130 -11.072  1.00  0.00     0.134 A 
ATOM     50  F   UNL     1      -2.250   2.627  -7.840  1.00  0.00    -0.206 F 
ATOM     51  C   UNL     1      -3.693   3.131  -9.592  1.00  0.00     0.040 A 
ATOM     52  C   UNL     1      -2.862   4.093 -11.622  1.00  0.00     0.040 A 
ATOM     53  F   UNL     1      -0.582   4.578 -11.856  1.00  0.00    -0.206 F 
ATOM     54  C   UNL     1      -3.925   3.578 -10.886  1.00  0.00     0.006 A 
ENDBRANCH  26  47
BRANCH  38  55
ATOM     55  C   UNL     1       5.034   3.673  -9.719  1.00  0.00     0.057 A 
ATOM     56  C   UNL     1       6.187   4.143 -10.357  1.00  0.00     0.134 A 
ATOM     57  C   UNL     1       4.596   4.394  -8.597  1.00  0.00     0.134 A 
ATOM     58  F   UNL     1       6.697   3.477 -11.405  1.00  0.00    -0.206 F 
ATOM     59  C   UNL     1       6.879   5.267  -9.900  1.00  0.00     0.040 A 
ATOM     60  C   UNL     1       5.261   5.541  -8.148  1.00  0.00     0.040 A 
ATOM     61  F   UNL     1       3.559   3.973  -7.863  1.00  0.00    -0.206 F 
ATOM     62  C   UNL     1       6.414   5.974  -8.795  1.00  0.00     0.006 A 
ENDBRANCH  38  55
ENDBRANCH  12  13
ENDBRANCH   5   7
ENDBRANCH   4   5
ENDBRANCH   3   4
ENDBRANCH   2   3
ENDBRANCH   1   2
BRANCH   1  63
ATOM     63  C   UNL     1       3.107  -2.002   0.790  1.00  0.00     0.202 C 
BRANCH  63  64
ATOM     64  C   UNL     1       3.263  -2.738   2.131  1.00  0.00     0.261 C 
BRANCH  64  65
ATOM     65  O   UNL     1       3.528  -1.831   3.213  1.00  0.00    -0.459 OA
BRANCH  65  66
ATOM     66  C   UNL     1       4.844  -1.688   3.537  1.00  0.00     0.357 C 
ATOM     67  O   UNL     1       5.768  -2.373   3.163  1.00  0.00    -0.244 OA
BRANCH  66  68
ATOM     68  C   UNL     1       4.976  -0.413   4.297  1.00  0.00     0.149 A 
ATOM     69  C   UNL     1       4.258  -0.232   5.444  1.00  0.00     0.041 A 
ATOM     70  N   UNL     1       5.860   0.491   3.841  1.00  0.00    -0.241 NA
ATOM     71  C   UNL     1       4.569   0.860   6.288  1.00  0.00    -0.021 A 
ATOM     72  C   UNL     1       6.098   1.587   4.571  1.00  0.00     0.072 A 
ATOM     73  C   UNL     1       5.556   1.851   5.865  1.00  0.00     0.012 A 
ATOM     74  C   UNL     1       6.997   2.446   3.977  1.00  0.00     0.029 A 
ATOM     75  C   UNL     1       6.133   3.017   6.572  1.00  0.00    -0.009 A 
ATOM     76  C   UNL     1       7.479   3.574   4.622  1.00  0.00     0.011 A 
ATOM     77  C   UNL     1       7.088   3.851   5.922  1.00  0.00    -0.018 A 
ATOM     78  C   UNL     1       5.869   3.404   7.906  1.00  0.00     0.009 A 
ATOM     79  C   UNL     1       7.691   4.950   6.564  1.00  0.00     0.009 A 
ATOM     80  C   UNL     1       6.478   4.486   8.555  1.00  0.00     0.001 A 
ATOM     81  C   UNL     1       7.394   5.264   7.881  1.00  0.00     0.001 A 
BRANCH  71  82
ATOM     82  C   UNL     1       3.922   0.670   7.638  1.00  0.00     0.115 C 
ATOM     83  C   UNL     1       3.086   1.738   8.227  1.00  0.00     0.123 C 
ATOM     84  C   UNL     1       4.776   0.351   8.827  1.00  0.00     0.083 C 
ATOM     85  N   UNL     1       3.271   1.858   9.503  1.00  0.00    -0.162 NA
ATOM     86  N   UNL     1       4.344   0.972   9.890  1.00  0.00    -0.154 NA
BRANCH  84  87
ATOM     87  C   UNL     1       5.868  -0.657   8.839  1.00  0.00    -0.001 A 
ATOM     88  C   UNL     1       6.030  -1.432   9.992  1.00  0.00     0.013 A 
ATOM     89  C   UNL     1       6.733  -0.874   7.756  1.00  0.00     0.013 A 
ATOM     90  C   UNL     1       7.006  -2.433  10.039  1.00  0.00     0.040 A 
ATOM     91  C   UNL     1       7.700  -1.881   7.797  1.00  0.00     0.040 A 
ATOM     92  C   UNL     1       7.824  -2.656   8.937  1.00  0.00     0.123 A 
ATOM     93  F   UNL     1       8.749  -3.623   8.979  1.00  0.00    -0.207 F 
ENDBRANCH  84  87
ENDBRANCH  71  82
ENDBRANCH  66  68
ENDBRANCH  65  66
ENDBRANCH  64  65
ENDBRANCH  63  64
ENDBRANCH   1  63
TORSDOF 16
