REMARK SMILES CC(C)(C)c1cc(Nc2ccccc2C(=O)OCCOCCOC(=O)c2ccc(-c3c4nc(c(-c5c(F)cccc5F)c5ccc([nH]5)c(-c5c(F)cccc5F)c5nc(c(-c6c(F)cccc6F)c6ccc3[nH]6)C=C5)C=C4)cc2)cc2c1OCC2(C)C
REMARK SMILES IDX 19 1 18 2 17 3 15 4 16 5 14 6 9 7 10 8 11 9 13 10 12 11 8 12
REMARK SMILES IDX 7 14 5 15 6 16 82 17 81 18 83 19 80 20 85 21 84 22 86 23
REMARK SMILES IDX 87 24 2 25 1 26 3 27 4 28 20 29 21 30 22 31 23 32 24 33
REMARK SMILES IDX 25 34 26 35 27 36 79 37 28 38 78 39 29 40 30 41 31 42 72 43
REMARK SMILES IDX 32 44 77 45 71 46 73 47 33 48 76 49 70 50 69 51 34 53 60 54
REMARK SMILES IDX 43 55 59 56 44 57 47 58 58 59 74 60 45 61 46 62 57 64 75 65
REMARK SMILES IDX 48 66 35 67 36 68 41 69 37 70 38 71 40 72 42 73 39 74 61 75
REMARK SMILES IDX 62 76 67 77 63 78 64 79 66 80 68 81 65 82 49 83 50 84 55 85
REMARK SMILES IDX 51 86 52 87 54 88 56 89 53 90
REMARK H PARENT 8 13 73 52 47 63
REMARK Flexibility Score: inf
ROOT
ATOM      1  C   UNL     1      -3.274   6.514   4.550  1.00  0.00     0.202 C 
ENDROOT
BRANCH   1   2
ATOM      2  C   UNL     1      -2.268   7.364   3.773  1.00  0.00     0.261 C 
BRANCH   2   3
ATOM      3  O   UNL     1      -0.929   6.876   3.966  1.00  0.00    -0.460 OA
BRANCH   3   4
ATOM      4  C   UNL     1      -0.163   7.663   4.758  1.00  0.00     0.340 C 
ATOM      5  O   UNL     1      -0.445   8.794   5.126  1.00  0.00    -0.246 OA
BRANCH   4   6
ATOM      6  C   UNL     1       1.031   6.947   5.274  1.00  0.00     0.083 A 
ATOM      7  C   UNL     1       1.738   5.927   4.609  1.00  0.00     0.053 A 
ATOM      8  C   UNL     1       2.938   5.488   5.211  1.00  0.00     0.027 A 
ATOM      9  C   UNL     1       3.334   5.906   6.484  1.00  0.00     0.002 A 
ATOM     10  C   UNL     1       1.430   7.354   6.567  1.00  0.00     0.018 A 
ATOM     11  C   UNL     1       2.553   6.812   7.183  1.00  0.00     0.001 A 
BRANCH   7  12
ATOM     12  N   UNL     1       1.243   5.234   3.472  1.00  0.00    -0.355 N 
ATOM     13  H   UNL     1       0.792   5.786   2.793  1.00  0.00     0.167 HD
BRANCH  12  14
ATOM     14  C   UNL     1       1.319   3.844   3.195  1.00  0.00     0.039 A 
ATOM     15  C   UNL     1       1.358   1.974   1.535  1.00  0.00     0.002 A 
ATOM     16  C   UNL     1       1.169   3.349   1.877  1.00  0.00     0.034 A 
ATOM     17  C   UNL     1       1.717   1.136   2.590  1.00  0.00     0.127 A 
ATOM     18  C   UNL     1       1.850   1.600   3.889  1.00  0.00     0.006 A 
ATOM     19  O   UNL     1       1.993  -0.203   2.493  1.00  0.00    -0.492 OA
ATOM     20  C   UNL     1       1.630   2.928   4.202  1.00  0.00     0.034 A 
ATOM     21  C   UNL     1       2.323   0.518   4.798  1.00  0.00     0.028 C 
ATOM     22  C   UNL     1       2.161  -0.679   3.847  1.00  0.00     0.240 C 
ATOM     23  C   UNL     1       3.791   0.752   5.175  1.00  0.00     0.020 C 
ATOM     24  C   UNL     1       1.464   0.367   6.054  1.00  0.00     0.020 C 
BRANCH  15  25
ATOM     25  C   UNL     1       1.064   1.456   0.110  1.00  0.00    -0.009 C 
ATOM     26  C   UNL     1       1.657   0.075  -0.252  1.00  0.00     0.016 C 
ATOM     27  C   UNL     1       1.509   2.438  -0.993  1.00  0.00     0.016 C 
ATOM     28  C   UNL     1      -0.451   1.294   0.019  1.00  0.00     0.016 C 
ENDBRANCH  15  25
ENDBRANCH  12  14
ENDBRANCH   7  12
ENDBRANCH   4   6
ENDBRANCH   3   4
ENDBRANCH   2   3
ENDBRANCH   1   2
BRANCH   1  29
ATOM     29  O   UNL     1      -3.152   6.504   5.970  1.00  0.00    -0.374 OA
BRANCH  29  30
ATOM     30  C   UNL     1      -2.200   5.600   6.534  1.00  0.00     0.202 C 
BRANCH  30  31
ATOM     31  C   UNL     1      -2.590   4.116   6.593  1.00  0.00     0.261 C 
BRANCH  31  32
ATOM     32  O   UNL     1      -2.711   3.524   5.287  1.00  0.00    -0.460 OA
BRANCH  32  33
ATOM     33  C   UNL     1      -3.977   3.305   4.854  1.00  0.00     0.338 C 
ATOM     34  O   UNL     1      -5.019   3.491   5.464  1.00  0.00    -0.246 OA
BRANCH  33  35
ATOM     35  C   UNL     1      -3.925   2.969   3.420  1.00  0.00     0.060 A 
ATOM     36  C   UNL     1      -3.256   1.828   3.003  1.00  0.00     0.016 A 
ATOM     37  C   UNL     1      -4.557   3.801   2.484  1.00  0.00     0.016 A 
ATOM     38  C   UNL     1      -3.222   1.535   1.641  1.00  0.00     0.010 A 
ATOM     39  C   UNL     1      -4.484   3.516   1.113  1.00  0.00     0.010 A 
ATOM     40  C   UNL     1      -3.800   2.380   0.667  1.00  0.00    -0.014 A 
BRANCH  40  41
ATOM     41  C   UNL     1      -3.694   2.026  -0.785  1.00  0.00     0.031 A 
ATOM     42  C   UNL     1      -2.942   2.888  -1.779  1.00  0.00     0.074 A 
ATOM     43  C   UNL     1      -4.186   0.843  -1.204  1.00  0.00     0.049 A 
ATOM     44  N   UNL     1      -2.693   2.661  -3.049  1.00  0.00    -0.248 NA
ATOM     45  C   UNL     1      -2.369   4.148  -1.282  1.00  0.00     0.031 C 
ATOM     46  C   UNL     1      -4.899  -0.115  -0.357  1.00  0.00     0.029 A 
ATOM     47  N   UNL     1      -4.133   0.227  -2.430  1.00  0.00    -0.354 N 
ATOM     48  C   UNL     1      -1.935   3.738  -3.499  1.00  0.00     0.074 A 
ATOM     49  C   UNL     1      -1.783   4.633  -2.370  1.00  0.00     0.031 C 
ATOM     50  C   UNL     1      -5.163  -1.218  -1.069  1.00  0.00     0.029 A 
ATOM     51  C   UNL     1      -4.724  -1.014  -2.445  1.00  0.00     0.049 A 
ATOM     52  H   UNL     1      -3.713   0.634  -3.221  1.00  0.00     0.167 HD
ATOM     53  C   UNL     1      -1.408   3.961  -4.731  1.00  0.00     0.037 A 
ATOM     54  C   UNL     1      -4.930  -1.883  -3.452  1.00  0.00     0.037 A 
ATOM     55  C   UNL     1      -1.562   3.083  -5.868  1.00  0.00     0.049 A 
ATOM     56  C   UNL     1      -4.456  -1.544  -4.835  1.00  0.00     0.074 A 
ATOM     57  C   UNL     1      -1.062   3.237  -7.153  1.00  0.00     0.029 A 
ATOM     58  N   UNL     1      -2.280   1.897  -5.868  1.00  0.00    -0.354 N 
ATOM     59  N   UNL     1      -3.745  -0.522  -5.239  1.00  0.00    -0.248 NA
ATOM     60  C   UNL     1      -4.832  -2.478  -5.906  1.00  0.00     0.031 C 
ATOM     61  C   UNL     1      -1.535   2.184  -7.943  1.00  0.00     0.029 A 
ATOM     62  C   UNL     1      -2.276   1.337  -7.138  1.00  0.00     0.049 A 
ATOM     63  H   UNL     1      -2.728   1.509  -5.081  1.00  0.00     0.167 HD
ATOM     64  C   UNL     1      -3.578  -0.695  -6.608  1.00  0.00     0.074 A 
ATOM     65  C   UNL     1      -4.234  -1.936  -6.957  1.00  0.00     0.031 C 
ATOM     66  C   UNL     1      -2.943   0.111  -7.494  1.00  0.00     0.037 A 
BRANCH  53  67
ATOM     67  C   UNL     1      -0.637   5.236  -4.945  1.00  0.00     0.057 A 
ATOM     68  C   UNL     1      -1.155   6.254  -5.759  1.00  0.00     0.134 A 
ATOM     69  C   UNL     1       0.642   5.433  -4.407  1.00  0.00     0.134 A 
ATOM     70  F   UNL     1      -2.366   6.125  -6.321  1.00  0.00    -0.206 F 
ATOM     71  C   UNL     1      -0.431   7.416  -6.032  1.00  0.00     0.040 A 
ATOM     72  C   UNL     1       1.366   6.604  -4.653  1.00  0.00     0.040 A 
ATOM     73  F   UNL     1       1.199   4.502  -3.619  1.00  0.00    -0.206 F 
ATOM     74  C   UNL     1       0.832   7.596  -5.473  1.00  0.00     0.006 A 
ENDBRANCH  53  67
BRANCH  54  75
ATOM     75  C   UNL     1      -5.686  -3.138  -3.202  1.00  0.00     0.057 A 
ATOM     76  C   UNL     1      -7.040  -3.104  -2.842  1.00  0.00     0.134 A 
ATOM     77  C   UNL     1      -5.088  -4.394  -3.347  1.00  0.00     0.134 A 
ATOM     78  F   UNL     1      -7.672  -1.931  -2.689  1.00  0.00    -0.206 F 
ATOM     79  C   UNL     1      -7.767  -4.272  -2.618  1.00  0.00     0.040 A 
ATOM     80  C   UNL     1      -5.814  -5.572  -3.162  1.00  0.00     0.040 A 
ATOM     81  F   UNL     1      -3.803  -4.493  -3.716  1.00  0.00    -0.206 F 
ATOM     82  C   UNL     1      -7.156  -5.511  -2.789  1.00  0.00     0.006 A 
ENDBRANCH  54  75
BRANCH  66  83
ATOM     83  C   UNL     1      -2.919  -0.339  -8.928  1.00  0.00     0.057 A 
ATOM     84  C   UNL     1      -1.730  -0.774  -9.526  1.00  0.00     0.134 A 
ATOM     85  C   UNL     1      -4.077  -0.351  -9.718  1.00  0.00     0.134 A 
ATOM     86  F   UNL     1      -0.582  -0.784  -8.832  1.00  0.00    -0.206 F 
ATOM     87  C   UNL     1      -1.693  -1.207 -10.853  1.00  0.00     0.040 A 
ATOM     88  C   UNL     1      -4.060  -0.811 -11.037  1.00  0.00     0.040 A 
ATOM     89  F   UNL     1      -5.255   0.036  -9.204  1.00  0.00    -0.206 F 
ATOM     90  C   UNL     1      -2.863  -1.237 -11.609  1.00  0.00     0.006 A 
ENDBRANCH  66  83
ENDBRANCH  40  41
ENDBRANCH  33  35
ENDBRANCH  32  33
ENDBRANCH  31  32
ENDBRANCH  30  31
ENDBRANCH  29  30
ENDBRANCH   1  29
TORSDOF 17
