REMARK SMILES O=C(OCCOCCOC(=O)[C@@]1(CCc2ccccc2)CCC[N@@H+](Cc2cccnc2)C1)c1ccc(-c2c3nc(c(-c4c(F)cccc4F)c4ccc([nH]4)c(-c4c(F)cccc4F)c4nc(c(-c5c(F)cccc5F)c5ccc2[nH]5)C=C4)C=C3)cc1
REMARK SMILES IDX 7 1 6 2 5 3 4 4 3 5 2 6 1 7 33 8 34 9 86 10 35 11 85 12
REMARK SMILES IDX 36 13 37 14 38 15 79 16 39 17 84 18 78 19 80 20 40 21 83 22
REMARK SMILES IDX 77 23 76 24 41 26 67 27 50 28 66 29 51 30 54 31 65 32 81 33
REMARK SMILES IDX 52 34 53 35 64 37 82 38 55 39 42 40 43 41 48 42 44 43 45 44
REMARK SMILES IDX 47 45 49 46 46 47 68 48 69 49 74 50 70 51 71 52 73 53 75 54
REMARK SMILES IDX 72 55 56 56 57 57 62 58 58 59 59 60 61 61 63 62 60 63 8 64
REMARK SMILES IDX 9 65 10 66 11 67 12 68 21 69 32 70 22 71 24 72 23 73 13 75
REMARK SMILES IDX 14 76 15 77 16 78 20 79 17 80 19 81 18 82 25 83 26 84 27 85
REMARK SMILES IDX 31 86 28 87 30 88 29 89
REMARK H PARENT 80 25 54 36 24 74
REMARK Flexibility Score: inf
ROOT
ATOM      1  C   UNL     1       7.252  -5.567   3.822  1.00  0.00     0.202 C 
ENDROOT
BRANCH   1   2
ATOM      2  O   UNL     1       7.194  -5.005   2.508  1.00  0.00    -0.374 OA
BRANCH   2   3
ATOM      3  C   UNL     1       6.100  -5.474   1.717  1.00  0.00     0.202 C 
BRANCH   3   4
ATOM      4  C   UNL     1       6.503  -6.568   0.730  1.00  0.00     0.261 C 
BRANCH   4   5
ATOM      5  O   UNL     1       7.294  -7.572   1.372  1.00  0.00    -0.460 OA
BRANCH   5   6
ATOM      6  C   UNL     1       8.630  -7.522   1.591  1.00  0.00     0.338 C 
ATOM      7  O   UNL     1       9.124  -8.336   2.370  1.00  0.00    -0.246 OA
BRANCH   6   8
ATOM      8  C   UNL     1       9.562  -6.593   0.875  1.00  0.00     0.060 A 
ATOM      9  C   UNL     1       9.294  -5.269   0.506  1.00  0.00     0.016 A 
ATOM     10  C   UNL     1      10.858  -7.086   0.645  1.00  0.00     0.016 A 
ATOM     11  C   UNL     1      10.264  -4.465  -0.082  1.00  0.00     0.010 A 
ATOM     12  C   UNL     1      11.844  -6.282   0.071  1.00  0.00     0.010 A 
ATOM     13  C   UNL     1      11.543  -4.968  -0.295  1.00  0.00    -0.014 A 
BRANCH  13  14
ATOM     14  C   UNL     1      12.523  -4.128  -1.000  1.00  0.00     0.031 A 
ATOM     15  C   UNL     1      12.724  -4.355  -2.462  1.00  0.00     0.074 A 
ATOM     16  C   UNL     1      13.148  -3.135  -0.344  1.00  0.00     0.049 A 
ATOM     17  N   UNL     1      13.593  -3.816  -3.272  1.00  0.00    -0.248 NA
ATOM     18  C   UNL     1      11.812  -5.319  -3.102  1.00  0.00     0.031 C 
ATOM     19  C   UNL     1      12.918  -2.770   1.055  1.00  0.00     0.029 A 
ATOM     20  N   UNL     1      14.094  -2.244  -0.773  1.00  0.00    -0.354 N 
ATOM     21  C   UNL     1      13.350  -4.391  -4.511  1.00  0.00     0.074 A 
ATOM     22  C   UNL     1      12.253  -5.319  -4.350  1.00  0.00     0.031 C 
ATOM     23  C   UNL     1      13.704  -1.727   1.369  1.00  0.00     0.029 A 
ATOM     24  C   UNL     1      14.530  -1.393   0.212  1.00  0.00     0.049 A 
ATOM     25  H   UNL     1      14.430  -2.217  -1.698  1.00  0.00     0.167 HD
ATOM     26  C   UNL     1      14.001  -4.166  -5.675  1.00  0.00     0.037 A 
ATOM     27  C   UNL     1      15.514  -0.476   0.179  1.00  0.00     0.037 A 
ATOM     28  C   UNL     1      15.099  -3.248  -5.799  1.00  0.00     0.049 A 
ATOM     29  C   UNL     1      16.287  -0.312  -1.102  1.00  0.00     0.074 A 
ATOM     30  C   UNL     1      15.892  -2.985  -6.899  1.00  0.00     0.029 A 
ATOM     31  N   UNL     1      15.554  -2.436  -4.768  1.00  0.00    -0.354 N 
ATOM     32  N   UNL     1      16.108  -0.911  -2.257  1.00  0.00    -0.248 NA
ATOM     33  C   UNL     1      17.408   0.635  -1.083  1.00  0.00     0.031 C 
ATOM     34  C   UNL     1      16.849  -2.035  -6.523  1.00  0.00     0.029 A 
ATOM     35  C   UNL     1      16.625  -1.677  -5.201  1.00  0.00     0.049 A 
ATOM     36  H   UNL     1      15.170  -2.405  -3.862  1.00  0.00     0.167 HD
ATOM     37  C   UNL     1      17.083  -0.406  -3.105  1.00  0.00     0.074 A 
ATOM     38  C   UNL     1      17.839   0.563  -2.335  1.00  0.00     0.031 C 
ATOM     39  C   UNL     1      17.341  -0.716  -4.400  1.00  0.00     0.037 A 
BRANCH  26  40
ATOM     40  C   UNL     1      13.574  -4.983  -6.855  1.00  0.00     0.057 A 
ATOM     41  C   UNL     1      12.368  -4.745  -7.527  1.00  0.00     0.134 A 
ATOM     42  C   UNL     1      14.357  -6.059  -7.292  1.00  0.00     0.134 A 
ATOM     43  F   UNL     1      11.557  -3.751  -7.136  1.00  0.00    -0.206 F 
ATOM     44  C   UNL     1      11.944  -5.565  -8.575  1.00  0.00     0.040 A 
ATOM     45  C   UNL     1      13.954  -6.872  -8.352  1.00  0.00     0.040 A 
ATOM     46  F   UNL     1      15.518  -6.347  -6.684  1.00  0.00    -0.206 F 
ATOM     47  C   UNL     1      12.739  -6.632  -8.991  1.00  0.00     0.006 A 
ENDBRANCH  26  40
BRANCH  27  48
ATOM     48  C   UNL     1      15.850   0.314   1.391  1.00  0.00     0.057 A 
ATOM     49  C   UNL     1      15.636   1.695   1.441  1.00  0.00     0.134 A 
ATOM     50  C   UNL     1      16.405  -0.291   2.526  1.00  0.00     0.134 A 
ATOM     51  F   UNL     1      15.127   2.338   0.380  1.00  0.00    -0.206 F 
ATOM     52  C   UNL     1      15.971   2.449   2.569  1.00  0.00     0.040 A 
ATOM     53  C   UNL     1      16.722   0.445   3.670  1.00  0.00     0.040 A 
ATOM     54  F   UNL     1      16.639  -1.612   2.545  1.00  0.00    -0.206 F 
ATOM     55  C   UNL     1      16.511   1.821   3.690  1.00  0.00     0.006 A 
ENDBRANCH  27  48
BRANCH  39  56
ATOM     56  C   UNL     1      18.463   0.023  -5.059  1.00  0.00     0.057 A 
ATOM     57  C   UNL     1      19.802  -0.289  -4.796  1.00  0.00     0.134 A 
ATOM     58  C   UNL     1      18.197   1.020  -6.005  1.00  0.00     0.134 A 
ATOM     59  F   UNL     1      20.117  -1.226  -3.890  1.00  0.00    -0.206 F 
ATOM     60  C   UNL     1      20.842   0.379  -5.442  1.00  0.00     0.040 A 
ATOM     61  C   UNL     1      19.228   1.679  -6.673  1.00  0.00     0.040 A 
ATOM     62  F   UNL     1      16.933   1.356  -6.303  1.00  0.00    -0.206 F 
ATOM     63  C   UNL     1      20.555   1.361  -6.390  1.00  0.00     0.006 A 
ENDBRANCH  39  56
ENDBRANCH  13  14
ENDBRANCH   6   8
ENDBRANCH   5   6
ENDBRANCH   4   5
ENDBRANCH   3   4
ENDBRANCH   2   3
ENDBRANCH   1   2
BRANCH   1  64
ATOM     64  C   UNL     1       6.832  -4.521   4.846  1.00  0.00     0.261 C 
BRANCH  64  65
ATOM     65  O   UNL     1       5.629  -3.875   4.394  1.00  0.00    -0.463 OA
BRANCH  65  66
ATOM     66  C   UNL     1       5.802  -2.629   3.866  1.00  0.00     0.317 C 
ATOM     67  O   UNL     1       6.880  -2.049   3.838  1.00  0.00    -0.251 OA
BRANCH  66  68
ATOM     68  C   UNL     1       4.484  -2.005   3.368  1.00  0.00     0.117 C 
ATOM     69  C   UNL     1       3.282  -2.728   4.043  1.00  0.00     0.030 C 
ATOM     70  C   UNL     1       4.548  -0.574   3.913  1.00  0.00     0.281 C 
ATOM     71  C   UNL     1       1.997  -1.900   4.014  1.00  0.00     0.063 C 
ATOM     72  N   UNL     1       3.294   0.185   3.820  1.00  0.00    -0.330 N 
ATOM     73  C   UNL     1       2.225  -0.490   4.561  1.00  0.00     0.262 C 
ATOM     74  H   UNL     1       2.996   0.219   2.845  1.00  0.00     0.348 HD
BRANCH  68  75
ATOM     75  C   UNL     1       4.346  -2.096   1.818  1.00  0.00     0.029 C 
BRANCH  75  76
ATOM     76  C   UNL     1       4.763  -0.925   0.905  1.00  0.00     0.037 C 
BRANCH  76  77
ATOM     77  C   UNL     1       6.209  -0.519   0.751  1.00  0.00    -0.048 A 
ATOM     78  C   UNL     1       7.293  -1.355   1.030  1.00  0.00     0.004 A 
ATOM     79  C   UNL     1       6.484   0.762   0.238  1.00  0.00     0.004 A 
ATOM     80  C   UNL     1       8.607  -0.891   0.910  1.00  0.00     0.000 A 
ATOM     81  C   UNL     1       7.796   1.214   0.081  1.00  0.00     0.000 A 
ATOM     82  C   UNL     1       8.860   0.393   0.438  1.00  0.00     0.000 A 
ENDBRANCH  76  77
ENDBRANCH  75  76
ENDBRANCH  68  75
BRANCH  72  83
ATOM     83  C   UNL     1       3.498   1.591   4.243  1.00  0.00     0.300 C 
BRANCH  83  84
ATOM     84  C   UNL     1       4.186   1.788   5.576  1.00  0.00     0.025 A 
ATOM     85  C   UNL     1       5.583   1.744   5.693  1.00  0.00     0.013 A 
ATOM     86  C   UNL     1       3.458   1.913   6.753  1.00  0.00     0.120 A 
ATOM     87  C   UNL     1       6.178   1.743   6.950  1.00  0.00     0.021 A 
ATOM     88  N   UNL     1       4.009   1.945   7.988  1.00  0.00    -0.264 NA
ATOM     89  C   UNL     1       5.355   1.841   8.057  1.00  0.00     0.111 A 
ENDBRANCH  83  84
ENDBRANCH  72  83
ENDBRANCH  66  68
ENDBRANCH  65  66
ENDBRANCH  64  65
ENDBRANCH   1  64
TORSDOF 19
