REMARK SMILES Cc1nn(C(C)C)c(C)c1S(=O)(=O)Nc1cccc(C(=O)OCCOCCOC(=O)c2ccc(-c3c4nc(c(-c5c(F)cccc5F)c5ccc([nH]5)c(-c5c(F)cccc5F)c5nc(c(-c6c(F)cccc6F)c6ccc3[nH]6)C=C5)C=C4)cc2)c1C
REMARK SMILES IDX 24 1 23 2 22 3 20 4 21 5 19 6 15 7 16 8 85 9 17 10 86 11
REMARK SMILES IDX 18 12 14 13 11 15 12 16 13 17 10 18 1 19 2 20 3 21 4 22 8 23
REMARK SMILES IDX 9 24 5 25 6 26 7 27 25 28 26 29 27 30 28 31 29 32 30 33
REMARK SMILES IDX 31 34 32 35 84 36 33 37 83 38 34 39 35 40 36 41 77 42 37 43
REMARK SMILES IDX 82 44 76 45 78 46 38 47 81 48 75 49 74 50 39 52 65 53 48 54
REMARK SMILES IDX 64 55 49 56 52 57 63 58 79 59 50 60 51 61 62 63 80 64 53 65
REMARK SMILES IDX 40 66 41 67 46 68 42 69 43 70 45 71 47 72 44 73 66 74 67 75
REMARK SMILES IDX 72 76 68 77 69 78 71 79 73 80 70 81 54 82 55 83 60 84 56 85
REMARK SMILES IDX 57 86 59 87 61 88 58 89
REMARK H PARENT 14 14 78 51 52 62
REMARK Flexibility Score: inf
ROOT
ATOM      1  C   UNL     1       1.523  -5.288  -1.622  1.00  0.00     0.202 C 
ENDROOT
BRANCH   1   2
ATOM      2  C   UNL     1       1.038  -5.129  -0.202  1.00  0.00     0.261 C 
BRANCH   2   3
ATOM      3  O   UNL     1       0.823  -3.750   0.138  1.00  0.00    -0.460 OA
BRANCH   3   4
ATOM      4  C   UNL     1       1.902  -2.932  -0.001  1.00  0.00     0.338 C 
ATOM      5  O   UNL     1       2.934  -3.016   0.622  1.00  0.00    -0.246 OA
BRANCH   4   6
ATOM      6  C   UNL     1       1.585  -1.859  -0.971  1.00  0.00     0.065 A 
ATOM      7  C   UNL     1       2.033   0.340  -1.747  1.00  0.00     0.053 A 
ATOM      8  C   UNL     1       0.758   0.431  -2.309  1.00  0.00     0.027 A 
ATOM      9  C   UNL     1       2.534  -0.868  -1.250  1.00  0.00    -0.012 A 
ATOM     10  C   UNL     1      -0.119  -0.638  -2.196  1.00  0.00     0.003 A 
ATOM     11  C   UNL     1       4.002  -0.981  -0.907  1.00  0.00     0.047 C 
ATOM     12  C   UNL     1       0.275  -1.757  -1.478  1.00  0.00     0.016 A 
BRANCH   7  13
ATOM     13  N   UNL     1       2.883   1.461  -1.596  1.00  0.00    -0.279 N 
ATOM     14  H   UNL     1       3.836   1.382  -1.831  1.00  0.00     0.180 HD
BRANCH  13  15
ATOM     15  S   UNL     1       2.292   2.916  -1.027  1.00  0.00     0.265 S 
ATOM     16  O   UNL     1       1.618   3.525  -2.159  1.00  0.00    -0.201 OA
ATOM     17  O   UNL     1       3.417   3.589  -0.411  1.00  0.00    -0.201 OA
BRANCH  15  18
ATOM     18  C   UNL     1       1.081   2.929   0.205  1.00  0.00     0.131 A 
ATOM     19  C   UNL     1       0.846   0.507   1.304  1.00  0.00     0.070 C 
ATOM     20  C   UNL     1       0.528   1.927   1.045  1.00  0.00     0.080 A 
ATOM     21  N   UNL     1      -0.492   2.415   1.767  1.00  0.00    -0.176 NA
ATOM     22  N   UNL     1      -0.478   3.734   1.542  1.00  0.00    -0.266 N 
ATOM     23  C   UNL     1       0.465   4.106   0.625  1.00  0.00     0.056 A 
ATOM     24  C   UNL     1       0.736   5.520   0.260  1.00  0.00     0.068 C 
BRANCH  22  25
ATOM     25  C   UNL     1      -1.375   4.590   2.314  1.00  0.00     0.101 C 
ATOM     26  C   UNL     1      -2.828   4.414   1.877  1.00  0.00     0.033 C 
ATOM     27  C   UNL     1      -1.208   4.353   3.816  1.00  0.00     0.033 C 
ENDBRANCH  22  25
ENDBRANCH  15  18
ENDBRANCH  13  15
ENDBRANCH   7  13
ENDBRANCH   4   6
ENDBRANCH   3   4
ENDBRANCH   2   3
ENDBRANCH   1   2
BRANCH   1  28
ATOM     28  O   UNL     1       2.841  -4.759  -1.678  1.00  0.00    -0.374 OA
BRANCH  28  29
ATOM     29  C   UNL     1       3.428  -4.675  -2.963  1.00  0.00     0.202 C 
BRANCH  29  30
ATOM     30  C   UNL     1       3.538  -6.042  -3.650  1.00  0.00     0.261 C 
BRANCH  30  31
ATOM     31  O   UNL     1       4.447  -6.895  -2.917  1.00  0.00    -0.460 OA
BRANCH  31  32
ATOM     32  C   UNL     1       3.876  -7.768  -2.039  1.00  0.00     0.338 C 
ATOM     33  O   UNL     1       2.996  -8.568  -2.314  1.00  0.00    -0.246 OA
BRANCH  32  34
ATOM     34  C   UNL     1       4.263  -7.411  -0.642  1.00  0.00     0.060 A 
ATOM     35  C   UNL     1       3.605  -8.008   0.451  1.00  0.00     0.016 A 
ATOM     36  C   UNL     1       4.997  -6.246  -0.454  1.00  0.00     0.016 A 
ATOM     37  C   UNL     1       3.536  -7.338   1.683  1.00  0.00     0.010 A 
ATOM     38  C   UNL     1       4.788  -5.525   0.698  1.00  0.00     0.010 A 
ATOM     39  C   UNL     1       4.040  -6.046   1.768  1.00  0.00    -0.014 A 
BRANCH  39  40
ATOM     40  C   UNL     1       3.886  -5.109   2.885  1.00  0.00     0.031 A 
ATOM     41  C   UNL     1       5.137  -4.655   3.540  1.00  0.00     0.074 A 
ATOM     42  C   UNL     1       2.729  -4.426   3.086  1.00  0.00     0.049 A 
ATOM     43  N   UNL     1       5.169  -3.850   4.539  1.00  0.00    -0.248 NA
ATOM     44  C   UNL     1       6.481  -5.091   3.143  1.00  0.00     0.031 C 
ATOM     45  C   UNL     1       2.559  -3.091   3.676  1.00  0.00     0.029 A 
ATOM     46  N   UNL     1       1.410  -4.769   2.758  1.00  0.00    -0.354 N 
ATOM     47  C   UNL     1       6.453  -3.379   4.651  1.00  0.00     0.074 A 
ATOM     48  C   UNL     1       7.254  -4.285   3.876  1.00  0.00     0.031 C 
ATOM     49  C   UNL     1       1.260  -2.876   3.952  1.00  0.00     0.029 A 
ATOM     50  C   UNL     1       0.566  -4.121   3.682  1.00  0.00     0.049 A 
ATOM     51  H   UNL     1       1.126  -5.353   2.018  1.00  0.00     0.167 HD
ATOM     52  C   UNL     1       6.636  -2.189   5.282  1.00  0.00     0.037 A 
ATOM     53  C   UNL     1      -0.190  -4.844   4.554  1.00  0.00     0.037 A 
ATOM     54  C   UNL     1       5.395  -1.779   5.953  1.00  0.00     0.049 A 
ATOM     55  C   UNL     1       0.282  -4.558   5.951  1.00  0.00     0.074 A 
ATOM     56  C   UNL     1       4.456  -0.791   5.717  1.00  0.00     0.029 A 
ATOM     57  N   UNL     1       4.808  -2.666   6.859  1.00  0.00    -0.354 N 
ATOM     58  N   UNL     1       1.493  -4.141   6.209  1.00  0.00    -0.248 NA
ATOM     59  C   UNL     1      -0.567  -4.584   7.135  1.00  0.00     0.031 C 
ATOM     60  C   UNL     1       3.260  -1.161   6.406  1.00  0.00     0.029 A 
ATOM     61  C   UNL     1       3.487  -2.345   7.097  1.00  0.00     0.049 A 
ATOM     62  H   UNL     1       5.277  -3.425   7.275  1.00  0.00     0.167 HD
ATOM     63  C   UNL     1       1.571  -3.746   7.507  1.00  0.00     0.074 A 
ATOM     64  C   UNL     1       0.272  -4.087   8.063  1.00  0.00     0.031 C 
ATOM     65  C   UNL     1       2.680  -3.142   8.021  1.00  0.00     0.037 A 
BRANCH  52  66
ATOM     66  C   UNL     1       7.870  -1.320   5.181  1.00  0.00     0.057 A 
ATOM     67  C   UNL     1       7.990  -0.177   5.994  1.00  0.00     0.134 A 
ATOM     68  C   UNL     1       8.925  -1.484   4.258  1.00  0.00     0.134 A 
ATOM     69  F   UNL     1       7.053   0.136   6.899  1.00  0.00    -0.206 F 
ATOM     70  C   UNL     1       9.073   0.713   5.908  1.00  0.00     0.040 A 
ATOM     71  C   UNL     1      10.037  -0.631   4.198  1.00  0.00     0.040 A 
ATOM     72  F   UNL     1       8.918  -2.437   3.320  1.00  0.00    -0.206 F 
ATOM     73  C   UNL     1      10.112   0.479   5.021  1.00  0.00     0.006 A 
ENDBRANCH  52  66
BRANCH  53  74
ATOM     74  C   UNL     1      -0.640  -6.129   3.939  1.00  0.00     0.057 A 
ATOM     75  C   UNL     1      -1.587  -6.032   2.897  1.00  0.00     0.134 A 
ATOM     76  C   UNL     1       0.187  -7.258   3.929  1.00  0.00     0.134 A 
ATOM     77  F   UNL     1      -2.415  -4.975   2.836  1.00  0.00    -0.206 F 
ATOM     78  C   UNL     1      -1.596  -6.918   1.812  1.00  0.00     0.040 A 
ATOM     79  C   UNL     1       0.185  -8.150   2.844  1.00  0.00     0.040 A 
ATOM     80  F   UNL     1       1.122  -7.427   4.874  1.00  0.00    -0.206 F 
ATOM     81  C   UNL     1      -0.668  -7.951   1.759  1.00  0.00     0.006 A 
ENDBRANCH  53  74
BRANCH  65  82
ATOM     82  C   UNL     1       3.054  -3.206   9.478  1.00  0.00     0.057 A 
ATOM     83  C   UNL     1       2.557  -4.177  10.364  1.00  0.00     0.134 A 
ATOM     84  C   UNL     1       4.086  -2.397   9.998  1.00  0.00     0.134 A 
ATOM     85  F   UNL     1       1.681  -5.113   9.975  1.00  0.00    -0.206 F 
ATOM     86  C   UNL     1       2.987  -4.275  11.689  1.00  0.00     0.040 A 
ATOM     87  C   UNL     1       4.576  -2.537  11.297  1.00  0.00     0.040 A 
ATOM     88  F   UNL     1       4.699  -1.460   9.260  1.00  0.00    -0.206 F 
ATOM     89  C   UNL     1       4.008  -3.462  12.157  1.00  0.00     0.006 A 
ENDBRANCH  65  82
ENDBRANCH  39  40
ENDBRANCH  32  34
ENDBRANCH  31  32
ENDBRANCH  30  31
ENDBRANCH  29  30
ENDBRANCH  28  29
ENDBRANCH   1  28
TORSDOF 18
