REMARK SMILES CC(=O)NCC(=O)N[C@H]1CCCCC[C@@H]1C(=O)OCCOCCOC(=O)c1ccc(-c2c3nc(c(-c4c(F)cccc4F)c4ccc([nH]4)c(-c4c(F)cccc4F)c4nc(c(-c5c(F)cccc5F)c5ccc2[nH]5)C=C4)C=C3)cc1
REMARK SMILES IDX 20 1 19 2 18 3 16 4 17 5 15 6 9 7 8 8 6 9 7 10 5 12 4 13
REMARK SMILES IDX 1 14 2 15 3 16 10 18 11 19 14 21 13 22 12 23 21 25 22 26
REMARK SMILES IDX 23 27 24 28 25 29 26 30 27 31 28 32 80 33 29 34 79 35 30 36
REMARK SMILES IDX 31 37 32 38 73 39 33 40 78 41 72 42 74 43 34 44 77 45 71 46
REMARK SMILES IDX 70 47 35 49 61 50 44 51 60 52 45 53 48 54 59 55 75 56 46 57
REMARK SMILES IDX 47 58 58 60 76 61 49 62 36 63 37 64 42 65 38 66 39 67 41 68
REMARK SMILES IDX 43 69 40 70 62 71 63 72 68 73 64 74 65 75 67 76 69 77 66 78
REMARK SMILES IDX 50 79 51 80 56 81 52 82 53 83 55 84 57 85 54 86
REMARK H PARENT 8 11 4 17 74 48 48 59
REMARK Flexibility Score: 100.00
ROOT
ATOM      1  C   UNL     1       8.819   2.626  -2.607  1.00  0.00     0.202 C 
ENDROOT
BRANCH   1   2
ATOM      2  C   UNL     1       7.676   3.578  -2.237  1.00  0.00     0.261 C 
BRANCH   2   3
ATOM      3  O   UNL     1       6.707   2.843  -1.468  1.00  0.00    -0.463 OA
BRANCH   3   4
ATOM      4  C   UNL     1       5.496   2.611  -2.032  1.00  0.00     0.311 C 
ATOM      5  O   UNL     1       5.034   3.236  -2.978  1.00  0.00    -0.252 OA
BRANCH   4   6
ATOM      6  C   UNL     1       4.803   1.387  -1.413  1.00  0.00     0.121 C 
BRANCH   6   7
ATOM      7  C   UNL     1       3.348   1.797  -1.080  1.00  0.00     0.096 C 
BRANCH   7   8
ATOM      8  N   UNL     1       2.513   1.663  -2.305  1.00  0.00    -0.351 N 
ATOM      9  C   UNL     1       1.675   0.750  -2.861  1.00  0.00     0.239 C 
ATOM     10  O   UNL     1       1.617   0.724  -4.096  1.00  0.00    -0.273 OA
ATOM     11  H   UNL     1       2.590   2.463  -2.874  1.00  0.00     0.163 HD
BRANCH   9  12
ATOM     12  C   UNL     1       0.842  -0.234  -2.052  1.00  0.00     0.216 C 
BRANCH  12  13
ATOM     13  N   UNL     1       1.347  -1.592  -2.206  1.00  0.00    -0.347 N 
ATOM     14  C   UNL     1       0.390  -2.527  -0.113  1.00  0.00     0.114 C 
ATOM     15  C   UNL     1       1.205  -2.660  -1.373  1.00  0.00     0.217 C 
ATOM     16  O   UNL     1       1.775  -3.715  -1.647  1.00  0.00    -0.275 OA
ATOM     17  H   UNL     1       1.863  -1.761  -3.027  1.00  0.00     0.164 HD
ENDBRANCH  12  13
ENDBRANCH   9  12
ENDBRANCH   7   8
BRANCH   7  18
ATOM     18  C   UNL     1       2.768   1.311   0.252  1.00  0.00     0.026 C 
BRANCH  18  19
ATOM     19  C   UNL     1       2.841  -0.181   0.549  1.00  0.00     0.002 CG0
ATOM     20  G   UNL     1       4.150  -0.715   1.094  1.00  0.00     0.000 G0
ENDBRANCH  18  19
ENDBRANCH   7  18
ENDBRANCH   6   7
BRANCH   6  21
ATOM     21  C   UNL     1       5.652   0.762  -0.289  1.00  0.00     0.017 C 
BRANCH  21  22
ATOM     22  C   UNL     1       5.263  -0.665   0.066  1.00  0.00     0.001 C 
BRANCH  22  23
ATOM     23  C   UNL     1       4.150  -0.715   1.094  1.00  0.00     0.000 CG0
ATOM     24  G   UNL     1       2.841  -0.181   0.549  1.00  0.00     0.000 G0
ENDBRANCH  22  23
ENDBRANCH  21  22
ENDBRANCH   6  21
ENDBRANCH   4   6
ENDBRANCH   3   4
ENDBRANCH   2   3
ENDBRANCH   1   2
BRANCH   1  25
ATOM     25  O   UNL     1       8.594   1.842  -3.781  1.00  0.00    -0.374 OA
BRANCH  25  26
ATOM     26  C   UNL     1       7.773   0.682  -3.650  1.00  0.00     0.202 C 
BRANCH  26  27
ATOM     27  C   UNL     1       8.485  -0.586  -3.169  1.00  0.00     0.261 C 
BRANCH  27  28
ATOM     28  O   UNL     1       8.926  -0.461  -1.804  1.00  0.00    -0.460 OA
BRANCH  28  29
ATOM     29  C   UNL     1      10.259  -0.291  -1.657  1.00  0.00     0.338 C 
ATOM     30  O   UNL     1      11.112  -0.322  -2.536  1.00  0.00    -0.246 OA
BRANCH  29  31
ATOM     31  C   UNL     1      10.574   0.120  -0.278  1.00  0.00     0.060 A 
ATOM     32  C   UNL     1      11.394   1.244  -0.120  1.00  0.00     0.016 A 
ATOM     33  C   UNL     1      10.160  -0.618   0.834  1.00  0.00     0.016 A 
ATOM     34  C   UNL     1      11.861   1.596   1.142  1.00  0.00     0.010 A 
ATOM     35  C   UNL     1      10.637  -0.268   2.103  1.00  0.00     0.010 A 
ATOM     36  C   UNL     1      11.526   0.813   2.255  1.00  0.00    -0.014 A 
BRANCH  36  37
ATOM     37  C   UNL     1      12.267   1.020   3.523  1.00  0.00     0.031 A 
ATOM     38  C   UNL     1      13.441   0.128   3.828  1.00  0.00     0.074 A 
ATOM     39  C   UNL     1      11.957   2.032   4.353  1.00  0.00     0.049 A 
ATOM     40  N   UNL     1      14.245   0.135   4.861  1.00  0.00    -0.248 NA
ATOM     41  C   UNL     1      13.753  -0.909   2.830  1.00  0.00     0.031 C 
ATOM     42  C   UNL     1      10.882   2.999   4.144  1.00  0.00     0.029 A 
ATOM     43  N   UNL     1      12.530   2.415   5.540  1.00  0.00    -0.354 N 
ATOM     44  C   UNL     1      15.158  -0.887   4.634  1.00  0.00     0.074 A 
ATOM     45  C   UNL     1      14.788  -1.520   3.387  1.00  0.00     0.031 C 
ATOM     46  C   UNL     1      10.872   3.867   5.171  1.00  0.00     0.029 A 
ATOM     47  C   UNL     1      11.922   3.501   6.120  1.00  0.00     0.049 A 
ATOM     48  H   UNL     1      13.304   1.954   5.938  1.00  0.00     0.167 HD
ATOM     49  C   UNL     1      16.220  -1.258   5.388  1.00  0.00     0.037 A 
ATOM     50  C   UNL     1      12.180   4.119   7.289  1.00  0.00     0.037 A 
ATOM     51  C   UNL     1      16.592  -0.635   6.629  1.00  0.00     0.049 A 
ATOM     52  C   UNL     1      13.313   3.630   8.153  1.00  0.00     0.074 A 
ATOM     53  C   UNL     1      17.644  -0.949   7.472  1.00  0.00     0.029 A 
ATOM     54  N   UNL     1      15.921   0.432   7.206  1.00  0.00    -0.354 N 
ATOM     55  N   UNL     1      14.172   2.666   7.926  1.00  0.00    -0.248 NA
ATOM     56  C   UNL     1      13.514   4.320   9.436  1.00  0.00     0.031 C 
ATOM     57  C   UNL     1      17.587  -0.095   8.579  1.00  0.00     0.029 A 
ATOM     58  C   UNL     1      16.526   0.778   8.402  1.00  0.00     0.049 A 
ATOM     59  H   UNL     1      15.130   0.877   6.823  1.00  0.00     0.167 HD
ATOM     60  C   UNL     1      15.034   2.659   9.016  1.00  0.00     0.074 A 
ATOM     61  C   UNL     1      14.599   3.718   9.902  1.00  0.00     0.031 C 
ATOM     62  C   UNL     1      16.093   1.849   9.262  1.00  0.00     0.037 A 
BRANCH  49  63
ATOM     63  C   UNL     1      17.048  -2.406   4.892  1.00  0.00     0.057 A 
ATOM     64  C   UNL     1      17.913  -2.272   3.798  1.00  0.00     0.134 A 
ATOM     65  C   UNL     1      17.004  -3.650   5.534  1.00  0.00     0.134 A 
ATOM     66  F   UNL     1      17.989  -1.111   3.130  1.00  0.00    -0.206 F 
ATOM     67  C   UNL     1      18.690  -3.341   3.348  1.00  0.00     0.040 A 
ATOM     68  C   UNL     1      17.794  -4.719   5.108  1.00  0.00     0.040 A 
ATOM     69  F   UNL     1      16.198  -3.843   6.590  1.00  0.00    -0.206 F 
ATOM     70  C   UNL     1      18.637  -4.567   4.009  1.00  0.00     0.006 A 
ENDBRANCH  49  63
BRANCH  50  71
ATOM     71  C   UNL     1      11.347   5.267   7.728  1.00  0.00     0.057 A 
ATOM     72  C   UNL     1      11.877   6.561   7.804  1.00  0.00     0.134 A 
ATOM     73  C   UNL     1      10.017   5.091   8.126  1.00  0.00     0.134 A 
ATOM     74  F   UNL     1      13.153   6.788   7.461  1.00  0.00    -0.206 F 
ATOM     75  C   UNL     1      11.121   7.633   8.281  1.00  0.00     0.040 A 
ATOM     76  C   UNL     1       9.242   6.158   8.582  1.00  0.00     0.040 A 
ATOM     77  F   UNL     1       9.451   3.876   8.079  1.00  0.00    -0.206 F 
ATOM     78  C   UNL     1       9.798   7.433   8.669  1.00  0.00     0.006 A 
ENDBRANCH  50  71
BRANCH  62  79
ATOM     79  C   UNL     1      16.885   2.107  10.511  1.00  0.00     0.057 A 
ATOM     80  C   UNL     1      16.395   1.780  11.781  1.00  0.00     0.134 A 
ATOM     81  C   UNL     1      18.174   2.652  10.434  1.00  0.00     0.134 A 
ATOM     82  F   UNL     1      15.164   1.267  11.923  1.00  0.00    -0.206 F 
ATOM     83  C   UNL     1      17.150   2.007  12.933  1.00  0.00     0.040 A 
ATOM     84  C   UNL     1      18.947   2.860  11.576  1.00  0.00     0.040 A 
ATOM     85  F   UNL     1      18.706   2.978   9.246  1.00  0.00    -0.206 F 
ATOM     86  C   UNL     1      18.433   2.542  12.832  1.00  0.00     0.006 A 
ENDBRANCH  62  79
ENDBRANCH  36  37
ENDBRANCH  29  31
ENDBRANCH  28  29
ENDBRANCH  27  28
ENDBRANCH  26  27
ENDBRANCH  25  26
ENDBRANCH   1  25
TORSDOF 17
