REMARK SMILES NC(=O)[C@H]1CC(C(=O)OCCOCCOC(=O)c2ccc(-c3c4nc(c(-c5c(F)cccc5F)c5ccc([nH]5)c(-c5c(F)cccc5F)c5nc(c(-c6c(F)cccc6F)c6ccc3[nH]6)C=C5)C=C4)cc2)=NN1c1ccc(F)cc1
REMARK SMILES IDX 13 1 12 2 11 3 10 4 9 5 7 6 8 7 6 8 4 9 5 10 73 11 72 12
REMARK SMILES IDX 2 13 1 14 3 17 74 18 75 19 80 20 76 21 79 22 77 23 78 24
REMARK SMILES IDX 14 25 15 26 16 27 17 28 18 29 19 30 71 31 20 32 70 33 21 34
REMARK SMILES IDX 22 35 23 36 64 37 24 38 69 39 63 40 65 41 25 42 68 43 62 44
REMARK SMILES IDX 61 45 26 47 52 48 35 49 51 50 36 51 39 52 50 53 66 54 37 55
REMARK SMILES IDX 38 56 49 58 67 59 40 60 27 61 28 62 33 63 29 64 30 65 32 66
REMARK SMILES IDX 34 67 31 68 53 69 54 70 59 71 55 72 56 73 58 74 60 75 57 76
REMARK SMILES IDX 41 77 42 78 47 79 43 80 44 81 46 82 48 83 45 84
REMARK H PARENT 1 15 1 16 65 46 39 57
REMARK Flexibility Score: inf
ROOT
ATOM      1  C   UNL     1      -1.748   5.824   3.718  1.00  0.00     0.202 C 
ENDROOT
BRANCH   1   2
ATOM      2  O   UNL     1      -1.167   7.009   4.264  1.00  0.00    -0.374 OA
BRANCH   2   3
ATOM      3  C   UNL     1      -0.177   7.694   3.503  1.00  0.00     0.202 C 
BRANCH   3   4
ATOM      4  C   UNL     1       1.213   7.058   3.441  1.00  0.00     0.261 C 
BRANCH   4   5
ATOM      5  O   UNL     1       1.145   5.731   2.904  1.00  0.00    -0.459 OA
BRANCH   5   6
ATOM      6  C   UNL     1       1.603   4.770   3.729  1.00  0.00     0.354 C 
ATOM      7  O   UNL     1       2.268   4.895   4.740  1.00  0.00    -0.245 OA
BRANCH   6   8
ATOM      8  C   UNL     1       1.103   3.431   3.261  1.00  0.00     0.148 C 
ATOM      9  C   UNL     1       1.024   1.499   2.053  1.00  0.00     0.203 C 
ATOM     10  C   UNL     1       1.308   2.986   1.855  1.00  0.00     0.103 C 
ATOM     11  N   UNL     1       0.260   1.479   3.306  1.00  0.00    -0.252 N 
ATOM     12  N   UNL     1       0.466   2.615   4.041  1.00  0.00    -0.169 NA
BRANCH   9  13
ATOM     13  C   UNL     1       0.211   0.943   0.883  1.00  0.00     0.242 C 
ATOM     14  N   UNL     1       0.905   0.135   0.020  1.00  0.00    -0.368 N 
ATOM     15  H   UNL     1       0.449  -0.260  -0.758  1.00  0.00     0.159 HD
ATOM     16  H   UNL     1       1.859  -0.049   0.177  1.00  0.00     0.159 HD
ATOM     17  O   UNL     1      -0.963   1.213   0.650  1.00  0.00    -0.273 OA
ENDBRANCH   9  13
BRANCH  11  18
ATOM     18  C   UNL     1      -0.013   0.320   4.026  1.00  0.00     0.061 A 
ATOM     19  C   UNL     1      -1.274   0.167   4.627  1.00  0.00     0.031 A 
ATOM     20  C   UNL     1       0.949  -0.677   4.241  1.00  0.00     0.031 A 
ATOM     21  C   UNL     1      -1.573  -0.955   5.404  1.00  0.00     0.041 A 
ATOM     22  C   UNL     1       0.662  -1.791   5.035  1.00  0.00     0.041 A 
ATOM     23  C   UNL     1      -0.598  -1.921   5.605  1.00  0.00     0.123 A 
ATOM     24  F   UNL     1      -0.869  -2.987   6.370  1.00  0.00    -0.207 F 
ENDBRANCH  11  18
ENDBRANCH   6   8
ENDBRANCH   5   6
ENDBRANCH   4   5
ENDBRANCH   3   4
ENDBRANCH   2   3
ENDBRANCH   1   2
BRANCH   1  25
ATOM     25  C   UNL     1      -2.718   5.981   2.539  1.00  0.00     0.261 C 
BRANCH  25  26
ATOM     26  O   UNL     1      -2.090   6.508   1.357  1.00  0.00    -0.460 OA
BRANCH  26  27
ATOM     27  C   UNL     1      -2.457   7.772   1.029  1.00  0.00     0.338 C 
ATOM     28  O   UNL     1      -3.251   8.493   1.609  1.00  0.00    -0.246 OA
BRANCH  27  29
ATOM     29  C   UNL     1      -1.606   8.256  -0.072  1.00  0.00     0.060 A 
ATOM     30  C   UNL     1      -0.848   9.417   0.134  1.00  0.00     0.016 A 
ATOM     31  C   UNL     1      -1.610   7.619  -1.312  1.00  0.00     0.016 A 
ATOM     32  C   UNL     1      -0.107   9.962  -0.914  1.00  0.00     0.010 A 
ATOM     33  C   UNL     1      -0.876   8.172  -2.363  1.00  0.00     0.010 A 
ATOM     34  C   UNL     1      -0.142   9.359  -2.177  1.00  0.00    -0.014 A 
BRANCH  34  35
ATOM     35  C   UNL     1       0.475  10.020  -3.351  1.00  0.00     0.031 A 
ATOM     36  C   UNL     1      -0.414  10.728  -4.333  1.00  0.00     0.074 A 
ATOM     37  C   UNL     1       1.801   9.954  -3.562  1.00  0.00     0.049 A 
ATOM     38  N   UNL     1      -0.124  11.228  -5.506  1.00  0.00    -0.248 NA
ATOM     39  C   UNL     1      -1.825  10.883  -3.942  1.00  0.00     0.031 C 
ATOM     40  C   UNL     1       2.771   9.339  -2.658  1.00  0.00     0.029 A 
ATOM     41  N   UNL     1       2.555  10.389  -4.623  1.00  0.00    -0.354 N 
ATOM     42  C   UNL     1      -1.317  11.739  -6.002  1.00  0.00     0.074 A 
ATOM     43  C   UNL     1      -2.338  11.469  -5.014  1.00  0.00     0.031 C 
ATOM     44  C   UNL     1       3.992   9.413  -3.216  1.00  0.00     0.029 A 
ATOM     45  C   UNL     1       3.879  10.037  -4.533  1.00  0.00     0.049 A 
ATOM     46  H   UNL     1       2.182  10.903  -5.375  1.00  0.00     0.167 HD
ATOM     47  C   UNL     1      -1.537  12.377  -7.176  1.00  0.00     0.037 A 
ATOM     48  C   UNL     1       4.876  10.168  -5.430  1.00  0.00     0.037 A 
ATOM     49  C   UNL     1      -0.515  12.643  -8.153  1.00  0.00     0.049 A 
ATOM     50  C   UNL     1       4.589  10.803  -6.766  1.00  0.00     0.074 A 
ATOM     51  C   UNL     1      -0.632  13.299  -9.366  1.00  0.00     0.029 A 
ATOM     52  N   UNL     1       0.811  12.258  -8.032  1.00  0.00    -0.354 N 
ATOM     53  N   UNL     1       3.463  11.295  -7.224  1.00  0.00    -0.248 NA
ATOM     54  C   UNL     1       5.711  10.898  -7.713  1.00  0.00     0.031 C 
ATOM     55  C   UNL     1       0.611  13.262 -10.003  1.00  0.00     0.029 A 
ATOM     56  C   UNL     1       1.518  12.639  -9.161  1.00  0.00     0.049 A 
ATOM     57  H   UNL     1       1.194  11.785  -7.258  1.00  0.00     0.167 HD
ATOM     58  C   UNL     1       3.749  11.791  -8.491  1.00  0.00     0.074 A 
ATOM     59  C   UNL     1       5.155  11.542  -8.730  1.00  0.00     0.031 C 
ATOM     60  C   UNL     1       2.923  12.402  -9.374  1.00  0.00     0.037 A 
BRANCH  47  61
ATOM     61  C   UNL     1      -2.943  12.804  -7.481  1.00  0.00     0.057 A 
ATOM     62  C   UNL     1      -3.567  13.853  -6.793  1.00  0.00     0.134 A 
ATOM     63  C   UNL     1      -3.671  12.180  -8.503  1.00  0.00     0.134 A 
ATOM     64  F   UNL     1      -2.931  14.484  -5.794  1.00  0.00    -0.206 F 
ATOM     65  C   UNL     1      -4.872  14.249  -7.094  1.00  0.00     0.040 A 
ATOM     66  C   UNL     1      -4.964  12.587  -8.833  1.00  0.00     0.040 A 
ATOM     67  F   UNL     1      -3.131  11.173  -9.206  1.00  0.00    -0.206 F 
ATOM     68  C   UNL     1      -5.571  13.620  -8.122  1.00  0.00     0.006 A 
ENDBRANCH  47  61
BRANCH  48  69
ATOM     69  C   UNL     1       6.237   9.666  -5.111  1.00  0.00     0.057 A 
ATOM     70  C   UNL     1       7.309  10.548  -4.934  1.00  0.00     0.134 A 
ATOM     71  C   UNL     1       6.505   8.296  -4.997  1.00  0.00     0.134 A 
ATOM     72  F   UNL     1       7.121  11.870  -5.053  1.00  0.00    -0.206 F 
ATOM     73  C   UNL     1       8.601  10.087  -4.676  1.00  0.00     0.040 A 
ATOM     74  C   UNL     1       7.786   7.822  -4.712  1.00  0.00     0.040 A 
ATOM     75  F   UNL     1       5.521   7.397  -5.151  1.00  0.00    -0.206 F 
ATOM     76  C   UNL     1       8.841   8.719  -4.559  1.00  0.00     0.006 A 
ENDBRANCH  48  69
BRANCH  60  77
ATOM     77  C   UNL     1       3.519  12.900 -10.659  1.00  0.00     0.057 A 
ATOM     78  C   UNL     1       3.897  12.031 -11.690  1.00  0.00     0.134 A 
ATOM     79  C   UNL     1       3.647  14.276 -10.893  1.00  0.00     0.134 A 
ATOM     80  F   UNL     1       3.811  10.703 -11.526  1.00  0.00    -0.206 F 
ATOM     81  C   UNL     1       4.391  12.513 -12.904  1.00  0.00     0.040 A 
ATOM     82  C   UNL     1       4.113  14.770 -12.112  1.00  0.00     0.040 A 
ATOM     83  F   UNL     1       3.295  15.163  -9.950  1.00  0.00    -0.206 F 
ATOM     84  C   UNL     1       4.489  13.887 -13.121  1.00  0.00     0.006 A 
ENDBRANCH  60  77
ENDBRANCH  34  35
ENDBRANCH  27  29
ENDBRANCH  26  27
ENDBRANCH  25  26
ENDBRANCH   1  25
TORSDOF 16
