REMARK SMILES O=C(OCCOCCOC(=O)[C@H]1Cc2cc(O)ccc2C[NH2+]1)c1ccc(-c2c3nc(c(-c4c(F)cccc4F)c4ccc([nH]4)c(-c4c(F)cccc4F)c4nc(c(-c5c(F)cccc5F)c5ccc2[nH]5)C=C4)C=C3)cc1
REMARK SMILES IDX 5 1 4 2 3 3 2 4 1 5 23 6 24 7 76 8 25 9 75 10 26 11 27 12
REMARK SMILES IDX 28 13 69 14 29 15 74 16 68 17 70 18 30 19 73 20 67 21 66 22
REMARK SMILES IDX 31 24 57 25 40 26 56 27 41 28 44 29 55 30 71 31 42 32 43 33
REMARK SMILES IDX 54 35 72 36 45 37 32 38 33 39 38 40 34 41 35 42 37 43 39 44
REMARK SMILES IDX 36 45 58 46 59 47 64 48 60 49 61 50 63 51 65 52 62 53 46 54
REMARK SMILES IDX 47 55 52 56 48 57 49 58 51 59 53 60 50 61 6 62 7 63 8 64
REMARK SMILES IDX 9 65 10 66 11 67 12 68 13 69 22 70 14 71 21 72 15 75 20 76
REMARK SMILES IDX 16 77 19 78 18 79 17 80
REMARK H PARENT 70 23 44 34 22 73 22 74 17 81
REMARK Flexibility Score: inf
ROOT
ATOM      1  C   UNL     1       4.471   1.598  -0.017  1.00  0.00     0.202 C 
ENDROOT
BRANCH   1   2
ATOM      2  C   UNL     1       4.319   0.707  -1.253  1.00  0.00     0.261 C 
BRANCH   2   3
ATOM      3  O   UNL     1       2.962   0.271  -1.409  1.00  0.00    -0.460 OA
BRANCH   3   4
ATOM      4  C   UNL     1       2.355  -0.824  -0.902  1.00  0.00     0.338 C 
ATOM      5  O   UNL     1       1.152  -0.961  -1.123  1.00  0.00    -0.246 OA
BRANCH   4   6
ATOM      6  C   UNL     1       3.027  -1.867  -0.056  1.00  0.00     0.060 A 
ATOM      7  C   UNL     1       2.261  -3.010   0.238  1.00  0.00     0.016 A 
ATOM      8  C   UNL     1       4.294  -1.773   0.528  1.00  0.00     0.016 A 
ATOM      9  C   UNL     1       2.744  -4.004   1.092  1.00  0.00     0.010 A 
ATOM     10  C   UNL     1       4.784  -2.750   1.380  1.00  0.00     0.010 A 
ATOM     11  C   UNL     1       4.013  -3.869   1.659  1.00  0.00    -0.014 A 
BRANCH  11  12
ATOM     12  C   UNL     1       4.660  -4.968   2.381  1.00  0.00     0.031 A 
ATOM     13  C   UNL     1       4.858  -4.917   3.858  1.00  0.00     0.074 A 
ATOM     14  C   UNL     1       5.201  -5.930   1.616  1.00  0.00     0.049 A 
ATOM     15  N   UNL     1       5.314  -5.848   4.653  1.00  0.00    -0.248 NA
ATOM     16  C   UNL     1       4.540  -3.647   4.529  1.00  0.00     0.031 C 
ATOM     17  C   UNL     1       5.184  -5.940   0.148  1.00  0.00     0.029 A 
ATOM     18  N   UNL     1       5.873  -7.067   1.951  1.00  0.00    -0.354 N 
ATOM     19  C   UNL     1       5.314  -5.289   5.923  1.00  0.00     0.074 A 
ATOM     20  C   UNL     1       4.882  -3.915   5.783  1.00  0.00     0.031 C 
ATOM     21  C   UNL     1       5.771  -7.061  -0.289  1.00  0.00     0.029 A 
ATOM     22  C   UNL     1       6.197  -7.839   0.865  1.00  0.00     0.049 A 
ATOM     23  H   UNL     1       6.101  -7.310   2.878  1.00  0.00     0.167 HD
ATOM     24  C   UNL     1       5.634  -5.893   7.093  1.00  0.00     0.037 A 
ATOM     25  C   UNL     1       6.736  -9.066   0.823  1.00  0.00     0.037 A 
ATOM     26  C   UNL     1       6.112  -7.253   7.161  1.00  0.00     0.049 A 
ATOM     27  C   UNL     1       7.019  -9.740   2.130  1.00  0.00     0.074 A 
ATOM     28  C   UNL     1       6.395  -8.025   8.272  1.00  0.00     0.029 A 
ATOM     29  N   UNL     1       6.405  -8.035   6.048  1.00  0.00    -0.354 N 
ATOM     30  N   UNL     1       6.858  -9.279   3.349  1.00  0.00    -0.248 NA
ATOM     31  C   UNL     1       7.528 -11.110   2.057  1.00  0.00     0.031 C 
ATOM     32  C   UNL     1       6.912  -9.251   7.830  1.00  0.00     0.029 A 
ATOM     33  C   UNL     1       6.896  -9.268   6.443  1.00  0.00     0.049 A 
ATOM     34  H   UNL     1       6.282  -7.752   5.113  1.00  0.00     0.167 HD
ATOM     35  C   UNL     1       7.233 -10.309   4.196  1.00  0.00     0.074 A 
ATOM     36  C   UNL     1       7.590 -11.429   3.341  1.00  0.00     0.031 C 
ATOM     37  C   UNL     1       7.284 -10.337   5.553  1.00  0.00     0.037 A 
BRANCH  24  38
ATOM     38  C   UNL     1       5.478  -5.093   8.358  1.00  0.00     0.057 A 
ATOM     39  C   UNL     1       6.585  -4.769   9.152  1.00  0.00     0.134 A 
ATOM     40  C   UNL     1       4.223  -4.647   8.803  1.00  0.00     0.134 A 
ATOM     41  F   UNL     1       7.818  -5.163   8.799  1.00  0.00    -0.206 F 
ATOM     42  C   UNL     1       6.452  -4.030  10.332  1.00  0.00     0.040 A 
ATOM     43  C   UNL     1       4.081  -3.882   9.964  1.00  0.00     0.040 A 
ATOM     44  F   UNL     1       3.115  -4.914   8.094  1.00  0.00    -0.206 F 
ATOM     45  C   UNL     1       5.199  -3.575  10.735  1.00  0.00     0.006 A 
ENDBRANCH  24  38
BRANCH  25  46
ATOM     46  C   UNL     1       6.892  -9.752  -0.481  1.00  0.00     0.057 A 
ATOM     47  C   UNL     1       7.829  -9.329  -1.431  1.00  0.00     0.134 A 
ATOM     48  C   UNL     1       6.044 -10.807  -0.836  1.00  0.00     0.134 A 
ATOM     49  F   UNL     1       8.647  -8.300  -1.164  1.00  0.00    -0.206 F 
ATOM     50  C   UNL     1       7.915  -9.929  -2.688  1.00  0.00     0.040 A 
ATOM     51  C   UNL     1       6.135 -11.432  -2.079  1.00  0.00     0.040 A 
ATOM     52  F   UNL     1       5.120 -11.250   0.030  1.00  0.00    -0.206 F 
ATOM     53  C   UNL     1       7.069 -10.988  -3.012  1.00  0.00     0.006 A 
ENDBRANCH  25  46
BRANCH  37  54
ATOM     54  C   UNL     1       7.757 -11.627   6.155  1.00  0.00     0.057 A 
ATOM     55  C   UNL     1       6.865 -12.466   6.833  1.00  0.00     0.134 A 
ATOM     56  C   UNL     1       9.082 -12.061   6.017  1.00  0.00     0.134 A 
ATOM     57  F   UNL     1       5.585 -12.104   7.008  1.00  0.00    -0.206 F 
ATOM     58  C   UNL     1       7.270 -13.703   7.332  1.00  0.00     0.040 A 
ATOM     59  C   UNL     1       9.489 -13.312   6.479  1.00  0.00     0.040 A 
ATOM     60  F   UNL     1       9.980 -11.308   5.361  1.00  0.00    -0.206 F 
ATOM     61  C   UNL     1       8.581 -14.136   7.139  1.00  0.00     0.006 A 
ENDBRANCH  37  54
ENDBRANCH  11  12
ENDBRANCH   4   6
ENDBRANCH   3   4
ENDBRANCH   2   3
ENDBRANCH   1   2
BRANCH   1  62
ATOM     62  O   UNL     1       4.121   0.984   1.225  1.00  0.00    -0.374 OA
BRANCH  62  63
ATOM     63  C   UNL     1       2.758   1.132   1.646  1.00  0.00     0.202 C 
BRANCH  63  64
ATOM     64  C   UNL     1       2.702   1.766   3.038  1.00  0.00     0.261 C 
BRANCH  64  65
ATOM     65  O   UNL     1       3.166   3.116   2.929  1.00  0.00    -0.459 OA
BRANCH  65  66
ATOM     66  C   UNL     1       4.525   3.260   2.959  1.00  0.00     0.365 C 
ATOM     67  O   UNL     1       5.310   2.476   3.482  1.00  0.00    -0.245 OA
BRANCH  66  68
ATOM     68  C   UNL     1       4.905   4.417   2.036  1.00  0.00     0.298 C 
ATOM     69  C   UNL     1       4.116   5.671   2.405  1.00  0.00     0.113 C 
ATOM     70  N   UNL     1       6.365   4.652   2.037  1.00  0.00    -0.331 N 
ATOM     71  C   UNL     1       4.646   6.901   1.720  1.00  0.00    -0.029 A 
ATOM     72  C   UNL     1       6.694   5.601   0.972  1.00  0.00     0.298 C 
ATOM     73  H   UNL     1       6.853   3.772   1.874  1.00  0.00     0.347 HD
ATOM     74  H   UNL     1       6.652   5.033   2.938  1.00  0.00     0.347 HD
ATOM     75  C   UNL     1       3.905   8.085   1.786  1.00  0.00     0.050 A 
ATOM     76  C   UNL     1       5.904   6.885   1.086  1.00  0.00     0.010 A 
ATOM     77  C   UNL     1       4.420   9.249   1.238  1.00  0.00     0.115 A 
ATOM     78  C   UNL     1       6.393   8.067   0.516  1.00  0.00     0.013 A 
ATOM     79  C   UNL     1       5.658   9.253   0.604  1.00  0.00     0.046 A 
BRANCH  77  80
ATOM     80  O   UNL     1       3.674  10.383   1.360  1.00  0.00    -0.508 OA
ATOM     81  H   UNL     1       2.843  10.354   1.792  1.00  0.00     0.293 HD
ENDBRANCH  77  80
ENDBRANCH  66  68
ENDBRANCH  65  66
ENDBRANCH  64  65
ENDBRANCH  63  64
ENDBRANCH  62  63
ENDBRANCH   1  62
TORSDOF 15
