REMARK SMILES COc1c[nH]c(C[N@H+]2CCC[C@@H](c3ccc(C(=O)OCCOCCOC(=O)c4ccc(-c5c6nc(c(-c7c(F)cccc7F)c7ccc([nH]7)c(-c7c(F)cccc7F)c7nc(c(-c8c(F)cccc8F)c8ccc5[nH]8)C=C7)C=C6)cc4)cc3)C2)cc1=O
REMARK SMILES IDX 21 1 20 2 19 3 17 4 18 5 16 6 13 7 14 8 83 9 15 10 82 11
REMARK SMILES IDX 12 12 8 13 9 14 84 15 10 17 11 18 7 19 6 20 3 21 4 22 86 23
REMARK SMILES IDX 5 24 85 25 87 26 2 28 1 29 22 30 23 31 24 32 25 33 26 34
REMARK SMILES IDX 27 35 28 36 29 37 81 38 30 39 80 40 31 41 32 42 33 43 74 44
REMARK SMILES IDX 34 45 79 46 73 47 75 48 35 49 78 50 72 51 71 52 36 54 62 55
REMARK SMILES IDX 45 56 61 57 46 58 49 59 60 60 76 61 47 62 48 63 59 65 77 66
REMARK SMILES IDX 50 67 37 68 38 69 43 70 39 71 40 72 42 73 44 74 41 75 63 76
REMARK SMILES IDX 64 77 69 78 65 79 66 80 68 81 70 82 67 83 51 84 52 85 57 86
REMARK SMILES IDX 53 87 54 88 56 89 58 90 55 91
REMARK H PARENT 8 16 5 27 75 53 49 64
REMARK Flexibility Score: inf
ROOT
ATOM      1  C   UNL     1      -8.514   2.654  -7.906  1.00  0.00     0.202 C 
ENDROOT
BRANCH   1   2
ATOM      2  C   UNL     1      -8.103   3.651  -6.819  1.00  0.00     0.261 C 
BRANCH   2   3
ATOM      3  O   UNL     1      -6.757   4.109  -7.025  1.00  0.00    -0.460 OA
BRANCH   3   4
ATOM      4  C   UNL     1      -5.877   3.695  -6.085  1.00  0.00     0.338 C 
ATOM      5  O   UNL     1      -6.136   3.146  -5.024  1.00  0.00    -0.246 OA
BRANCH   4   6
ATOM      6  C   UNL     1      -4.492   3.846  -6.576  1.00  0.00     0.060 A 
ATOM      7  C   UNL     1      -1.770   4.115  -7.184  1.00  0.00    -0.039 A 
ATOM      8  C   UNL     1      -2.256   2.940  -6.584  1.00  0.00     0.005 A 
ATOM      9  C   UNL     1      -2.687   5.103  -7.578  1.00  0.00     0.005 A 
ATOM     10  C   UNL     1      -3.601   2.817  -6.260  1.00  0.00     0.016 A 
ATOM     11  C   UNL     1      -4.050   4.966  -7.285  1.00  0.00     0.016 A 
BRANCH   7  12
ATOM     12  C   UNL     1      -0.270   4.404  -7.194  1.00  0.00     0.074 C 
ATOM     13  N   UNL     1       1.613   4.690  -5.505  1.00  0.00    -0.329 N 
ATOM     14  C   UNL     1       2.377   3.631  -6.177  1.00  0.00     0.262 C 
ATOM     15  C   UNL     1       0.174   4.527  -5.716  1.00  0.00     0.270 C 
ATOM     16  H   UNL     1       1.885   5.573  -5.938  1.00  0.00     0.348 HD
ATOM     17  C   UNL     1       2.056   3.575  -7.674  1.00  0.00     0.062 C 
ATOM     18  C   UNL     1       0.565   3.341  -7.920  1.00  0.00     0.020 C 
BRANCH  13  19
ATOM     19  C   UNL     1       1.956   4.808  -4.069  1.00  0.00     0.317 C 
BRANCH  19  20
ATOM     20  C   UNL     1       1.706   3.584  -3.186  1.00  0.00     0.074 A 
ATOM     21  C   UNL     1       1.000   1.226  -1.727  1.00  0.00     0.182 A 
ATOM     22  C   UNL     1       0.089   2.082  -2.210  1.00  0.00     0.133 A 
ATOM     23  C   UNL     1       2.443   1.607  -1.931  1.00  0.00     0.223 A 
ATOM     24  N   UNL     1       0.405   3.248  -2.853  1.00  0.00    -0.357 N 
ATOM     25  C   UNL     1       2.728   2.836  -2.728  1.00  0.00     0.083 A 
ATOM     26  O   UNL     1       3.378   0.943  -1.492  1.00  0.00    -0.286 OA
ATOM     27  H   UNL     1      -0.321   3.870  -3.088  1.00  0.00     0.166 HD
BRANCH  21  28
ATOM     28  O   UNL     1       0.614   0.028  -1.158  1.00  0.00    -0.491 OA
ATOM     29  C   UNL     1       1.101  -0.127   0.171  1.00  0.00     0.278 C 
ENDBRANCH  21  28
ENDBRANCH  19  20
ENDBRANCH  13  19
ENDBRANCH   7  12
ENDBRANCH   4   6
ENDBRANCH   3   4
ENDBRANCH   2   3
ENDBRANCH   1   2
BRANCH   1  30
ATOM     30  O   UNL     1      -7.773   1.435  -7.954  1.00  0.00    -0.374 OA
BRANCH  30  31
ATOM     31  C   UNL     1      -6.513   1.464  -8.629  1.00  0.00     0.202 C 
BRANCH  31  32
ATOM     32  C   UNL     1      -6.563   1.424 -10.160  1.00  0.00     0.261 C 
BRANCH  32  33
ATOM     33  O   UNL     1      -7.080   2.652 -10.707  1.00  0.00    -0.460 OA
BRANCH  33  34
ATOM     34  C   UNL     1      -8.294   2.551 -11.294  1.00  0.00     0.338 C 
ATOM     35  O   UNL     1      -8.945   1.534 -11.487  1.00  0.00    -0.246 OA
BRANCH  34  36
ATOM     36  C   UNL     1      -8.847   3.898 -11.526  1.00  0.00     0.060 A 
ATOM     37  C   UNL     1     -10.130   4.168 -11.031  1.00  0.00     0.016 A 
ATOM     38  C   UNL     1      -8.154   4.859 -12.265  1.00  0.00     0.016 A 
ATOM     39  C   UNL     1     -10.745   5.386 -11.312  1.00  0.00     0.010 A 
ATOM     40  C   UNL     1      -8.777   6.076 -12.555  1.00  0.00     0.010 A 
ATOM     41  C   UNL     1     -10.087   6.331 -12.108  1.00  0.00    -0.014 A 
BRANCH  41  42
ATOM     42  C   UNL     1     -10.820   7.523 -12.596  1.00  0.00     0.031 A 
ATOM     43  C   UNL     1     -11.388   7.507 -13.987  1.00  0.00     0.074 A 
ATOM     44  C   UNL     1     -10.985   8.601 -11.809  1.00  0.00     0.049 A 
ATOM     45  N   UNL     1     -11.998   8.459 -14.646  1.00  0.00    -0.248 NA
ATOM     46  C   UNL     1     -11.245   6.249 -14.738  1.00  0.00     0.031 C 
ATOM     47  C   UNL     1     -10.520   8.719 -10.429  1.00  0.00     0.029 A 
ATOM     48  N   UNL     1     -11.583   9.808 -12.070  1.00  0.00    -0.354 N 
ATOM     49  C   UNL     1     -12.304   7.919 -15.889  1.00  0.00     0.074 A 
ATOM     50  C   UNL     1     -11.790   6.566 -15.903  1.00  0.00     0.031 C 
ATOM     51  C   UNL     1     -10.836   9.942  -9.967  1.00  0.00     0.029 A 
ATOM     52  C   UNL     1     -11.493  10.700 -11.030  1.00  0.00     0.049 A 
ATOM     53  H   UNL     1     -12.033  10.014 -12.921  1.00  0.00     0.167 HD
ATOM     54  C   UNL     1     -12.959   8.498 -16.923  1.00  0.00     0.037 A 
ATOM     55  C   UNL     1     -11.873  11.990 -10.958  1.00  0.00     0.037 A 
ATOM     56  C   UNL     1     -13.471   9.842 -16.906  1.00  0.00     0.049 A 
ATOM     57  C   UNL     1     -12.532  12.636 -12.148  1.00  0.00     0.074 A 
ATOM     58  C   UNL     1     -14.167  10.512 -17.896  1.00  0.00     0.029 A 
ATOM     59  N   UNL     1     -13.335  10.724 -15.844  1.00  0.00    -0.354 N 
ATOM     60  N   UNL     1     -12.834  12.113 -13.311  1.00  0.00    -0.248 NA
ATOM     61  C   UNL     1     -12.900  14.054 -12.015  1.00  0.00     0.031 C 
ATOM     62  C   UNL     1     -14.412  11.816 -17.452  1.00  0.00     0.029 A 
ATOM     63  C   UNL     1     -13.912  11.941 -16.166  1.00  0.00     0.049 A 
ATOM     64  H   UNL     1     -12.895  10.515 -14.989  1.00  0.00     0.167 HD
ATOM     65  C   UNL     1     -13.453  13.124 -14.036  1.00  0.00     0.074 A 
ATOM     66  C   UNL     1     -13.489  14.291 -13.179  1.00  0.00     0.031 C 
ATOM     67  C   UNL     1     -13.949  13.089 -15.297  1.00  0.00     0.037 A 
BRANCH  54  68
ATOM     68  C   UNL     1     -13.136   7.685 -18.170  1.00  0.00     0.057 A 
ATOM     69  C   UNL     1     -14.038   6.615 -18.235  1.00  0.00     0.134 A 
ATOM     70  C   UNL     1     -12.417   7.996 -19.331  1.00  0.00     0.134 A 
ATOM     71  F   UNL     1     -14.745   6.256 -17.153  1.00  0.00    -0.206 F 
ATOM     72  C   UNL     1     -14.203   5.871 -19.404  1.00  0.00     0.040 A 
ATOM     73  C   UNL     1     -12.592   7.275 -20.513  1.00  0.00     0.040 A 
ATOM     74  F   UNL     1     -11.540   9.011 -19.338  1.00  0.00    -0.206 F 
ATOM     75  C   UNL     1     -13.484   6.205 -20.550  1.00  0.00     0.006 A 
ENDBRANCH  54  68
BRANCH  55  76
ATOM     76  C   UNL     1     -11.624  12.769  -9.719  1.00  0.00     0.057 A 
ATOM     77  C   UNL     1     -12.678  13.180  -8.896  1.00  0.00     0.134 A 
ATOM     78  C   UNL     1     -10.327  13.136  -9.338  1.00  0.00     0.134 A 
ATOM     79  F   UNL     1     -13.944  12.880  -9.221  1.00  0.00    -0.206 F 
ATOM     80  C   UNL     1     -12.455  13.941  -7.747  1.00  0.00     0.040 A 
ATOM     81  C   UNL     1     -10.087  13.876  -8.180  1.00  0.00     0.040 A 
ATOM     82  F   UNL     1      -9.274  12.773 -10.085  1.00  0.00    -0.206 F 
ATOM     83  C   UNL     1     -11.154  14.287  -7.384  1.00  0.00     0.006 A 
ENDBRANCH  55  76
BRANCH  67  84
ATOM     84  C   UNL     1     -14.609  14.333 -15.815  1.00  0.00     0.057 A 
ATOM     85  C   UNL     1     -13.869  15.458 -16.199  1.00  0.00     0.134 A 
ATOM     86  C   UNL     1     -15.999  14.382 -15.986  1.00  0.00     0.134 A 
ATOM     87  F   UNL     1     -12.536  15.479 -16.049  1.00  0.00    -0.206 F 
ATOM     88  C   UNL     1     -14.490  16.595 -16.720  1.00  0.00     0.040 A 
ATOM     89  C   UNL     1     -16.628  15.503 -16.529  1.00  0.00     0.040 A 
ATOM     90  F   UNL     1     -16.764  13.334 -15.647  1.00  0.00    -0.206 F 
ATOM     91  C   UNL     1     -15.873  16.615 -16.894  1.00  0.00     0.006 A 
ENDBRANCH  67  84
ENDBRANCH  41  42
ENDBRANCH  34  36
ENDBRANCH  33  34
ENDBRANCH  32  33
ENDBRANCH  31  32
ENDBRANCH  30  31
ENDBRANCH   1  30
TORSDOF 18
