REMARK SMILES CC1=C([C@@H](NC(=O)c2cc3c(s2)CCCCC3)C(=O)OCCOCCOC(=O)c2ccc(-c3c4nc(c(-c5c(F)cccc5F)c5ccc([nH]5)c(-c5c(F)cccc5F)c5nc(c(-c6c(F)cccc6F)c6ccc3[nH]6)C=C5)C=C4)cc2)[C@H](C)N=N1
REMARK SMILES IDX 21 1 20 2 18 3 19 4 4 5 3 6 1 7 2 8 86 9 83 10 85 11 84 12
REMARK SMILES IDX 5 13 6 14 7 16 8 17 9 18 12 19 10 20 11 21 17 22 13 24 14 25
REMARK SMILES IDX 15 26 16 27 22 29 23 30 24 31 25 32 26 33 27 34 28 35 29 36
REMARK SMILES IDX 30 37 82 38 31 39 81 40 32 41 33 42 34 43 75 44 35 45 80 46
REMARK SMILES IDX 74 47 76 48 36 49 79 50 73 51 72 52 37 54 63 55 46 56 62 57
REMARK SMILES IDX 47 58 50 59 61 60 77 61 48 62 49 63 60 65 78 66 51 67 38 68
REMARK SMILES IDX 39 69 44 70 40 71 41 72 43 73 45 74 42 75 64 76 65 77 70 78
REMARK SMILES IDX 66 79 67 80 69 81 71 82 68 83 52 84 53 85 58 86 54 87 55 88
REMARK SMILES IDX 57 89 59 90 56 91
REMARK H PARENT 5 15 76 53 50 64
REMARK Flexibility Score: 80.00
ROOT
ATOM      1  C   UNL     1       3.402   4.037   3.512  1.00  0.00     0.261 C 
ENDROOT
BRANCH   1   2
ATOM      2  O   UNL     1       2.290   3.356   2.928  1.00  0.00    -0.461 OA
BRANCH   2   3
ATOM      3  C   UNL     1       2.022   3.702   1.639  1.00  0.00     0.333 C 
ATOM      4  O   UNL     1       2.845   4.191   0.874  1.00  0.00    -0.249 OA
BRANCH   3   5
ATOM      5  C   UNL     1       0.557   3.455   1.213  1.00  0.00     0.223 C 
BRANCH   5   6
ATOM      6  C   UNL     1       0.064   2.140   1.747  1.00  0.00     0.012 C 
ATOM      7  C   UNL     1       0.932   0.464   0.025  1.00  0.00     0.069 C 
ATOM      8  C   UNL     1       0.230   0.901   1.265  1.00  0.00     0.064 C 
ATOM      9  N   UNL     1      -0.365  -0.051   2.053  1.00  0.00    -0.160 NA
ATOM     10  C   UNL     1      -0.776   1.966   2.973  1.00  0.00     0.156 C 
ATOM     11  N   UNL     1      -0.937   0.487   3.038  1.00  0.00    -0.181 NA
ATOM     12  C   UNL     1      -0.181   2.445   4.286  1.00  0.00     0.040 C 
ENDBRANCH   5   6
BRANCH   5  13
ATOM     13  N   UNL     1      -0.486   4.458   1.463  1.00  0.00    -0.334 N 
ATOM     14  C   UNL     1      -0.459   5.832   1.533  1.00  0.00     0.262 C 
ATOM     15  H   UNL     1      -1.379   4.072   1.609  1.00  0.00     0.165 HD
ATOM     16  O   UNL     1      -1.536   6.413   1.398  1.00  0.00    -0.268 OA
BRANCH  14  17
ATOM     17  C   UNL     1       0.750   6.505   1.929  1.00  0.00     0.092 A 
ATOM     18  C   UNL     1       1.094   6.957   3.185  1.00  0.00     0.029 A 
ATOM     19  S   UNL     1       1.891   7.028   0.787  1.00  0.00    -0.135 S 
ATOM     20  C   UNL     1       2.469   7.402   3.274  1.00  0.00    -0.033 A 
ATOM     21  C   UNL     1       3.078   7.269   2.031  1.00  0.00     0.009 A 
BRANCH  20  22
ATOM     22  C   UNL     1       3.057   7.740   4.617  1.00  0.00     0.037 CG0
ATOM     23  G   UNL     1       4.442   8.364   4.746  1.00  0.00     0.000 G0
ENDBRANCH  20  22
BRANCH  21  24
ATOM     24  C   UNL     1       4.514   7.234   1.593  1.00  0.00     0.047 C 
BRANCH  24  25
ATOM     25  C   UNL     1       5.560   7.637   2.619  1.00  0.00     0.006 C 
BRANCH  25  26
ATOM     26  C   UNL     1       5.159   8.821   3.485  1.00  0.00     0.001 C 
BRANCH  26  27
ATOM     27  C   UNL     1       4.442   8.364   4.746  1.00  0.00     0.005 CG0
ATOM     28  G   UNL     1       3.057   7.740   4.617  1.00  0.00     0.000 G0
ENDBRANCH  26  27
ENDBRANCH  25  26
ENDBRANCH  24  25
ENDBRANCH  21  24
ENDBRANCH  14  17
ENDBRANCH   5  13
ENDBRANCH   3   5
ENDBRANCH   2   3
ENDBRANCH   1   2
BRANCH   1  29
ATOM     29  C   UNL     1       4.817   3.484   3.343  1.00  0.00     0.202 C 
BRANCH  29  30
ATOM     30  O   UNL     1       5.227   2.963   2.091  1.00  0.00    -0.374 OA
BRANCH  30  31
ATOM     31  C   UNL     1       4.670   1.736   1.631  1.00  0.00     0.202 C 
BRANCH  31  32
ATOM     32  C   UNL     1       4.978   0.492   2.449  1.00  0.00     0.261 C 
BRANCH  32  33
ATOM     33  O   UNL     1       4.206   0.516   3.647  1.00  0.00    -0.460 OA
BRANCH  33  34
ATOM     34  C   UNL     1       4.891   0.644   4.797  1.00  0.00     0.338 C 
ATOM     35  O   UNL     1       6.104   0.776   4.934  1.00  0.00    -0.246 OA
BRANCH  34  36
ATOM     36  C   UNL     1       3.943   0.576   5.912  1.00  0.00     0.060 A 
ATOM     37  C   UNL     1       4.482   0.608   7.199  1.00  0.00     0.016 A 
ATOM     38  C   UNL     1       2.604   0.229   5.676  1.00  0.00     0.016 A 
ATOM     39  C   UNL     1       3.766   0.018   8.214  1.00  0.00     0.010 A 
ATOM     40  C   UNL     1       1.874  -0.328   6.696  1.00  0.00     0.010 A 
ATOM     41  C   UNL     1       2.527  -0.551   7.904  1.00  0.00    -0.014 A 
BRANCH  41  42
ATOM     42  C   UNL     1       2.008  -1.550   8.811  1.00  0.00     0.031 A 
ATOM     43  C   UNL     1       1.409  -1.027  10.049  1.00  0.00     0.074 A 
ATOM     44  C   UNL     1       2.015  -2.852   8.462  1.00  0.00     0.049 A 
ATOM     45  N   UNL     1       1.772  -1.254  11.266  1.00  0.00    -0.248 NA
ATOM     46  C   UNL     1       0.329  -0.040   9.906  1.00  0.00     0.031 C 
ATOM     47  C   UNL     1       2.331  -3.430   7.149  1.00  0.00     0.029 A 
ATOM     48  N   UNL     1       1.619  -3.933   9.184  1.00  0.00    -0.354 N 
ATOM     49  C   UNL     1       0.839  -0.596  12.056  1.00  0.00     0.074 A 
ATOM     50  C   UNL     1       0.080   0.259  11.180  1.00  0.00     0.031 C 
ATOM     51  C   UNL     1       1.890  -4.705   7.109  1.00  0.00     0.029 A 
ATOM     52  C   UNL     1       1.379  -5.065   8.420  1.00  0.00     0.049 A 
ATOM     53  H   UNL     1       1.512  -3.914  10.162  1.00  0.00     0.167 HD
ATOM     54  C   UNL     1       0.589  -0.991  13.331  1.00  0.00     0.037 A 
ATOM     55  C   UNL     1       0.727  -6.182   8.822  1.00  0.00     0.037 A 
ATOM     56  C   UNL     1       1.662  -1.782  13.872  1.00  0.00     0.049 A 
ATOM     57  C   UNL     1       0.704  -6.178  10.307  1.00  0.00     0.074 A 
ATOM     58  C   UNL     1       3.011  -1.567  14.081  1.00  0.00     0.029 A 
ATOM     59  N   UNL     1       1.479  -3.138  13.978  1.00  0.00    -0.354 N 
ATOM     60  N   UNL     1       1.751  -6.373  11.059  1.00  0.00    -0.248 NA
ATOM     61  C   UNL     1      -0.422  -5.533  10.969  1.00  0.00     0.031 C 
ATOM     62  C   UNL     1       3.633  -2.825  13.839  1.00  0.00     0.029 A 
ATOM     63  C   UNL     1       2.627  -3.740  13.528  1.00  0.00     0.049 A 
ATOM     64  H   UNL     1       0.674  -3.594  14.314  1.00  0.00     0.167 HD
ATOM     65  C   UNL     1       1.580  -5.514  12.136  1.00  0.00     0.074 A 
ATOM     66  C   UNL     1       0.179  -5.112  12.085  1.00  0.00     0.031 C 
ATOM     67  C   UNL     1       2.654  -4.984  12.794  1.00  0.00     0.037 A 
BRANCH  54  68
ATOM     68  C   UNL     1      -0.785  -0.951  13.940  1.00  0.00     0.057 A 
ATOM     69  C   UNL     1      -0.937  -1.131  15.323  1.00  0.00     0.134 A 
ATOM     70  C   UNL     1      -1.977  -1.017  13.186  1.00  0.00     0.134 A 
ATOM     71  F   UNL     1       0.130  -1.126  16.137  1.00  0.00    -0.206 F 
ATOM     72  C   UNL     1      -2.179  -1.400  15.908  1.00  0.00     0.040 A 
ATOM     73  C   UNL     1      -3.228  -1.228  13.766  1.00  0.00     0.040 A 
ATOM     74  F   UNL     1      -1.980  -0.984  11.847  1.00  0.00    -0.206 F 
ATOM     75  C   UNL     1      -3.330  -1.448  15.129  1.00  0.00     0.006 A 
ENDBRANCH  54  68
BRANCH  55  76
ATOM     76  C   UNL     1      -0.094  -7.109   8.011  1.00  0.00     0.057 A 
ATOM     77  C   UNL     1      -0.442  -8.377   8.492  1.00  0.00     0.134 A 
ATOM     78  C   UNL     1      -0.759  -6.691   6.843  1.00  0.00     0.134 A 
ATOM     79  F   UNL     1       0.102  -8.850   9.623  1.00  0.00    -0.206 F 
ATOM     80  C   UNL     1      -1.403  -9.177   7.859  1.00  0.00     0.040 A 
ATOM     81  C   UNL     1      -1.708  -7.485   6.192  1.00  0.00     0.040 A 
ATOM     82  F   UNL     1      -0.576  -5.463   6.338  1.00  0.00    -0.206 F 
ATOM     83  C   UNL     1      -2.043  -8.729   6.708  1.00  0.00     0.006 A 
ENDBRANCH  55  76
BRANCH  67  84
ATOM     84  C   UNL     1       4.008  -5.570  12.505  1.00  0.00     0.057 A 
ATOM     85  C   UNL     1       4.629  -5.510  11.248  1.00  0.00     0.134 A 
ATOM     86  C   UNL     1       4.769  -6.077  13.563  1.00  0.00     0.134 A 
ATOM     87  F   UNL     1       4.020  -4.941  10.200  1.00  0.00    -0.206 F 
ATOM     88  C   UNL     1       5.929  -5.982  11.044  1.00  0.00     0.040 A 
ATOM     89  C   UNL     1       6.082  -6.520  13.380  1.00  0.00     0.040 A 
ATOM     90  F   UNL     1       4.264  -6.107  14.806  1.00  0.00    -0.206 F 
ATOM     91  C   UNL     1       6.662  -6.484  12.115  1.00  0.00     0.006 A 
ENDBRANCH  67  84
ENDBRANCH  41  42
ENDBRANCH  34  36
ENDBRANCH  33  34
ENDBRANCH  32  33
ENDBRANCH  31  32
ENDBRANCH  30  31
ENDBRANCH  29  30
ENDBRANCH   1  29
TORSDOF 17
