REMARK SMILES O=C(OCCOCCOC(=O)c1ccc(-c2c3nc(c(-c4c(F)cccc4F)c4ccc([nH]4)c(-c4c(F)cccc4F)c4nc(c(-c5c(F)cccc5F)c5ccc2[nH]5)C=C4)C=C3)cc1)C1=NN(c2ccc(S(=O)(=O)[O-])cc2)C(=O)/C1=C/Nc1ccccc1
REMARK SMILES IDX 6 1 5 2 4 3 3 4 2 5 1 6 66 7 67 8 81 9 68 10 79 11 82 12
REMARK SMILES IDX 80 13 69 14 70 15 78 16 71 17 77 18 72 19 73 20 74 21 75 22
REMARK SMILES IDX 76 23 83 24 84 26 85 27 89 28 86 29 88 30 87 31 7 32 8 33
REMARK SMILES IDX 9 34 10 35 11 36 12 37 13 38 65 39 14 40 64 41 15 42 16 43
REMARK SMILES IDX 17 44 58 45 18 46 63 47 57 48 59 49 19 50 62 51 56 52 55 53
REMARK SMILES IDX 20 55 46 56 29 57 45 58 30 59 33 60 44 61 60 62 31 63 32 64
REMARK SMILES IDX 43 66 61 67 34 68 21 69 22 70 27 71 23 72 24 73 26 74 28 75
REMARK SMILES IDX 25 76 47 77 48 78 53 79 49 80 50 81 52 82 54 83 51 84 35 85
REMARK SMILES IDX 36 86 41 87 37 88 38 89 40 90 42 91 39 92
REMARK H PARENT 83 25 59 54 33 65
REMARK Flexibility Score: inf
ROOT
ATOM      1  O   UNL     1       3.273   0.968   0.231  1.00  0.00    -0.374 OA
ENDROOT
BRANCH   1   2
ATOM      2  C   UNL     1       4.107   0.718  -0.906  1.00  0.00     0.202 C 
BRANCH   2   3
ATOM      3  C   UNL     1       4.098  -0.756  -1.285  1.00  0.00     0.261 C 
BRANCH   3   4
ATOM      4  O   UNL     1       2.900  -1.399  -0.841  1.00  0.00    -0.458 OA
BRANCH   4   5
ATOM      5  C   UNL     1       2.598  -1.389   0.475  1.00  0.00     0.359 C 
ATOM      6  O   UNL     1       1.441  -1.418   0.879  1.00  0.00    -0.244 OA
BRANCH   5   7
ATOM      7  C   UNL     1       3.691  -1.708   1.463  1.00  0.00     0.183 C 
ATOM      8  N   UNL     1       3.869  -2.998   1.583  1.00  0.00    -0.157 NA
ATOM      9  C   UNL     1       4.355  -0.927   2.566  1.00  0.00     0.093 C 
ATOM     10  N   UNL     1       4.402  -3.193   2.825  1.00  0.00    -0.196 N 
ATOM     11  C   UNL     1       4.888  -2.033   3.431  1.00  0.00     0.282 C 
ATOM     12  C   UNL     1       4.589   0.292   3.099  1.00  0.00     0.099 C 
ATOM     13  O   UNL     1       5.509  -1.906   4.473  1.00  0.00    -0.267 OA
BRANCH  10  14
ATOM     14  C   UNL     1       3.813  -4.275   3.530  1.00  0.00     0.069 A 
ATOM     15  C   UNL     1       3.271  -5.361   2.819  1.00  0.00     0.030 A 
ATOM     16  C   UNL     1       3.580  -4.186   4.910  1.00  0.00     0.030 A 
ATOM     17  C   UNL     1       2.537  -6.349   3.474  1.00  0.00     0.021 A 
ATOM     18  C   UNL     1       2.832  -5.160   5.569  1.00  0.00     0.021 A 
ATOM     19  C   UNL     1       2.333  -6.245   4.851  1.00  0.00     0.054 A 
BRANCH  19  20
ATOM     20  S   UNL     1       1.447  -7.528   5.676  1.00  0.00     0.124 S 
ATOM     21  O   UNL     1       0.099  -7.552   5.156  1.00  0.00    -0.237 OA
ATOM     22  O   UNL     1       2.288  -8.705   5.675  1.00  0.00    -0.237 OA
ATOM     23  O   UNL     1       1.351  -7.070   7.221  1.00  0.00    -0.744 OA
ENDBRANCH  19  20
ENDBRANCH  10  14
BRANCH  12  24
ATOM     24  N   UNL     1       4.232   1.576   2.769  1.00  0.00    -0.361 N 
ATOM     25  H   UNL     1       3.496   1.653   2.120  1.00  0.00     0.166 HD
BRANCH  24  26
ATOM     26  C   UNL     1       4.778   2.828   3.234  1.00  0.00     0.038 A 
ATOM     27  C   UNL     1       3.871   3.893   3.414  1.00  0.00     0.026 A 
ATOM     28  C   UNL     1       6.123   3.156   2.989  1.00  0.00     0.026 A 
ATOM     29  C   UNL     1       4.254   5.226   3.208  1.00  0.00     0.002 A 
ATOM     30  C   UNL     1       6.510   4.496   2.798  1.00  0.00     0.002 A 
ATOM     31  C   UNL     1       5.569   5.524   2.866  1.00  0.00     0.000 A 
ENDBRANCH  24  26
ENDBRANCH  12  24
ENDBRANCH   5   7
ENDBRANCH   4   5
ENDBRANCH   3   4
ENDBRANCH   2   3
ENDBRANCH   1   2
BRANCH   1  32
ATOM     32  C   UNL     1       1.966   1.493  -0.046  1.00  0.00     0.202 C 
BRANCH  32  33
ATOM     33  C   UNL     1       1.788   2.854   0.616  1.00  0.00     0.261 C 
BRANCH  33  34
ATOM     34  O   UNL     1       2.527   3.870  -0.063  1.00  0.00    -0.460 OA
BRANCH  34  35
ATOM     35  C   UNL     1       3.867   3.772  -0.006  1.00  0.00     0.338 C 
ATOM     36  O   UNL     1       4.560   2.978   0.605  1.00  0.00    -0.246 OA
BRANCH  35  37
ATOM     37  C   UNL     1       4.488   4.575  -1.021  1.00  0.00     0.060 A 
ATOM     38  C   UNL     1       5.704   4.099  -1.548  1.00  0.00     0.016 A 
ATOM     39  C   UNL     1       3.837   5.706  -1.490  1.00  0.00     0.016 A 
ATOM     40  C   UNL     1       6.268   4.750  -2.613  1.00  0.00     0.010 A 
ATOM     41  C   UNL     1       4.383   6.338  -2.572  1.00  0.00     0.010 A 
ATOM     42  C   UNL     1       5.584   5.850  -3.122  1.00  0.00    -0.014 A 
BRANCH  42  43
ATOM     43  C   UNL     1       6.119   6.592  -4.247  1.00  0.00     0.031 A 
ATOM     44  C   UNL     1       6.647   7.944  -3.950  1.00  0.00     0.074 A 
ATOM     45  C   UNL     1       5.880   6.093  -5.466  1.00  0.00     0.049 A 
ATOM     46  N   UNL     1       6.824   8.944  -4.758  1.00  0.00    -0.248 NA
ATOM     47  C   UNL     1       6.942   8.229  -2.533  1.00  0.00     0.031 C 
ATOM     48  C   UNL     1       5.327   4.764  -5.744  1.00  0.00     0.029 A 
ATOM     49  N   UNL     1       5.993   6.681  -6.688  1.00  0.00    -0.354 N 
ATOM     50  C   UNL     1       7.215   9.995  -3.945  1.00  0.00     0.074 A 
ATOM     51  C   UNL     1       7.211   9.522  -2.580  1.00  0.00     0.031 C 
ATOM     52  C   UNL     1       5.101   4.656  -7.061  1.00  0.00     0.029 A 
ATOM     53  C   UNL     1       5.441   5.926  -7.689  1.00  0.00     0.049 A 
ATOM     54  H   UNL     1       6.425   7.553  -6.836  1.00  0.00     0.167 HD
ATOM     55  C   UNL     1       7.535  11.245  -4.338  1.00  0.00     0.037 A 
ATOM     56  C   UNL     1       5.187   6.270  -8.961  1.00  0.00     0.037 A 
ATOM     57  C   UNL     1       7.481  11.641  -5.719  1.00  0.00     0.049 A 
ATOM     58  C   UNL     1       5.558   7.662  -9.379  1.00  0.00     0.074 A 
ATOM     59  C   UNL     1       7.830  12.846  -6.290  1.00  0.00     0.029 A 
ATOM     60  N   UNL     1       7.024  10.819  -6.748  1.00  0.00    -0.354 N 
ATOM     61  N   UNL     1       6.000   8.652  -8.636  1.00  0.00    -0.248 NA
ATOM     62  C   UNL     1       5.413   7.985 -10.798  1.00  0.00     0.031 C 
ATOM     63  C   UNL     1       7.532  12.771  -7.655  1.00  0.00     0.029 A 
ATOM     64  C   UNL     1       7.061  11.497  -7.950  1.00  0.00     0.049 A 
ATOM     65  H   UNL     1       6.720   9.889  -6.634  1.00  0.00     0.167 HD
ATOM     66  C   UNL     1       6.221   9.711  -9.501  1.00  0.00     0.074 A 
ATOM     67  C   UNL     1       5.858   9.234 -10.825  1.00  0.00     0.031 C 
ATOM     68  C   UNL     1       6.687  10.959  -9.238  1.00  0.00     0.037 A 
BRANCH  55  69
ATOM     69  C   UNL     1       7.905  12.225  -3.267  1.00  0.00     0.057 A 
ATOM     70  C   UNL     1       9.041  12.057  -2.460  1.00  0.00     0.134 A 
ATOM     71  C   UNL     1       7.085  13.327  -2.996  1.00  0.00     0.134 A 
ATOM     72  F   UNL     1       9.858  11.008  -2.644  1.00  0.00    -0.206 F 
ATOM     73  C   UNL     1       9.322  12.921  -1.399  1.00  0.00     0.040 A 
ATOM     74  C   UNL     1       7.374  14.217  -1.960  1.00  0.00     0.040 A 
ATOM     75  F   UNL     1       5.976  13.545  -3.718  1.00  0.00    -0.206 F 
ATOM     76  C   UNL     1       8.488  14.008  -1.150  1.00  0.00     0.006 A 
ENDBRANCH  55  69
BRANCH  56  77
ATOM     77  C   UNL     1       4.588   5.274  -9.876  1.00  0.00     0.057 A 
ATOM     78  C   UNL     1       5.369   4.640 -10.847  1.00  0.00     0.134 A 
ATOM     79  C   UNL     1       3.259   4.851  -9.737  1.00  0.00     0.134 A 
ATOM     80  F   UNL     1       6.650   4.997 -11.018  1.00  0.00    -0.206 F 
ATOM     81  C   UNL     1       4.851   3.626 -11.653  1.00  0.00     0.040 A 
ATOM     82  C   UNL     1       2.734   3.824 -10.523  1.00  0.00     0.040 A 
ATOM     83  F   UNL     1       2.469   5.395  -8.800  1.00  0.00    -0.206 F 
ATOM     84  C   UNL     1       3.531   3.210 -11.487  1.00  0.00     0.006 A 
ENDBRANCH  56  77
BRANCH  68  85
ATOM     85  C   UNL     1       6.873  11.864 -10.416  1.00  0.00     0.057 A 
ATOM     86  C   UNL     1       5.789  12.451 -11.078  1.00  0.00     0.134 A 
ATOM     87  C   UNL     1       8.163  12.208 -10.838  1.00  0.00     0.134 A 
ATOM     88  F   UNL     1       4.530  12.147 -10.726  1.00  0.00    -0.206 F 
ATOM     89  C   UNL     1       5.983  13.343 -12.131  1.00  0.00     0.040 A 
ATOM     90  C   UNL     1       8.370  13.123 -11.867  1.00  0.00     0.040 A 
ATOM     91  F   UNL     1       9.240  11.684 -10.233  1.00  0.00    -0.206 F 
ATOM     92  C   UNL     1       7.277  13.690 -12.519  1.00  0.00     0.006 A 
ENDBRANCH  68  85
ENDBRANCH  42  43
ENDBRANCH  35  37
ENDBRANCH  34  35
ENDBRANCH  33  34
ENDBRANCH  32  33
ENDBRANCH   1  32
TORSDOF 18
