REMARK SMILES C[C@@](NC(=O)NCC(N)=O)(C(=O)OCCOCCOC(=O)c1ccc(-c2c3nc(c(-c4c(F)cccc4F)c4ccc([nH]4)c(-c4c(F)cccc4F)c4nc(c(-c5c(F)cccc5F)c5ccc2[nH]5)C=C4)C=C3)cc1)C(F)(F)F
REMARK SMILES IDX 15 1 14 2 13 3 11 4 12 5 2 6 1 7 3 8 4 9 5 11 6 12 7 14 8 15
REMARK SMILES IDX 9 16 10 17 76 20 77 21 78 22 79 23 16 24 17 25 18 26 19 27
REMARK SMILES IDX 20 28 21 29 22 30 23 31 75 32 24 33 74 34 25 35 26 36 27 37
REMARK SMILES IDX 68 38 28 39 73 40 67 41 69 42 29 43 72 44 66 45 65 46 30 48
REMARK SMILES IDX 56 49 39 50 55 51 40 52 43 53 54 54 70 55 41 56 42 57 53 59
REMARK SMILES IDX 71 60 44 61 31 62 32 63 37 64 33 65 34 66 36 67 38 68 35 69
REMARK SMILES IDX 57 70 58 71 63 72 59 73 60 74 62 75 64 76 61 77 45 78 46 79
REMARK SMILES IDX 51 80 47 81 48 82 50 83 52 84 49 85
REMARK H PARENT 3 10 6 13 9 18 9 19 69 47 43 58
REMARK Flexibility Score: inf
ROOT
ATOM      1  C   UNL     1      -3.773   0.280   0.561  1.00  0.00     0.202 C 
ENDROOT
BRANCH   1   2
ATOM      2  C   UNL     1      -2.783   0.307  -0.616  1.00  0.00     0.261 C 
BRANCH   2   3
ATOM      3  O   UNL     1      -1.372   0.209  -0.399  1.00  0.00    -0.461 OA
BRANCH   3   4
ATOM      4  C   UNL     1      -0.744   1.299   0.126  1.00  0.00     0.341 C 
ATOM      5  O   UNL     1      -1.286   2.100   0.876  1.00  0.00    -0.249 OA
BRANCH   4   6
ATOM      6  C   UNL     1       0.648   1.486  -0.450  1.00  0.00     0.232 C 
ATOM      7  C   UNL     1       1.345   0.100  -0.423  1.00  0.00     0.058 C 
BRANCH   6   8
ATOM      8  N   UNL     1       0.625   1.939  -1.888  1.00  0.00    -0.315 N 
ATOM      9  C   UNL     1       0.071   2.869  -2.670  1.00  0.00     0.316 C 
ATOM     10  H   UNL     1       1.209   1.358  -2.427  1.00  0.00     0.166 HD
ATOM     11  O   UNL     1       0.506   2.930  -3.823  1.00  0.00    -0.249 OA
ATOM     12  N   UNL     1      -0.939   3.678  -2.348  1.00  0.00    -0.329 N 
ATOM     13  H   UNL     1      -1.241   4.250  -3.091  1.00  0.00     0.165 HD
BRANCH  12  14
ATOM     14  C   UNL     1      -1.674   3.879  -1.127  1.00  0.00     0.217 C 
BRANCH  14  15
ATOM     15  C   UNL     1      -2.856   4.843  -1.105  1.00  0.00     0.236 C 
ATOM     16  N   UNL     1      -4.059   4.262  -0.787  1.00  0.00    -0.368 N 
ATOM     17  O   UNL     1      -2.776   6.037  -1.367  1.00  0.00    -0.273 OA
ATOM     18  H   UNL     1      -4.101   3.301  -0.579  1.00  0.00     0.159 HD
ATOM     19  H   UNL     1      -4.878   4.807  -0.766  1.00  0.00     0.159 HD
ENDBRANCH  14  15
ENDBRANCH  12  14
ENDBRANCH   6   8
BRANCH   6  20
ATOM     20  C   UNL     1       1.414   2.388   0.532  1.00  0.00     0.422 C 
ATOM     21  F   UNL     1       1.378   1.887   1.792  1.00  0.00    -0.168 F 
ATOM     22  F   UNL     1       2.728   2.451   0.189  1.00  0.00    -0.168 F 
ATOM     23  F   UNL     1       0.966   3.656   0.577  1.00  0.00    -0.168 F 
ENDBRANCH   6  20
ENDBRANCH   4   6
ENDBRANCH   3   4
ENDBRANCH   2   3
ENDBRANCH   1   2
BRANCH   1  24
ATOM     24  O   UNL     1      -3.396   0.574   1.887  1.00  0.00    -0.374 OA
BRANCH  24  25
ATOM     25  C   UNL     1      -2.351  -0.131   2.539  1.00  0.00     0.202 C 
BRANCH  25  26
ATOM     26  C   UNL     1      -2.244  -1.656   2.473  1.00  0.00     0.261 C 
BRANCH  26  27
ATOM     27  O   UNL     1      -2.395  -2.210   1.161  1.00  0.00    -0.460 OA
BRANCH  27  28
ATOM     28  C   UNL     1      -3.537  -2.908   0.981  1.00  0.00     0.338 C 
ATOM     29  O   UNL     1      -4.435  -3.096   1.798  1.00  0.00    -0.246 OA
BRANCH  28  30
ATOM     30  C   UNL     1      -3.668  -3.290  -0.428  1.00  0.00     0.060 A 
ATOM     31  C   UNL     1      -4.822  -2.891  -1.119  1.00  0.00     0.016 A 
ATOM     32  C   UNL     1      -2.709  -4.101  -1.034  1.00  0.00     0.016 A 
ATOM     33  C   UNL     1      -5.046  -3.344  -2.414  1.00  0.00     0.010 A 
ATOM     34  C   UNL     1      -2.948  -4.577  -2.321  1.00  0.00     0.010 A 
ATOM     35  C   UNL     1      -4.136  -4.233  -2.994  1.00  0.00    -0.014 A 
BRANCH  35  36
ATOM     36  C   UNL     1      -4.516  -4.994  -4.201  1.00  0.00     0.031 A 
ATOM     37  C   UNL     1      -5.069  -6.376  -4.015  1.00  0.00     0.074 A 
ATOM     38  C   UNL     1      -4.331  -4.483  -5.427  1.00  0.00     0.049 A 
ATOM     39  N   UNL     1      -5.310  -7.302  -4.905  1.00  0.00    -0.248 NA
ATOM     40  C   UNL     1      -5.376  -6.770  -2.631  1.00  0.00     0.031 C 
ATOM     41  C   UNL     1      -3.847  -3.136  -5.716  1.00  0.00     0.029 A 
ATOM     42  N   UNL     1      -4.497  -5.061  -6.658  1.00  0.00    -0.354 N 
ATOM     43  C   UNL     1      -5.769  -8.398  -4.186  1.00  0.00     0.074 A 
ATOM     44  C   UNL     1      -5.759  -8.027  -2.788  1.00  0.00     0.031 C 
ATOM     45  C   UNL     1      -3.710  -3.004  -7.046  1.00  0.00     0.029 A 
ATOM     46  C   UNL     1      -4.056  -4.271  -7.689  1.00  0.00     0.049 A 
ATOM     47  H   UNL     1      -4.893  -5.953  -6.790  1.00  0.00     0.167 HD
ATOM     48  C   UNL     1      -6.157  -9.607  -4.654  1.00  0.00     0.037 A 
ATOM     49  C   UNL     1      -3.902  -4.561  -8.995  1.00  0.00     0.037 A 
ATOM     50  C   UNL     1      -6.151  -9.960  -6.048  1.00  0.00     0.049 A 
ATOM     51  C   UNL     1      -4.279  -5.930  -9.493  1.00  0.00     0.074 A 
ATOM     52  C   UNL     1      -6.550 -11.145  -6.640  1.00  0.00     0.029 A 
ATOM     53  N   UNL     1      -5.707  -9.130  -7.067  1.00  0.00    -0.354 N 
ATOM     54  N   UNL     1      -4.734  -6.958  -8.818  1.00  0.00    -0.248 NA
ATOM     55  C   UNL     1      -4.122  -6.180 -10.933  1.00  0.00     0.031 C 
ATOM     56  C   UNL     1      -6.289 -11.053  -8.011  1.00  0.00     0.029 A 
ATOM     57  C   UNL     1      -5.790  -9.787  -8.283  1.00  0.00     0.049 A 
ATOM     58  H   UNL     1      -5.381  -8.209  -6.944  1.00  0.00     0.167 HD
ATOM     59  C   UNL     1      -4.945  -7.967  -9.750  1.00  0.00     0.074 A 
ATOM     60  C   UNL     1      -4.568  -7.425 -11.040  1.00  0.00     0.031 C 
ATOM     61  C   UNL     1      -5.416  -9.225  -9.557  1.00  0.00     0.037 A 
BRANCH  48  62
ATOM     62  C   UNL     1      -6.557 -10.639  -3.640  1.00  0.00     0.057 A 
ATOM     63  C   UNL     1      -7.723 -10.521  -2.871  1.00  0.00     0.134 A 
ATOM     64  C   UNL     1      -5.747 -11.759  -3.414  1.00  0.00     0.134 A 
ATOM     65  F   UNL     1      -8.534  -9.463  -3.022  1.00  0.00    -0.206 F 
ATOM     66  C   UNL     1      -8.048 -11.459  -1.889  1.00  0.00     0.040 A 
ATOM     67  C   UNL     1      -6.078 -12.720  -2.457  1.00  0.00     0.040 A 
ATOM     68  F   UNL     1      -4.617 -11.936  -4.115  1.00  0.00    -0.206 F 
ATOM     69  C   UNL     1      -7.225 -12.565  -1.683  1.00  0.00     0.006 A 
ENDBRANCH  48  62
BRANCH  49  70
ATOM     70  C   UNL     1      -3.336  -3.535  -9.905  1.00  0.00     0.057 A 
ATOM     71  C   UNL     1      -4.130  -2.888 -10.856  1.00  0.00     0.134 A 
ATOM     72  C   UNL     1      -1.991  -3.150  -9.816  1.00  0.00     0.134 A 
ATOM     73  F   UNL     1      -5.420  -3.227 -11.001  1.00  0.00    -0.206 F 
ATOM     74  C   UNL     1      -3.610  -1.895 -11.688  1.00  0.00     0.040 A 
ATOM     75  C   UNL     1      -1.463  -2.143 -10.625  1.00  0.00     0.040 A 
ATOM     76  F   UNL     1      -1.179  -3.730  -8.919  1.00  0.00    -0.206 F 
ATOM     77  C   UNL     1      -2.274  -1.514 -11.567  1.00  0.00     0.006 A 
ENDBRANCH  49  70
BRANCH  61  78
ATOM     78  C   UNL     1      -5.597 -10.092 -10.769  1.00  0.00     0.057 A 
ATOM     79  C   UNL     1      -4.512 -10.663 -11.444  1.00  0.00     0.134 A 
ATOM     80  C   UNL     1      -6.884 -10.422 -11.215  1.00  0.00     0.134 A 
ATOM     81  F   UNL     1      -3.254 -10.379 -11.073  1.00  0.00    -0.206 F 
ATOM     82  C   UNL     1      -4.701 -11.524 -12.527  1.00  0.00     0.040 A 
ATOM     83  C   UNL     1      -7.086 -11.302 -12.278  1.00  0.00     0.040 A 
ATOM     84  F   UNL     1      -7.967  -9.917 -10.604  1.00  0.00    -0.206 F 
ATOM     85  C   UNL     1      -5.991 -11.854 -12.939  1.00  0.00     0.006 A 
ENDBRANCH  61  78
ENDBRANCH  35  36
ENDBRANCH  28  30
ENDBRANCH  27  28
ENDBRANCH  26  27
ENDBRANCH  25  26
ENDBRANCH  24  25
ENDBRANCH   1  24
TORSDOF 18
