REMARK SMILES Cc1cc([N+](=O)[O-])ccc1NC(=O)[C@@H]1[C@@H](C(=O)OCCOCCOC(=O)c2ccc(-c3c4nc(c(-c5c(F)cccc5F)c5ccc([nH]5)c(-c5c(F)cccc5F)c5nc(c(-c6c(F)cccc6F)c6ccc3[nH]6)C=C5)C=C4)cc2)[C@H]2C=C[C@@H]1C2
REMARK SMILES IDX 20 1 19 2 18 3 16 4 17 5 15 6 14 7 84 8 81 9 83 10 85 11
REMARK SMILES IDX 82 12 12 13 11 14 13 16 10 17 1 18 2 19 3 20 4 21 9 22 8 23
REMARK SMILES IDX 5 24 6 25 7 26 21 27 22 28 23 29 24 30 25 31 26 32 27 33
REMARK SMILES IDX 28 34 80 35 29 36 79 37 30 38 31 39 32 40 73 41 33 42 78 43
REMARK SMILES IDX 72 44 74 45 34 46 77 47 71 48 70 49 35 51 61 52 44 53 60 54
REMARK SMILES IDX 45 55 48 56 59 57 75 58 46 59 47 60 58 62 76 63 49 64 36 65
REMARK SMILES IDX 37 66 42 67 38 68 39 69 41 70 43 71 40 72 62 73 63 74 68 75
REMARK SMILES IDX 64 76 65 77 67 78 69 79 66 80 50 81 51 82 56 83 52 84 53 85
REMARK SMILES IDX 55 86 57 87 54 88
REMARK H PARENT 11 15 74 50 48 61
REMARK Flexibility Score: inf
ROOT
ATOM      1  C   UNL     1      -1.299   8.210  -1.481  1.00  0.00     0.202 C 
ENDROOT
BRANCH   1   2
ATOM      2  C   UNL     1      -2.507   7.574  -0.827  1.00  0.00     0.261 C 
BRANCH   2   3
ATOM      3  O   UNL     1      -2.115   6.689   0.242  1.00  0.00    -0.463 OA
BRANCH   3   4
ATOM      4  C   UNL     1      -1.866   5.385  -0.095  1.00  0.00     0.310 C 
ATOM      5  O   UNL     1      -2.143   4.867  -1.150  1.00  0.00    -0.252 OA
BRANCH   4   6
ATOM      6  C   UNL     1      -1.083   4.732   1.019  1.00  0.00     0.119 C 
ATOM      7  C   UNL     1      -0.636   3.292   0.651  1.00  0.00     0.100 C 
ATOM      8  C   UNL     1      -0.813   2.541   1.998  1.00  0.00     0.025 C 
ATOM      9  C   UNL     1      -1.823   4.512   2.358  1.00  0.00     0.027 C 
ATOM     10  C   UNL     1      -2.289   2.254   2.096  1.00  0.00    -0.027 C 
ATOM     11  C   UNL     1      -0.752   3.661   3.051  1.00  0.00     0.017 C 
ATOM     12  C   UNL     1      -2.892   3.437   2.284  1.00  0.00    -0.027 C 
BRANCH   7  13
ATOM     13  C   UNL     1       0.762   3.184   0.076  1.00  0.00     0.228 C 
ATOM     14  N   UNL     1       1.227   1.974  -0.382  1.00  0.00    -0.326 N 
ATOM     15  H   UNL     1       2.155   1.982  -0.709  1.00  0.00     0.169 HD
ATOM     16  O   UNL     1       1.534   4.147   0.063  1.00  0.00    -0.274 OA
BRANCH  14  17
ATOM     17  C   UNL     1       0.580   0.725  -0.456  1.00  0.00     0.044 A 
ATOM     18  C   UNL     1       2.770  -0.461   0.174  1.00  0.00     0.047 C 
ATOM     19  C   UNL     1       1.290  -0.440  -0.103  1.00  0.00    -0.021 A 
ATOM     20  C   UNL     1       0.592  -1.661  -0.005  1.00  0.00     0.091 A 
ATOM     21  C   UNL     1      -0.782  -1.720  -0.274  1.00  0.00     0.269 A 
ATOM     22  C   UNL     1      -0.760   0.610  -0.854  1.00  0.00     0.033 A 
ATOM     23  C   UNL     1      -1.456  -0.594  -0.736  1.00  0.00     0.088 A 
BRANCH  21  24
ATOM     24  N   UNL     1      -1.516  -2.973  -0.071  1.00  0.00     0.062 N 
ATOM     25  O   UNL     1      -0.854  -4.004   0.111  1.00  0.00    -0.258 OA
ATOM     26  O   UNL     1      -2.754  -2.923  -0.082  1.00  0.00    -0.258 OA
ENDBRANCH  21  24
ENDBRANCH  14  17
ENDBRANCH   7  13
ENDBRANCH   4   6
ENDBRANCH   3   4
ENDBRANCH   2   3
ENDBRANCH   1   2
BRANCH   1  27
ATOM     27  O   UNL     1      -0.781   7.271  -2.417  1.00  0.00    -0.374 OA
BRANCH  27  28
ATOM     28  C   UNL     1       0.376   7.695  -3.128  1.00  0.00     0.202 C 
BRANCH  28  29
ATOM     29  C   UNL     1       0.143   8.915  -4.035  1.00  0.00     0.261 C 
BRANCH  29  30
ATOM     30  O   UNL     1      -0.863   8.601  -5.015  1.00  0.00    -0.460 OA
BRANCH  30  31
ATOM     31  C   UNL     1      -2.081   9.165  -4.802  1.00  0.00     0.338 C 
ATOM     32  O   UNL     1      -2.285  10.334  -4.518  1.00  0.00    -0.246 OA
BRANCH  31  33
ATOM     33  C   UNL     1      -3.106   8.091  -4.686  1.00  0.00     0.060 A 
ATOM     34  C   UNL     1      -4.386   8.406  -4.197  1.00  0.00     0.016 A 
ATOM     35  C   UNL     1      -2.704   6.758  -4.783  1.00  0.00     0.016 A 
ATOM     36  C   UNL     1      -5.207   7.395  -3.682  1.00  0.00     0.010 A 
ATOM     37  C   UNL     1      -3.483   5.778  -4.206  1.00  0.00     0.010 A 
ATOM     38  C   UNL     1      -4.721   6.090  -3.626  1.00  0.00    -0.014 A 
BRANCH  38  39
ATOM     39  C   UNL     1      -5.344   4.987  -2.893  1.00  0.00     0.031 A 
ATOM     40  C   UNL     1      -5.777   3.771  -3.619  1.00  0.00     0.074 A 
ATOM     41  C   UNL     1      -5.284   4.957  -1.542  1.00  0.00     0.049 A 
ATOM     42  N   UNL     1      -6.463   2.815  -3.092  1.00  0.00    -0.248 NA
ATOM     43  C   UNL     1      -5.500   3.540  -5.030  1.00  0.00     0.031 C 
ATOM     44  C   UNL     1      -5.426   3.795  -0.671  1.00  0.00     0.029 A 
ATOM     45  N   UNL     1      -5.165   6.024  -0.642  1.00  0.00    -0.354 N 
ATOM     46  C   UNL     1      -6.399   1.728  -3.931  1.00  0.00     0.074 A 
ATOM     47  C   UNL     1      -5.909   2.276  -5.171  1.00  0.00     0.031 C 
ATOM     48  C   UNL     1      -5.728   4.212   0.566  1.00  0.00     0.029 A 
ATOM     49  C   UNL     1      -5.869   5.654   0.513  1.00  0.00     0.049 A 
ATOM     50  H   UNL     1      -4.683   6.869  -0.791  1.00  0.00     0.167 HD
ATOM     51  C   UNL     1      -6.633   0.490  -3.399  1.00  0.00     0.037 A 
ATOM     52  C   UNL     1      -6.923   6.372   0.975  1.00  0.00     0.037 A 
ATOM     53  C   UNL     1      -7.142   0.613  -2.013  1.00  0.00     0.049 A 
ATOM     54  C   UNL     1      -8.131   5.487   0.993  1.00  0.00     0.074 A 
ATOM     55  C   UNL     1      -6.610   0.314  -0.767  1.00  0.00     0.029 A 
ATOM     56  N   UNL     1      -8.280   1.393  -1.761  1.00  0.00    -0.354 N 
ATOM     57  N   UNL     1      -8.276   4.487   0.160  1.00  0.00    -0.248 NA
ATOM     58  C   UNL     1      -9.160   5.525   2.025  1.00  0.00     0.031 C 
ATOM     59  C   UNL     1      -7.383   0.990   0.219  1.00  0.00     0.029 A 
ATOM     60  C   UNL     1      -8.405   1.682  -0.415  1.00  0.00     0.049 A 
ATOM     61  H   UNL     1      -8.911   1.695  -2.455  1.00  0.00     0.167 HD
ATOM     62  C   UNL     1      -9.280   3.687   0.611  1.00  0.00     0.074 A 
ATOM     63  C   UNL     1      -9.855   4.409   1.735  1.00  0.00     0.031 C 
ATOM     64  C   UNL     1      -9.535   2.447   0.108  1.00  0.00     0.037 A 
BRANCH  51  65
ATOM     65  C   UNL     1      -6.171  -0.836  -4.017  1.00  0.00     0.057 A 
ATOM     66  C   UNL     1      -6.145  -2.023  -3.251  1.00  0.00     0.134 A 
ATOM     67  C   UNL     1      -5.675  -1.020  -5.324  1.00  0.00     0.134 A 
ATOM     68  F   UNL     1      -6.642  -2.071  -2.009  1.00  0.00    -0.206 F 
ATOM     69  C   UNL     1      -5.609  -3.240  -3.716  1.00  0.00     0.040 A 
ATOM     70  C   UNL     1      -5.128  -2.224  -5.800  1.00  0.00     0.040 A 
ATOM     71  F   UNL     1      -5.713  -0.066  -6.252  1.00  0.00    -0.206 F 
ATOM     72  C   UNL     1      -5.082  -3.342  -4.991  1.00  0.00     0.006 A 
ENDBRANCH  51  65
BRANCH  52  73
ATOM     73  C   UNL     1      -6.797   7.828   0.715  1.00  0.00     0.057 A 
ATOM     74  C   UNL     1      -5.812   8.524   1.446  1.00  0.00     0.134 A 
ATOM     75  C   UNL     1      -7.247   8.434  -0.462  1.00  0.00     0.134 A 
ATOM     76  F   UNL     1      -5.309   7.989   2.571  1.00  0.00    -0.206 F 
ATOM     77  C   UNL     1      -5.227   9.707   0.980  1.00  0.00     0.040 A 
ATOM     78  C   UNL     1      -6.664   9.619  -0.942  1.00  0.00     0.040 A 
ATOM     79  F   UNL     1      -8.163   7.832  -1.232  1.00  0.00    -0.206 F 
ATOM     80  C   UNL     1      -5.629  10.238  -0.240  1.00  0.00     0.006 A 
ENDBRANCH  52  73
BRANCH  64  81
ATOM     81  C   UNL     1     -10.895   1.821   0.186  1.00  0.00     0.057 A 
ATOM     82  C   UNL     1     -12.073   2.586   0.222  1.00  0.00     0.134 A 
ATOM     83  C   UNL     1     -11.070   0.437   0.007  1.00  0.00     0.134 A 
ATOM     84  F   UNL     1     -12.042   3.925   0.290  1.00  0.00    -0.206 F 
ATOM     85  C   UNL     1     -13.341   2.010   0.130  1.00  0.00     0.040 A 
ATOM     86  C   UNL     1     -12.332  -0.144  -0.135  1.00  0.00     0.040 A 
ATOM     87  F   UNL     1     -10.028  -0.403  -0.076  1.00  0.00    -0.206 F 
ATOM     88  C   UNL     1     -13.473   0.642  -0.065  1.00  0.00     0.006 A 
ENDBRANCH  64  81
ENDBRANCH  38  39
ENDBRANCH  31  33
ENDBRANCH  30  31
ENDBRANCH  29  30
ENDBRANCH  28  29
ENDBRANCH  27  28
ENDBRANCH   1  27
TORSDOF 17
