REMARK SMILES O=C(OCCOCCOC(=O)C1([C@@H]2CCCC[C@H]2O)CCOCC1)c1ccc(-c2c3nc(c(-c4c(F)cccc4F)c4ccc([nH]4)c(-c4c(F)cccc4F)c4nc(c(-c5c(F)cccc5F)c5ccc2[nH]5)C=C4)C=C3)cc1
REMARK SMILES IDX 6 1 5 2 4 3 3 4 2 5 1 6 25 7 26 8 78 9 27 10 77 11 28 12
REMARK SMILES IDX 29 13 30 14 71 15 31 16 76 17 70 18 72 19 32 20 75 21 69 22
REMARK SMILES IDX 68 23 33 25 59 26 42 27 58 28 43 29 46 30 57 31 73 32 44 33
REMARK SMILES IDX 45 34 56 36 74 37 47 38 34 39 35 40 40 41 36 42 37 43 39 44
REMARK SMILES IDX 41 45 38 46 60 47 61 48 66 49 62 50 63 51 65 52 67 53 64 54
REMARK SMILES IDX 48 55 49 56 54 57 50 58 51 59 53 60 55 61 52 62 7 63 8 64
REMARK SMILES IDX 9 65 10 66 11 67 12 68 20 69 24 70 21 71 23 72 22 73 13 74
REMARK SMILES IDX 14 75 18 76 15 77 17 78 16 79 19 80
REMARK H PARENT 72 24 46 35 19 81
REMARK Flexibility Score: inf
ROOT
ATOM      1  O   UNL     1       0.909  -1.276   4.566  1.00  0.00    -0.374 OA
ENDROOT
BRANCH   1   2
ATOM      2  C   UNL     1       1.841  -0.581   3.729  1.00  0.00     0.202 C 
BRANCH   2   3
ATOM      3  C   UNL     1       2.665   0.587   4.332  1.00  0.00     0.261 C 
BRANCH   3   4
ATOM      4  O   UNL     1       3.506   0.187   5.452  1.00  0.00    -0.460 OA
BRANCH   4   5
ATOM      5  C   UNL     1       3.447   0.588   6.752  1.00  0.00     0.338 C 
ATOM      6  O   UNL     1       4.379   0.382   7.522  1.00  0.00    -0.246 OA
BRANCH   5   7
ATOM      7  C   UNL     1       2.232   1.270   7.239  1.00  0.00     0.060 A 
ATOM      8  C   UNL     1       1.012   0.955   6.674  1.00  0.00     0.016 A 
ATOM      9  C   UNL     1       2.268   2.230   8.251  1.00  0.00     0.016 A 
ATOM     10  C   UNL     1      -0.101   1.710   6.866  1.00  0.00     0.010 A 
ATOM     11  C   UNL     1       1.095   2.924   8.576  1.00  0.00     0.010 A 
ATOM     12  C   UNL     1      -0.076   2.688   7.840  1.00  0.00    -0.014 A 
BRANCH  12  13
ATOM     13  C   UNL     1      -1.282   3.514   7.900  1.00  0.00     0.031 A 
ATOM     14  C   UNL     1      -1.183   4.912   7.400  1.00  0.00     0.074 A 
ATOM     15  C   UNL     1      -2.462   2.918   8.150  1.00  0.00     0.049 A 
ATOM     16  N   UNL     1      -2.051   5.876   7.485  1.00  0.00    -0.248 NA
ATOM     17  C   UNL     1       0.066   5.279   6.704  1.00  0.00     0.031 C 
ATOM     18  C   UNL     1      -2.647   1.482   8.411  1.00  0.00     0.029 A 
ATOM     19  N   UNL     1      -3.730   3.418   8.159  1.00  0.00    -0.354 N 
ATOM     20  C   UNL     1      -1.417   6.989   6.955  1.00  0.00     0.074 A 
ATOM     21  C   UNL     1      -0.115   6.572   6.490  1.00  0.00     0.031 C 
ATOM     22  C   UNL     1      -3.955   1.215   8.505  1.00  0.00     0.029 A 
ATOM     23  C   UNL     1      -4.679   2.475   8.469  1.00  0.00     0.049 A 
ATOM     24  H   UNL     1      -3.944   4.359   7.962  1.00  0.00     0.167 HD
ATOM     25  C   UNL     1      -1.893   8.252   6.925  1.00  0.00     0.037 A 
ATOM     26  C   UNL     1      -5.973   2.642   8.788  1.00  0.00     0.037 A 
ATOM     27  C   UNL     1      -3.217   8.571   7.383  1.00  0.00     0.049 A 
ATOM     28  C   UNL     1      -6.475   4.053   8.813  1.00  0.00     0.074 A 
ATOM     29  C   UNL     1      -3.825   9.801   7.525  1.00  0.00     0.029 A 
ATOM     30  N   UNL     1      -4.151   7.609   7.767  1.00  0.00    -0.354 N 
ATOM     31  N   UNL     1      -5.831   5.155   8.496  1.00  0.00    -0.248 NA
ATOM     32  C   UNL     1      -7.846   4.263   9.279  1.00  0.00     0.031 C 
ATOM     33  C   UNL     1      -5.115   9.582   8.027  1.00  0.00     0.029 A 
ATOM     34  C   UNL     1      -5.327   8.214   8.156  1.00  0.00     0.049 A 
ATOM     35  H   UNL     1      -3.993   6.638   7.760  1.00  0.00     0.167 HD
ATOM     36  C   UNL     1      -6.710   6.196   8.734  1.00  0.00     0.074 A 
ATOM     37  C   UNL     1      -7.946   5.585   9.199  1.00  0.00     0.031 C 
ATOM     38  C   UNL     1      -6.521   7.532   8.601  1.00  0.00     0.037 A 
BRANCH  25  39
ATOM     39  C   UNL     1      -0.923   9.325   6.533  1.00  0.00     0.057 A 
ATOM     40  C   UNL     1      -0.462   9.494   5.221  1.00  0.00     0.134 A 
ATOM     41  C   UNL     1      -0.351  10.136   7.524  1.00  0.00     0.134 A 
ATOM     42  F   UNL     1      -0.932   8.720   4.231  1.00  0.00    -0.206 F 
ATOM     43  C   UNL     1       0.557  10.402   4.916  1.00  0.00     0.040 A 
ATOM     44  C   UNL     1       0.651  11.062   7.228  1.00  0.00     0.040 A 
ATOM     45  F   UNL     1      -0.730  10.014   8.805  1.00  0.00    -0.206 F 
ATOM     46  C   UNL     1       1.117  11.188   5.922  1.00  0.00     0.006 A 
ENDBRANCH  25  39
BRANCH  26  47
ATOM     47  C   UNL     1      -6.776   1.471   9.224  1.00  0.00     0.057 A 
ATOM     48  C   UNL     1      -7.836   0.979   8.459  1.00  0.00     0.134 A 
ATOM     49  C   UNL     1      -6.437   0.754  10.383  1.00  0.00     0.134 A 
ATOM     50  F   UNL     1      -8.222   1.621   7.347  1.00  0.00    -0.206 F 
ATOM     51  C   UNL     1      -8.517  -0.189   8.818  1.00  0.00     0.040 A 
ATOM     52  C   UNL     1      -7.087  -0.428  10.738  1.00  0.00     0.040 A 
ATOM     53  F   UNL     1      -5.424   1.166  11.162  1.00  0.00    -0.206 F 
ATOM     54  C   UNL     1      -8.132  -0.904   9.953  1.00  0.00     0.006 A 
ENDBRANCH  26  47
BRANCH  38  55
ATOM     55  C   UNL     1      -7.689   8.397   8.937  1.00  0.00     0.057 A 
ATOM     56  C   UNL     1      -8.011   8.703  10.263  1.00  0.00     0.134 A 
ATOM     57  C   UNL     1      -8.446   8.985   7.918  1.00  0.00     0.134 A 
ATOM     58  F   UNL     1      -7.323   8.154  11.276  1.00  0.00    -0.206 F 
ATOM     59  C   UNL     1      -9.059   9.569  10.566  1.00  0.00     0.040 A 
ATOM     60  C   UNL     1      -9.482   9.866   8.209  1.00  0.00     0.040 A 
ATOM     61  F   UNL     1      -8.171   8.726   6.631  1.00  0.00    -0.206 F 
ATOM     62  C   UNL     1      -9.791  10.161   9.536  1.00  0.00     0.006 A 
ENDBRANCH  38  55
ENDBRANCH  12  13
ENDBRANCH   5   7
ENDBRANCH   4   5
ENDBRANCH   3   4
ENDBRANCH   2   3
ENDBRANCH   1   2
BRANCH   1  63
ATOM     63  C   UNL     1       1.411  -2.151   5.587  1.00  0.00     0.202 C 
BRANCH  63  64
ATOM     64  C   UNL     1       1.201  -3.623   5.261  1.00  0.00     0.261 C 
BRANCH  64  65
ATOM     65  O   UNL     1       2.153  -4.022   4.268  1.00  0.00    -0.463 OA
BRANCH  65  66
ATOM     66  C   UNL     1       1.776  -3.782   2.998  1.00  0.00     0.312 C 
ATOM     67  O   UNL     1       0.647  -3.426   2.679  1.00  0.00    -0.252 OA
BRANCH  66  68
ATOM     68  C   UNL     1       2.886  -4.070   1.990  1.00  0.00     0.078 C 
ATOM     69  C   UNL     1       2.614  -3.104   0.790  1.00  0.00     0.047 C 
ATOM     70  C   UNL     1       2.553  -5.504   1.483  1.00  0.00     0.047 C 
ATOM     71  C   UNL     1       3.299  -3.546  -0.490  1.00  0.00     0.161 C 
ATOM     72  C   UNL     1       3.209  -5.829   0.148  1.00  0.00     0.161 C 
ATOM     73  O   UNL     1       2.874  -4.860  -0.840  1.00  0.00    -0.381 OA
BRANCH  68  74
ATOM     74  C   UNL     1       4.407  -3.976   2.497  1.00  0.00     0.035 C 
ATOM     75  C   UNL     1       4.857  -4.934   3.645  1.00  0.00     0.007 C 
ATOM     76  C   UNL     1       5.037  -2.571   2.683  1.00  0.00     0.118 C 
ATOM     77  C   UNL     1       5.016  -4.357   5.059  1.00  0.00     0.001 C 
ATOM     78  C   UNL     1       5.033  -2.060   4.114  1.00  0.00     0.032 C 
ATOM     79  C   UNL     1       5.694  -3.001   5.097  1.00  0.00     0.003 C 
BRANCH  76  80
ATOM     80  O   UNL     1       6.403  -2.654   2.252  1.00  0.00    -0.393 OA
ATOM     81  H   UNL     1       6.880  -3.288   2.809  1.00  0.00     0.210 HD
ENDBRANCH  76  80
ENDBRANCH  68  74
ENDBRANCH  66  68
ENDBRANCH  65  66
ENDBRANCH  64  65
ENDBRANCH  63  64
ENDBRANCH   1  63
TORSDOF 16
