REMARK SMILES COc1ccc([C@@H]2CC(c3ccc(Cl)cc3)=NN2C2=[NH+]C(=O)[C@@H](CC(=O)OCCOCCOC(=O)c3ccc(-c4c5nc(c(-c6c(F)cccc6F)c6ccc([nH]6)c(-c6c(F)cccc6F)c6nc(c(-c7c(F)cccc7F)c7ccc4[nH]7)C=C6)C=C5)cc3)S2)cc1OC
REMARK SMILES IDX 29 1 28 2 27 3 25 4 26 5 24 6 23 7 19 8 20 9 90 10 21 11
REMARK SMILES IDX 22 13 18 14 7 15 8 16 9 17 17 18 6 19 3 20 4 21 92 22 5 23
REMARK SMILES IDX 91 24 2 25 1 26 93 27 94 28 10 29 11 30 16 31 12 32 15 33
REMARK SMILES IDX 13 34 14 35 30 36 31 37 32 38 33 39 34 40 35 41 36 42 37 43
REMARK SMILES IDX 89 44 38 45 88 46 39 47 40 48 41 49 82 50 42 51 87 52 81 53
REMARK SMILES IDX 83 54 43 55 86 56 80 57 79 58 44 60 70 61 53 62 69 63 54 64
REMARK SMILES IDX 57 65 68 66 84 67 55 68 56 69 67 71 85 72 58 73 45 74 46 75
REMARK SMILES IDX 51 76 47 77 48 78 50 79 52 80 49 81 71 82 72 83 77 84 73 85
REMARK SMILES IDX 74 86 76 87 78 88 75 89 59 90 60 91 65 92 61 93 62 94 64 95
REMARK SMILES IDX 66 96 63 97
REMARK H PARENT 20 12 83 59 57 70
REMARK Flexibility Score: inf
ROOT
ATOM      1  C   UNL     1      -2.518 -10.314   3.066  1.00  0.00     0.202 C 
ENDROOT
BRANCH   1   2
ATOM      2  C   UNL     1      -2.538  -8.788   3.186  1.00  0.00     0.261 C 
BRANCH   2   3
ATOM      3  O   UNL     1      -1.279  -8.229   2.763  1.00  0.00    -0.463 OA
BRANCH   3   4
ATOM      4  C   UNL     1      -0.610  -7.458   3.654  1.00  0.00     0.307 C 
ATOM      5  O   UNL     1      -1.001  -7.178   4.779  1.00  0.00    -0.252 OA
BRANCH   4   6
ATOM      6  C   UNL     1       0.673  -6.919   3.075  1.00  0.00     0.150 C 
BRANCH   6   7
ATOM      7  C   UNL     1       1.634  -7.976   2.542  1.00  0.00     0.184 C 
ATOM      8  C   UNL     1       2.445  -7.502   0.196  1.00  0.00     0.340 C 
ATOM      9  N   UNL     1       3.263  -6.967   1.042  1.00  0.00    -0.202 N 
ATOM     10  S   UNL     1       1.229  -8.570   0.876  1.00  0.00    -0.020 SA
ATOM     11  C   UNL     1       2.997  -7.338   2.339  1.00  0.00     0.322 C 
ATOM     12  H   UNL     1       3.996  -6.361   0.787  1.00  0.00     0.316 HD
ATOM     13  O   UNL     1       3.748  -7.107   3.282  1.00  0.00    -0.246 OA
BRANCH   8  14
ATOM     14  N   UNL     1       2.416  -7.296  -1.167  1.00  0.00    -0.120 N 
ATOM     15  C   UNL     1       1.616  -6.195  -1.733  1.00  0.00     0.243 C 
ATOM     16  C   UNL     1       2.159  -6.022  -3.148  1.00  0.00     0.118 C 
ATOM     17  C   UNL     1       3.364  -6.910  -3.064  1.00  0.00     0.096 C 
ATOM     18  N   UNL     1       3.476  -7.617  -1.984  1.00  0.00    -0.086 NA
BRANCH  15  19
ATOM     19  C   UNL     1       0.132  -6.498  -1.633  1.00  0.00     0.003 A 
ATOM     20  C   UNL     1      -2.501  -7.269  -0.948  1.00  0.00     0.160 A 
ATOM     21  C   UNL     1      -1.704  -8.071  -1.777  1.00  0.00     0.051 A 
ATOM     22  C   UNL     1      -1.997  -6.049  -0.489  1.00  0.00     0.161 A 
ATOM     23  C   UNL     1      -0.412  -7.681  -2.142  1.00  0.00     0.012 A 
ATOM     24  C   UNL     1      -0.689  -5.676  -0.844  1.00  0.00     0.058 A 
BRANCH  20  25
ATOM     25  O   UNL     1      -3.647  -7.825  -0.440  1.00  0.00    -0.493 OA
ATOM     26  C   UNL     1      -4.787  -7.626  -1.273  1.00  0.00     0.278 C 
ENDBRANCH  20  25
BRANCH  22  27
ATOM     27  O   UNL     1      -2.570  -5.163   0.382  1.00  0.00    -0.493 OA
ATOM     28  C   UNL     1      -3.983  -5.154   0.487  1.00  0.00     0.278 C 
ENDBRANCH  22  27
ENDBRANCH  15  19
BRANCH  17  29
ATOM     29  C   UNL     1       4.328  -6.994  -4.171  1.00  0.00     0.000 A 
ATOM     30  C   UNL     1       4.708  -8.256  -4.639  1.00  0.00     0.011 A 
ATOM     31  C   UNL     1       4.882  -5.835  -4.723  1.00  0.00     0.011 A 
ATOM     32  C   UNL     1       5.629  -8.359  -5.684  1.00  0.00     0.021 A 
ATOM     33  C   UNL     1       5.817  -5.944  -5.756  1.00  0.00     0.021 A 
ATOM     34  C   UNL     1       6.181  -7.203  -6.236  1.00  0.00     0.041 A 
ATOM     35  Cl  UNL     1       7.326  -7.330  -7.514  1.00  0.00    -0.084 Cl
ENDBRANCH  17  29
ENDBRANCH   8  14
ENDBRANCH   6   7
ENDBRANCH   4   6
ENDBRANCH   3   4
ENDBRANCH   2   3
ENDBRANCH   1   2
BRANCH   1  36
ATOM     36  O   UNL     1      -1.814 -10.989   4.112  1.00  0.00    -0.374 OA
BRANCH  36  37
ATOM     37  C   UNL     1      -0.391 -10.986   4.021  1.00  0.00     0.202 C 
BRANCH  37  38
ATOM     38  C   UNL     1       0.208 -12.097   3.151  1.00  0.00     0.261 C 
BRANCH  38  39
ATOM     39  O   UNL     1      -0.170 -11.964   1.768  1.00  0.00    -0.460 OA
BRANCH  39  40
ATOM     40  C   UNL     1      -1.056 -12.888   1.332  1.00  0.00     0.338 C 
ATOM     41  O   UNL     1      -1.492 -13.844   1.957  1.00  0.00    -0.246 OA
BRANCH  40  42
ATOM     42  C   UNL     1      -1.569 -12.541  -0.010  1.00  0.00     0.060 A 
ATOM     43  C   UNL     1      -2.951 -12.642  -0.210  1.00  0.00     0.016 A 
ATOM     44  C   UNL     1      -0.726 -12.227  -1.079  1.00  0.00     0.016 A 
ATOM     45  C   UNL     1      -3.490 -12.489  -1.487  1.00  0.00     0.010 A 
ATOM     46  C   UNL     1      -1.269 -12.080  -2.364  1.00  0.00     0.010 A 
ATOM     47  C   UNL     1      -2.650 -12.244  -2.581  1.00  0.00    -0.014 A 
BRANCH  47  48
ATOM     48  C   UNL     1      -3.214 -12.262  -3.957  1.00  0.00     0.031 A 
ATOM     49  C   UNL     1      -3.063 -13.485  -4.806  1.00  0.00     0.074 A 
ATOM     50  C   UNL     1      -3.898 -11.211  -4.443  1.00  0.00     0.049 A 
ATOM     51  N   UNL     1      -3.500 -13.699  -6.021  1.00  0.00    -0.248 NA
ATOM     52  C   UNL     1      -2.339 -14.616  -4.210  1.00  0.00     0.031 C 
ATOM     53  C   UNL     1      -4.167  -9.996  -3.696  1.00  0.00     0.029 A 
ATOM     54  N   UNL     1      -4.487 -10.985  -5.662  1.00  0.00    -0.354 N 
ATOM     55  C   UNL     1      -3.114 -14.993  -6.333  1.00  0.00     0.074 A 
ATOM     56  C   UNL     1      -2.374 -15.501  -5.196  1.00  0.00     0.031 C 
ATOM     57  C   UNL     1      -4.832  -9.129  -4.472  1.00  0.00     0.029 A 
ATOM     58  C   UNL     1      -5.050  -9.737  -5.777  1.00  0.00     0.049 A 
ATOM     59  H   UNL     1      -4.505 -11.654  -6.384  1.00  0.00     0.167 HD
ATOM     60  C   UNL     1      -3.369 -15.697  -7.460  1.00  0.00     0.037 A 
ATOM     61  C   UNL     1      -5.677  -9.140  -6.806  1.00  0.00     0.037 A 
ATOM     62  C   UNL     1      -4.100 -15.192  -8.593  1.00  0.00     0.049 A 
ATOM     63  C   UNL     1      -5.890  -9.916  -8.070  1.00  0.00     0.074 A 
ATOM     64  C   UNL     1      -4.415 -15.840  -9.774  1.00  0.00     0.029 A 
ATOM     65  N   UNL     1      -4.623 -13.911  -8.690  1.00  0.00    -0.354 N 
ATOM     66  N   UNL     1      -5.541 -11.149  -8.340  1.00  0.00    -0.248 NA
ATOM     67  C   UNL     1      -6.593  -9.231  -9.162  1.00  0.00     0.031 C 
ATOM     68  C   UNL     1      -5.095 -14.938 -10.601  1.00  0.00     0.029 A 
ATOM     69  C   UNL     1      -5.237 -13.740  -9.921  1.00  0.00     0.049 A 
ATOM     70  H   UNL     1      -4.567 -13.223  -7.987  1.00  0.00     0.167 HD
ATOM     71  C   UNL     1      -6.001 -11.399  -9.624  1.00  0.00     0.074 A 
ATOM     72  C   UNL     1      -6.665 -10.192 -10.073  1.00  0.00     0.031 C 
ATOM     73  C   UNL     1      -5.884 -12.530 -10.360  1.00  0.00     0.037 A 
BRANCH  60  74
ATOM     74  C   UNL     1      -2.823 -17.090  -7.519  1.00  0.00     0.057 A 
ATOM     75  C   UNL     1      -3.392 -18.136  -6.780  1.00  0.00     0.134 A 
ATOM     76  C   UNL     1      -1.713 -17.386  -8.318  1.00  0.00     0.134 A 
ATOM     77  F   UNL     1      -4.444 -17.908  -5.979  1.00  0.00    -0.206 F 
ATOM     78  C   UNL     1      -2.858 -19.425  -6.816  1.00  0.00     0.040 A 
ATOM     79  C   UNL     1      -1.184 -18.676  -8.378  1.00  0.00     0.040 A 
ATOM     80  F   UNL     1      -1.123 -16.427  -9.046  1.00  0.00    -0.206 F 
ATOM     81  C   UNL     1      -1.754 -19.698  -7.620  1.00  0.00     0.006 A 
ENDBRANCH  60  74
BRANCH  61  82
ATOM     82  C   UNL     1      -6.170  -7.745  -6.670  1.00  0.00     0.057 A 
ATOM     83  C   UNL     1      -7.537  -7.464  -6.572  1.00  0.00     0.134 A 
ATOM     84  C   UNL     1      -5.283  -6.663  -6.616  1.00  0.00     0.134 A 
ATOM     85  F   UNL     1      -8.435  -8.458  -6.630  1.00  0.00    -0.206 F 
ATOM     86  C   UNL     1      -8.006  -6.156  -6.438  1.00  0.00     0.040 A 
ATOM     87  C   UNL     1      -5.737  -5.352  -6.461  1.00  0.00     0.040 A 
ATOM     88  F   UNL     1      -3.959  -6.867  -6.693  1.00  0.00    -0.206 F 
ATOM     89  C   UNL     1      -7.104  -5.096  -6.377  1.00  0.00     0.006 A 
ENDBRANCH  61  82
BRANCH  73  90
ATOM     90  C   UNL     1      -6.502 -12.511 -11.725  1.00  0.00     0.057 A 
ATOM     91  C   UNL     1      -5.920 -11.805 -12.784  1.00  0.00     0.134 A 
ATOM     92  C   UNL     1      -7.686 -13.213 -11.983  1.00  0.00     0.134 A 
ATOM     93  F   UNL     1      -4.796 -11.098 -12.593  1.00  0.00    -0.206 F 
ATOM     94  C   UNL     1      -6.505 -11.781 -14.051  1.00  0.00     0.040 A 
ATOM     95  C   UNL     1      -8.269 -13.213 -13.250  1.00  0.00     0.040 A 
ATOM     96  F   UNL     1      -8.292 -13.908 -11.009  1.00  0.00    -0.206 F 
ATOM     97  C   UNL     1      -7.681 -12.491 -14.287  1.00  0.00     0.006 A 
ENDBRANCH  73  90
ENDBRANCH  47  48
ENDBRANCH  40  42
ENDBRANCH  39  40
ENDBRANCH  38  39
ENDBRANCH  37  38
ENDBRANCH  36  37
ENDBRANCH   1  36
TORSDOF 20
