REMARK SMILES [NH3+][C@H](C(=O)OCCOCCOC(=O)c1ccc(-c2c3nc(c(-c4c(F)cccc4F)c4ccc([nH]4)c(-c4c(F)cccc4F)c4nc(c(-c5c(F)cccc5F)c5ccc2[nH]5)C=C4)C=C3)cc1)c1ccc(OCC(=O)N2CCCC2)cc1
REMARK SMILES IDX 7 1 6 2 5 3 3 4 4 5 2 6 1 7 68 11 69 12 82 13 70 14 81 15
REMARK SMILES IDX 71 16 72 17 73 18 74 19 75 20 76 21 77 22 80 23 78 24 79 25
REMARK SMILES IDX 8 26 9 27 10 28 11 29 12 30 13 31 14 32 15 33 67 34 16 35
REMARK SMILES IDX 66 36 17 37 18 38 19 39 60 40 20 41 65 42 59 43 61 44 21 45
REMARK SMILES IDX 64 46 58 47 57 48 22 50 48 51 31 52 47 53 32 54 35 55 46 56
REMARK SMILES IDX 62 57 33 58 34 59 45 61 63 62 36 63 23 64 24 65 29 66 25 67
REMARK SMILES IDX 26 68 28 69 30 70 27 71 49 72 50 73 55 74 51 75 52 76 54 77
REMARK SMILES IDX 56 78 53 79 37 80 38 81 43 82 39 83 40 84 42 85 44 86 41 87
REMARK H PARENT 1 8 1 9 1 10 61 49 35 60
REMARK Flexibility Score: inf
ROOT
ATOM      1  C   UNL     1       1.393   0.540  -2.538  1.00  0.00     0.202 C 
ENDROOT
BRANCH   1   2
ATOM      2  C   UNL     1       1.896  -0.643  -1.704  1.00  0.00     0.261 C 
BRANCH   2   3
ATOM      3  O   UNL     1       1.130  -0.841  -0.503  1.00  0.00    -0.459 OA
BRANCH   3   4
ATOM      4  C   UNL     1       1.788  -0.552   0.652  1.00  0.00     0.369 C 
ATOM      5  O   UNL     1       2.982  -0.258   0.711  1.00  0.00    -0.245 OA
BRANCH   4   6
ATOM      6  C   UNL     1       0.915  -0.612   1.926  1.00  0.00     0.323 C 
BRANCH   6   7
ATOM      7  N   UNL     1       1.401   0.442   2.861  1.00  0.00    -0.342 N 
ATOM      8  H   UNL     1       0.841   0.425   3.713  1.00  0.00     0.345 HD
ATOM      9  H   UNL     1       1.317   1.357   2.417  1.00  0.00     0.345 HD
ATOM     10  H   UNL     1       2.379   0.266   3.094  1.00  0.00     0.345 HD
ENDBRANCH   6   7
BRANCH   6  11
ATOM     11  C   UNL     1      -0.600  -0.561   1.754  1.00  0.00     0.021 A 
ATOM     12  C   UNL     1      -1.344   0.618   1.917  1.00  0.00     0.014 A 
ATOM     13  C   UNL     1      -1.308  -1.745   1.485  1.00  0.00     0.014 A 
ATOM     14  C   UNL     1      -2.739   0.605   1.835  1.00  0.00     0.047 A 
ATOM     15  C   UNL     1      -2.709  -1.760   1.416  1.00  0.00     0.047 A 
ATOM     16  C   UNL     1      -3.429  -0.583   1.602  1.00  0.00     0.120 A 
BRANCH  16  17
ATOM     17  O   UNL     1      -4.785  -0.444   1.579  1.00  0.00    -0.484 OA
BRANCH  17  18
ATOM     18  C   UNL     1      -5.582  -1.613   1.558  1.00  0.00     0.329 C 
BRANCH  18  19
ATOM     19  C   UNL     1      -5.742  -2.351   0.222  1.00  0.00     0.260 C 
ATOM     20  O   UNL     1      -5.678  -3.583   0.183  1.00  0.00    -0.271 OA
ATOM     21  N   UNL     1      -6.046  -1.607  -0.898  1.00  0.00    -0.340 N 
ATOM     22  C   UNL     1      -6.025  -0.164  -1.029  1.00  0.00     0.119 C 
ATOM     23  C   UNL     1      -6.407  -2.255  -2.143  1.00  0.00     0.119 C 
ATOM     24  C   UNL     1      -6.856   0.117  -2.268  1.00  0.00     0.023 C 
ATOM     25  C   UNL     1      -6.693  -1.130  -3.128  1.00  0.00     0.023 C 
ENDBRANCH  18  19
ENDBRANCH  17  18
ENDBRANCH  16  17
ENDBRANCH   6  11
ENDBRANCH   4   6
ENDBRANCH   3   4
ENDBRANCH   2   3
ENDBRANCH   1   2
BRANCH   1  26
ATOM     26  O   UNL     1       1.362   1.817  -1.906  1.00  0.00    -0.374 OA
BRANCH  26  27
ATOM     27  C   UNL     1       0.293   2.074  -0.995  1.00  0.00     0.202 C 
BRANCH  27  28
ATOM     28  C   UNL     1      -1.092   2.347  -1.595  1.00  0.00     0.261 C 
BRANCH  28  29
ATOM     29  O   UNL     1      -1.618   1.205  -2.290  1.00  0.00    -0.460 OA
BRANCH  29  30
ATOM     30  C   UNL     1      -1.703   1.348  -3.632  1.00  0.00     0.338 C 
ATOM     31  O   UNL     1      -1.488   2.365  -4.282  1.00  0.00    -0.246 OA
BRANCH  30  32
ATOM     32  C   UNL     1      -1.943   0.043  -4.277  1.00  0.00     0.060 A 
ATOM     33  C   UNL     1      -1.204  -0.258  -5.429  1.00  0.00     0.016 A 
ATOM     34  C   UNL     1      -2.909  -0.848  -3.807  1.00  0.00     0.016 A 
ATOM     35  C   UNL     1      -1.490  -1.406  -6.164  1.00  0.00     0.010 A 
ATOM     36  C   UNL     1      -3.199  -1.996  -4.550  1.00  0.00     0.010 A 
ATOM     37  C   UNL     1      -2.529  -2.251  -5.756  1.00  0.00    -0.014 A 
BRANCH  37  38
ATOM     38  C   UNL     1      -3.005  -3.325  -6.655  1.00  0.00     0.031 A 
ATOM     39  C   UNL     1      -4.202  -3.072  -7.530  1.00  0.00     0.074 A 
ATOM     40  C   UNL     1      -2.377  -4.513  -6.687  1.00  0.00     0.049 A 
ATOM     41  N   UNL     1      -4.782  -3.866  -8.393  1.00  0.00    -0.248 NA
ATOM     42  C   UNL     1      -4.836  -1.749  -7.409  1.00  0.00     0.031 C 
ATOM     43  C   UNL     1      -1.212  -4.871  -5.880  1.00  0.00     0.029 A 
ATOM     44  N   UNL     1      -2.642  -5.639  -7.421  1.00  0.00    -0.354 N 
ATOM     45  C   UNL     1      -5.844  -3.141  -8.919  1.00  0.00     0.074 A 
ATOM     46  C   UNL     1      -5.853  -1.857  -8.252  1.00  0.00     0.031 C 
ATOM     47  C   UNL     1      -0.866  -6.139  -6.158  1.00  0.00     0.029 A 
ATOM     48  C   UNL     1      -1.795  -6.683  -7.146  1.00  0.00     0.049 A 
ATOM     49  H   UNL     1      -3.370  -5.694  -8.081  1.00  0.00     0.167 HD
ATOM     50  C   UNL     1      -6.723  -3.510  -9.882  1.00  0.00     0.037 A 
ATOM     51  C   UNL     1      -1.780  -7.938  -7.634  1.00  0.00     0.037 A 
ATOM     52  C   UNL     1      -6.708  -4.790 -10.540  1.00  0.00     0.049 A 
ATOM     53  C   UNL     1      -2.794  -8.337  -8.672  1.00  0.00     0.074 A 
ATOM     54  C   UNL     1      -7.523  -5.244 -11.563  1.00  0.00     0.029 A 
ATOM     55  N   UNL     1      -5.841  -5.827 -10.229  1.00  0.00    -0.354 N 
ATOM     56  N   UNL     1      -3.749  -7.621  -9.216  1.00  0.00    -0.248 NA
ATOM     57  C   UNL     1      -2.721  -9.717  -9.172  1.00  0.00     0.031 C 
ATOM     58  C   UNL     1      -7.182  -6.573 -11.836  1.00  0.00     0.029 A 
ATOM     59  C   UNL     1      -6.120  -6.929 -11.020  1.00  0.00     0.049 A 
ATOM     60  H   UNL     1      -5.132  -5.785  -9.548  1.00  0.00     0.167 HD
ATOM     61  C   UNL     1      -4.368  -8.451 -10.142  1.00  0.00     0.074 A 
ATOM     62  C   UNL     1      -3.674  -9.721 -10.093  1.00  0.00     0.031 C 
ATOM     63  C   UNL     1      -5.415  -8.185 -10.962  1.00  0.00     0.037 A 
BRANCH  50  64
ATOM     64  C   UNL     1      -7.782  -2.520 -10.275  1.00  0.00     0.057 A 
ATOM     65  C   UNL     1      -7.478  -1.363 -11.005  1.00  0.00     0.134 A 
ATOM     66  C   UNL     1      -9.127  -2.751  -9.962  1.00  0.00     0.134 A 
ATOM     67  F   UNL     1      -6.208  -1.076 -11.328  1.00  0.00    -0.206 F 
ATOM     68  C   UNL     1      -8.472  -0.461 -11.390  1.00  0.00     0.040 A 
ATOM     69  C   UNL     1     -10.133  -1.869 -10.364  1.00  0.00     0.040 A 
ATOM     70  F   UNL     1      -9.489  -3.842  -9.270  1.00  0.00    -0.206 F 
ATOM     71  C   UNL     1      -9.805  -0.718 -11.076  1.00  0.00     0.006 A 
ENDBRANCH  50  64
BRANCH  51  72
ATOM     72  C   UNL     1      -0.760  -8.905  -7.159  1.00  0.00     0.057 A 
ATOM     73  C   UNL     1       0.275  -9.335  -7.997  1.00  0.00     0.134 A 
ATOM     74  C   UNL     1      -0.798  -9.426  -5.860  1.00  0.00     0.134 A 
ATOM     75  F   UNL     1       0.352  -8.885  -9.258  1.00  0.00    -0.206 F 
ATOM     76  C   UNL     1       1.226 -10.262  -7.568  1.00  0.00     0.040 A 
ATOM     77  C   UNL     1       0.160 -10.335  -5.410  1.00  0.00     0.040 A 
ATOM     78  F   UNL     1      -1.762  -9.050  -5.007  1.00  0.00    -0.206 F 
ATOM     79  C   UNL     1       1.172 -10.761  -6.268  1.00  0.00     0.006 A 
ENDBRANCH  51  72
BRANCH  63  80
ATOM     80  C   UNL     1      -5.848  -9.275 -11.898  1.00  0.00     0.057 A 
ATOM     81  C   UNL     1      -6.523 -10.415 -11.445  1.00  0.00     0.134 A 
ATOM     82  C   UNL     1      -5.619  -9.163 -13.276  1.00  0.00     0.134 A 
ATOM     83  F   UNL     1      -6.763 -10.589 -10.136  1.00  0.00    -0.206 F 
ATOM     84  C   UNL     1      -6.934 -11.418 -12.326  1.00  0.00     0.040 A 
ATOM     85  C   UNL     1      -6.048 -10.145 -14.169  1.00  0.00     0.040 A 
ATOM     86  F   UNL     1      -4.987  -8.091 -13.777  1.00  0.00    -0.206 F 
ATOM     87  C   UNL     1      -6.702 -11.280 -13.694  1.00  0.00     0.006 A 
ENDBRANCH  63  80
ENDBRANCH  37  38
ENDBRANCH  30  32
ENDBRANCH  29  30
ENDBRANCH  28  29
ENDBRANCH  27  28
ENDBRANCH  26  27
ENDBRANCH   1  26
TORSDOF 19
