REMARK SMILES COc1ccc(-c2[nH]nc3nc(-c4ccc(C(F)(F)F)cc4)cc(C(=O)OCCOCCOC(=O)c4ccc(-c5c6nc(c(-c7c(F)cccc7F)c7ccc([nH]7)c(-c7c(F)cccc7F)c7nc(c(-c8c(F)cccc8F)c8ccc5[nH]8)C=C7)C=C6)cc4)c23)cc1
REMARK SMILES IDX 30 1 29 2 28 3 27 4 25 5 26 6 24 7 7 8 8 9 90 10 9 11 10 13
REMARK SMILES IDX 11 14 23 15 12 16 6 17 3 18 4 19 92 20 5 21 91 22 2 23 1 24
REMARK SMILES IDX 13 25 14 26 22 27 15 28 21 29 16 30 17 31 18 32 19 33 20 34
REMARK SMILES IDX 31 35 32 36 33 37 34 38 35 39 36 40 37 41 89 42 38 43 88 44
REMARK SMILES IDX 39 45 40 46 41 47 82 48 42 49 87 50 81 51 83 52 43 53 86 54
REMARK SMILES IDX 80 55 79 56 44 58 70 59 53 60 69 61 54 62 57 63 68 64 84 65
REMARK SMILES IDX 55 66 56 67 67 69 85 70 58 71 45 72 46 73 51 74 47 75 48 76
REMARK SMILES IDX 50 77 52 78 49 79 71 80 72 81 77 82 73 83 74 84 76 85 78 86
REMARK SMILES IDX 75 87 59 88 60 89 65 90 61 91 62 92 64 93 66 94 63 95
REMARK H PARENT 8 12 83 57 57 68
REMARK Flexibility Score: inf
ROOT
ATOM      1  O   UNL     1       4.228  -3.920  -0.802  1.00  0.00    -0.374 OA
ENDROOT
BRANCH   1   2
ATOM      2  C   UNL     1       4.749  -4.793   0.204  1.00  0.00     0.202 C 
BRANCH   2   3
ATOM      3  C   UNL     1       3.885  -6.038   0.391  1.00  0.00     0.261 C 
BRANCH   3   4
ATOM      4  O   UNL     1       3.767  -6.722  -0.869  1.00  0.00    -0.460 OA
BRANCH   4   5
ATOM      5  C   UNL     1       2.547  -6.649  -1.461  1.00  0.00     0.339 C 
ATOM      6  O   UNL     1       1.495  -6.345  -0.937  1.00  0.00    -0.246 OA
BRANCH   5   7
ATOM      7  C   UNL     1       2.710  -6.987  -2.878  1.00  0.00     0.075 A 
ATOM      8  C   UNL     1       1.304  -5.231  -4.046  1.00  0.00     0.075 A 
ATOM      9  N   UNL     1       0.971  -5.133  -5.379  1.00  0.00    -0.275 N 
ATOM     10  C   UNL     1       2.077  -6.382  -3.972  1.00  0.00     0.061 A 
ATOM     11  N   UNL     1       1.558  -6.039  -6.176  1.00  0.00    -0.154 NA
ATOM     12  H   UNL     1       0.349  -4.450  -5.720  1.00  0.00     0.190 HD
ATOM     13  C   UNL     1       2.253  -6.800  -5.333  1.00  0.00     0.182 A 
ATOM     14  N   UNL     1       3.069  -7.823  -5.686  1.00  0.00    -0.226 NA
ATOM     15  C   UNL     1       3.563  -8.031  -3.280  1.00  0.00     0.045 A 
ATOM     16  C   UNL     1       3.703  -8.419  -4.636  1.00  0.00     0.074 A 
BRANCH   8  17
ATOM     17  C   UNL     1       0.936  -4.162  -3.121  1.00  0.00     0.001 A 
ATOM     18  C   UNL     1       0.378  -2.122  -1.255  1.00  0.00     0.118 A 
ATOM     19  C   UNL     1      -0.422  -3.265  -1.330  1.00  0.00     0.047 A 
ATOM     20  C   UNL     1       1.430  -1.975  -2.154  1.00  0.00     0.047 A 
ATOM     21  C   UNL     1      -0.147  -4.281  -2.255  1.00  0.00     0.014 A 
ATOM     22  C   UNL     1       1.682  -2.975  -3.101  1.00  0.00     0.014 A 
BRANCH  18  23
ATOM     23  O   UNL     1       0.031  -1.234  -0.274  1.00  0.00    -0.497 OA
ATOM     24  C   UNL     1       0.870  -0.096  -0.109  1.00  0.00     0.278 C 
ENDBRANCH  18  23
ENDBRANCH   8  17
BRANCH  16  25
ATOM     25  C   UNL     1       4.572  -9.564  -5.003  1.00  0.00     0.000 A 
ATOM     26  C   UNL     1       5.333  -9.557  -6.185  1.00  0.00     0.011 A 
ATOM     27  C   UNL     1       4.649 -10.713  -4.194  1.00  0.00     0.011 A 
ATOM     28  C   UNL     1       6.137 -10.649  -6.543  1.00  0.00     0.014 A 
ATOM     29  C   UNL     1       5.449 -11.806  -4.546  1.00  0.00     0.014 A 
ATOM     30  C   UNL     1       6.199 -11.787  -5.728  1.00  0.00     0.056 A 
BRANCH  30  31
ATOM     31  C   UNL     1       7.042 -12.973  -6.132  1.00  0.00     0.416 C 
ATOM     32  F   UNL     1       6.656 -13.508  -7.323  1.00  0.00    -0.166 F 
ATOM     33  F   UNL     1       8.358 -12.652  -6.274  1.00  0.00    -0.166 F 
ATOM     34  F   UNL     1       7.005 -13.997  -5.234  1.00  0.00    -0.166 F 
ENDBRANCH  30  31
ENDBRANCH  16  25
ENDBRANCH   5   7
ENDBRANCH   4   5
ENDBRANCH   3   4
ENDBRANCH   2   3
ENDBRANCH   1   2
BRANCH   1  35
ATOM     35  C   UNL     1       4.633  -4.238  -2.132  1.00  0.00     0.202 C 
BRANCH  35  36
ATOM     36  C   UNL     1       5.316  -3.042  -2.785  1.00  0.00     0.261 C 
BRANCH  36  37
ATOM     37  O   UNL     1       6.718  -3.171  -2.598  1.00  0.00    -0.460 OA
BRANCH  37  38
ATOM     38  C   UNL     1       7.138  -3.118  -1.307  1.00  0.00     0.338 C 
ATOM     39  O   UNL     1       6.693  -2.488  -0.389  1.00  0.00    -0.246 OA
BRANCH  38  40
ATOM     40  C   UNL     1       8.327  -3.981  -1.287  1.00  0.00     0.060 A 
ATOM     41  C   UNL     1       9.441  -3.459  -0.646  1.00  0.00     0.016 A 
ATOM     42  C   UNL     1       8.389  -5.094  -2.147  1.00  0.00     0.016 A 
ATOM     43  C   UNL     1      10.670  -3.874  -1.099  1.00  0.00     0.010 A 
ATOM     44  C   UNL     1       9.616  -5.499  -2.606  1.00  0.00     0.010 A 
ATOM     45  C   UNL     1      10.726  -4.797  -2.153  1.00  0.00    -0.014 A 
BRANCH  45  46
ATOM     46  C   UNL     1      11.991  -4.924  -2.833  1.00  0.00     0.031 A 
ATOM     47  C   UNL     1      12.987  -5.753  -2.137  1.00  0.00     0.074 A 
ATOM     48  C   UNL     1      12.220  -4.337  -4.019  1.00  0.00     0.049 A 
ATOM     49  N   UNL     1      14.086  -5.366  -1.584  1.00  0.00    -0.248 NA
ATOM     50  C   UNL     1      12.654  -7.167  -1.930  1.00  0.00     0.031 C 
ATOM     51  C   UNL     1      11.259  -3.753  -4.958  1.00  0.00     0.029 A 
ATOM     52  N   UNL     1      13.402  -4.233  -4.677  1.00  0.00    -0.354 N 
ATOM     53  C   UNL     1      14.676  -6.521  -1.091  1.00  0.00     0.074 A 
ATOM     54  C   UNL     1      13.692  -7.569  -1.199  1.00  0.00     0.031 C 
ATOM     55  C   UNL     1      11.873  -3.565  -6.149  1.00  0.00     0.029 A 
ATOM     56  C   UNL     1      13.282  -3.902  -6.013  1.00  0.00     0.049 A 
ATOM     57  H   UNL     1      14.272  -4.381  -4.239  1.00  0.00     0.167 HD
ATOM     58  C   UNL     1      16.004  -6.582  -0.813  1.00  0.00     0.037 A 
ATOM     59  C   UNL     1      14.264  -4.020  -6.939  1.00  0.00     0.037 A 
ATOM     60  C   UNL     1      16.597  -5.277  -0.704  1.00  0.00     0.049 A 
ATOM     61  C   UNL     1      15.563  -4.077  -6.214  1.00  0.00     0.074 A 
ATOM     62  C   UNL     1      16.388  -4.185   0.117  1.00  0.00     0.029 A 
ATOM     63  N   UNL     1      17.340  -4.809  -1.760  1.00  0.00    -0.354 N 
ATOM     64  N   UNL     1      16.094  -3.069  -5.575  1.00  0.00    -0.248 NA
ATOM     65  C   UNL     1      16.073  -5.387  -5.830  1.00  0.00     0.031 C 
ATOM     66  C   UNL     1      16.600  -3.047  -0.713  1.00  0.00     0.029 A 
ATOM     67  C   UNL     1      16.945  -3.514  -1.982  1.00  0.00     0.049 A 
ATOM     68  H   UNL     1      18.025  -5.307  -2.263  1.00  0.00     0.167 HD
ATOM     69  C   UNL     1      16.685  -3.627  -4.449  1.00  0.00     0.074 A 
ATOM     70  C   UNL     1      16.724  -5.062  -4.710  1.00  0.00     0.031 C 
ATOM     71  C   UNL     1      16.831  -2.915  -3.292  1.00  0.00     0.037 A 
BRANCH  58  72
ATOM     72  C   UNL     1      16.812  -7.837  -0.945  1.00  0.00     0.057 A 
ATOM     73  C   UNL     1      18.089  -7.908  -0.367  1.00  0.00     0.134 A 
ATOM     74  C   UNL     1      16.488  -8.884  -1.833  1.00  0.00     0.134 A 
ATOM     75  F   UNL     1      18.521  -6.947   0.463  1.00  0.00    -0.206 F 
ATOM     76  C   UNL     1      18.991  -8.931  -0.679  1.00  0.00     0.040 A 
ATOM     77  C   UNL     1      17.357  -9.940  -2.106  1.00  0.00     0.040 A 
ATOM     78  F   UNL     1      15.357  -8.884  -2.552  1.00  0.00    -0.206 F 
ATOM     79  C   UNL     1      18.625  -9.952  -1.548  1.00  0.00     0.006 A 
ENDBRANCH  58  72
BRANCH  59  80
ATOM     80  C   UNL     1      14.114  -4.424  -8.356  1.00  0.00     0.057 A 
ATOM     81  C   UNL     1      15.168  -4.272  -9.265  1.00  0.00     0.134 A 
ATOM     82  C   UNL     1      13.025  -5.197  -8.802  1.00  0.00     0.134 A 
ATOM     83  F   UNL     1      16.274  -3.596  -8.919  1.00  0.00    -0.206 F 
ATOM     84  C   UNL     1      15.148  -4.863 -10.536  1.00  0.00     0.040 A 
ATOM     85  C   UNL     1      12.984  -5.778 -10.072  1.00  0.00     0.040 A 
ATOM     86  F   UNL     1      11.997  -5.491  -7.993  1.00  0.00    -0.206 F 
ATOM     87  C   UNL     1      14.054  -5.623 -10.941  1.00  0.00     0.006 A 
ENDBRANCH  59  80
BRANCH  71  88
ATOM     88  C   UNL     1      16.562  -1.437  -3.336  1.00  0.00     0.057 A 
ATOM     89  C   UNL     1      15.305  -0.889  -3.632  1.00  0.00     0.134 A 
ATOM     90  C   UNL     1      17.555  -0.548  -2.909  1.00  0.00     0.134 A 
ATOM     91  F   UNL     1      14.263  -1.672  -3.939  1.00  0.00    -0.206 F 
ATOM     92  C   UNL     1      15.062   0.486  -3.556  1.00  0.00     0.040 A 
ATOM     93  C   UNL     1      17.316   0.824  -2.795  1.00  0.00     0.040 A 
ATOM     94  F   UNL     1      18.763  -1.006  -2.544  1.00  0.00    -0.206 F 
ATOM     95  C   UNL     1      16.069   1.347  -3.131  1.00  0.00     0.006 A 
ENDBRANCH  71  88
ENDBRANCH  45  46
ENDBRANCH  38  40
ENDBRANCH  37  38
ENDBRANCH  36  37
ENDBRANCH  35  36
ENDBRANCH   1  35
TORSDOF 18
