REMARK SMILES CCOC(=O)NC(=O)COc1csc(C(=O)OCCOCCOC(=O)c2ccc(-c3c4nc(c(-c5c(F)cccc5F)c5ccc([nH]5)c(-c5c(F)cccc5F)c5nc(c(-c6c(F)cccc6F)c6ccc3[nH]6)C=C5)C=C4)cc2)c1
REMARK SMILES IDX 18 1 17 2 15 3 16 4 14 5 11 6 12 7 80 8 13 9 10 10 9 11 7 12
REMARK SMILES IDX 4 13 5 14 6 15 8 17 3 18 2 19 1 20 19 21 20 22 21 23 22 24
REMARK SMILES IDX 23 25 24 26 25 27 26 28 27 29 79 30 28 31 78 32 29 33 30 34
REMARK SMILES IDX 31 35 72 36 32 37 77 38 71 39 73 40 33 41 76 42 70 43 69 44
REMARK SMILES IDX 34 46 60 47 43 48 59 49 44 50 47 51 58 52 74 53 45 54 46 55
REMARK SMILES IDX 57 57 75 58 48 59 35 60 36 61 41 62 37 63 38 64 40 65 42 66
REMARK SMILES IDX 39 67 61 68 62 69 67 70 63 71 64 72 66 73 68 74 65 75 49 76
REMARK SMILES IDX 50 77 55 78 51 79 52 80 54 81 56 82 53 83
REMARK H PARENT 6 16 73 45 47 56
REMARK Flexibility Score: inf
ROOT
ATOM      1  C   UNL     1      -2.018   7.284  -0.874  1.00  0.00     0.261 C 
ENDROOT
BRANCH   1   2
ATOM      2  O   UNL     1      -1.470   6.155  -0.171  1.00  0.00    -0.459 OA
BRANCH   2   3
ATOM      3  C   UNL     1      -0.111   6.141  -0.044  1.00  0.00     0.348 C 
ATOM      4  O   UNL     1       0.653   6.861  -0.676  1.00  0.00    -0.245 OA
BRANCH   3   5
ATOM      5  C   UNL     1       0.262   5.235   1.022  1.00  0.00     0.116 A 
ATOM      6  C   UNL     1       0.302   3.522   2.618  1.00  0.00     0.131 A 
ATOM      7  C   UNL     1       1.400   4.265   2.986  1.00  0.00     0.112 A 
ATOM      8  C   UNL     1      -0.379   4.110   1.508  1.00  0.00     0.074 A 
ATOM      9  S   UNL     1       1.680   5.575   1.921  1.00  0.00    -0.133 S 
BRANCH   6  10
ATOM     10  O   UNL     1      -0.138   2.361   3.160  1.00  0.00    -0.483 OA
BRANCH  10  11
ATOM     11  C   UNL     1       0.421   1.944   4.388  1.00  0.00     0.329 C 
BRANCH  11  12
ATOM     12  C   UNL     1       1.925   1.686   4.564  1.00  0.00     0.267 C 
ATOM     13  C   UNL     1       2.292   0.108   2.611  1.00  0.00     0.413 C 
ATOM     14  O   UNL     1       3.156  -0.495   1.986  1.00  0.00    -0.224 OA
ATOM     15  N   UNL     1       2.626   0.886   3.695  1.00  0.00    -0.258 N 
ATOM     16  H   UNL     1       3.590   0.865   3.894  1.00  0.00     0.176 HD
ATOM     17  O   UNL     1       2.537   2.184   5.516  1.00  0.00    -0.271 OA
BRANCH  13  18
ATOM     18  O   UNL     1       0.971   0.074   2.336  1.00  0.00    -0.450 OA
BRANCH  18  19
ATOM     19  C   UNL     1       0.589  -0.685   1.179  1.00  0.00     0.231 C 
ATOM     20  C   UNL     1       0.854   0.095  -0.097  1.00  0.00     0.049 C 
ENDBRANCH  18  19
ENDBRANCH  13  18
ENDBRANCH  11  12
ENDBRANCH  10  11
ENDBRANCH   6  10
ENDBRANCH   3   5
ENDBRANCH   2   3
ENDBRANCH   1   2
BRANCH   1  21
ATOM     21  C   UNL     1      -2.755   8.204   0.105  1.00  0.00     0.202 C 
BRANCH  21  22
ATOM     22  O   UNL     1      -1.893   8.897   1.008  1.00  0.00    -0.374 OA
BRANCH  22  23
ATOM     23  C   UNL     1      -1.599   8.226   2.237  1.00  0.00     0.202 C 
BRANCH  23  24
ATOM     24  C   UNL     1      -2.630   8.456   3.345  1.00  0.00     0.261 C 
BRANCH  24  25
ATOM     25  O   UNL     1      -3.845   7.737   3.060  1.00  0.00    -0.460 OA
BRANCH  25  26
ATOM     26  C   UNL     1      -4.902   8.509   2.715  1.00  0.00     0.338 C 
ATOM     27  O   UNL     1      -4.971   9.725   2.739  1.00  0.00    -0.246 OA
BRANCH  26  28
ATOM     28  C   UNL     1      -5.958   7.664   2.119  1.00  0.00     0.060 A 
ATOM     29  C   UNL     1      -6.565   8.127   0.946  1.00  0.00     0.016 A 
ATOM     30  C   UNL     1      -6.380   6.470   2.711  1.00  0.00     0.016 A 
ATOM     31  C   UNL     1      -7.631   7.426   0.388  1.00  0.00     0.010 A 
ATOM     32  C   UNL     1      -7.455   5.770   2.154  1.00  0.00     0.010 A 
ATOM     33  C   UNL     1      -8.107   6.265   1.010  1.00  0.00    -0.014 A 
BRANCH  33  34
ATOM     34  C   UNL     1      -9.380   5.660   0.551  1.00  0.00     0.031 A 
ATOM     35  C   UNL     1     -10.650   6.002   1.277  1.00  0.00     0.074 A 
ATOM     36  C   UNL     1      -9.412   4.848  -0.519  1.00  0.00     0.049 A 
ATOM     37  N   UNL     1     -11.872   5.589   1.053  1.00  0.00    -0.248 NA
ATOM     38  C   UNL     1     -10.526   6.936   2.407  1.00  0.00     0.031 C 
ATOM     39  C   UNL     1      -8.257   4.476  -1.333  1.00  0.00     0.029 A 
ATOM     40  N   UNL     1     -10.465   4.191  -1.104  1.00  0.00    -0.354 N 
ATOM     41  C   UNL     1     -12.661   6.213   2.011  1.00  0.00     0.074 A 
ATOM     42  C   UNL     1     -11.776   7.004   2.839  1.00  0.00     0.031 C 
ATOM     43  C   UNL     1      -8.665   3.654  -2.316  1.00  0.00     0.029 A 
ATOM     44  C   UNL     1     -10.103   3.424  -2.182  1.00  0.00     0.049 A 
ATOM     45  H   UNL     1     -11.392   4.263  -0.780  1.00  0.00     0.167 HD
ATOM     46  C   UNL     1     -14.002   6.143   2.180  1.00  0.00     0.037 A 
ATOM     47  C   UNL     1     -10.847   2.619  -2.964  1.00  0.00     0.037 A 
ATOM     48  C   UNL     1     -14.883   5.351   1.363  1.00  0.00     0.049 A 
ATOM     49  C   UNL     1     -12.323   2.487  -2.703  1.00  0.00     0.074 A 
ATOM     50  C   UNL     1     -16.259   5.224   1.448  1.00  0.00     0.029 A 
ATOM     51  N   UNL     1     -14.470   4.543   0.315  1.00  0.00    -0.354 N 
ATOM     52  N   UNL     1     -13.062   3.094  -1.806  1.00  0.00    -0.248 NA
ATOM     53  C   UNL     1     -13.067   1.554  -3.562  1.00  0.00     0.031 C 
ATOM     54  C   UNL     1     -16.673   4.306   0.477  1.00  0.00     0.029 A 
ATOM     55  C   UNL     1     -15.560   3.893  -0.239  1.00  0.00     0.049 A 
ATOM     56  H   UNL     1     -13.539   4.445   0.010  1.00  0.00     0.167 HD
ATOM     57  C   UNL     1     -14.359   2.640  -2.010  1.00  0.00     0.074 A 
ATOM     58  C   UNL     1     -14.307   1.709  -3.119  1.00  0.00     0.031 C 
ATOM     59  C   UNL     1     -15.492   2.970  -1.343  1.00  0.00     0.037 A 
BRANCH  46  60
ATOM     60  C   UNL     1     -14.586   6.929   3.315  1.00  0.00     0.057 A 
ATOM     61  C   UNL     1     -14.681   8.327   3.274  1.00  0.00     0.134 A 
ATOM     62  C   UNL     1     -15.055   6.283   4.465  1.00  0.00     0.134 A 
ATOM     63  F   UNL     1     -14.233   9.007   2.207  1.00  0.00    -0.206 F 
ATOM     64  C   UNL     1     -15.194   9.055   4.348  1.00  0.00     0.040 A 
ATOM     65  C   UNL     1     -15.592   6.998   5.536  1.00  0.00     0.040 A 
ATOM     66  F   UNL     1     -14.995   4.946   4.568  1.00  0.00    -0.206 F 
ATOM     67  C   UNL     1     -15.655   8.389   5.483  1.00  0.00     0.006 A 
ENDBRANCH  46  60
BRANCH  47  68
ATOM     68  C   UNL     1     -10.208   1.875  -4.076  1.00  0.00     0.057 A 
ATOM     69  C   UNL     1     -10.440   2.232  -5.409  1.00  0.00     0.134 A 
ATOM     70  C   UNL     1      -9.355   0.791  -3.835  1.00  0.00     0.134 A 
ATOM     71  F   UNL     1     -11.266   3.247  -5.701  1.00  0.00    -0.206 F 
ATOM     72  C   UNL     1      -9.851   1.534  -6.464  1.00  0.00     0.040 A 
ATOM     73  C   UNL     1      -8.744   0.097  -4.880  1.00  0.00     0.040 A 
ATOM     74  F   UNL     1      -9.096   0.401  -2.578  1.00  0.00    -0.206 F 
ATOM     75  C   UNL     1      -8.995   0.466  -6.200  1.00  0.00     0.006 A 
ENDBRANCH  47  68
BRANCH  59  76
ATOM     76  C   UNL     1     -16.773   2.344  -1.812  1.00  0.00     0.057 A 
ATOM     77  C   UNL     1     -17.080   1.004  -1.546  1.00  0.00     0.134 A 
ATOM     78  C   UNL     1     -17.727   3.104  -2.501  1.00  0.00     0.134 A 
ATOM     79  F   UNL     1     -16.203   0.220  -0.902  1.00  0.00    -0.206 F 
ATOM     80  C   UNL     1     -18.285   0.437  -1.965  1.00  0.00     0.040 A 
ATOM     81  C   UNL     1     -18.944   2.554  -2.905  1.00  0.00     0.040 A 
ATOM     82  F   UNL     1     -17.496   4.396  -2.780  1.00  0.00    -0.206 F 
ATOM     83  C   UNL     1     -19.224   1.215  -2.641  1.00  0.00     0.006 A 
ENDBRANCH  59  76
ENDBRANCH  33  34
ENDBRANCH  26  28
ENDBRANCH  25  26
ENDBRANCH  24  25
ENDBRANCH  23  24
ENDBRANCH  22  23
ENDBRANCH  21  22
ENDBRANCH   1  21
TORSDOF 19
