REMARK SMILES O=C(CNC(=O)[C@@H](CC1=c2ccccc2=NC1)N1C(=O)N=C2C=CC=C[C@H]2C1=O)OCCOCCOC(=O)c1ccc(-c2c3nc(c(-c4c(F)cccc4F)c4ccc([nH]4)c(-c4c(F)cccc4F)c4nc(c(-c5c(F)cccc5F)c5ccc2[nH]5)C=C4)C=C3)cc1
REMARK SMILES IDX 32 1 31 2 30 3 2 4 1 5 3 6 4 7 5 8 6 10 7 11 8 12 9 13 10 14
REMARK SMILES IDX 17 15 11 16 15 17 16 18 12 19 14 20 13 21 18 22 19 23 28 24
REMARK SMILES IDX 21 25 20 26 27 27 29 28 22 29 26 30 23 31 25 32 24 33 33 34
REMARK SMILES IDX 34 35 35 36 36 37 37 38 38 39 39 40 40 41 92 42 41 43 91 44
REMARK SMILES IDX 42 45 43 46 44 47 85 48 45 49 90 50 84 51 86 52 46 53 89 54
REMARK SMILES IDX 83 55 82 56 47 58 73 59 56 60 72 61 57 62 60 63 71 64 87 65
REMARK SMILES IDX 58 66 59 67 70 69 88 70 61 71 48 72 49 73 54 74 50 75 51 76
REMARK SMILES IDX 53 77 55 78 52 79 74 80 75 81 80 82 76 83 77 84 79 85 81 86
REMARK SMILES IDX 78 87 62 88 63 89 68 90 64 91 65 92 67 93 69 94 66 95
REMARK H PARENT 4 9 86 57 60 68
REMARK Flexibility Score: inf
ROOT
ATOM      1  C   UNL     1       4.897   2.211   0.184  1.00  0.00     0.202 C 
ENDROOT
BRANCH   1   2
ATOM      2  C   UNL     1       5.197   1.058  -0.853  1.00  0.00     0.261 C 
BRANCH   2   3
ATOM      3  O   UNL     1       3.971   0.622  -1.506  1.00  0.00    -0.462 OA
BRANCH   3   4
ATOM      4  C   UNL     1       3.341  -0.540  -1.721  1.00  0.00     0.325 C 
ATOM      5  O   UNL     1       2.335  -0.495  -2.443  1.00  0.00    -0.250 OA
BRANCH   4   6
ATOM      6  C   UNL     1       3.637  -1.894  -1.036  1.00  0.00     0.238 C 
BRANCH   6   7
ATOM      7  N   UNL     1       4.845  -2.514  -0.463  1.00  0.00    -0.343 N 
ATOM      8  C   UNL     1       5.063  -2.861   0.871  1.00  0.00     0.244 C 
ATOM      9  H   UNL     1       5.579  -2.705  -1.090  1.00  0.00     0.164 HD
ATOM     10  O   UNL     1       5.280  -4.038   1.158  1.00  0.00    -0.273 OA
BRANCH   8  11
ATOM     11  C   UNL     1       5.283  -1.717   1.871  1.00  0.00     0.188 C 
BRANCH  11  12
ATOM     12  C   UNL     1       4.217  -0.641   1.930  1.00  0.00     0.069 C 
BRANCH  12  13
ATOM     13  C   UNL     1       2.742  -0.641   1.868  1.00  0.00    -0.037 C 
ATOM     14  C   UNL     1       1.865  -1.604   2.076  1.00  0.00     0.001 A 
ATOM     15  C   UNL     1       2.046   0.595   1.352  1.00  0.00     0.174 C 
ATOM     16  C   UNL     1       1.963  -2.966   2.450  1.00  0.00     0.010 A 
ATOM     17  C   UNL     1       0.604  -0.980   1.648  1.00  0.00     0.065 A 
ATOM     18  N   UNL     1       0.620   0.258   1.265  1.00  0.00    -0.280 NA
ATOM     19  C   UNL     1       0.855  -3.713   2.365  1.00  0.00     0.001 A 
ATOM     20  C   UNL     1      -0.579  -1.847   1.635  1.00  0.00     0.028 A 
ATOM     21  C   UNL     1      -0.418  -3.142   1.951  1.00  0.00     0.002 A 
ENDBRANCH  12  13
ENDBRANCH  11  12
BRANCH  11  22
ATOM     22  N   UNL     1       6.092  -1.841   3.134  1.00  0.00    -0.249 N 
ATOM     23  C   UNL     1       7.443  -1.489   3.015  1.00  0.00     0.351 C 
ATOM     24  C   UNL     1       5.475  -1.910   4.380  1.00  0.00     0.244 C 
ATOM     25  N   UNL     1       8.253  -1.460   4.105  1.00  0.00    -0.197 NA
ATOM     26  O   UNL     1       7.911  -1.071   1.958  1.00  0.00    -0.246 OA
ATOM     27  C   UNL     1       6.392  -2.058   5.603  1.00  0.00     0.151 C 
ATOM     28  O   UNL     1       4.251  -1.864   4.521  1.00  0.00    -0.273 OA
ATOM     29  C   UNL     1       7.796  -1.605   5.297  1.00  0.00     0.062 C 
ATOM     30  C   UNL     1       5.918  -1.399   6.889  1.00  0.00    -0.007 C 
ATOM     31  C   UNL     1       8.723  -1.254   6.399  1.00  0.00     0.025 C 
ATOM     32  C   UNL     1       6.767  -0.866   7.787  1.00  0.00    -0.003 C 
ATOM     33  C   UNL     1       8.192  -0.862   7.561  1.00  0.00     0.002 C 
ENDBRANCH  11  22
ENDBRANCH   8  11
ENDBRANCH   6   7
ENDBRANCH   4   6
ENDBRANCH   3   4
ENDBRANCH   2   3
ENDBRANCH   1   2
BRANCH   1  34
ATOM     34  O   UNL     1       5.018   1.787   1.534  1.00  0.00    -0.374 OA
BRANCH  34  35
ATOM     35  C   UNL     1       4.664   2.518   2.713  1.00  0.00     0.202 C 
BRANCH  35  36
ATOM     36  C   UNL     1       3.621   3.636   2.799  1.00  0.00     0.261 C 
BRANCH  36  37
ATOM     37  O   UNL     1       3.711   4.588   1.765  1.00  0.00    -0.460 OA
BRANCH  37  38
ATOM     38  C   UNL     1       4.908   5.189   1.638  1.00  0.00     0.338 C 
ATOM     39  O   UNL     1       5.846   5.179   2.423  1.00  0.00    -0.246 OA
BRANCH  38  40
ATOM     40  C   UNL     1       4.963   5.552   0.222  1.00  0.00     0.060 A 
ATOM     41  C   UNL     1       3.811   6.020  -0.424  1.00  0.00     0.016 A 
ATOM     42  C   UNL     1       6.121   5.217  -0.489  1.00  0.00     0.016 A 
ATOM     43  C   UNL     1       3.829   6.185  -1.796  1.00  0.00     0.010 A 
ATOM     44  C   UNL     1       6.123   5.332  -1.867  1.00  0.00     0.010 A 
ATOM     45  C   UNL     1       5.000   5.879  -2.506  1.00  0.00    -0.014 A 
BRANCH  45  46
ATOM     46  C   UNL     1       5.194   6.511  -3.815  1.00  0.00     0.031 A 
ATOM     47  C   UNL     1       4.938   5.803  -5.094  1.00  0.00     0.074 A 
ATOM     48  C   UNL     1       5.636   7.780  -3.759  1.00  0.00     0.049 A 
ATOM     49  N   UNL     1       4.999   6.287  -6.304  1.00  0.00    -0.248 NA
ATOM     50  C   UNL     1       4.579   4.379  -5.019  1.00  0.00     0.031 C 
ATOM     51  C   UNL     1       5.936   8.513  -2.518  1.00  0.00     0.029 A 
ATOM     52  N   UNL     1       5.912   8.678  -4.746  1.00  0.00    -0.354 N 
ATOM     53  C   UNL     1       4.672   5.236  -7.145  1.00  0.00     0.074 A 
ATOM     54  C   UNL     1       4.447   4.076  -6.306  1.00  0.00     0.031 C 
ATOM     55  C   UNL     1       6.343   9.749  -2.823  1.00  0.00     0.029 A 
ATOM     56  C   UNL     1       6.353   9.886  -4.269  1.00  0.00     0.049 A 
ATOM     57  H   UNL     1       5.806   8.479  -5.704  1.00  0.00     0.167 HD
ATOM     58  C   UNL     1       4.571   5.266  -8.495  1.00  0.00     0.037 A 
ATOM     59  C   UNL     1       6.728  10.986  -4.938  1.00  0.00     0.037 A 
ATOM     60  C   UNL     1       4.829   6.442  -9.289  1.00  0.00     0.049 A 
ATOM     61  C   UNL     1       6.634  10.960  -6.432  1.00  0.00     0.074 A 
ATOM     62  C   UNL     1       4.699   6.604 -10.657  1.00  0.00     0.029 A 
ATOM     63  N   UNL     1       5.293   7.652  -8.787  1.00  0.00    -0.354 N 
ATOM     64  N   UNL     1       6.214   9.997  -7.216  1.00  0.00    -0.248 NA
ATOM     65  C   UNL     1       7.054  12.176  -7.133  1.00  0.00     0.031 C 
ATOM     66  C   UNL     1       5.151   7.884 -10.990  1.00  0.00     0.029 A 
ATOM     67  C   UNL     1       5.495   8.549  -9.824  1.00  0.00     0.049 A 
ATOM     68  H   UNL     1       5.454   7.844  -7.835  1.00  0.00     0.167 HD
ATOM     69  C   UNL     1       6.283  10.504  -8.504  1.00  0.00     0.074 A 
ATOM     70  C   UNL     1       6.769  11.865  -8.388  1.00  0.00     0.031 C 
ATOM     71  C   UNL     1       5.974   9.901  -9.677  1.00  0.00     0.037 A 
BRANCH  58  72
ATOM     72  C   UNL     1       4.187   4.000  -9.201  1.00  0.00     0.057 A 
ATOM     73  C   UNL     1       5.100   3.347 -10.040  1.00  0.00     0.134 A 
ATOM     74  C   UNL     1       2.893   3.470  -9.121  1.00  0.00     0.134 A 
ATOM     75  F   UNL     1       6.354   3.807 -10.170  1.00  0.00    -0.206 F 
ATOM     76  C   UNL     1       4.738   2.222 -10.781  1.00  0.00     0.040 A 
ATOM     77  C   UNL     1       2.526   2.330  -9.838  1.00  0.00     0.040 A 
ATOM     78  F   UNL     1       1.970   4.045  -8.335  1.00  0.00    -0.206 F 
ATOM     79  C   UNL     1       3.447   1.708 -10.679  1.00  0.00     0.006 A 
ENDBRANCH  58  72
BRANCH  59  80
ATOM     80  C   UNL     1       7.205  12.183  -4.208  1.00  0.00     0.057 A 
ATOM     81  C   UNL     1       8.409  12.168  -3.493  1.00  0.00     0.134 A 
ATOM     82  C   UNL     1       6.484  13.380  -4.236  1.00  0.00     0.134 A 
ATOM     83  F   UNL     1       9.131  11.041  -3.402  1.00  0.00    -0.206 F 
ATOM     84  C   UNL     1       8.890  13.309  -2.853  1.00  0.00     0.040 A 
ATOM     85  C   UNL     1       6.970  14.538  -3.630  1.00  0.00     0.040 A 
ATOM     86  F   UNL     1       5.320  13.453  -4.899  1.00  0.00    -0.206 F 
ATOM     87  C   UNL     1       8.180  14.504  -2.938  1.00  0.00     0.006 A 
ENDBRANCH  59  80
BRANCH  71  88
ATOM     88  C   UNL     1       6.113  10.736 -10.915  1.00  0.00     0.057 A 
ATOM     89  C   UNL     1       4.976  11.145 -11.623  1.00  0.00     0.134 A 
ATOM     90  C   UNL     1       7.363  11.124 -11.414  1.00  0.00     0.134 A 
ATOM     91  F   UNL     1       3.749  10.803 -11.201  1.00  0.00    -0.206 F 
ATOM     92  C   UNL     1       5.077  11.908 -12.786  1.00  0.00     0.040 A 
ATOM     93  C   UNL     1       7.475  11.917 -12.556  1.00  0.00     0.040 A 
ATOM     94  F   UNL     1       8.489  10.782 -10.770  1.00  0.00    -0.206 F 
ATOM     95  C   UNL     1       6.330  12.304 -13.249  1.00  0.00     0.006 A 
ENDBRANCH  71  88
ENDBRANCH  45  46
ENDBRANCH  38  40
ENDBRANCH  37  38
ENDBRANCH  36  37
ENDBRANCH  35  36
ENDBRANCH  34  35
ENDBRANCH   1  34
TORSDOF 19
