REMARK SMILES Cc1c(C[NH2+]Cc2cccc(F)c2)c(C(=O)OCCOCCOC(=O)c2ccc(-c3c4nc(c(-c5c(F)cccc5F)c5ccc([nH]5)c(-c5c(F)cccc5F)c5nc(c(-c6c(F)cccc6F)c6ccc3[nH]6)C=C5)C=C4)cc2)c(C)n1Cc1c(F)cccc1Cl
REMARK SMILES IDX 19 1 18 2 17 3 15 4 16 5 14 6 1 7 2 8 3 9 82 10 80 11 81 12
REMARK SMILES IDX 4 13 5 14 6 17 7 18 8 19 13 20 9 21 11 22 10 23 12 24 83 25
REMARK SMILES IDX 84 26 85 27 90 28 86 29 87 30 89 31 91 32 88 33 20 34 21 35
REMARK SMILES IDX 22 36 23 37 24 38 25 39 26 40 27 41 79 42 28 43 78 44 29 45
REMARK SMILES IDX 30 46 31 47 72 48 32 49 77 50 71 51 73 52 33 53 76 54 70 55
REMARK SMILES IDX 69 56 34 58 60 59 43 60 59 61 44 62 47 63 58 64 74 65 45 66
REMARK SMILES IDX 46 67 57 69 75 70 48 71 35 72 36 73 41 74 37 75 38 76 40 77
REMARK SMILES IDX 42 78 39 79 61 80 62 81 67 82 63 83 64 84 66 85 68 86 65 87
REMARK SMILES IDX 49 88 50 89 55 90 51 91 52 92 54 93 56 94 53 95
REMARK H PARENT 5 15 5 16 73 57 47 68
REMARK Flexibility Score: inf
ROOT
ATOM      1  C   UNL     1      -2.839  -1.442   7.387  1.00  0.00     0.202 C 
ENDROOT
BRANCH   1   2
ATOM      2  C   UNL     1      -1.302  -1.358   7.404  1.00  0.00     0.261 C 
BRANCH   2   3
ATOM      3  O   UNL     1      -0.812  -0.700   6.236  1.00  0.00    -0.460 OA
BRANCH   3   4
ATOM      4  C   UNL     1      -0.131  -1.449   5.328  1.00  0.00     0.340 C 
ATOM      5  O   UNL     1       0.236  -2.614   5.542  1.00  0.00    -0.246 OA
BRANCH   4   6
ATOM      6  C   UNL     1       0.043  -0.735   4.058  1.00  0.00     0.089 A 
ATOM      7  C   UNL     1       0.614  -0.220   0.402  1.00  0.00     0.065 C 
ATOM      8  C   UNL     1       0.300  -0.190   1.863  1.00  0.00     0.025 A 
ATOM      9  C   UNL     1       0.178  -1.274   2.736  1.00  0.00     0.042 A 
ATOM     10  N   UNL     1       0.100   0.984   2.589  1.00  0.00    -0.343 N 
ATOM     11  C   UNL     1       0.106   0.654   3.935  1.00  0.00     0.030 A 
ATOM     12  C   UNL     1       0.157   1.639   5.056  1.00  0.00     0.065 C 
BRANCH   9  13
ATOM     13  C   UNL     1       0.164  -2.742   2.377  1.00  0.00     0.300 C 
BRANCH  13  14
ATOM     14  N   UNL     1       1.316  -3.397   2.974  1.00  0.00    -0.339 N 
ATOM     15  H   UNL     1       1.237  -3.323   3.988  1.00  0.00     0.346 HD
ATOM     16  H   UNL     1       2.145  -2.928   2.609  1.00  0.00     0.346 HD
BRANCH  14  17
ATOM     17  C   UNL     1       1.441  -4.807   2.625  1.00  0.00     0.297 C 
BRANCH  17  18
ATOM     18  C   UNL     1       1.959  -5.107   1.232  1.00  0.00     0.009 A 
ATOM     19  C   UNL     1       2.512  -4.129   0.387  1.00  0.00     0.010 A 
ATOM     20  C   UNL     1       1.913  -6.432   0.767  1.00  0.00     0.048 A 
ATOM     21  C   UNL     1       2.950  -4.449  -0.901  1.00  0.00     0.004 A 
ATOM     22  C   UNL     1       2.365  -6.743  -0.513  1.00  0.00     0.123 A 
ATOM     23  C   UNL     1       2.871  -5.761  -1.355  1.00  0.00     0.039 A 
ATOM     24  F   UNL     1       2.308  -8.011  -0.942  1.00  0.00    -0.207 F 
ENDBRANCH  17  18
ENDBRANCH  14  17
ENDBRANCH  13  14
ENDBRANCH   9  13
BRANCH  10  25
ATOM     25  C   UNL     1       0.090   2.360   2.040  1.00  0.00     0.162 C 
BRANCH  25  26
ATOM     26  C   UNL     1      -1.282   2.988   1.859  1.00  0.00     0.026 A 
ATOM     27  C   UNL     1      -2.015   3.432   2.970  1.00  0.00     0.129 A 
ATOM     28  C   UNL     1      -1.855   3.270   0.607  1.00  0.00     0.048 A 
ATOM     29  F   UNL     1      -1.473   3.425   4.189  1.00  0.00    -0.207 F 
ATOM     30  C   UNL     1      -3.283   4.008   2.876  1.00  0.00     0.040 A 
ATOM     31  C   UNL     1      -3.123   3.877   0.499  1.00  0.00     0.021 A 
ATOM     32  Cl  UNL     1      -1.021   3.003  -0.882  1.00  0.00    -0.084 Cl
ATOM     33  C   UNL     1      -3.850   4.222   1.633  1.00  0.00     0.005 A 
ENDBRANCH  25  26
ENDBRANCH  10  25
ENDBRANCH   4   6
ENDBRANCH   3   4
ENDBRANCH   2   3
ENDBRANCH   1   2
BRANCH   1  34
ATOM     34  O   UNL     1      -3.421  -2.055   6.237  1.00  0.00    -0.374 OA
BRANCH  34  35
ATOM     35  C   UNL     1      -3.583  -1.228   5.069  1.00  0.00     0.202 C 
BRANCH  35  36
ATOM     36  C   UNL     1      -4.943  -0.469   4.926  1.00  0.00     0.261 C 
BRANCH  36  37
ATOM     37  O   UNL     1      -4.981   1.022   4.984  1.00  0.00    -0.460 OA
BRANCH  37  38
ATOM     38  C   UNL     1      -5.913   1.585   5.829  1.00  0.00     0.338 C 
ATOM     39  O   UNL     1      -6.406   0.943   6.755  1.00  0.00    -0.246 OA
BRANCH  38  40
ATOM     40  C   UNL     1      -6.331   3.081   5.656  1.00  0.00     0.060 A 
ATOM     41  C   UNL     1      -6.538   3.797   6.822  1.00  0.00     0.016 A 
ATOM     42  C   UNL     1      -6.729   3.813   4.511  1.00  0.00     0.016 A 
ATOM     43  C   UNL     1      -7.066   5.145   6.823  1.00  0.00     0.010 A 
ATOM     44  C   UNL     1      -7.362   5.202   4.539  1.00  0.00     0.010 A 
ATOM     45  C   UNL     1      -7.588   5.940   5.719  1.00  0.00    -0.014 A 
BRANCH  45  46
ATOM     46  C   UNL     1      -8.489   7.377   6.102  1.00  0.00     0.031 A 
ATOM     47  C   UNL     1      -8.818   7.121   7.529  1.00  0.00     0.074 A 
ATOM     48  C   UNL     1      -9.189   8.555   5.681  1.00  0.00     0.049 A 
ATOM     49  N   UNL     1      -9.527   6.058   7.764  1.00  0.00    -0.248 NA
ATOM     50  C   UNL     1      -8.098   7.639   8.692  1.00  0.00     0.031 C 
ATOM     51  C   UNL     1      -9.426   9.069   4.313  1.00  0.00     0.029 A 
ATOM     52  N   UNL     1      -9.938   9.602   6.405  1.00  0.00    -0.354 N 
ATOM     53  C   UNL     1      -9.567   5.877   9.114  1.00  0.00     0.074 A 
ATOM     54  C   UNL     1      -8.545   6.787   9.630  1.00  0.00     0.031 C 
ATOM     55  C   UNL     1     -10.049  10.295   4.292  1.00  0.00     0.029 A 
ATOM     56  C   UNL     1     -10.406  10.770   5.636  1.00  0.00     0.049 A 
ATOM     57  H   UNL     1     -10.120   9.523   7.369  1.00  0.00     0.167 HD
ATOM     58  C   UNL     1     -10.800   5.550   9.584  1.00  0.00     0.037 A 
ATOM     59  C   UNL     1     -11.117  11.947   5.993  1.00  0.00     0.037 A 
ATOM     60  C   UNL     1     -11.465   6.721  10.084  1.00  0.00     0.049 A 
ATOM     61  C   UNL     1     -11.984  11.553   7.106  1.00  0.00     0.074 A 
ATOM     62  C   UNL     1     -11.014   7.831  10.775  1.00  0.00     0.029 A 
ATOM     63  N   UNL     1     -12.602   7.108   9.417  1.00  0.00    -0.354 N 
ATOM     64  N   UNL     1     -13.066  10.868   6.899  1.00  0.00    -0.248 NA
ATOM     65  C   UNL     1     -11.798  12.052   8.464  1.00  0.00     0.031 C 
ATOM     66  C   UNL     1     -11.508   8.915  10.020  1.00  0.00     0.029 A 
ATOM     67  C   UNL     1     -12.565   8.468   9.237  1.00  0.00     0.049 A 
ATOM     68  H   UNL     1     -13.324   6.510   9.117  1.00  0.00     0.167 HD
ATOM     69  C   UNL     1     -13.360  10.404   8.137  1.00  0.00     0.074 A 
ATOM     70  C   UNL     1     -12.760  11.349   9.065  1.00  0.00     0.031 C 
ATOM     71  C   UNL     1     -13.408   9.056   8.232  1.00  0.00     0.037 A 
BRANCH  58  72
ATOM     72  C   UNL     1     -11.490   4.488   8.741  1.00  0.00     0.057 A 
ATOM     73  C   UNL     1     -11.819   4.649   7.374  1.00  0.00     0.134 A 
ATOM     74  C   UNL     1     -11.713   3.224   9.285  1.00  0.00     0.134 A 
ATOM     75  F   UNL     1     -11.796   5.858   6.788  1.00  0.00    -0.206 F 
ATOM     76  C   UNL     1     -12.190   3.578   6.562  1.00  0.00     0.040 A 
ATOM     77  C   UNL     1     -12.167   2.158   8.497  1.00  0.00     0.040 A 
ATOM     78  F   UNL     1     -11.497   3.002  10.589  1.00  0.00    -0.206 F 
ATOM     79  C   UNL     1     -12.363   2.322   7.125  1.00  0.00     0.006 A 
ENDBRANCH  58  72
BRANCH  59  80
ATOM     80  C   UNL     1     -11.611  13.431   5.603  1.00  0.00     0.057 A 
ATOM     81  C   UNL     1     -10.726  14.458   5.244  1.00  0.00     0.134 A 
ATOM     82  C   UNL     1     -12.881  13.970   6.056  1.00  0.00     0.134 A 
ATOM     83  F   UNL     1      -9.499  14.160   4.801  1.00  0.00    -0.206 F 
ATOM     84  C   UNL     1     -11.028  15.852   5.403  1.00  0.00     0.040 A 
ATOM     85  C   UNL     1     -13.172  15.345   6.256  1.00  0.00     0.040 A 
ATOM     86  F   UNL     1     -13.904  13.175   6.399  1.00  0.00    -0.206 F 
ATOM     87  C   UNL     1     -12.230  16.300   5.949  1.00  0.00     0.006 A 
ENDBRANCH  59  80
BRANCH  71  88
ATOM     88  C   UNL     1     -14.155   8.297   7.152  1.00  0.00     0.057 A 
ATOM     89  C   UNL     1     -15.168   7.430   7.580  1.00  0.00     0.134 A 
ATOM     90  C   UNL     1     -13.979   8.383   5.753  1.00  0.00     0.134 A 
ATOM     91  F   UNL     1     -15.397   7.265   8.892  1.00  0.00    -0.206 F 
ATOM     92  C   UNL     1     -15.952   6.686   6.696  1.00  0.00     0.040 A 
ATOM     93  C   UNL     1     -14.794   7.679   4.854  1.00  0.00     0.040 A 
ATOM     94  F   UNL     1     -13.009   9.115   5.189  1.00  0.00    -0.206 F 
ATOM     95  C   UNL     1     -15.778   6.821   5.325  1.00  0.00     0.006 A 
ENDBRANCH  71  88
ENDBRANCH  45  46
ENDBRANCH  38  40
ENDBRANCH  37  38
ENDBRANCH  36  37
ENDBRANCH  35  36
ENDBRANCH  34  35
ENDBRANCH   1  34
TORSDOF 20
