REMARK SMILES O=C(OCCOCCOC(=O)[C@]12C[NH2+]C[C@H]1CN(C(=O)c1ccccc1-n1cncn1)C2)c1ccc(-c2c3nc(c(-c4c(F)cccc4F)c4ccc([nH]4)c(-c4c(F)cccc4F)c4nc(c(-c5c(F)cccc5F)c5ccc2[nH]5)C=C4)C=C3)cc1
REMARK SMILES IDX 7 1 6 2 5 3 4 4 3 5 2 6 1 7 33 8 34 9 86 10 35 11 85 12
REMARK SMILES IDX 36 13 37 14 38 15 79 16 39 17 84 18 78 19 80 20 40 21 83 22
REMARK SMILES IDX 77 23 76 24 41 26 67 27 50 28 66 29 51 30 54 31 65 32 81 33
REMARK SMILES IDX 52 34 53 35 64 37 82 38 55 39 42 40 43 41 48 42 44 43 45 44
REMARK SMILES IDX 47 45 49 46 46 47 68 48 69 49 74 50 70 51 71 52 73 53 75 54
REMARK SMILES IDX 72 55 56 56 57 57 62 58 58 59 59 60 61 61 63 62 60 63 8 64
REMARK SMILES IDX 9 65 10 66 11 67 12 68 13 69 16 70 32 71 14 72 15 73 17 74
REMARK SMILES IDX 18 75 19 78 20 79 21 80 22 81 26 82 23 83 25 84 24 85 27 86
REMARK SMILES IDX 28 87 31 88 29 89 30 90
REMARK H PARENT 80 25 54 36 14 76 14 77
REMARK Flexibility Score: inf
ROOT
ATOM      1  C   UNL     1       3.016  -1.496   1.022  1.00  0.00     0.202 C 
ENDROOT
BRANCH   1   2
ATOM      2  O   UNL     1       4.127  -1.332   0.134  1.00  0.00    -0.374 OA
BRANCH   2   3
ATOM      3  C   UNL     1       4.975  -0.196   0.260  1.00  0.00     0.202 C 
BRANCH   3   4
ATOM      4  C   UNL     1       4.549   1.137  -0.374  1.00  0.00     0.261 C 
BRANCH   4   5
ATOM      5  O   UNL     1       3.197   1.509  -0.076  1.00  0.00    -0.460 OA
BRANCH   5   6
ATOM      6  C   UNL     1       2.049   1.056  -0.624  1.00  0.00     0.338 C 
ATOM      7  O   UNL     1       0.985   1.409  -0.115  1.00  0.00    -0.246 OA
BRANCH   6   8
ATOM      8  C   UNL     1       1.993   0.138  -1.802  1.00  0.00     0.060 A 
ATOM      9  C   UNL     1       3.092  -0.369  -2.493  1.00  0.00     0.016 A 
ATOM     10  C   UNL     1       0.710  -0.204  -2.264  1.00  0.00     0.016 A 
ATOM     11  C   UNL     1       2.940  -0.990  -3.712  1.00  0.00     0.010 A 
ATOM     12  C   UNL     1       0.545  -0.887  -3.463  1.00  0.00     0.010 A 
ATOM     13  C   UNL     1       1.667  -1.179  -4.230  1.00  0.00    -0.014 A 
BRANCH  13  14
ATOM     14  C   UNL     1       1.630  -1.599  -5.621  1.00  0.00     0.031 A 
ATOM     15  C   UNL     1       2.415  -2.814  -5.979  1.00  0.00     0.074 A 
ATOM     16  C   UNL     1       0.989  -0.872  -6.552  1.00  0.00     0.049 A 
ATOM     17  N   UNL     1       3.391  -2.929  -6.824  1.00  0.00    -0.248 NA
ATOM     18  C   UNL     1       2.121  -4.041  -5.225  1.00  0.00     0.031 C 
ATOM     19  C   UNL     1       0.020   0.210  -6.368  1.00  0.00     0.029 A 
ATOM     20  N   UNL     1       1.026  -1.034  -7.900  1.00  0.00    -0.354 N 
ATOM     21  C   UNL     1       3.740  -4.277  -6.823  1.00  0.00     0.074 A 
ATOM     22  C   UNL     1       2.988  -4.899  -5.762  1.00  0.00     0.031 C 
ATOM     23  C   UNL     1      -0.615   0.433  -7.538  1.00  0.00     0.029 A 
ATOM     24  C   UNL     1       0.007  -0.383  -8.565  1.00  0.00     0.049 A 
ATOM     25  H   UNL     1       1.715  -1.567  -8.360  1.00  0.00     0.167 HD
ATOM     26  C   UNL     1       4.515  -4.847  -7.785  1.00  0.00     0.037 A 
ATOM     27  C   UNL     1      -0.360  -0.585  -9.848  1.00  0.00     0.037 A 
ATOM     28  C   UNL     1       5.327  -3.894  -8.484  1.00  0.00     0.049 A 
ATOM     29  C   UNL     1       0.781  -1.201 -10.565  1.00  0.00     0.074 A 
ATOM     30  C   UNL     1       6.362  -3.052  -8.126  1.00  0.00     0.029 A 
ATOM     31  N   UNL     1       4.943  -3.485  -9.735  1.00  0.00    -0.354 N 
ATOM     32  N   UNL     1       1.894  -0.581 -10.845  1.00  0.00    -0.248 NA
ATOM     33  C   UNL     1       0.848  -2.654 -10.623  1.00  0.00     0.031 C 
ATOM     34  C   UNL     1       6.212  -1.901  -8.954  1.00  0.00     0.029 A 
ATOM     35  C   UNL     1       5.099  -2.122  -9.765  1.00  0.00     0.049 A 
ATOM     36  H   UNL     1       4.619  -4.057 -10.469  1.00  0.00     0.167 HD
ATOM     37  C   UNL     1       2.884  -1.546 -10.724  1.00  0.00     0.074 A 
ATOM     38  C   UNL     1       2.171  -2.819 -10.691  1.00  0.00     0.031 C 
ATOM     39  C   UNL     1       4.167  -1.216 -10.392  1.00  0.00     0.037 A 
BRANCH  26  40
ATOM     40  C   UNL     1       4.335  -6.265  -8.246  1.00  0.00     0.057 A 
ATOM     41  C   UNL     1       5.333  -6.911  -8.992  1.00  0.00     0.134 A 
ATOM     42  C   UNL     1       3.094  -6.932  -8.190  1.00  0.00     0.134 A 
ATOM     43  F   UNL     1       6.541  -6.351  -9.158  1.00  0.00    -0.206 F 
ATOM     44  C   UNL     1       5.105  -8.129  -9.647  1.00  0.00     0.040 A 
ATOM     45  C   UNL     1       2.869  -8.169  -8.797  1.00  0.00     0.040 A 
ATOM     46  F   UNL     1       2.018  -6.373  -7.619  1.00  0.00    -0.206 F 
ATOM     47  C   UNL     1       3.872  -8.763  -9.548  1.00  0.00     0.006 A 
ENDBRANCH  26  40
BRANCH  27  48
ATOM     48  C   UNL     1      -1.745  -0.587 -10.357  1.00  0.00     0.057 A 
ATOM     49  C   UNL     1      -2.017  -0.434 -11.719  1.00  0.00     0.134 A 
ATOM     50  C   UNL     1      -2.828  -0.971  -9.543  1.00  0.00     0.134 A 
ATOM     51  F   UNL     1      -1.036  -0.122 -12.577  1.00  0.00    -0.206 F 
ATOM     52  C   UNL     1      -3.297  -0.649 -12.244  1.00  0.00     0.040 A 
ATOM     53  C   UNL     1      -4.111  -1.175 -10.050  1.00  0.00     0.040 A 
ATOM     54  F   UNL     1      -2.658  -1.242  -8.240  1.00  0.00    -0.206 F 
ATOM     55  C   UNL     1      -4.348  -1.024 -11.409  1.00  0.00     0.006 A 
ENDBRANCH  27  48
BRANCH  39  56
ATOM     56  C   UNL     1       4.532   0.242 -10.387  1.00  0.00     0.057 A 
ATOM     57  C   UNL     1       3.973   1.169  -9.495  1.00  0.00     0.134 A 
ATOM     58  C   UNL     1       5.581   0.695 -11.195  1.00  0.00     0.134 A 
ATOM     59  F   UNL     1       3.044   0.797  -8.605  1.00  0.00    -0.206 F 
ATOM     60  C   UNL     1       4.401   2.499  -9.448  1.00  0.00     0.040 A 
ATOM     61  C   UNL     1       6.040   2.014 -11.135  1.00  0.00     0.040 A 
ATOM     62  F   UNL     1       6.212  -0.153 -12.023  1.00  0.00    -0.206 F 
ATOM     63  C   UNL     1       5.441   2.925 -10.268  1.00  0.00     0.006 A 
ENDBRANCH  39  56
ENDBRANCH  13  14
ENDBRANCH   6   8
ENDBRANCH   5   6
ENDBRANCH   4   5
ENDBRANCH   3   4
ENDBRANCH   2   3
ENDBRANCH   1   2
BRANCH   1  64
ATOM     64  C   UNL     1       3.310  -1.706   2.505  1.00  0.00     0.261 C 
BRANCH  64  65
ATOM     65  O   UNL     1       3.290  -0.443   3.200  1.00  0.00    -0.463 OA
BRANCH  65  66
ATOM     66  C   UNL     1       4.500   0.080   3.564  1.00  0.00     0.320 C 
ATOM     67  O   UNL     1       5.583  -0.439   3.315  1.00  0.00    -0.251 OA
BRANCH  66  68
ATOM     68  C   UNL     1       4.249   1.365   4.413  1.00  0.00     0.144 C 
ATOM     69  C   UNL     1       4.566   2.124   3.067  1.00  0.00     0.281 C 
ATOM     70  C   UNL     1       4.973   2.542   5.182  1.00  0.00     0.088 C 
ATOM     71  C   UNL     1       4.787   0.386   5.538  1.00  0.00     0.145 C 
ATOM     72  N   UNL     1       4.308   3.563   3.203  1.00  0.00    -0.345 N 
ATOM     73  C   UNL     1       4.500   3.859   4.606  1.00  0.00     0.267 C 
ATOM     74  C   UNL     1       4.607   2.418   6.658  1.00  0.00     0.130 C 
ATOM     75  N   UNL     1       4.554   0.998   6.819  1.00  0.00    -0.337 N 
ATOM     76  H   UNL     1       3.353   3.783   2.919  1.00  0.00     0.346 HD
ATOM     77  H   UNL     1       4.928   4.117   2.611  1.00  0.00     0.346 HD
BRANCH  75  78
ATOM     78  C   UNL     1       4.294   0.348   8.006  1.00  0.00     0.256 C 
ATOM     79  O   UNL     1       4.055   0.921   9.063  1.00  0.00    -0.269 OA
BRANCH  78  80
ATOM     80  C   UNL     1       4.268  -1.140   7.969  1.00  0.00     0.065 A 
ATOM     81  C   UNL     1       2.987  -1.712   8.065  1.00  0.00     0.016 A 
ATOM     82  C   UNL     1       5.368  -1.946   7.616  1.00  0.00     0.079 A 
ATOM     83  C   UNL     1       2.794  -3.068   7.793  1.00  0.00     0.001 A 
ATOM     84  C   UNL     1       5.151  -3.307   7.324  1.00  0.00     0.029 A 
ATOM     85  C   UNL     1       3.874  -3.862   7.418  1.00  0.00     0.002 A 
BRANCH  82  86
ATOM     86  N   UNL     1       6.678  -1.431   7.445  1.00  0.00    -0.220 N 
ATOM     87  C   UNL     1       7.258  -0.283   7.931  1.00  0.00     0.225 A 
ATOM     88  N   UNL     1       7.563  -2.050   6.619  1.00  0.00    -0.155 NA
ATOM     89  N   UNL     1       8.415  -0.068   7.346  1.00  0.00    -0.223 NA
ATOM     90  C   UNL     1       8.550  -1.158   6.542  1.00  0.00     0.246 A 
ENDBRANCH  82  86
ENDBRANCH  78  80
ENDBRANCH  75  78
ENDBRANCH  66  68
ENDBRANCH  65  66
ENDBRANCH  64  65
ENDBRANCH   1  64
TORSDOF 17
