REMARK SMILES CC[C@](C)(NC(=O)NC[C@H]1COCCO1)C(=O)OCCOCCOC(=O)c1ccc(-c2c3nc(c(-c4c(F)cccc4F)c4ccc([nH]4)c(-c4c(F)cccc4F)c4nc(c(-c5c(F)cccc5F)c5ccc2[nH]5)C=C4)C=C3)cc1
REMARK SMILES IDX 20 1 19 2 18 3 16 4 17 5 3 6 4 7 2 8 1 9 5 10 6 11 7 13 8 14
REMARK SMILES IDX 9 16 10 17 11 18 15 19 12 20 14 21 13 22 21 23 22 24 23 25
REMARK SMILES IDX 24 26 25 27 26 28 27 29 28 30 80 31 29 32 79 33 30 34 31 35
REMARK SMILES IDX 32 36 73 37 33 38 78 39 72 40 74 41 34 42 77 43 71 44 70 45
REMARK SMILES IDX 35 47 61 48 44 49 60 50 45 51 48 52 59 53 75 54 46 55 47 56
REMARK SMILES IDX 58 58 76 59 49 60 36 61 37 62 42 63 38 64 39 65 41 66 43 67
REMARK SMILES IDX 40 68 62 69 63 70 68 71 64 72 65 73 67 74 69 75 66 76 50 77
REMARK SMILES IDX 51 78 56 79 52 80 53 81 55 82 57 83 54 84
REMARK H PARENT 5 12 8 15 74 46 48 57
REMARK Flexibility Score: inf
ROOT
ATOM      1  C   UNL     1       1.974  -2.317   4.517  1.00  0.00     0.202 C 
ENDROOT
BRANCH   1   2
ATOM      2  C   UNL     1       1.742  -0.803   4.441  1.00  0.00     0.261 C 
BRANCH   2   3
ATOM      3  O   UNL     1       2.711  -0.187   5.300  1.00  0.00    -0.462 OA
BRANCH   3   4
ATOM      4  C   UNL     1       2.474   1.036   5.810  1.00  0.00     0.331 C 
ATOM      5  O   UNL     1       1.509   1.718   5.490  1.00  0.00    -0.249 OA
BRANCH   4   6
ATOM      6  C   UNL     1       3.570   1.454   6.855  1.00  0.00     0.136 C 
ATOM      7  C   UNL     1       2.742   1.756   8.132  1.00  0.00     0.047 C 
BRANCH   6   8
ATOM      8  C   UNL     1       4.322   2.728   6.390  1.00  0.00     0.037 C 
ATOM      9  C   UNL     1       3.480   3.985   6.197  1.00  0.00     0.007 C 
ENDBRANCH   6   8
BRANCH   6  10
ATOM     10  N   UNL     1       4.596   0.434   7.317  1.00  0.00    -0.322 N 
ATOM     11  C   UNL     1       5.700  -0.194   6.897  1.00  0.00     0.315 C 
ATOM     12  H   UNL     1       4.376   0.137   8.229  1.00  0.00     0.166 HD
ATOM     13  O   UNL     1       6.431  -0.671   7.771  1.00  0.00    -0.249 OA
ATOM     14  N   UNL     1       6.061  -0.362   5.624  1.00  0.00    -0.335 N 
ATOM     15  H   UNL     1       7.003  -0.611   5.481  1.00  0.00     0.165 HD
BRANCH  14  16
ATOM     16  C   UNL     1       5.274  -0.231   4.435  1.00  0.00     0.152 C 
BRANCH  16  17
ATOM     17  C   UNL     1       5.970  -0.146   3.070  1.00  0.00     0.163 C 
ATOM     18  C   UNL     1       5.341   1.008   2.273  1.00  0.00     0.194 C 
ATOM     19  O   UNL     1       7.393  -0.013   3.136  1.00  0.00    -0.372 OA
ATOM     20  O   UNL     1       5.679   2.263   2.880  1.00  0.00    -0.376 OA
ATOM     21  C   UNL     1       7.801   1.270   3.624  1.00  0.00     0.189 C 
ATOM     22  C   UNL     1       7.103   2.423   2.903  1.00  0.00     0.188 C 
ENDBRANCH  16  17
ENDBRANCH  14  16
ENDBRANCH   6  10
ENDBRANCH   4   6
ENDBRANCH   3   4
ENDBRANCH   2   3
ENDBRANCH   1   2
BRANCH   1  23
ATOM     23  O   UNL     1       1.681  -2.885   5.796  1.00  0.00    -0.374 OA
BRANCH  23  24
ATOM     24  C   UNL     1       2.583  -2.604   6.869  1.00  0.00     0.202 C 
BRANCH  24  25
ATOM     25  C   UNL     1       3.790  -3.536   7.003  1.00  0.00     0.261 C 
BRANCH  25  26
ATOM     26  O   UNL     1       4.793  -3.343   5.985  1.00  0.00    -0.460 OA
BRANCH  26  27
ATOM     27  C   UNL     1       4.804  -4.267   5.003  1.00  0.00     0.338 C 
ATOM     28  O   UNL     1       3.990  -5.169   4.837  1.00  0.00    -0.246 OA
BRANCH  27  29
ATOM     29  C   UNL     1       5.901  -4.023   4.041  1.00  0.00     0.060 A 
ATOM     30  C   UNL     1       5.606  -4.161   2.680  1.00  0.00     0.016 A 
ATOM     31  C   UNL     1       7.219  -3.792   4.448  1.00  0.00     0.016 A 
ATOM     32  C   UNL     1       6.629  -4.135   1.730  1.00  0.00     0.010 A 
ATOM     33  C   UNL     1       8.246  -3.760   3.489  1.00  0.00     0.010 A 
ATOM     34  C   UNL     1       7.965  -3.978   2.127  1.00  0.00    -0.014 A 
BRANCH  34  35
ATOM     35  C   UNL     1       9.052  -4.193   1.127  1.00  0.00     0.031 A 
ATOM     36  C   UNL     1       9.834  -5.483   1.140  1.00  0.00     0.074 A 
ATOM     37  C   UNL     1       9.304  -3.288   0.162  1.00  0.00     0.049 A 
ATOM     38  N   UNL     1      10.780  -5.892   0.329  1.00  0.00    -0.248 NA
ATOM     39  C   UNL     1       9.507  -6.440   2.208  1.00  0.00     0.031 C 
ATOM     40  C   UNL     1       8.620  -2.007   0.004  1.00  0.00     0.029 A 
ATOM     41  N   UNL     1      10.206  -3.317  -0.876  1.00  0.00    -0.354 N 
ATOM     42  C   UNL     1      11.160  -7.148   0.788  1.00  0.00     0.074 A 
ATOM     43  C   UNL     1      10.371  -7.417   1.973  1.00  0.00     0.031 C 
ATOM     44  C   UNL     1       9.120  -1.376  -1.073  1.00  0.00     0.029 A 
ATOM     45  C   UNL     1      10.181  -2.192  -1.663  1.00  0.00     0.049 A 
ATOM     46  H   UNL     1      10.814  -4.075  -1.040  1.00  0.00     0.167 HD
ATOM     47  C   UNL     1      12.068  -8.010   0.269  1.00  0.00     0.037 A 
ATOM     48  C   UNL     1      10.934  -1.848  -2.728  1.00  0.00     0.037 A 
ATOM     49  C   UNL     1      12.858  -7.761  -0.909  1.00  0.00     0.049 A 
ATOM     50  C   UNL     1      11.988  -2.795  -3.247  1.00  0.00     0.074 A 
ATOM     51  C   UNL     1      13.780  -8.596  -1.519  1.00  0.00     0.029 A 
ATOM     52  N   UNL     1      12.832  -6.590  -1.650  1.00  0.00    -0.354 N 
ATOM     53  N   UNL     1      12.302  -3.997  -2.830  1.00  0.00    -0.248 NA
ATOM     54  C   UNL     1      12.789  -2.334  -4.393  1.00  0.00     0.031 C 
ATOM     55  C   UNL     1      14.355  -7.907  -2.592  1.00  0.00     0.029 A 
ATOM     56  C   UNL     1      13.744  -6.669  -2.691  1.00  0.00     0.049 A 
ATOM     57  H   UNL     1      12.251  -5.817  -1.464  1.00  0.00     0.167 HD
ATOM     58  C   UNL     1      13.308  -4.446  -3.679  1.00  0.00     0.074 A 
ATOM     59  C   UNL     1      13.543  -3.395  -4.644  1.00  0.00     0.031 C 
ATOM     60  C   UNL     1      13.974  -5.627  -3.660  1.00  0.00     0.037 A 
BRANCH  47  61
ATOM     61  C   UNL     1      12.276  -9.313   0.988  1.00  0.00     0.057 A 
ATOM     62  C   UNL     1      11.309 -10.328   0.980  1.00  0.00     0.134 A 
ATOM     63  C   UNL     1      13.479  -9.575   1.657  1.00  0.00     0.134 A 
ATOM     64  F   UNL     1      10.132 -10.140   0.365  1.00  0.00    -0.206 F 
ATOM     65  C   UNL     1      11.522 -11.544   1.631  1.00  0.00     0.040 A 
ATOM     66  C   UNL     1      13.715 -10.797   2.286  1.00  0.00     0.040 A 
ATOM     67  F   UNL     1      14.452  -8.652   1.694  1.00  0.00    -0.206 F 
ATOM     68  C   UNL     1      12.731 -11.784   2.281  1.00  0.00     0.006 A 
ENDBRANCH  47  61
BRANCH  48  69
ATOM     69  C   UNL     1      10.736  -0.529  -3.386  1.00  0.00     0.057 A 
ATOM     70  C   UNL     1      10.238  -0.433  -4.691  1.00  0.00     0.134 A 
ATOM     71  C   UNL     1      11.085   0.664  -2.741  1.00  0.00     0.134 A 
ATOM     72  F   UNL     1       9.913  -1.541  -5.373  1.00  0.00    -0.206 F 
ATOM     73  C   UNL     1      10.116   0.798  -5.339  1.00  0.00     0.040 A 
ATOM     74  C   UNL     1      10.940   1.903  -3.365  1.00  0.00     0.040 A 
ATOM     75  F   UNL     1      11.570   0.641  -1.491  1.00  0.00    -0.206 F 
ATOM     76  C   UNL     1      10.463   1.972  -4.673  1.00  0.00     0.006 A 
ENDBRANCH  48  69
BRANCH  60  77
ATOM     77  C   UNL     1      14.992  -5.875  -4.739  1.00  0.00     0.057 A 
ATOM     78  C   UNL     1      16.212  -5.187  -4.787  1.00  0.00     0.134 A 
ATOM     79  C   UNL     1      14.765  -6.848  -5.723  1.00  0.00     0.134 A 
ATOM     80  F   UNL     1      16.492  -4.235  -3.884  1.00  0.00    -0.206 F 
ATOM     81  C   UNL     1      17.154  -5.436  -5.788  1.00  0.00     0.040 A 
ATOM     82  C   UNL     1      15.712  -7.128  -6.710  1.00  0.00     0.040 A 
ATOM     83  F   UNL     1      13.625  -7.554  -5.733  1.00  0.00    -0.206 F 
ATOM     84  C   UNL     1      16.908  -6.415  -6.749  1.00  0.00     0.006 A 
ENDBRANCH  60  77
ENDBRANCH  34  35
ENDBRANCH  27  29
ENDBRANCH  26  27
ENDBRANCH  25  26
ENDBRANCH  24  25
ENDBRANCH  23  24
ENDBRANCH   1  23
TORSDOF 18
