REMARK SMILES Cc1c(CC(=O)OCCOCCOC(=O)c2ccc(-c3c4nc(c(-c5c(F)cccc5F)c5ccc([nH]5)c(-c5c(F)cccc5F)c5nc(c(-c6c(F)cccc6F)c6ccc3[nH]6)C=C5)C=C4)cc2)c2cc(O)ccc2n1C(=O)c1ccc(Cl)cc1
REMARK SMILES IDX 9 1 8 2 7 3 5 4 6 5 4 6 3 7 1 8 2 9 77 10 70 11 76 12 71 13
REMARK SMILES IDX 75 14 72 15 74 16 78 17 79 18 80 19 81 20 86 21 82 22 85 23
REMARK SMILES IDX 83 24 84 25 73 26 10 28 11 29 12 30 13 31 14 32 15 33 16 34
REMARK SMILES IDX 17 35 69 36 18 37 68 38 19 39 20 40 21 41 62 42 22 43 67 44
REMARK SMILES IDX 61 45 63 46 23 47 66 48 60 49 59 50 24 52 50 53 33 54 49 55
REMARK SMILES IDX 34 56 37 57 48 58 64 59 35 60 36 61 47 63 65 64 38 65 25 66
REMARK SMILES IDX 26 67 31 68 27 69 28 70 30 71 32 72 29 73 51 74 52 75 57 76
REMARK SMILES IDX 53 77 54 78 56 79 58 80 55 81 39 82 40 83 45 84 41 85 42 86
REMARK SMILES IDX 44 87 46 88 43 89
REMARK H PARENT 73 27 63 51 37 62
REMARK Flexibility Score: inf
ROOT
ATOM      1  C   UNL     1       1.925  -3.012   5.494  1.00  0.00     0.202 C 
ENDROOT
BRANCH   1   2
ATOM      2  C   UNL     1       1.873  -3.256   3.977  1.00  0.00     0.261 C 
BRANCH   2   3
ATOM      3  O   UNL     1       1.229  -2.214   3.224  1.00  0.00    -0.463 OA
BRANCH   3   4
ATOM      4  C   UNL     1       0.068  -2.584   2.622  1.00  0.00     0.310 C 
ATOM      5  O   UNL     1      -0.369  -3.735   2.624  1.00  0.00    -0.252 OA
BRANCH   4   6
ATOM      6  C   UNL     1      -0.707  -1.481   1.937  1.00  0.00     0.160 C 
BRANCH   6   7
ATOM      7  C   UNL     1      -0.223  -0.057   2.018  1.00  0.00    -0.008 A 
ATOM      8  C   UNL     1       1.232   0.041  -0.124  1.00  0.00     0.065 C 
ATOM      9  C   UNL     1       0.586   0.604   1.104  1.00  0.00     0.028 A 
ATOM     10  N   UNL     1       0.693   1.957   1.465  1.00  0.00    -0.280 N 
ATOM     11  C   UNL     1      -0.617   0.910   2.993  1.00  0.00     0.008 A 
ATOM     12  C   UNL     1      -0.002   2.128   2.676  1.00  0.00     0.057 A 
ATOM     13  C   UNL     1      -1.450   0.840   4.135  1.00  0.00     0.056 A 
ATOM     14  C   UNL     1      -0.192   3.248   3.520  1.00  0.00     0.031 A 
ATOM     15  C   UNL     1      -1.522   1.919   5.011  1.00  0.00     0.116 A 
ATOM     16  C   UNL     1      -0.911   3.117   4.710  1.00  0.00     0.048 A 
BRANCH  10  17
ATOM     17  C   UNL     1       1.353   2.970   0.704  1.00  0.00     0.262 C 
ATOM     18  O   UNL     1       1.802   2.687  -0.406  1.00  0.00    -0.268 OA
BRANCH  17  19
ATOM     19  C   UNL     1       1.512   4.374   1.114  1.00  0.00     0.040 A 
ATOM     20  C   UNL     1       2.412   4.712   2.132  1.00  0.00     0.015 A 
ATOM     21  C   UNL     1       0.733   5.354   0.489  1.00  0.00     0.015 A 
ATOM     22  C   UNL     1       2.462   6.032   2.587  1.00  0.00     0.021 A 
ATOM     23  C   UNL     1       0.798   6.673   0.941  1.00  0.00     0.021 A 
ATOM     24  C   UNL     1       1.646   7.002   2.000  1.00  0.00     0.041 A 
ATOM     25  Cl  UNL     1       1.667   8.612   2.606  1.00  0.00    -0.084 Cl
ENDBRANCH  17  19
ENDBRANCH  10  17
BRANCH  15  26
ATOM     26  O   UNL     1      -2.152   1.727   6.205  1.00  0.00    -0.508 OA
ATOM     27  H   UNL     1      -2.562   0.905   6.392  1.00  0.00     0.293 HD
ENDBRANCH  15  26
ENDBRANCH   6   7
ENDBRANCH   4   6
ENDBRANCH   3   4
ENDBRANCH   2   3
ENDBRANCH   1   2
BRANCH   1  28
ATOM     28  O   UNL     1       0.784  -2.522   6.184  1.00  0.00    -0.374 OA
BRANCH  28  29
ATOM     29  C   UNL     1       0.357  -1.196   5.877  1.00  0.00     0.202 C 
BRANCH  29  30
ATOM     30  C   UNL     1       1.287  -0.013   6.204  1.00  0.00     0.261 C 
BRANCH  30  31
ATOM     31  O   UNL     1       2.533  -0.092   5.511  1.00  0.00    -0.460 OA
BRANCH  31  32
ATOM     32  C   UNL     1       3.604   0.324   6.239  1.00  0.00     0.338 C 
ATOM     33  O   UNL     1       3.623   1.122   7.158  1.00  0.00    -0.246 OA
BRANCH  32  34
ATOM     34  C   UNL     1       4.621  -0.706   5.983  1.00  0.00     0.060 A 
ATOM     35  C   UNL     1       4.952  -1.040   4.666  1.00  0.00     0.016 A 
ATOM     36  C   UNL     1       4.899  -1.565   7.058  1.00  0.00     0.016 A 
ATOM     37  C   UNL     1       5.469  -2.301   4.418  1.00  0.00     0.010 A 
ATOM     38  C   UNL     1       5.392  -2.836   6.799  1.00  0.00     0.010 A 
ATOM     39  C   UNL     1       5.634  -3.214   5.476  1.00  0.00    -0.014 A 
BRANCH  39  40
ATOM     40  C   UNL     1       6.289  -4.482   5.171  1.00  0.00     0.031 A 
ATOM     41  C   UNL     1       7.713  -4.284   4.787  1.00  0.00     0.074 A 
ATOM     42  C   UNL     1       5.764  -5.712   5.342  1.00  0.00     0.049 A 
ATOM     43  N   UNL     1       8.289  -4.560   3.664  1.00  0.00    -0.248 NA
ATOM     44  C   UNL     1       8.556  -3.527   5.729  1.00  0.00     0.031 C 
ATOM     45  C   UNL     1       4.505  -6.085   5.987  1.00  0.00     0.029 A 
ATOM     46  N   UNL     1       6.318  -6.922   5.040  1.00  0.00    -0.354 N 
ATOM     47  C   UNL     1       9.616  -4.164   3.818  1.00  0.00     0.074 A 
ATOM     48  C   UNL     1       9.678  -3.389   5.027  1.00  0.00     0.031 C 
ATOM     49  C   UNL     1       4.489  -7.420   6.208  1.00  0.00     0.029 A 
ATOM     50  C   UNL     1       5.684  -8.009   5.628  1.00  0.00     0.049 A 
ATOM     51  H   UNL     1       7.102  -7.017   4.452  1.00  0.00     0.167 HD
ATOM     52  C   UNL     1      10.613  -4.691   3.061  1.00  0.00     0.037 A 
ATOM     53  C   UNL     1       6.142  -9.285   5.693  1.00  0.00     0.037 A 
ATOM     54  C   UNL     1      10.099  -5.297   1.862  1.00  0.00     0.049 A 
ATOM     55  C   UNL     1       7.210  -9.439   4.678  1.00  0.00     0.074 A 
ATOM     56  C   UNL     1       9.428  -4.840   0.746  1.00  0.00     0.029 A 
ATOM     57  N   UNL     1       9.964  -6.662   1.847  1.00  0.00    -0.354 N 
ATOM     58  N   UNL     1       6.997  -9.451   3.394  1.00  0.00    -0.248 NA
ATOM     59  C   UNL     1       8.577  -9.140   5.080  1.00  0.00     0.031 C 
ATOM     60  C   UNL     1       8.542  -5.898   0.386  1.00  0.00     0.029 A 
ATOM     61  C   UNL     1       8.752  -6.949   1.278  1.00  0.00     0.049 A 
ATOM     62  H   UNL     1      10.619  -7.316   2.183  1.00  0.00     0.167 HD
ATOM     63  C   UNL     1       8.061  -8.747   2.852  1.00  0.00     0.074 A 
ATOM     64  C   UNL     1       9.050  -8.666   3.925  1.00  0.00     0.031 C 
ATOM     65  C   UNL     1       7.921  -8.057   1.683  1.00  0.00     0.037 A 
BRANCH  52  66
ATOM     66  C   UNL     1      11.992  -5.000   3.594  1.00  0.00     0.057 A 
ATOM     67  C   UNL     1      12.299  -5.160   4.962  1.00  0.00     0.134 A 
ATOM     68  C   UNL     1      12.978  -5.461   2.704  1.00  0.00     0.134 A 
ATOM     69  F   UNL     1      11.445  -4.836   5.939  1.00  0.00    -0.206 F 
ATOM     70  C   UNL     1      13.474  -5.768   5.409  1.00  0.00     0.040 A 
ATOM     71  C   UNL     1      14.134  -6.119   3.142  1.00  0.00     0.040 A 
ATOM     72  F   UNL     1      12.807  -5.366   1.377  1.00  0.00    -0.206 F 
ATOM     73  C   UNL     1      14.379  -6.285   4.498  1.00  0.00     0.006 A 
ENDBRANCH  52  66
BRANCH  53  74
ATOM     74  C   UNL     1       5.922 -10.297   6.752  1.00  0.00     0.057 A 
ATOM     75  C   UNL     1       5.776  -9.916   8.098  1.00  0.00     0.134 A 
ATOM     76  C   UNL     1       6.112 -11.666   6.518  1.00  0.00     0.134 A 
ATOM     77  F   UNL     1       5.678  -8.624   8.442  1.00  0.00    -0.206 F 
ATOM     78  C   UNL     1       5.817 -10.839   9.148  1.00  0.00     0.040 A 
ATOM     79  C   UNL     1       6.160 -12.602   7.561  1.00  0.00     0.040 A 
ATOM     80  F   UNL     1       6.312 -12.122   5.273  1.00  0.00    -0.206 F 
ATOM     81  C   UNL     1       6.020 -12.187   8.883  1.00  0.00     0.006 A 
ENDBRANCH  53  74
BRANCH  65  82
ATOM     82  C   UNL     1       6.673  -8.301   0.884  1.00  0.00     0.057 A 
ATOM     83  C   UNL     1       6.792  -8.761  -0.431  1.00  0.00     0.134 A 
ATOM     84  C   UNL     1       5.382  -7.976   1.329  1.00  0.00     0.134 A 
ATOM     85  F   UNL     1       8.002  -9.034  -0.944  1.00  0.00    -0.206 F 
ATOM     86  C   UNL     1       5.681  -8.907  -1.264  1.00  0.00     0.040 A 
ATOM     87  C   UNL     1       4.257  -8.151   0.518  1.00  0.00     0.040 A 
ATOM     88  F   UNL     1       5.181  -7.433   2.537  1.00  0.00    -0.206 F 
ATOM     89  C   UNL     1       4.406  -8.614  -0.786  1.00  0.00     0.006 A 
ENDBRANCH  65  82
ENDBRANCH  39  40
ENDBRANCH  32  34
ENDBRANCH  31  32
ENDBRANCH  30  31
ENDBRANCH  29  30
ENDBRANCH  28  29
ENDBRANCH   1  28
TORSDOF 18
