REMARK SMILES Cn1cc(C(=O)OCCOCCOC(=O)c2ccc(-c3c4nc(c(-c5c(F)cccc5F)c5ccc([nH]5)c(-c5c(F)cccc5F)c5nc(c(-c6c(F)cccc6F)c6ccc3[nH]6)C=C5)C=C4)cc2)c(C(=O)Nc2ccc(-n3cncn3)cc2)n1
REMARK SMILES IDX 9 1 8 2 7 3 5 4 6 5 4 6 1 7 2 8 3 9 85 10 70 11 71 12 72 13
REMARK SMILES IDX 73 14 74 16 75 17 84 18 76 19 83 20 77 21 78 22 79 23 82 24
REMARK SMILES IDX 80 25 81 26 10 27 11 28 12 29 13 30 14 31 15 32 16 33 17 34
REMARK SMILES IDX 69 35 18 36 68 37 19 38 20 39 21 40 62 41 22 42 67 43 61 44
REMARK SMILES IDX 63 45 23 46 66 47 60 48 59 49 24 51 50 52 33 53 49 54 34 55
REMARK SMILES IDX 37 56 48 57 64 58 35 59 36 60 47 62 65 63 38 64 25 65 26 66
REMARK SMILES IDX 31 67 27 68 28 69 30 70 32 71 29 72 51 73 52 74 57 75 53 76
REMARK SMILES IDX 54 77 56 78 58 79 55 80 39 81 40 82 45 83 41 84 42 85 44 86
REMARK SMILES IDX 46 87 43 88
REMARK H PARENT 73 15 63 50 37 61
REMARK Flexibility Score: inf
ROOT
ATOM      1  C   UNL     1       3.150  -3.872  -1.708  1.00  0.00     0.202 C 
ENDROOT
BRANCH   1   2
ATOM      2  C   UNL     1       2.836  -3.759  -0.218  1.00  0.00     0.261 C 
BRANCH   2   3
ATOM      3  O   UNL     1       1.865  -2.729  -0.060  1.00  0.00    -0.460 OA
BRANCH   3   4
ATOM      4  C   UNL     1       2.080  -1.802   0.912  1.00  0.00     0.342 C 
ATOM      5  O   UNL     1       2.829  -1.932   1.867  1.00  0.00    -0.246 OA
BRANCH   4   6
ATOM      6  C   UNL     1       1.245  -0.659   0.656  1.00  0.00     0.111 A 
ATOM      7  C   UNL     1      -1.981   0.729  -0.130  1.00  0.00     0.173 C 
ATOM      8  N   UNL     1      -0.605   0.400   0.153  1.00  0.00    -0.274 N 
ATOM      9  C   UNL     1      -0.094  -0.833   0.334  1.00  0.00     0.125 A 
ATOM     10  N   UNL     1       0.307   1.366   0.263  1.00  0.00    -0.167 NA
ATOM     11  C   UNL     1       1.470   0.757   0.622  1.00  0.00     0.165 A 
BRANCH  11  12
ATOM     12  C   UNL     1       2.611   1.671   0.930  1.00  0.00     0.277 C 
ATOM     13  O   UNL     1       2.445   2.899   0.934  1.00  0.00    -0.267 OA
ATOM     14  N   UNL     1       3.842   1.281   1.402  1.00  0.00    -0.321 N 
ATOM     15  H   UNL     1       4.204   1.904   2.074  1.00  0.00     0.170 HD
BRANCH  14  16
ATOM     16  C   UNL     1       4.697   0.211   1.151  1.00  0.00     0.041 A 
ATOM     17  C   UNL     1       5.560  -0.168   2.187  1.00  0.00     0.028 A 
ATOM     18  C   UNL     1       4.760  -0.448  -0.070  1.00  0.00     0.028 A 
ATOM     19  C   UNL     1       6.285  -1.357   2.096  1.00  0.00     0.030 A 
ATOM     20  C   UNL     1       5.584  -1.572  -0.208  1.00  0.00     0.030 A 
ATOM     21  C   UNL     1       6.236  -2.098   0.914  1.00  0.00     0.067 A 
BRANCH  21  22
ATOM     22  N   UNL     1       6.621  -3.461   0.920  1.00  0.00    -0.221 N 
ATOM     23  C   UNL     1       6.798  -4.306  -0.149  1.00  0.00     0.225 A 
ATOM     24  N   UNL     1       6.547  -4.202   2.056  1.00  0.00    -0.155 NA
ATOM     25  N   UNL     1       6.645  -5.557   0.224  1.00  0.00    -0.223 NA
ATOM     26  C   UNL     1       6.461  -5.441   1.570  1.00  0.00     0.246 A 
ENDBRANCH  21  22
ENDBRANCH  14  16
ENDBRANCH  11  12
ENDBRANCH   4   6
ENDBRANCH   3   4
ENDBRANCH   2   3
ENDBRANCH   1   2
BRANCH   1  27
ATOM     27  O   UNL     1       3.607  -2.658  -2.319  1.00  0.00    -0.374 OA
BRANCH  27  28
ATOM     28  C   UNL     1       2.599  -1.895  -2.998  1.00  0.00     0.202 C 
BRANCH  28  29
ATOM     29  C   UNL     1       2.451  -2.265  -4.482  1.00  0.00     0.261 C 
BRANCH  29  30
ATOM     30  O   UNL     1       2.039  -3.634  -4.600  1.00  0.00    -0.460 OA
BRANCH  30  31
ATOM     31  C   UNL     1       3.029  -4.498  -4.935  1.00  0.00     0.338 C 
ATOM     32  O   UNL     1       4.101  -4.234  -5.449  1.00  0.00    -0.246 OA
BRANCH  31  33
ATOM     33  C   UNL     1       2.714  -5.808  -4.326  1.00  0.00     0.060 A 
ATOM     34  C   UNL     1       3.768  -6.497  -3.709  1.00  0.00     0.016 A 
ATOM     35  C   UNL     1       1.407  -6.303  -4.260  1.00  0.00     0.016 A 
ATOM     36  C   UNL     1       3.527  -7.697  -3.047  1.00  0.00     0.010 A 
ATOM     37  C   UNL     1       1.169  -7.522  -3.626  1.00  0.00     0.010 A 
ATOM     38  C   UNL     1       2.237  -8.239  -3.057  1.00  0.00    -0.014 A 
BRANCH  38  39
ATOM     39  C   UNL     1       2.069  -9.685  -2.797  1.00  0.00     0.031 A 
ATOM     40  C   UNL     1       2.176 -10.594  -3.990  1.00  0.00     0.074 A 
ATOM     41  C   UNL     1       1.848 -10.176  -1.567  1.00  0.00     0.049 A 
ATOM     42  N   UNL     1       1.954 -11.877  -4.085  1.00  0.00    -0.248 NA
ATOM     43  C   UNL     1       2.586  -9.959  -5.256  1.00  0.00     0.031 C 
ATOM     44  C   UNL     1       1.801  -9.396  -0.333  1.00  0.00     0.029 A 
ATOM     45  N   UNL     1       1.612 -11.465  -1.163  1.00  0.00    -0.354 N 
ATOM     46  C   UNL     1       2.183 -12.194  -5.418  1.00  0.00     0.074 A 
ATOM     47  C   UNL     1       2.543 -10.974  -6.100  1.00  0.00     0.031 C 
ATOM     48  C   UNL     1       1.534 -10.225   0.694  1.00  0.00     0.029 A 
ATOM     49  C   UNL     1       1.354 -11.582   0.180  1.00  0.00     0.049 A 
ATOM     50  H   UNL     1       1.627 -12.234  -1.778  1.00  0.00     0.167 HD
ATOM     51  C   UNL     1       2.098 -13.400  -6.023  1.00  0.00     0.037 A 
ATOM     52  C   UNL     1       0.983 -12.663   0.894  1.00  0.00     0.037 A 
ATOM     53  C   UNL     1       1.728 -14.605  -5.340  1.00  0.00     0.049 A 
ATOM     54  C   UNL     1       0.812 -13.983   0.183  1.00  0.00     0.074 A 
ATOM     55  C   UNL     1       1.580 -15.879  -5.854  1.00  0.00     0.029 A 
ATOM     56  N   UNL     1       1.443 -14.677  -3.985  1.00  0.00    -0.354 N 
ATOM     57  N   UNL     1       1.006 -14.274  -1.082  1.00  0.00    -0.248 NA
ATOM     58  C   UNL     1       0.358 -15.121   0.995  1.00  0.00     0.031 C 
ATOM     59  C   UNL     1       1.169 -16.718  -4.813  1.00  0.00     0.029 A 
ATOM     60  C   UNL     1       1.104 -15.973  -3.645  1.00  0.00     0.049 A 
ATOM     61  H   UNL     1       1.478 -13.919  -3.358  1.00  0.00     0.167 HD
ATOM     62  C   UNL     1       0.720 -15.628  -1.212  1.00  0.00     0.074 A 
ATOM     63  C   UNL     1       0.353 -16.104   0.105  1.00  0.00     0.031 C 
ATOM     64  C   UNL     1       0.753 -16.412  -2.319  1.00  0.00     0.037 A 
BRANCH  51  65
ATOM     65  C   UNL     1       2.366 -13.441  -7.496  1.00  0.00     0.057 A 
ATOM     66  C   UNL     1       3.657 -13.288  -8.019  1.00  0.00     0.134 A 
ATOM     67  C   UNL     1       1.313 -13.603  -8.405  1.00  0.00     0.134 A 
ATOM     68  F   UNL     1       4.703 -13.094  -7.201  1.00  0.00    -0.206 F 
ATOM     69  C   UNL     1       3.888 -13.274  -9.395  1.00  0.00     0.040 A 
ATOM     70  C   UNL     1       1.535 -13.616  -9.782  1.00  0.00     0.040 A 
ATOM     71  F   UNL     1       0.052 -13.741  -7.968  1.00  0.00    -0.206 F 
ATOM     72  C   UNL     1       2.825 -13.444 -10.281  1.00  0.00     0.006 A 
ENDBRANCH  51  65
BRANCH  52  73
ATOM     73  C   UNL     1       0.707 -12.548   2.350  1.00  0.00     0.057 A 
ATOM     74  C   UNL     1       1.524 -13.177   3.297  1.00  0.00     0.134 A 
ATOM     75  C   UNL     1      -0.403 -11.840   2.829  1.00  0.00     0.134 A 
ATOM     76  F   UNL     1       2.586 -13.895   2.902  1.00  0.00    -0.206 F 
ATOM     77  C   UNL     1       1.239 -13.121   4.664  1.00  0.00     0.040 A 
ATOM     78  C   UNL     1      -0.685 -11.755   4.194  1.00  0.00     0.040 A 
ATOM     79  F   UNL     1      -1.230 -11.219   1.976  1.00  0.00    -0.206 F 
ATOM     80  C   UNL     1       0.133 -12.404   5.116  1.00  0.00     0.006 A 
ENDBRANCH  52  73
BRANCH  64  81
ATOM     81  C   UNL     1       0.416 -17.862  -2.145  1.00  0.00     0.057 A 
ATOM     82  C   UNL     1      -0.902 -18.294  -1.958  1.00  0.00     0.134 A 
ATOM     83  C   UNL     1       1.416 -18.839  -2.232  1.00  0.00     0.134 A 
ATOM     84  F   UNL     1      -1.901 -17.405  -1.858  1.00  0.00    -0.206 F 
ATOM     85  C   UNL     1      -1.212 -19.650  -1.846  1.00  0.00     0.040 A 
ATOM     86  C   UNL     1       1.115 -20.198  -2.146  1.00  0.00     0.040 A 
ATOM     87  F   UNL     1       2.697 -18.488  -2.424  1.00  0.00    -0.206 F 
ATOM     88  C   UNL     1      -0.203 -20.606  -1.949  1.00  0.00     0.006 A 
ENDBRANCH  64  81
ENDBRANCH  38  39
ENDBRANCH  31  33
ENDBRANCH  30  31
ENDBRANCH  29  30
ENDBRANCH  28  29
ENDBRANCH  27  28
ENDBRANCH   1  27
TORSDOF 17
