REMARK SMILES Cc1nccn1CCC[NH+]1CCC2(CC1)[C@@H](C(=O)OCCOCCOC(=O)c1ccc(-c3c4nc(c(-c5c(F)cccc5F)c5ccc([nH]5)c(-c5c(F)cccc5F)c5nc(c(-c6c(F)cccc6F)c6ccc3[nH]6)C=C5)C=C4)cc1)CC(=O)N2C
REMARK SMILES IDX 21 1 20 2 19 3 17 4 18 5 16 6 10 7 11 8 15 9 12 11 14 12
REMARK SMILES IDX 13 13 85 14 82 15 83 16 86 17 84 18 9 19 8 20 7 21 6 22 1 23
REMARK SMILES IDX 2 24 3 25 4 26 5 27 22 28 23 29 24 30 25 31 26 32 27 33
REMARK SMILES IDX 28 34 29 35 81 36 30 37 80 38 31 39 32 40 33 41 74 42 34 43
REMARK SMILES IDX 79 44 73 45 75 46 35 47 78 48 72 49 71 50 36 52 62 53 45 54
REMARK SMILES IDX 61 55 46 56 49 57 60 58 76 59 47 60 48 61 59 63 77 64 50 65
REMARK SMILES IDX 37 66 38 67 43 68 39 69 40 70 42 71 44 72 41 73 63 74 64 75
REMARK SMILES IDX 69 76 65 77 66 78 68 79 70 80 67 81 51 82 52 83 57 84 53 85
REMARK SMILES IDX 54 86 56 87 58 88 55 89
REMARK H PARENT 10 10 75 51 49 62
REMARK Flexibility Score: inf
ROOT
ATOM      1  C   UNL     1       4.584   8.327  -7.302  1.00  0.00     0.202 C 
ENDROOT
BRANCH   1   2
ATOM      2  C   UNL     1       3.716   9.369  -6.588  1.00  0.00     0.261 C 
BRANCH   2   3
ATOM      3  O   UNL     1       3.055   8.875  -5.401  1.00  0.00    -0.463 OA
BRANCH   3   4
ATOM      4  C   UNL     1       1.701   9.067  -5.332  1.00  0.00     0.311 C 
ATOM      5  O   UNL     1       0.990   9.396  -6.269  1.00  0.00    -0.252 OA
BRANCH   4   6
ATOM      6  C   UNL     1       1.205   8.871  -3.912  1.00  0.00     0.134 C 
ATOM      7  N   UNL     1       0.148   4.702  -3.097  1.00  0.00    -0.335 N 
ATOM      8  C   UNL     1       0.013   5.692  -2.033  1.00  0.00     0.264 C 
ATOM      9  C   UNL     1      -0.294   5.223  -4.396  1.00  0.00     0.264 C 
ATOM     10  H   UNL     1      -0.503   3.960  -2.840  1.00  0.00     0.348 HD
ATOM     11  C   UNL     1       0.710   7.008  -2.339  1.00  0.00     0.091 C 
ATOM     12  C   UNL     1       0.185   6.636  -4.772  1.00  0.00     0.091 C 
ATOM     13  C   UNL     1       0.225   7.681  -3.645  1.00  0.00     0.067 C 
ATOM     14  N   UNL     1      -1.062   8.361  -3.448  1.00  0.00    -0.339 N 
ATOM     15  C   UNL     1       0.475  10.140  -3.464  1.00  0.00     0.118 C 
ATOM     16  C   UNL     1      -0.960   9.736  -3.325  1.00  0.00     0.223 C 
ATOM     17  C   UNL     1      -2.372   7.743  -3.544  1.00  0.00     0.147 C 
ATOM     18  O   UNL     1      -1.879  10.514  -3.122  1.00  0.00    -0.275 OA
BRANCH   7  19
ATOM     19  C   UNL     1       1.426   3.982  -3.144  1.00  0.00     0.264 C 
BRANCH  19  20
ATOM     20  C   UNL     1       1.813   3.248  -1.845  1.00  0.00     0.083 C 
BRANCH  20  21
ATOM     21  C   UNL     1       0.692   2.448  -1.168  1.00  0.00     0.129 C 
BRANCH  21  22
ATOM     22  N   UNL     1       0.396   1.171  -1.785  1.00  0.00    -0.335 N 
ATOM     23  C   UNL     1       1.154  -0.340   0.105  1.00  0.00     0.087 C 
ATOM     24  C   UNL     1       0.598  -0.082  -1.248  1.00  0.00     0.105 A 
ATOM     25  N   UNL     1       0.210  -1.014  -2.096  1.00  0.00    -0.242 NA
ATOM     26  C   UNL     1      -0.312  -0.352  -3.173  1.00  0.00     0.131 A 
ATOM     27  C   UNL     1      -0.241   1.006  -2.985  1.00  0.00     0.107 A 
ENDBRANCH  21  22
ENDBRANCH  20  21
ENDBRANCH  19  20
ENDBRANCH   7  19
ENDBRANCH   4   6
ENDBRANCH   3   4
ENDBRANCH   2   3
ENDBRANCH   1   2
BRANCH   1  28
ATOM     28  O   UNL     1       3.922   7.284  -8.015  1.00  0.00    -0.374 OA
BRANCH  28  29
ATOM     29  C   UNL     1       2.957   6.497  -7.336  1.00  0.00     0.202 C 
BRANCH  29  30
ATOM     30  C   UNL     1       3.451   5.540  -6.258  1.00  0.00     0.261 C 
BRANCH  30  31
ATOM     31  O   UNL     1       4.487   6.057  -5.448  1.00  0.00    -0.460 OA
BRANCH  31  32
ATOM     32  C   UNL     1       5.706   5.653  -5.883  1.00  0.00     0.338 C 
ATOM     33  O   UNL     1       6.008   5.300  -7.006  1.00  0.00    -0.246 OA
BRANCH  32  34
ATOM     34  C   UNL     1       6.546   5.433  -4.703  1.00  0.00     0.060 A 
ATOM     35  C   UNL     1       7.739   4.749  -4.938  1.00  0.00     0.016 A 
ATOM     36  C   UNL     1       6.031   5.622  -3.409  1.00  0.00     0.016 A 
ATOM     37  C   UNL     1       8.328   4.097  -3.884  1.00  0.00     0.010 A 
ATOM     38  C   UNL     1       6.616   4.959  -2.357  1.00  0.00     0.010 A 
ATOM     39  C   UNL     1       7.719   4.155  -2.625  1.00  0.00    -0.014 A 
BRANCH  39  40
ATOM     40  C   UNL     1       8.371   3.429  -1.565  1.00  0.00     0.031 A 
ATOM     41  C   UNL     1       9.643   4.050  -1.142  1.00  0.00     0.074 A 
ATOM     42  C   UNL     1       7.848   2.334  -0.995  1.00  0.00     0.049 A 
ATOM     43  N   UNL     1      10.838   3.596  -1.313  1.00  0.00    -0.248 NA
ATOM     44  C   UNL     1       9.579   5.423  -0.619  1.00  0.00     0.031 C 
ATOM     45  C   UNL     1       6.494   1.794  -1.105  1.00  0.00     0.029 A 
ATOM     46  N   UNL     1       8.443   1.511  -0.097  1.00  0.00    -0.354 N 
ATOM     47  C   UNL     1      11.679   4.550  -0.753  1.00  0.00     0.074 A 
ATOM     48  C   UNL     1      10.873   5.716  -0.504  1.00  0.00     0.031 C 
ATOM     49  C   UNL     1       6.314   0.866  -0.136  1.00  0.00     0.029 A 
ATOM     50  C   UNL     1       7.572   0.671   0.570  1.00  0.00     0.049 A 
ATOM     51  H   UNL     1       9.414   1.512   0.066  1.00  0.00     0.167 HD
ATOM     52  C   UNL     1      12.924   4.226  -0.318  1.00  0.00     0.037 A 
ATOM     53  C   UNL     1       7.872  -0.043   1.681  1.00  0.00     0.037 A 
ATOM     54  C   UNL     1      13.389   2.998  -0.908  1.00  0.00     0.049 A 
ATOM     55  C   UNL     1       9.356  -0.142   1.768  1.00  0.00     0.074 A 
ATOM     56  C   UNL     1      13.611   2.572  -2.204  1.00  0.00     0.029 A 
ATOM     57  N   UNL     1      13.352   1.856  -0.144  1.00  0.00    -0.354 N 
ATOM     58  N   UNL     1      10.089  -0.846   0.950  1.00  0.00    -0.248 NA
ATOM     59  C   UNL     1      10.070   0.905   2.490  1.00  0.00     0.031 C 
ATOM     60  C   UNL     1      13.211   1.203  -2.219  1.00  0.00     0.029 A 
ATOM     61  C   UNL     1      12.809   0.868  -0.925  1.00  0.00     0.049 A 
ATOM     62  H   UNL     1      13.658   1.765   0.787  1.00  0.00     0.167 HD
ATOM     63  C   UNL     1      11.232  -0.085   0.742  1.00  0.00     0.074 A 
ATOM     64  C   UNL     1      11.205   0.936   1.786  1.00  0.00     0.031 C 
ATOM     65  C   UNL     1      11.942  -0.171  -0.422  1.00  0.00     0.037 A 
BRANCH  52  66
ATOM     66  C   UNL     1      13.544   4.829   0.913  1.00  0.00     0.057 A 
ATOM     67  C   UNL     1      14.891   4.560   1.204  1.00  0.00     0.134 A 
ATOM     68  C   UNL     1      12.807   5.417   1.964  1.00  0.00     0.134 A 
ATOM     69  F   UNL     1      15.690   3.984   0.293  1.00  0.00    -0.206 F 
ATOM     70  C   UNL     1      15.443   4.795   2.468  1.00  0.00     0.040 A 
ATOM     71  C   UNL     1      13.363   5.707   3.210  1.00  0.00     0.040 A 
ATOM     72  F   UNL     1      11.491   5.647   1.882  1.00  0.00    -0.206 F 
ATOM     73  C   UNL     1      14.677   5.365   3.478  1.00  0.00     0.006 A 
ENDBRANCH  52  66
BRANCH  53  74
ATOM     74  C   UNL     1       6.981  -0.362   2.817  1.00  0.00     0.057 A 
ATOM     75  C   UNL     1       7.328  -1.344   3.754  1.00  0.00     0.134 A 
ATOM     76  C   UNL     1       5.889   0.457   3.157  1.00  0.00     0.134 A 
ATOM     77  F   UNL     1       8.382  -2.144   3.543  1.00  0.00    -0.206 F 
ATOM     78  C   UNL     1       6.639  -1.492   4.965  1.00  0.00     0.040 A 
ATOM     79  C   UNL     1       5.186   0.313   4.357  1.00  0.00     0.040 A 
ATOM     80  F   UNL     1       5.517   1.484   2.378  1.00  0.00    -0.206 F 
ATOM     81  C   UNL     1       5.569  -0.657   5.273  1.00  0.00     0.006 A 
ENDBRANCH  53  74
BRANCH  65  82
ATOM     82  C   UNL     1      11.598  -1.284  -1.372  1.00  0.00     0.057 A 
ATOM     83  C   UNL     1      10.349  -1.412  -2.000  1.00  0.00     0.134 A 
ATOM     84  C   UNL     1      12.605  -2.163  -1.783  1.00  0.00     0.134 A 
ATOM     85  F   UNL     1       9.358  -0.546  -1.754  1.00  0.00    -0.206 F 
ATOM     86  C   UNL     1      10.101  -2.404  -2.953  1.00  0.00     0.040 A 
ATOM     87  C   UNL     1      12.381  -3.136  -2.760  1.00  0.00     0.040 A 
ATOM     88  F   UNL     1      13.843  -2.059  -1.274  1.00  0.00    -0.206 F 
ATOM     89  C   UNL     1      11.121  -3.267  -3.339  1.00  0.00     0.006 A 
ENDBRANCH  65  82
ENDBRANCH  39  40
ENDBRANCH  32  34
ENDBRANCH  31  32
ENDBRANCH  30  31
ENDBRANCH  29  30
ENDBRANCH  28  29
ENDBRANCH   1  28
TORSDOF 18
