REMARK SMILES [NH3+][C@H](Cc1ccc(O)c(F)c1)C(=O)OCCOCCOC(=O)c1ccc(-c2c3nc(c(-c4c(F)cccc4F)c4ccc([nH]4)c(-c4c(F)cccc4F)c4nc(c(-c5c(F)cccc5F)c5ccc2[nH]5)C=C4)C=C3)cc1
REMARK SMILES IDX 16 1 15 2 14 3 12 4 13 5 2 6 1 7 3 11 4 12 5 13 11 14 6 15
REMARK SMILES IDX 9 16 7 17 10 18 8 19 17 21 18 22 19 23 20 24 21 25 22 26
REMARK SMILES IDX 23 27 24 28 76 29 25 30 75 31 26 32 27 33 28 34 69 35 29 36
REMARK SMILES IDX 74 37 68 38 70 39 30 40 73 41 67 42 66 43 31 45 57 46 40 47
REMARK SMILES IDX 56 48 41 49 44 50 55 51 71 52 42 53 43 54 54 56 72 57 45 58
REMARK SMILES IDX 32 59 33 60 38 61 34 62 35 63 37 64 39 65 36 66 58 67 59 68
REMARK SMILES IDX 64 69 60 70 61 71 63 72 65 73 62 74 46 75 47 76 52 77 48 78
REMARK SMILES IDX 49 79 51 80 53 81 50 82
REMARK H PARENT 1 8 1 9 1 10 8 20 70 44 44 55
REMARK Flexibility Score: inf
ROOT
ATOM      1  C   UNL     1      -3.632  -0.496  -0.186  1.00  0.00     0.202 C 
ENDROOT
BRANCH   1   2
ATOM      2  C   UNL     1      -3.109  -1.617   0.715  1.00  0.00     0.261 C 
BRANCH   2   3
ATOM      3  O   UNL     1      -1.679  -1.579   0.843  1.00  0.00    -0.459 OA
BRANCH   3   4
ATOM      4  C   UNL     1      -1.007  -2.449   0.035  1.00  0.00     0.365 C 
ATOM      5  O   UNL     1      -1.540  -3.252  -0.722  1.00  0.00    -0.245 OA
BRANCH   4   6
ATOM      6  C   UNL     1       0.512  -2.350   0.222  1.00  0.00     0.296 C 
BRANCH   6   7
ATOM      7  N   UNL     1       0.916  -3.371   1.219  1.00  0.00    -0.346 N 
ATOM      8  H   UNL     1       0.542  -4.280   0.947  1.00  0.00     0.345 HD
ATOM      9  H   UNL     1       0.551  -3.114   2.136  1.00  0.00     0.345 HD
ATOM     10  H   UNL     1       1.934  -3.421   1.260  1.00  0.00     0.345 HD
ENDBRANCH   6   7
BRANCH   6  11
ATOM     11  C   UNL     1       1.028  -0.916   0.534  1.00  0.00     0.113 C 
BRANCH  11  12
ATOM     12  C   UNL     1       2.496  -0.950   0.910  1.00  0.00    -0.038 A 
ATOM     13  C   UNL     1       2.855  -1.088   2.261  1.00  0.00     0.008 A 
ATOM     14  C   UNL     1       3.477  -1.081  -0.081  1.00  0.00     0.047 A 
ATOM     15  C   UNL     1       4.140  -1.502   2.610  1.00  0.00     0.049 A 
ATOM     16  C   UNL     1       4.764  -1.470   0.276  1.00  0.00     0.165 A 
ATOM     17  C   UNL     1       5.078  -1.733   1.608  1.00  0.00     0.151 A 
ATOM     18  F   UNL     1       5.670  -1.676  -0.690  1.00  0.00    -0.203 F 
BRANCH  17  19
ATOM     19  O   UNL     1       6.298  -2.263   1.915  1.00  0.00    -0.505 OA
ATOM     20  H   UNL     1       6.519  -2.443   2.807  1.00  0.00     0.293 HD
ENDBRANCH  17  19
ENDBRANCH  11  12
ENDBRANCH   6  11
ENDBRANCH   4   6
ENDBRANCH   3   4
ENDBRANCH   2   3
ENDBRANCH   1   2
BRANCH   1  21
ATOM     21  O   UNL     1      -3.222  -0.551  -1.552  1.00  0.00    -0.374 OA
BRANCH  21  22
ATOM     22  C   UNL     1      -1.954   0.027  -1.863  1.00  0.00     0.202 C 
BRANCH  22  23
ATOM     23  C   UNL     1      -1.958   1.541  -2.086  1.00  0.00     0.261 C 
BRANCH  23  24
ATOM     24  O   UNL     1      -2.250   2.241  -0.862  1.00  0.00    -0.460 OA
BRANCH  24  25
ATOM     25  C   UNL     1      -3.466   2.830  -0.831  1.00  0.00     0.338 C 
ATOM     26  O   UNL     1      -4.259   2.940  -1.758  1.00  0.00    -0.246 OA
BRANCH  25  27
ATOM     27  C   UNL     1      -3.828   3.195   0.551  1.00  0.00     0.060 A 
ATOM     28  C   UNL     1      -5.104   2.822   0.988  1.00  0.00     0.016 A 
ATOM     29  C   UNL     1      -2.987   3.946   1.377  1.00  0.00     0.016 A 
ATOM     30  C   UNL     1      -5.576   3.266   2.218  1.00  0.00     0.010 A 
ATOM     31  C   UNL     1      -3.464   4.394   2.615  1.00  0.00     0.010 A 
ATOM     32  C   UNL     1      -4.778   4.096   3.018  1.00  0.00    -0.014 A 
BRANCH  32  33
ATOM     33  C   UNL     1      -5.409   4.766   4.181  1.00  0.00     0.031 A 
ATOM     34  C   UNL     1      -5.897   6.182   4.033  1.00  0.00     0.074 A 
ATOM     35  C   UNL     1      -5.639   4.088   5.319  1.00  0.00     0.049 A 
ATOM     36  N   UNL     1      -6.566   6.922   4.881  1.00  0.00    -0.248 NA
ATOM     37  C   UNL     1      -5.595   6.852   2.758  1.00  0.00     0.031 C 
ATOM     38  C   UNL     1      -5.238   2.706   5.575  1.00  0.00     0.029 A 
ATOM     39  N   UNL     1      -6.284   4.471   6.468  1.00  0.00    -0.354 N 
ATOM     40  C   UNL     1      -6.780   8.134   4.236  1.00  0.00     0.074 A 
ATOM     41  C   UNL     1      -6.128   8.050   2.947  1.00  0.00     0.031 C 
ATOM     42  C   UNL     1      -5.649   2.355   6.806  1.00  0.00     0.029 A 
ATOM     43  C   UNL     1      -6.330   3.490   7.426  1.00  0.00     0.049 A 
ATOM     44  H   UNL     1      -6.676   5.366   6.594  1.00  0.00     0.167 HD
ATOM     45  C   UNL     1      -7.475   9.213   4.668  1.00  0.00     0.037 A 
ATOM     46  C   UNL     1      -6.862   3.506   8.664  1.00  0.00     0.037 A 
ATOM     47  C   UNL     1      -8.118   9.304   5.953  1.00  0.00     0.049 A 
ATOM     48  C   UNL     1      -7.588   4.736   9.140  1.00  0.00     0.074 A 
ATOM     49  C   UNL     1      -8.838  10.359   6.486  1.00  0.00     0.029 A 
ATOM     50  N   UNL     1      -8.113   8.300   6.908  1.00  0.00    -0.354 N 
ATOM     51  N   UNL     1      -7.804   5.865   8.511  1.00  0.00    -0.248 NA
ATOM     52  C   UNL     1      -8.157   4.685  10.494  1.00  0.00     0.031 C 
ATOM     53  C   UNL     1      -9.239  10.006   7.779  1.00  0.00     0.029 A 
ATOM     54  C   UNL     1      -8.806   8.715   8.034  1.00  0.00     0.049 A 
ATOM     55  H   UNL     1      -7.682   7.421   6.802  1.00  0.00     0.167 HD
ATOM     56  C   UNL     1      -8.549   6.651   9.382  1.00  0.00     0.074 A 
ATOM     57  C   UNL     1      -8.768   5.858  10.575  1.00  0.00     0.031 C 
ATOM     58  C   UNL     1      -9.009   7.915   9.214  1.00  0.00     0.037 A 
BRANCH  45  59
ATOM     59  C   UNL     1      -7.569  10.388   3.739  1.00  0.00     0.057 A 
ATOM     60  C   UNL     1      -8.374  10.355   2.592  1.00  0.00     0.134 A 
ATOM     61  C   UNL     1      -6.875  11.573   4.008  1.00  0.00     0.134 A 
ATOM     62  F   UNL     1      -9.052   9.243   2.269  1.00  0.00    -0.206 F 
ATOM     63  C   UNL     1      -8.469  11.453   1.736  1.00  0.00     0.040 A 
ATOM     64  C   UNL     1      -6.981  12.686   3.172  1.00  0.00     0.040 A 
ATOM     65  F   UNL     1      -6.089  11.672   5.091  1.00  0.00    -0.206 F 
ATOM     66  C   UNL     1      -7.776  12.626   2.029  1.00  0.00     0.006 A 
ENDBRANCH  45  59
BRANCH  46  67
ATOM     67  C   UNL     1      -6.726   2.320   9.545  1.00  0.00     0.057 A 
ATOM     68  C   UNL     1      -7.832   1.534   9.890  1.00  0.00     0.134 A 
ATOM     69  C   UNL     1      -5.485   1.960  10.085  1.00  0.00     0.134 A 
ATOM     70  F   UNL     1      -9.050   1.841   9.422  1.00  0.00    -0.206 F 
ATOM     71  C   UNL     1      -7.713   0.446  10.757  1.00  0.00     0.040 A 
ATOM     72  C   UNL     1      -5.347   0.861  10.933  1.00  0.00     0.040 A 
ATOM     73  F   UNL     1      -4.387   2.672   9.791  1.00  0.00    -0.206 F 
ATOM     74  C   UNL     1      -6.466   0.105  11.278  1.00  0.00     0.006 A 
ENDBRANCH  46  67
BRANCH  58  75
ATOM     75  C   UNL     1      -9.808   8.506  10.339  1.00  0.00     0.057 A 
ATOM     76  C   UNL     1      -9.209   8.891  11.546  1.00  0.00     0.134 A 
ATOM     77  C   UNL     1     -11.188   8.706  10.209  1.00  0.00     0.134 A 
ATOM     78  F   UNL     1      -7.893   8.715  11.738  1.00  0.00    -0.206 F 
ATOM     79  C   UNL     1      -9.960   9.423  12.595  1.00  0.00     0.040 A 
ATOM     80  C   UNL     1     -11.945   9.262  11.242  1.00  0.00     0.040 A 
ATOM     81  F   UNL     1     -11.822   8.369   9.076  1.00  0.00    -0.206 F 
ATOM     82  C   UNL     1     -11.332   9.614  12.443  1.00  0.00     0.006 A 
ENDBRANCH  58  75
ENDBRANCH  32  33
ENDBRANCH  25  27
ENDBRANCH  24  25
ENDBRANCH  23  24
ENDBRANCH  22  23
ENDBRANCH  21  22
ENDBRANCH   1  21
TORSDOF 18
