REMARK SMILES C=CC[N@H+](CC(=O)OCCOCCOC(=O)c1ccc(-c2c3nc(c(-c4c(F)cccc4F)c4ccc([nH]4)c(-c4c(F)cccc4F)c4nc(c(-c5c(F)cccc5F)c5ccc2[nH]5)C=C4)C=C3)cc1)Cc1ccc(C(F)(F)F)cc1
REMARK SMILES IDX 10 1 9 2 8 3 6 4 7 5 5 6 4 7 3 9 2 10 1 11 71 12 72 13 73 14
REMARK SMILES IDX 81 15 74 16 80 17 75 18 76 19 77 20 78 21 79 22 11 23 12 24
REMARK SMILES IDX 13 25 14 26 15 27 16 28 17 29 18 30 70 31 19 32 69 33 20 34
REMARK SMILES IDX 21 35 22 36 63 37 23 38 68 39 62 40 64 41 24 42 67 43 61 44
REMARK SMILES IDX 60 45 25 47 51 48 34 49 50 50 35 51 38 52 49 53 65 54 36 55
REMARK SMILES IDX 37 56 48 58 66 59 39 60 26 61 27 62 32 63 28 64 29 65 31 66
REMARK SMILES IDX 33 67 30 68 52 69 53 70 58 71 54 72 55 73 57 74 59 75 56 76
REMARK SMILES IDX 40 77 41 78 46 79 42 80 43 81 45 82 47 83 44 84
REMARK H PARENT 4 8 64 46 38 57
REMARK Flexibility Score: inf
ROOT
ATOM      1  C   UNL     1      -5.243   1.981   0.027  1.00  0.00     0.202 C 
ENDROOT
BRANCH   1   2
ATOM      2  C   UNL     1      -4.947   0.631   0.698  1.00  0.00     0.261 C 
BRANCH   2   3
ATOM      3  O   UNL     1      -3.834  -0.043   0.082  1.00  0.00    -0.459 OA
BRANCH   3   4
ATOM      4  C   UNL     1      -3.879  -1.402   0.163  1.00  0.00     0.361 C 
ATOM      5  O   UNL     1      -4.639  -2.020   0.903  1.00  0.00    -0.245 OA
BRANCH   4   6
ATOM      6  C   UNL     1      -3.003  -2.110  -0.875  1.00  0.00     0.387 C 
BRANCH   6   7
ATOM      7  N   UNL     1      -1.724  -1.448  -1.204  1.00  0.00    -0.319 N 
ATOM      8  H   UNL     1      -1.901  -0.492  -1.511  1.00  0.00     0.349 HD
BRANCH   7   9
ATOM      9  C   UNL     1      -0.893  -1.201  -0.023  1.00  0.00     0.291 C 
BRANCH   9  10
ATOM     10  C   UNL     1       0.545  -1.635  -0.042  1.00  0.00     0.025 C 
ATOM     11  C   UNL     1       1.593  -0.802   0.018  1.00  0.00     0.010 C 
ENDBRANCH   9  10
ENDBRANCH   7   9
BRANCH   7  12
ATOM     12  C   UNL     1      -1.097  -2.042  -2.397  1.00  0.00     0.299 C 
BRANCH  12  13
ATOM     13  C   UNL     1      -1.140  -1.085  -3.572  1.00  0.00     0.006 A 
ATOM     14  C   UNL     1      -0.085  -0.186  -3.778  1.00  0.00     0.010 A 
ATOM     15  C   UNL     1      -2.266  -1.004  -4.404  1.00  0.00     0.010 A 
ATOM     16  C   UNL     1      -0.202   0.846  -4.713  1.00  0.00     0.013 A 
ATOM     17  C   UNL     1      -2.387   0.035  -5.335  1.00  0.00     0.013 A 
ATOM     18  C   UNL     1      -1.383   1.009  -5.449  1.00  0.00     0.056 A 
BRANCH  18  19
ATOM     19  C   UNL     1      -1.620   2.295  -6.201  1.00  0.00     0.416 C 
ATOM     20  F   UNL     1      -1.771   3.362  -5.363  1.00  0.00    -0.166 F 
ATOM     21  F   UNL     1      -0.605   2.624  -7.045  1.00  0.00    -0.166 F 
ATOM     22  F   UNL     1      -2.751   2.276  -6.962  1.00  0.00    -0.166 F 
ENDBRANCH  18  19
ENDBRANCH  12  13
ENDBRANCH   7  12
ENDBRANCH   6   7
ENDBRANCH   4   6
ENDBRANCH   3   4
ENDBRANCH   2   3
ENDBRANCH   1   2
BRANCH   1  23
ATOM     23  O   UNL     1      -5.651   1.927  -1.345  1.00  0.00    -0.374 OA
BRANCH  23  24
ATOM     24  C   UNL     1      -4.742   1.332  -2.270  1.00  0.00     0.202 C 
BRANCH  24  25
ATOM     25  C   UNL     1      -3.436   2.087  -2.530  1.00  0.00     0.261 C 
BRANCH  25  26
ATOM     26  O   UNL     1      -2.791   2.549  -1.345  1.00  0.00    -0.460 OA
BRANCH  26  27
ATOM     27  C   UNL     1      -1.460   2.732  -1.445  1.00  0.00     0.338 C 
ATOM     28  O   UNL     1      -0.699   2.365  -2.317  1.00  0.00    -0.246 OA
BRANCH  27  29
ATOM     29  C   UNL     1      -1.009   3.615  -0.369  1.00  0.00     0.060 A 
ATOM     30  C   UNL     1      -1.692   4.814  -0.151  1.00  0.00     0.016 A 
ATOM     31  C   UNL     1       0.204   3.341   0.266  1.00  0.00     0.016 A 
ATOM     32  C   UNL     1      -1.120   5.773   0.669  1.00  0.00     0.010 A 
ATOM     33  C   UNL     1       0.752   4.283   1.127  1.00  0.00     0.010 A 
ATOM     34  C   UNL     1       0.110   5.517   1.295  1.00  0.00    -0.014 A 
BRANCH  34  35
ATOM     35  C   UNL     1       0.740   6.581   2.097  1.00  0.00     0.031 A 
ATOM     36  C   UNL     1       1.916   7.333   1.552  1.00  0.00     0.074 A 
ATOM     37  C   UNL     1       0.208   6.870   3.295  1.00  0.00     0.049 A 
ATOM     38  N   UNL     1       2.572   8.330   2.085  1.00  0.00    -0.248 NA
ATOM     39  C   UNL     1       2.433   6.901   0.243  1.00  0.00     0.031 C 
ATOM     40  C   UNL     1      -0.924   6.165   3.901  1.00  0.00     0.029 A 
ATOM     41  N   UNL     1       0.531   7.837   4.204  1.00  0.00    -0.354 N 
ATOM     42  C   UNL     1       3.590   8.631   1.190  1.00  0.00     0.074 A 
ATOM     43  C   UNL     1       3.479   7.700   0.088  1.00  0.00     0.031 C 
ATOM     44  C   UNL     1      -1.225   6.750   5.070  1.00  0.00     0.029 A 
ATOM     45  C   UNL     1      -0.297   7.852   5.298  1.00  0.00     0.049 A 
ATOM     46  H   UNL     1       1.283   8.461   4.086  1.00  0.00     0.167 HD
ATOM     47  C   UNL     1       4.528   9.603   1.286  1.00  0.00     0.037 A 
ATOM     48  C   UNL     1      -0.309   8.680   6.356  1.00  0.00     0.037 A 
ATOM     49  C   UNL     1       4.605  10.528   2.387  1.00  0.00     0.049 A 
ATOM     50  C   UNL     1       0.685   9.801   6.396  1.00  0.00     0.074 A 
ATOM     51  C   UNL     1       5.514  11.548   2.604  1.00  0.00     0.029 A 
ATOM     52  N   UNL     1       3.718  10.546   3.455  1.00  0.00    -0.354 N 
ATOM     53  N   UNL     1       1.641  10.082   5.542  1.00  0.00    -0.248 NA
ATOM     54  C   UNL     1       0.591  10.728   7.528  1.00  0.00     0.031 C 
ATOM     55  C   UNL     1       5.182  12.176   3.812  1.00  0.00     0.029 A 
ATOM     56  C   UNL     1       4.050  11.565   4.330  1.00  0.00     0.049 A 
ATOM     57  H   UNL     1       2.963   9.926   3.572  1.00  0.00     0.167 HD
ATOM     58  C   UNL     1       2.259  11.223   6.027  1.00  0.00     0.074 A 
ATOM     59  C   UNL     1       1.553  11.594   7.239  1.00  0.00     0.031 C 
ATOM     60  C   UNL     1       3.320  11.901   5.525  1.00  0.00     0.037 A 
BRANCH  47  61
ATOM     61  C   UNL     1       5.544   9.693   0.187  1.00  0.00     0.057 A 
ATOM     62  C   UNL     1       5.218  10.189  -1.083  1.00  0.00     0.134 A 
ATOM     63  C   UNL     1       6.867   9.285   0.399  1.00  0.00     0.134 A 
ATOM     64  F   UNL     1       3.964  10.579  -1.358  1.00  0.00    -0.206 F 
ATOM     65  C   UNL     1       6.166  10.255  -2.107  1.00  0.00     0.040 A 
ATOM     66  C   UNL     1       7.828   9.365  -0.611  1.00  0.00     0.040 A 
ATOM     67  F   UNL     1       7.246   8.799   1.591  1.00  0.00    -0.206 F 
ATOM     68  C   UNL     1       7.477   9.847  -1.870  1.00  0.00     0.006 A 
ENDBRANCH  47  61
BRANCH  48  69
ATOM     69  C   UNL     1      -1.335   8.497   7.408  1.00  0.00     0.057 A 
ATOM     70  C   UNL     1      -2.430   9.361   7.505  1.00  0.00     0.134 A 
ATOM     71  C   UNL     1      -1.285   7.413   8.292  1.00  0.00     0.134 A 
ATOM     72  F   UNL     1      -2.530  10.419   6.687  1.00  0.00    -0.206 F 
ATOM     73  C   UNL     1      -3.439   9.158   8.448  1.00  0.00     0.040 A 
ATOM     74  C   UNL     1      -2.296   7.186   9.226  1.00  0.00     0.040 A 
ATOM     75  F   UNL     1      -0.269   6.539   8.234  1.00  0.00    -0.206 F 
ATOM     76  C   UNL     1      -3.377   8.061   9.306  1.00  0.00     0.006 A 
ENDBRANCH  48  69
BRANCH  60  77
ATOM     77  C   UNL     1       3.756  13.111   6.288  1.00  0.00     0.057 A 
ATOM     78  C   UNL     1       4.496  13.000   7.472  1.00  0.00     0.134 A 
ATOM     79  C   UNL     1       3.443  14.395   5.829  1.00  0.00     0.134 A 
ATOM     80  F   UNL     1       4.813  11.793   7.965  1.00  0.00    -0.206 F 
ATOM     81  C   UNL     1       4.890  14.130   8.188  1.00  0.00     0.040 A 
ATOM     82  C   UNL     1       3.846  15.532   6.528  1.00  0.00     0.040 A 
ATOM     83  F   UNL     1       2.740  14.562   4.699  1.00  0.00    -0.206 F 
ATOM     84  C   UNL     1       4.567  15.400   7.714  1.00  0.00     0.006 A 
ENDBRANCH  60  77
ENDBRANCH  34  35
ENDBRANCH  27  29
ENDBRANCH  26  27
ENDBRANCH  25  26
ENDBRANCH  24  25
ENDBRANCH  23  24
ENDBRANCH   1  23
TORSDOF 20
