REMARK SMILES O=C(OCCOCCOC(=O)[C@@H]1C=C[C@H](NC(=O)[C@@H]2Cc3ccccc3O2)C1)c1ccc(-c2c3nc(c(-c4c(F)cccc4F)c4ccc([nH]4)c(-c4c(F)cccc4F)c4nc(c(-c5c(F)cccc5F)c5ccc2[nH]5)C=C4)C=C3)cc1
REMARK SMILES IDX 6 1 5 2 4 3 3 4 2 5 1 6 29 7 30 8 82 9 31 10 81 11 32 12
REMARK SMILES IDX 33 13 34 14 75 15 35 16 80 17 74 18 76 19 36 20 79 21 73 22
REMARK SMILES IDX 72 23 37 25 63 26 46 27 62 28 47 29 50 30 61 31 77 32 48 33
REMARK SMILES IDX 49 34 60 36 78 37 51 38 38 39 39 40 44 41 40 42 41 43 43 44
REMARK SMILES IDX 45 45 42 46 64 47 65 48 70 49 66 50 67 51 69 52 71 53 68 54
REMARK SMILES IDX 52 55 53 56 58 57 54 58 55 59 57 60 59 61 56 62 7 63 8 64
REMARK SMILES IDX 9 65 10 66 11 67 12 68 13 69 28 70 14 71 15 72 16 73 17 74
REMARK SMILES IDX 18 76 19 77 20 78 27 79 21 80 26 81 22 82 25 83 23 84 24 85
REMARK H PARENT 76 24 50 35 16 75
REMARK Flexibility Score: inf
ROOT
ATOM      1  O   UNL     1       2.055  -0.249   4.986  1.00  0.00    -0.374 OA
ENDROOT
BRANCH   1   2
ATOM      2  C   UNL     1       1.228  -1.133   5.768  1.00  0.00     0.202 C 
BRANCH   2   3
ATOM      3  C   UNL     1      -0.279  -1.631   5.528  1.00  0.00     0.261 C 
BRANCH   3   4
ATOM      4  O   UNL     1      -0.591  -2.639   4.435  1.00  0.00    -0.460 OA
BRANCH   4   5
ATOM      5  C   UNL     1      -1.397  -2.520   3.033  1.00  0.00     0.338 C 
ATOM      6  O   UNL     1      -2.204  -3.470   3.260  1.00  0.00    -0.246 OA
BRANCH   5   7
ATOM      7  C   UNL     1      -0.966  -1.237   1.355  1.00  0.00     0.060 A 
ATOM      8  C   UNL     1       0.329  -0.617   0.959  1.00  0.00     0.016 A 
ATOM      9  C   UNL     1      -1.827  -0.287   0.556  1.00  0.00     0.016 A 
ATOM     10  C   UNL     1       0.564   0.787   1.048  1.00  0.00     0.010 A 
ATOM     11  C   UNL     1      -1.569   1.136   0.306  1.00  0.00     0.010 A 
ATOM     12  C   UNL     1      -0.385   1.736   0.715  1.00  0.00    -0.014 A 
BRANCH  12  13
ATOM     13  C   UNL     1       0.029   3.195   0.591  1.00  0.00     0.031 A 
ATOM     14  C   UNL     1      -0.711   4.386   1.203  1.00  0.00     0.074 A 
ATOM     15  C   UNL     1       1.196   3.497  -0.034  1.00  0.00     0.049 A 
ATOM     16  N   UNL     1      -0.503   5.676   1.011  1.00  0.00    -0.248 NA
ATOM     17  C   UNL     1      -1.778   4.110   2.172  1.00  0.00     0.031 C 
ATOM     18  C   UNL     1       2.143   2.526  -0.591  1.00  0.00     0.029 A 
ATOM     19  N   UNL     1       1.801   4.710  -0.302  1.00  0.00    -0.354 N 
ATOM     20  C   UNL     1      -1.431   6.363   1.795  1.00  0.00     0.074 A 
ATOM     21  C   UNL     1      -2.190   5.337   2.490  1.00  0.00     0.031 C 
ATOM     22  C   UNL     1       3.213   3.159  -1.072  1.00  0.00     0.029 A 
ATOM     23  C   UNL     1       2.953   4.587  -1.046  1.00  0.00     0.049 A 
ATOM     24  H   UNL     1       1.445   5.574   0.007  1.00  0.00     0.167 HD
ATOM     25  C   UNL     1      -1.647   7.706   1.913  1.00  0.00     0.037 A 
ATOM     26  C   UNL     1       3.690   5.468  -1.746  1.00  0.00     0.037 A 
ATOM     27  C   UNL     1      -0.883   8.751   1.254  1.00  0.00     0.049 A 
ATOM     28  C   UNL     1       3.337   6.918  -1.755  1.00  0.00     0.074 A 
ATOM     29  C   UNL     1      -1.064  10.128   1.320  1.00  0.00     0.029 A 
ATOM     30  N   UNL     1       0.197   8.548   0.410  1.00  0.00    -0.354 N 
ATOM     31  N   UNL     1       2.395   7.535  -1.093  1.00  0.00    -0.248 NA
ATOM     32  C   UNL     1       4.142   7.792  -2.619  1.00  0.00     0.031 C 
ATOM     33  C   UNL     1      -0.149  10.747   0.459  1.00  0.00     0.029 A 
ATOM     34  C   UNL     1       0.654   9.764  -0.089  1.00  0.00     0.049 A 
ATOM     35  H   UNL     1       0.586   7.670   0.195  1.00  0.00     0.167 HD
ATOM     36  C   UNL     1       2.508   8.874  -1.440  1.00  0.00     0.074 A 
ATOM     37  C   UNL     1       3.614   8.981  -2.365  1.00  0.00     0.031 C 
ATOM     38  C   UNL     1       1.753   9.911  -1.011  1.00  0.00     0.037 A 
BRANCH  25  39
ATOM     39  C   UNL     1      -2.833   8.165   2.732  1.00  0.00     0.057 A 
ATOM     40  C   UNL     1      -2.857   8.125   4.131  1.00  0.00     0.134 A 
ATOM     41  C   UNL     1      -3.945   8.738   2.093  1.00  0.00     0.134 A 
ATOM     42  F   UNL     1      -1.821   7.617   4.815  1.00  0.00    -0.206 F 
ATOM     43  C   UNL     1      -3.959   8.590   4.859  1.00  0.00     0.040 A 
ATOM     44  C   UNL     1      -5.039   9.231   2.809  1.00  0.00     0.040 A 
ATOM     45  F   UNL     1      -3.976   8.855   0.757  1.00  0.00    -0.206 F 
ATOM     46  C   UNL     1      -5.054   9.145   4.198  1.00  0.00     0.006 A 
ENDBRANCH  25  39
BRANCH  26  47
ATOM     47  C   UNL     1       4.781   4.950  -2.613  1.00  0.00     0.057 A 
ATOM     48  C   UNL     1       6.123   5.211  -2.331  1.00  0.00     0.134 A 
ATOM     49  C   UNL     1       4.495   4.145  -3.727  1.00  0.00     0.134 A 
ATOM     50  F   UNL     1       6.457   5.989  -1.291  1.00  0.00    -0.206 F 
ATOM     51  C   UNL     1       7.145   4.695  -3.130  1.00  0.00     0.040 A 
ATOM     52  C   UNL     1       5.505   3.592  -4.510  1.00  0.00     0.040 A 
ATOM     53  F   UNL     1       3.224   3.848  -4.040  1.00  0.00    -0.206 F 
ATOM     54  C   UNL     1       6.837   3.874  -4.215  1.00  0.00     0.006 A 
ENDBRANCH  26  47
BRANCH  38  55
ATOM     55  C   UNL     1       2.112  11.286  -1.500  1.00  0.00     0.057 A 
ATOM     56  C   UNL     1       1.873  11.693  -2.820  1.00  0.00     0.134 A 
ATOM     57  C   UNL     1       2.673  12.230  -0.630  1.00  0.00     0.134 A 
ATOM     58  F   UNL     1       1.363  10.833  -3.715  1.00  0.00    -0.206 F 
ATOM     59  C   UNL     1       2.180  12.985  -3.255  1.00  0.00     0.040 A 
ATOM     60  C   UNL     1       2.962  13.532  -1.046  1.00  0.00     0.040 A 
ATOM     61  F   UNL     1       2.937  11.908   0.645  1.00  0.00    -0.206 F 
ATOM     62  C   UNL     1       2.716  13.912  -2.363  1.00  0.00     0.006 A 
ENDBRANCH  38  55
ENDBRANCH  12  13
ENDBRANCH   5   7
ENDBRANCH   4   5
ENDBRANCH   3   4
ENDBRANCH   2   3
ENDBRANCH   1   2
BRANCH   1  63
ATOM     63  C   UNL     1       2.801  -0.516   3.792  1.00  0.00     0.202 C 
BRANCH  63  64
ATOM     64  C   UNL     1       3.872  -1.599   3.632  1.00  0.00     0.261 C 
BRANCH  64  65
ATOM     65  O   UNL     1       3.581  -2.766   4.369  1.00  0.00    -0.463 OA
BRANCH  65  66
ATOM     66  C   UNL     1       3.917  -2.701   5.671  1.00  0.00     0.312 C 
ATOM     67  O   UNL     1       4.578  -1.808   6.186  1.00  0.00    -0.252 OA
BRANCH  66  68
ATOM     68  C   UNL     1       3.350  -3.884   6.432  1.00  0.00     0.124 C 
ATOM     69  C   UNL     1       4.492  -4.822   6.577  1.00  0.00    -0.014 C 
ATOM     70  C   UNL     1       2.297  -4.747   5.718  1.00  0.00     0.048 C 
ATOM     71  C   UNL     1       4.369  -5.851   5.729  1.00  0.00    -0.006 C 
ATOM     72  C   UNL     1       3.065  -5.829   4.958  1.00  0.00     0.106 C 
BRANCH  72  73
ATOM     73  N   UNL     1       3.356  -5.631   3.542  1.00  0.00    -0.347 N 
ATOM     74  C   UNL     1       2.570  -5.361   2.447  1.00  0.00     0.261 C 
ATOM     75  H   UNL     1       4.313  -5.707   3.326  1.00  0.00     0.164 HD
ATOM     76  O   UNL     1       2.995  -5.775   1.361  1.00  0.00    -0.271 OA
BRANCH  74  77
ATOM     77  C   UNL     1       1.254  -4.546   2.526  1.00  0.00     0.266 C 
ATOM     78  C   UNL     1       0.379  -4.630   1.217  1.00  0.00     0.095 C 
ATOM     79  O   UNL     1       1.598  -3.133   2.825  1.00  0.00    -0.480 OA
ATOM     80  C   UNL     1      -0.457  -3.396   1.380  1.00  0.00    -0.002 A 
ATOM     81  C   UNL     1       0.503  -2.389   2.463  1.00  0.00     0.123 A 
ATOM     82  C   UNL     1      -2.177  -3.058   1.102  1.00  0.00     0.008 A 
ATOM     83  C   UNL     1      -0.254  -0.878   3.241  1.00  0.00     0.047 A 
ATOM     84  C   UNL     1      -3.012  -1.734   2.031  1.00  0.00     0.001 A 
ATOM     85  C   UNL     1      -2.054  -0.612   3.089  1.00  0.00     0.004 A 
ENDBRANCH  74  77
ENDBRANCH  72  73
ENDBRANCH  66  68
ENDBRANCH  65  66
ENDBRANCH  64  65
ENDBRANCH  63  64
ENDBRANCH   1  63
TORSDOF 16
