REMARK SMILES O=C(C[C@H]1CN(C(=O)c2c(F)cccc2Cl)CCO1)OCCOCCOC(=O)c1ccc(-c2c3nc(c(-c4c(F)cccc4F)c4ccc([nH]4)c(-c4c(F)cccc4F)c4nc(c(-c5c(F)cccc5F)c5ccc2[nH]5)C=C4)C=C3)cc1
REMARK SMILES IDX 22 1 21 2 20 3 2 4 1 5 3 6 4 7 5 8 19 9 6 10 18 11 17 12
REMARK SMILES IDX 7 13 8 14 9 15 10 16 15 17 11 18 12 19 14 20 16 21 13 22
REMARK SMILES IDX 23 23 24 24 25 25 26 26 27 27 28 28 29 29 30 30 82 31 31 32
REMARK SMILES IDX 81 33 32 34 33 35 34 36 75 37 35 38 80 39 74 40 76 41 36 42
REMARK SMILES IDX 79 43 73 44 72 45 37 47 63 48 46 49 62 50 47 51 50 52 61 53
REMARK SMILES IDX 77 54 48 55 49 56 60 58 78 59 51 60 38 61 39 62 44 63 40 64
REMARK SMILES IDX 41 65 43 66 45 67 42 68 64 69 65 70 70 71 66 72 67 73 69 74
REMARK SMILES IDX 71 75 68 76 52 77 53 78 58 79 54 80 55 81 57 82 59 83 56 84
REMARK H PARENT 76 46 50 57
REMARK Flexibility Score: inf
ROOT
ATOM      1  C   UNL     1       5.932   4.576  -1.347  1.00  0.00     0.202 C 
ENDROOT
BRANCH   1   2
ATOM      2  C   UNL     1       6.156   3.692  -0.113  1.00  0.00     0.261 C 
BRANCH   2   3
ATOM      3  O   UNL     1       6.398   2.292  -0.342  1.00  0.00    -0.463 OA
BRANCH   3   4
ATOM      4  C   UNL     1       5.610   1.431  -1.014  1.00  0.00     0.308 C 
ATOM      5  O   UNL     1       6.091   0.406  -1.496  1.00  0.00    -0.252 OA
BRANCH   4   6
ATOM      6  C   UNL     1       4.153   1.732  -1.171  1.00  0.00     0.156 C 
BRANCH   6   7
ATOM      7  C   UNL     1       3.155   1.243  -0.107  1.00  0.00     0.148 C 
ATOM      8  C   UNL     1       3.606   0.776   1.293  1.00  0.00     0.152 C 
ATOM      9  O   UNL     1       2.126   2.251   0.075  1.00  0.00    -0.374 OA
ATOM     10  N   UNL     1       4.182   1.880   2.054  1.00  0.00    -0.334 N 
ATOM     11  C   UNL     1       2.590   3.393   0.810  1.00  0.00     0.182 C 
ATOM     12  C   UNL     1       3.271   3.037   2.142  1.00  0.00     0.148 C 
BRANCH  10  13
ATOM     13  C   UNL     1       5.359   1.900   2.815  1.00  0.00     0.258 C 
ATOM     14  O   UNL     1       5.779   2.974   3.256  1.00  0.00    -0.269 OA
BRANCH  13  15
ATOM     15  C   UNL     1       6.159   0.685   3.158  1.00  0.00     0.094 A 
ATOM     16  C   UNL     1       6.581  -0.234   2.198  1.00  0.00     0.137 A 
ATOM     17  C   UNL     1       6.662   0.503   4.459  1.00  0.00     0.056 A 
ATOM     18  F   UNL     1       6.213  -0.127   0.926  1.00  0.00    -0.206 F 
ATOM     19  C   UNL     1       7.427  -1.306   2.489  1.00  0.00     0.040 A 
ATOM     20  C   UNL     1       7.545  -0.554   4.754  1.00  0.00     0.021 A 
ATOM     21  Cl  UNL     1       6.221   1.508   5.801  1.00  0.00    -0.083 Cl
ATOM     22  C   UNL     1       7.926  -1.462   3.770  1.00  0.00     0.005 A 
ENDBRANCH  13  15
ENDBRANCH  10  13
ENDBRANCH   6   7
ENDBRANCH   4   6
ENDBRANCH   3   4
ENDBRANCH   2   3
ENDBRANCH   1   2
BRANCH   1  23
ATOM     23  O   UNL     1       6.394   4.132  -2.611  1.00  0.00    -0.374 OA
BRANCH  23  24
ATOM     24  C   UNL     1       7.694   3.565  -2.724  1.00  0.00     0.202 C 
BRANCH  24  25
ATOM     25  C   UNL     1       8.902   4.438  -2.378  1.00  0.00     0.261 C 
BRANCH  25  26
ATOM     26  O   UNL     1       8.871   4.958  -1.038  1.00  0.00    -0.460 OA
BRANCH  26  27
ATOM     27  C   UNL     1       8.795   6.304  -0.958  1.00  0.00     0.338 C 
ATOM     28  O   UNL     1       8.743   7.104  -1.886  1.00  0.00    -0.246 OA
BRANCH  27  29
ATOM     29  C   UNL     1       8.652   6.739   0.439  1.00  0.00     0.060 A 
ATOM     30  C   UNL     1       7.514   7.481   0.775  1.00  0.00     0.016 A 
ATOM     31  C   UNL     1       9.698   6.581   1.351  1.00  0.00     0.016 A 
ATOM     32  C   UNL     1       7.447   8.130   2.004  1.00  0.00     0.010 A 
ATOM     33  C   UNL     1       9.636   7.246   2.580  1.00  0.00     0.010 A 
ATOM     34  C   UNL     1       8.534   8.065   2.886  1.00  0.00    -0.014 A 
BRANCH  34  35
ATOM     35  C   UNL     1       8.595   9.030   4.010  1.00  0.00     0.031 A 
ATOM     36  C   UNL     1       9.346  10.319   3.813  1.00  0.00     0.074 A 
ATOM     37  C   UNL     1       7.933   8.799   5.156  1.00  0.00     0.049 A 
ATOM     38  N   UNL     1       9.517  11.319   4.641  1.00  0.00    -0.248 NA
ATOM     39  C   UNL     1       9.989  10.509   2.502  1.00  0.00     0.031 C 
ATOM     40  C   UNL     1       7.141   7.607   5.450  1.00  0.00     0.029 A 
ATOM     41  N   UNL     1       7.827   9.567   6.287  1.00  0.00    -0.354 N 
ATOM     42  C   UNL     1      10.276  12.255   3.950  1.00  0.00     0.074 A 
ATOM     43  C   UNL     1      10.566  11.693   2.650  1.00  0.00     0.031 C 
ATOM     44  C   UNL     1       6.637   7.718   6.692  1.00  0.00     0.029 A 
ATOM     45  C   UNL     1       7.087   8.978   7.282  1.00  0.00     0.049 A 
ATOM     46  H   UNL     1       8.241  10.456   6.377  1.00  0.00     0.167 HD
ATOM     47  C   UNL     1      10.685  13.481   4.357  1.00  0.00     0.037 A 
ATOM     48  C   UNL     1       6.819   9.405   8.531  1.00  0.00     0.037 A 
ATOM     49  C   UNL     1      10.410  14.037   5.655  1.00  0.00     0.049 A 
ATOM     50  C   UNL     1       7.333  10.746   8.981  1.00  0.00     0.074 A 
ATOM     51  C   UNL     1      10.798  15.261   6.171  1.00  0.00     0.029 A 
ATOM     52  N   UNL     1       9.676  13.399   6.643  1.00  0.00    -0.354 N 
ATOM     53  N   UNL     1       8.046  11.626   8.319  1.00  0.00    -0.248 NA
ATOM     54  C   UNL     1       6.997  11.158  10.352  1.00  0.00     0.031 C 
ATOM     55  C   UNL     1      10.326  15.350   7.486  1.00  0.00     0.029 A 
ATOM     56  C   UNL     1       9.609  14.199   7.772  1.00  0.00     0.049 A 
ATOM     57  H   UNL     1       9.264  12.510   6.556  1.00  0.00     0.167 HD
ATOM     58  C   UNL     1       8.228  12.699   9.183  1.00  0.00     0.074 A 
ATOM     59  C   UNL     1       7.531  12.370  10.409  1.00  0.00     0.031 C 
ATOM     60  C   UNL     1       8.911  13.853   8.983  1.00  0.00     0.037 A 
BRANCH  47  61
ATOM     61  C   UNL     1      11.488  14.293   3.385  1.00  0.00     0.057 A 
ATOM     62  C   UNL     1      10.898  14.894   2.265  1.00  0.00     0.134 A 
ATOM     63  C   UNL     1      12.860  14.493   3.578  1.00  0.00     0.134 A 
ATOM     64  F   UNL     1       9.591  14.727   2.014  1.00  0.00    -0.206 F 
ATOM     65  C   UNL     1      11.648  15.649   1.362  1.00  0.00     0.040 A 
ATOM     66  C   UNL     1      13.617  15.264   2.694  1.00  0.00     0.040 A 
ATOM     67  F   UNL     1      13.486  13.946   4.631  1.00  0.00    -0.206 F 
ATOM     68  C   UNL     1      13.011  15.841   1.579  1.00  0.00     0.006 A 
ENDBRANCH  47  61
BRANCH  48  69
ATOM     69  C   UNL     1       6.036   8.548   9.455  1.00  0.00     0.057 A 
ATOM     70  C   UNL     1       4.741   8.895   9.854  1.00  0.00     0.134 A 
ATOM     71  C   UNL     1       6.582   7.371   9.983  1.00  0.00     0.134 A 
ATOM     72  F   UNL     1       4.175  10.024   9.402  1.00  0.00    -0.206 F 
ATOM     73  C   UNL     1       4.022   8.113  10.759  1.00  0.00     0.040 A 
ATOM     74  C   UNL     1       5.864   6.567  10.870  1.00  0.00     0.040 A 
ATOM     75  F   UNL     1       7.820   6.986   9.643  1.00  0.00    -0.206 F 
ATOM     76  C   UNL     1       4.582   6.942  11.266  1.00  0.00     0.006 A 
ENDBRANCH  48  69
BRANCH  60  77
ATOM     77  C   UNL     1       8.916  14.847  10.107  1.00  0.00     0.057 A 
ATOM     78  C   UNL     1       9.661  14.636  11.274  1.00  0.00     0.134 A 
ATOM     79  C   UNL     1       8.184  16.037  10.011  1.00  0.00     0.134 A 
ATOM     80  F   UNL     1      10.375  13.511  11.432  1.00  0.00    -0.206 F 
ATOM     81  C   UNL     1       9.654  15.561  12.319  1.00  0.00     0.040 A 
ATOM     82  C   UNL     1       8.188  16.980  11.040  1.00  0.00     0.040 A 
ATOM     83  F   UNL     1       7.457  16.304   8.916  1.00  0.00    -0.206 F 
ATOM     84  C   UNL     1       8.919  16.739  12.201  1.00  0.00     0.006 A 
ENDBRANCH  60  77
ENDBRANCH  34  35
ENDBRANCH  27  29
ENDBRANCH  26  27
ENDBRANCH  25  26
ENDBRANCH  24  25
ENDBRANCH  23  24
ENDBRANCH   1  23
TORSDOF 17
