REMARK SMILES COCCN1C(=O)C[C@H](C(=O)OCCOCCOC(=O)c2ccc(-c3c4nc(c(-c5c(F)cccc5F)c5ccc([nH]5)c(-c5c(F)cccc5F)c5nc(c(-c6c(F)cccc6F)c6ccc3[nH]6)C=C5)C=C4)cc2)[C@@H]1c1ccccc1N1CCOCC1
REMARK SMILES IDX 14 1 13 2 12 3 10 4 11 5 9 6 5 7 6 8 75 9 7 10 8 11 4 12
REMARK SMILES IDX 3 13 2 14 1 15 76 16 77 17 81 18 78 19 80 20 79 21 82 22
REMARK SMILES IDX 83 23 87 24 84 25 86 26 85 27 15 28 16 29 17 30 18 31 19 32
REMARK SMILES IDX 20 33 21 34 22 35 74 36 23 37 73 38 24 39 25 40 26 41 67 42
REMARK SMILES IDX 27 43 72 44 66 45 68 46 28 47 71 48 65 49 64 50 29 52 55 53
REMARK SMILES IDX 38 54 54 55 39 56 42 57 53 58 69 59 40 60 41 61 52 63 70 64
REMARK SMILES IDX 43 65 30 66 31 67 36 68 32 69 33 70 35 71 37 72 34 73 56 74
REMARK SMILES IDX 57 75 62 76 58 77 59 78 61 79 63 80 60 81 44 82 45 83 50 84
REMARK SMILES IDX 46 85 47 86 49 87 51 88 48 89
REMARK H PARENT 68 51 42 62
REMARK Flexibility Score: inf
ROOT
ATOM      1  C   UNL     1       0.389   6.816  -0.674  1.00  0.00     0.202 C 
ENDROOT
BRANCH   1   2
ATOM      2  C   UNL     1      -0.150   5.412  -0.334  1.00  0.00     0.261 C 
BRANCH   2   3
ATOM      3  O   UNL     1       0.438   4.226  -0.862  1.00  0.00    -0.463 OA
BRANCH   3   4
ATOM      4  C   UNL     1       0.734   4.182  -2.177  1.00  0.00     0.312 C 
ATOM      5  O   UNL     1       0.773   5.148  -2.921  1.00  0.00    -0.252 OA
BRANCH   4   6
ATOM      6  C   UNL     1       1.175   2.826  -2.616  1.00  0.00     0.136 C 
ATOM      7  N   UNL     1       0.816   0.534  -2.285  1.00  0.00    -0.332 N 
ATOM      8  C   UNL     1       2.121   0.816  -1.899  1.00  0.00     0.224 C 
ATOM      9  C   UNL     1       0.097   1.740  -2.766  1.00  0.00     0.132 C 
ATOM     10  O   UNL     1       3.032   0.025  -1.721  1.00  0.00    -0.275 OA
ATOM     11  C   UNL     1       2.219   2.276  -1.653  1.00  0.00     0.118 C 
BRANCH   7  12
ATOM     12  C   UNL     1       0.411  -0.838  -2.589  1.00  0.00     0.148 C 
BRANCH  12  13
ATOM     13  C   UNL     1       0.761  -1.873  -1.493  1.00  0.00     0.181 C 
BRANCH  13  14
ATOM     14  O   UNL     1       0.115  -1.636  -0.236  1.00  0.00    -0.383 OA
ATOM     15  C   UNL     1       0.844  -0.774   0.632  1.00  0.00     0.194 C 
ENDBRANCH  13  14
ENDBRANCH  12  13
ENDBRANCH   7  12
BRANCH   9  16
ATOM     16  C   UNL     1      -1.302   2.028  -2.202  1.00  0.00    -0.001 A 
ATOM     17  C   UNL     1      -1.802   1.194  -1.174  1.00  0.00     0.008 A 
ATOM     18  C   UNL     1      -2.117   3.131  -2.622  1.00  0.00     0.042 A 
ATOM     19  C   UNL     1      -3.011   1.429  -0.525  1.00  0.00     0.001 A 
ATOM     20  C   UNL     1      -3.332   3.346  -1.923  1.00  0.00     0.026 A 
ATOM     21  C   UNL     1      -3.771   2.521  -0.887  1.00  0.00     0.002 A 
BRANCH  18  22
ATOM     22  N   UNL     1      -1.744   4.047  -3.613  1.00  0.00    -0.367 N 
ATOM     23  C   UNL     1      -1.535   3.609  -5.005  1.00  0.00     0.145 C 
ATOM     24  C   UNL     1      -2.250   5.451  -3.564  1.00  0.00     0.145 C 
ATOM     25  C   UNL     1      -0.608   4.609  -5.722  1.00  0.00     0.181 C 
ATOM     26  C   UNL     1      -1.414   6.415  -4.434  1.00  0.00     0.181 C 
ATOM     27  O   UNL     1      -1.202   5.916  -5.762  1.00  0.00    -0.378 OA
ENDBRANCH  18  22
ENDBRANCH   9  16
ENDBRANCH   4   6
ENDBRANCH   3   4
ENDBRANCH   2   3
ENDBRANCH   1   2
BRANCH   1  28
ATOM     28  O   UNL     1       1.698   7.137  -1.117  1.00  0.00    -0.374 OA
BRANCH  28  29
ATOM     29  C   UNL     1       2.806   6.268  -1.001  1.00  0.00     0.202 C 
BRANCH  29  30
ATOM     30  C   UNL     1       3.466   6.175   0.364  1.00  0.00     0.261 C 
BRANCH  30  31
ATOM     31  O   UNL     1       2.535   5.783   1.375  1.00  0.00    -0.460 OA
BRANCH  31  32
ATOM     32  C   UNL     1       2.077   6.814   2.118  1.00  0.00     0.338 C 
ATOM     33  O   UNL     1       2.397   7.991   2.045  1.00  0.00    -0.246 OA
BRANCH  32  34
ATOM     34  C   UNL     1       0.991   6.345   2.988  1.00  0.00     0.060 A 
ATOM     35  C   UNL     1      -0.150   7.152   3.083  1.00  0.00     0.016 A 
ATOM     36  C   UNL     1       1.109   5.171   3.737  1.00  0.00     0.016 A 
ATOM     37  C   UNL     1      -1.151   6.826   3.985  1.00  0.00     0.010 A 
ATOM     38  C   UNL     1       0.112   4.853   4.655  1.00  0.00     0.010 A 
ATOM     39  C   UNL     1      -0.990   5.711   4.816  1.00  0.00    -0.014 A 
BRANCH  39  40
ATOM     40  C   UNL     1      -1.852   5.588   6.007  1.00  0.00     0.031 A 
ATOM     41  C   UNL     1      -1.324   6.102   7.315  1.00  0.00     0.074 A 
ATOM     42  C   UNL     1      -3.086   5.071   5.909  1.00  0.00     0.049 A 
ATOM     43  N   UNL     1      -1.873   6.075   8.501  1.00  0.00    -0.248 NA
ATOM     44  C   UNL     1       0.008   6.730   7.281  1.00  0.00     0.031 C 
ATOM     45  C   UNL     1      -3.706   4.593   4.676  1.00  0.00     0.029 A 
ATOM     46  N   UNL     1      -4.034   4.859   6.874  1.00  0.00    -0.354 N 
ATOM     47  C   UNL     1      -0.950   6.668   9.353  1.00  0.00     0.074 A 
ATOM     48  C   UNL     1       0.205   7.019   8.557  1.00  0.00     0.031 C 
ATOM     49  C   UNL     1      -4.932   4.123   4.963  1.00  0.00     0.029 A 
ATOM     50  C   UNL     1      -5.162   4.239   6.402  1.00  0.00     0.049 A 
ATOM     51  H   UNL     1      -3.916   5.125   7.815  1.00  0.00     0.167 HD
ATOM     52  C   UNL     1      -1.062   6.902  10.681  1.00  0.00     0.037 A 
ATOM     53  C   UNL     1      -6.242   3.792   7.069  1.00  0.00     0.037 A 
ATOM     54  C   UNL     1      -2.218   6.543  11.458  1.00  0.00     0.049 A 
ATOM     55  C   UNL     1      -6.315   4.000   8.559  1.00  0.00     0.074 A 
ATOM     56  C   UNL     1      -2.450   6.749  12.805  1.00  0.00     0.029 A 
ATOM     57  N   UNL     1      -3.333   5.889  10.952  1.00  0.00    -0.354 N 
ATOM     58  N   UNL     1      -5.452   4.582   9.357  1.00  0.00    -0.248 NA
ATOM     59  C   UNL     1      -7.514   3.494   9.239  1.00  0.00     0.031 C 
ATOM     60  C   UNL     1      -3.679   6.164  13.127  1.00  0.00     0.029 A 
ATOM     61  C   UNL     1      -4.243   5.653  11.968  1.00  0.00     0.049 A 
ATOM     62  H   UNL     1      -3.458   5.631  10.010  1.00  0.00     0.167 HD
ATOM     63  C   UNL     1      -6.014   4.538  10.627  1.00  0.00     0.074 A 
ATOM     64  C   UNL     1      -7.299   3.883  10.488  1.00  0.00     0.031 C 
ATOM     65  C   UNL     1      -5.517   4.999  11.803  1.00  0.00     0.037 A 
BRANCH  52  66
ATOM     66  C   UNL     1       0.113   7.530  11.374  1.00  0.00     0.057 A 
ATOM     67  C   UNL     1       0.491   8.861  11.149  1.00  0.00     0.134 A 
ATOM     68  C   UNL     1       0.876   6.790  12.286  1.00  0.00     0.134 A 
ATOM     69  F   UNL     1      -0.184   9.621  10.273  1.00  0.00    -0.206 F 
ATOM     70  C   UNL     1       1.601   9.422  11.784  1.00  0.00     0.040 A 
ATOM     71  C   UNL     1       1.969   7.349  12.950  1.00  0.00     0.040 A 
ATOM     72  F   UNL     1       0.571   5.510  12.549  1.00  0.00    -0.206 F 
ATOM     73  C   UNL     1       2.339   8.667  12.693  1.00  0.00     0.006 A 
ENDBRANCH  52  66
BRANCH  53  74
ATOM     74  C   UNL     1      -7.325   3.091   6.336  1.00  0.00     0.057 A 
ATOM     75  C   UNL     1      -8.591   3.664   6.184  1.00  0.00     0.134 A 
ATOM     76  C   UNL     1      -7.116   1.828   5.766  1.00  0.00     0.134 A 
ATOM     77  F   UNL     1      -8.859   4.862   6.723  1.00  0.00    -0.206 F 
ATOM     78  C   UNL     1      -9.616   3.002   5.505  1.00  0.00     0.040 A 
ATOM     79  C   UNL     1      -8.122   1.167   5.061  1.00  0.00     0.040 A 
ATOM     80  F   UNL     1      -5.921   1.226   5.871  1.00  0.00    -0.206 F 
ATOM     81  C   UNL     1      -9.380   1.752   4.936  1.00  0.00     0.006 A 
ENDBRANCH  53  74
BRANCH  65  82
ATOM     82  C   UNL     1      -6.381   4.844  13.022  1.00  0.00     0.057 A 
ATOM     83  C   UNL     1      -6.616   3.597  13.613  1.00  0.00     0.134 A 
ATOM     84  C   UNL     1      -6.948   5.969  13.636  1.00  0.00     0.134 A 
ATOM     85  F   UNL     1      -6.111   2.480  13.069  1.00  0.00    -0.206 F 
ATOM     86  C   UNL     1      -7.407   3.470  14.757  1.00  0.00     0.040 A 
ATOM     87  C   UNL     1      -7.713   5.858  14.798  1.00  0.00     0.040 A 
ATOM     88  F   UNL     1      -6.752   7.195  13.129  1.00  0.00    -0.206 F 
ATOM     89  C   UNL     1      -7.951   4.605  15.356  1.00  0.00     0.006 A 
ENDBRANCH  65  82
ENDBRANCH  39  40
ENDBRANCH  32  34
ENDBRANCH  31  32
ENDBRANCH  30  31
ENDBRANCH  29  30
ENDBRANCH  28  29
ENDBRANCH   1  28
TORSDOF 19
