REMARK SMILES COc1ccc(C[NH2+]Cc2cccn2-c2sc(C)c(C)c2C(=O)OCCOCCOC(=O)c2ccc(-c3c4nc(c(-c5c(F)cccc5F)c5ccc([nH]5)c(-c5c(F)cccc5F)c5nc(c(-c6c(F)cccc6F)c6ccc3[nH]6)C=C5)C=C4)cc2)cc1
REMARK SMILES IDX 25 1 24 2 22 3 23 4 21 5 15 6 16 7 17 8 19 9 18 10 20 11
REMARK SMILES IDX 14 12 10 13 11 14 12 15 13 16 9 17 8 18 7 21 6 22 3 23 4 24
REMARK SMILES IDX 88 25 5 26 87 27 2 28 1 29 26 30 27 31 28 32 29 33 30 34
REMARK SMILES IDX 31 35 32 36 33 37 34 38 86 39 35 40 85 41 36 42 37 43 38 44
REMARK SMILES IDX 79 45 39 46 84 47 78 48 80 49 40 50 83 51 77 52 76 53 41 55
REMARK SMILES IDX 67 56 50 57 66 58 51 59 54 60 65 61 81 62 52 63 53 64 64 66
REMARK SMILES IDX 82 67 55 68 42 69 43 70 48 71 44 72 45 73 47 74 49 75 46 76
REMARK SMILES IDX 68 77 69 78 74 79 70 80 71 81 73 82 75 83 72 84 56 85 57 86
REMARK SMILES IDX 62 87 58 88 59 89 61 90 63 91 60 92
REMARK H PARENT 8 19 8 20 80 54 54 65
REMARK Flexibility Score: inf
ROOT
ATOM      1  C   UNL     1       7.568   1.175  -4.986  1.00  0.00     0.261 C 
ENDROOT
BRANCH   1   2
ATOM      2  O   UNL     1       6.486   0.822  -5.871  1.00  0.00    -0.460 OA
BRANCH   2   3
ATOM      3  C   UNL     1       6.711  -0.262  -6.674  1.00  0.00     0.341 C 
ATOM      4  O   UNL     1       7.758  -0.901  -6.674  1.00  0.00    -0.246 OA
BRANCH   3   5
ATOM      5  C   UNL     1       5.559  -0.675  -7.492  1.00  0.00     0.098 A 
ATOM      6  C   UNL     1       4.628   0.132  -8.132  1.00  0.00     0.115 A 
ATOM      7  S   UNL     1       3.641  -0.735  -9.204  1.00  0.00    -0.122 S 
ATOM      8  C   UNL     1       4.222  -2.231  -8.666  1.00  0.00     0.007 A 
ATOM      9  C   UNL     1       5.171  -2.080  -7.667  1.00  0.00    -0.021 A 
ATOM     10  C   UNL     1       3.663  -3.482  -9.257  1.00  0.00     0.057 C 
ATOM     11  C   UNL     1       5.701  -3.221  -6.848  1.00  0.00     0.046 C 
BRANCH   6  12
ATOM     12  N   UNL     1       4.488   1.529  -8.130  1.00  0.00    -0.306 N 
ATOM     13  C   UNL     1       3.313   2.306  -8.166  1.00  0.00     0.078 A 
ATOM     14  C   UNL     1       3.703   3.640  -8.079  1.00  0.00     0.029 A 
ATOM     15  C   UNL     1       5.107   3.704  -8.045  1.00  0.00     0.020 A 
ATOM     16  C   UNL     1       5.558   2.411  -8.095  1.00  0.00     0.092 A 
BRANCH  13  17
ATOM     17  C   UNL     1       1.892   1.806  -8.347  1.00  0.00     0.316 C 
BRANCH  17  18
ATOM     18  N   UNL     1       1.346   0.928  -7.293  1.00  0.00    -0.338 N 
ATOM     19  H   UNL     1       0.579   0.380  -7.683  1.00  0.00     0.346 HD
ATOM     20  H   UNL     1       2.095   0.320  -6.962  1.00  0.00     0.346 HD
BRANCH  18  21
ATOM     21  C   UNL     1       0.849   1.698  -6.161  1.00  0.00     0.297 C 
BRANCH  21  22
ATOM     22  C   UNL     1       0.371   0.925  -4.941  1.00  0.00     0.006 A 
ATOM     23  C   UNL     1      -0.446  -0.076  -2.382  1.00  0.00     0.118 A 
ATOM     24  C   UNL     1      -1.248  -0.222  -3.525  1.00  0.00     0.047 A 
ATOM     25  C   UNL     1       0.772   0.543  -2.530  1.00  0.00     0.047 A 
ATOM     26  C   UNL     1      -0.849   0.276  -4.795  1.00  0.00     0.013 A 
ATOM     27  C   UNL     1       1.147   0.998  -3.790  1.00  0.00     0.013 A 
BRANCH  23  28
ATOM     28  O   UNL     1      -0.927  -0.552  -1.192  1.00  0.00    -0.497 OA
ATOM     29  C   UNL     1      -0.096  -0.343  -0.044  1.00  0.00     0.278 C 
ENDBRANCH  23  28
ENDBRANCH  21  22
ENDBRANCH  18  21
ENDBRANCH  17  18
ENDBRANCH  13  17
ENDBRANCH   6  12
ENDBRANCH   3   5
ENDBRANCH   2   3
ENDBRANCH   1   2
BRANCH   1  30
ATOM     30  C   UNL     1       7.239   1.031  -3.496  1.00  0.00     0.202 C 
BRANCH  30  31
ATOM     31  O   UNL     1       6.616  -0.166  -3.061  1.00  0.00    -0.374 OA
BRANCH  31  32
ATOM     32  C   UNL     1       5.385  -0.513  -3.651  1.00  0.00     0.202 C 
BRANCH  32  33
ATOM     33  C   UNL     1       4.230   0.485  -3.688  1.00  0.00     0.261 C 
BRANCH  33  34
ATOM     34  O   UNL     1       4.410   1.917  -3.772  1.00  0.00    -0.460 OA
BRANCH  34  35
ATOM     35  C   UNL     1       4.332   2.547  -2.561  1.00  0.00     0.338 C 
ATOM     36  O   UNL     1       4.842   2.121  -1.535  1.00  0.00    -0.246 OA
BRANCH  35  37
ATOM     37  C   UNL     1       3.327   3.655  -2.502  1.00  0.00     0.060 A 
ATOM     38  C   UNL     1       3.149   4.318  -1.286  1.00  0.00     0.016 A 
ATOM     39  C   UNL     1       2.354   3.807  -3.483  1.00  0.00     0.016 A 
ATOM     40  C   UNL     1       1.960   5.004  -1.022  1.00  0.00     0.010 A 
ATOM     41  C   UNL     1       1.086   4.284  -3.141  1.00  0.00     0.010 A 
ATOM     42  C   UNL     1       0.893   4.943  -1.927  1.00  0.00    -0.014 A 
BRANCH  42  43
ATOM     43  C   UNL     1      -0.286   5.838  -1.722  1.00  0.00     0.031 A 
ATOM     44  C   UNL     1      -0.137   7.121  -2.578  1.00  0.00     0.074 A 
ATOM     45  C   UNL     1      -1.206   5.513  -0.754  1.00  0.00     0.049 A 
ATOM     46  N   UNL     1      -0.362   8.360  -2.259  1.00  0.00    -0.248 NA
ATOM     47  C   UNL     1       0.464   7.040  -3.942  1.00  0.00     0.031 C 
ATOM     48  C   UNL     1      -1.302   4.198  -0.081  1.00  0.00     0.029 A 
ATOM     49  N   UNL     1      -2.240   6.200  -0.131  1.00  0.00    -0.354 N 
ATOM     50  C   UNL     1      -0.081   9.151  -3.397  1.00  0.00     0.074 A 
ATOM     51  C   UNL     1       0.568   8.305  -4.338  1.00  0.00     0.031 C 
ATOM     52  C   UNL     1      -2.239   4.216   0.897  1.00  0.00     0.029 A 
ATOM     53  C   UNL     1      -2.852   5.531   0.972  1.00  0.00     0.049 A 
ATOM     54  H   UNL     1      -2.533   7.091  -0.431  1.00  0.00     0.167 HD
ATOM     55  C   UNL     1      -0.537  10.423  -3.572  1.00  0.00     0.037 A 
ATOM     56  C   UNL     1      -3.739   6.014   1.908  1.00  0.00     0.037 A 
ATOM     57  C   UNL     1      -1.285  10.823  -2.435  1.00  0.00     0.049 A 
ATOM     58  C   UNL     1      -4.050   7.380   1.472  1.00  0.00     0.074 A 
ATOM     59  C   UNL     1      -0.912  11.155  -1.161  1.00  0.00     0.029 A 
ATOM     60  N   UNL     1      -2.627  10.538  -2.463  1.00  0.00    -0.354 N 
ATOM     61  N   UNL     1      -4.844   7.686   0.492  1.00  0.00    -0.248 NA
ATOM     62  C   UNL     1      -3.371   8.497   2.144  1.00  0.00     0.031 C 
ATOM     63  C   UNL     1      -1.943  10.609  -0.373  1.00  0.00     0.029 A 
ATOM     64  C   UNL     1      -2.992  10.177  -1.194  1.00  0.00     0.049 A 
ATOM     65  H   UNL     1      -3.217  10.585  -3.250  1.00  0.00     0.167 HD
ATOM     66  C   UNL     1      -4.480   8.984   0.231  1.00  0.00     0.074 A 
ATOM     67  C   UNL     1      -3.883   9.502   1.440  1.00  0.00     0.031 C 
ATOM     68  C   UNL     1      -4.155   9.338  -1.037  1.00  0.00     0.037 A 
BRANCH  55  69
ATOM     69  C   UNL     1      -0.617  11.299  -4.788  1.00  0.00     0.057 A 
ATOM     70  C   UNL     1      -0.831  12.683  -4.592  1.00  0.00     0.134 A 
ATOM     71  C   UNL     1      -0.848  10.824  -6.084  1.00  0.00     0.134 A 
ATOM     72  F   UNL     1      -0.589  13.258  -3.403  1.00  0.00    -0.206 F 
ATOM     73  C   UNL     1      -1.378  13.506  -5.578  1.00  0.00     0.040 A 
ATOM     74  C   UNL     1      -1.348  11.654  -7.095  1.00  0.00     0.040 A 
ATOM     75  F   UNL     1      -0.696   9.531  -6.397  1.00  0.00    -0.206 F 
ATOM     76  C   UNL     1      -1.660  12.984  -6.831  1.00  0.00     0.006 A 
ENDBRANCH  55  69
BRANCH  56  77
ATOM     77  C   UNL     1      -4.382   5.606   3.229  1.00  0.00     0.057 A 
ATOM     78  C   UNL     1      -4.431   4.317   3.765  1.00  0.00     0.134 A 
ATOM     79  C   UNL     1      -4.992   6.584   4.076  1.00  0.00     0.134 A 
ATOM     80  F   UNL     1      -4.034   3.257   3.054  1.00  0.00    -0.206 F 
ATOM     81  C   UNL     1      -4.927   4.052   5.066  1.00  0.00     0.040 A 
ATOM     82  C   UNL     1      -5.442   6.346   5.380  1.00  0.00     0.040 A 
ATOM     83  F   UNL     1      -5.201   7.846   3.679  1.00  0.00    -0.206 F 
ATOM     84  C   UNL     1      -5.394   5.070   5.893  1.00  0.00     0.006 A 
ENDBRANCH  56  77
BRANCH  68  85
ATOM     85  C   UNL     1      -4.810   8.484  -2.101  1.00  0.00     0.057 A 
ATOM     86  C   UNL     1      -6.204   8.505  -2.243  1.00  0.00     0.134 A 
ATOM     87  C   UNL     1      -4.132   7.542  -2.890  1.00  0.00     0.134 A 
ATOM     88  F   UNL     1      -6.938   9.375  -1.534  1.00  0.00    -0.206 F 
ATOM     89  C   UNL     1      -6.882   7.631  -3.103  1.00  0.00     0.040 A 
ATOM     90  C   UNL     1      -4.793   6.663  -3.759  1.00  0.00     0.040 A 
ATOM     91  F   UNL     1      -2.806   7.431  -2.830  1.00  0.00    -0.206 F 
ATOM     92  C   UNL     1      -6.178   6.702  -3.862  1.00  0.00     0.006 A 
ENDBRANCH  68  85
ENDBRANCH  42  43
ENDBRANCH  35  37
ENDBRANCH  34  35
ENDBRANCH  33  34
ENDBRANCH  32  33
ENDBRANCH  31  32
ENDBRANCH  30  31
ENDBRANCH   1  30
TORSDOF 20
