REMARK SMILES CC(C)CC1(CNc2ccnc(C(=O)OCCOCCOC(=O)c3ccc(-c4c5nc(c(-c6c(F)cccc6F)c6ccc([nH]6)c(-c6c(F)cccc6F)c6nc(c(-c7c(F)cccc7F)c7ccc4[nH]7)C=C6)C=C5)cc3)c2)CCCC1
REMARK SMILES IDX 16 1 15 2 13 3 14 4 12 5 8 6 9 7 78 8 10 9 11 10 7 11 6 13
REMARK SMILES IDX 5 14 79 15 82 16 80 17 81 18 4 19 2 20 1 21 3 22 17 23 18 24
REMARK SMILES IDX 19 25 20 26 21 27 22 28 23 29 24 30 25 31 77 32 26 33 76 34
REMARK SMILES IDX 27 35 28 36 29 37 70 38 30 39 75 40 69 41 71 42 31 43 74 44
REMARK SMILES IDX 68 45 67 46 32 48 58 49 41 50 57 51 42 52 45 53 56 54 72 55
REMARK SMILES IDX 43 56 44 57 55 59 73 60 46 61 33 62 34 63 39 64 35 65 36 66
REMARK SMILES IDX 38 67 40 68 37 69 59 70 60 71 65 72 61 73 62 74 64 75 66 76
REMARK SMILES IDX 63 77 47 78 48 79 53 80 49 81 50 82 52 83 54 84 51 85
REMARK H PARENT 7 12 71 47 45 58
REMARK Flexibility Score: inf
ROOT
ATOM      1  C   UNL     1      -5.250   2.875   6.644  1.00  0.00     0.261 C 
ENDROOT
BRANCH   1   2
ATOM      2  O   UNL     1      -5.139   2.103   5.435  1.00  0.00    -0.459 OA
BRANCH   2   3
ATOM      3  C   UNL     1      -6.231   2.129   4.623  1.00  0.00     0.357 C 
ATOM      4  O   UNL     1      -7.334   2.562   4.918  1.00  0.00    -0.244 OA
BRANCH   3   5
ATOM      5  C   UNL     1      -5.846   1.667   3.256  1.00  0.00     0.150 A 
ATOM      6  C   UNL     1      -4.606   0.234   1.765  1.00  0.00     0.038 A 
ATOM      7  C   UNL     1      -5.158   0.966   0.715  1.00  0.00     0.046 A 
ATOM      8  C   UNL     1      -4.955   0.614   3.067  1.00  0.00     0.061 A 
ATOM      9  C   UNL     1      -6.034   2.004   0.991  1.00  0.00     0.114 A 
ATOM     10  N   UNL     1      -6.394   2.370   2.234  1.00  0.00    -0.249 NA
BRANCH   6  11
ATOM     11  N   UNL     1      -3.690  -0.784   1.593  1.00  0.00    -0.384 N 
ATOM     12  H   UNL     1      -3.458  -1.312   2.391  1.00  0.00     0.160 HD
BRANCH  11  13
ATOM     13  C   UNL     1      -3.032  -1.153   0.345  1.00  0.00     0.119 C 
BRANCH  13  14
ATOM     14  C   UNL     1      -1.511  -1.449   0.578  1.00  0.00    -0.012 C 
ATOM     15  C   UNL     1      -0.854  -1.886  -0.744  1.00  0.00     0.009 C 
ATOM     16  C   UNL     1      -1.311  -2.733   1.412  1.00  0.00     0.009 C 
ATOM     17  C   UNL     1      -1.327  -3.319  -0.965  1.00  0.00     0.001 C 
ATOM     18  C   UNL     1      -1.514  -3.897   0.436  1.00  0.00     0.001 C 
BRANCH  14  19
ATOM     19  C   UNL     1      -0.880  -0.186   1.236  1.00  0.00     0.012 C 
BRANCH  19  20
ATOM     20  C   UNL     1       0.655  -0.045   1.322  1.00  0.00    -0.017 C 
ATOM     21  C   UNL     1       1.266   0.561   0.053  1.00  0.00     0.007 C 
ATOM     22  C   UNL     1       1.004   0.884   2.496  1.00  0.00     0.007 C 
ENDBRANCH  19  20
ENDBRANCH  14  19
ENDBRANCH  13  14
ENDBRANCH  11  13
ENDBRANCH   6  11
ENDBRANCH   3   5
ENDBRANCH   2   3
ENDBRANCH   1   2
BRANCH   1  23
ATOM     23  C   UNL     1      -4.181   3.973   6.687  1.00  0.00     0.202 C 
BRANCH  23  24
ATOM     24  O   UNL     1      -4.327   5.011   5.717  1.00  0.00    -0.374 OA
BRANCH  24  25
ATOM     25  C   UNL     1      -3.858   4.726   4.397  1.00  0.00     0.202 C 
BRANCH  25  26
ATOM     26  C   UNL     1      -2.355   4.930   4.176  1.00  0.00     0.261 C 
BRANCH  26  27
ATOM     27  O   UNL     1      -1.568   4.029   4.978  1.00  0.00    -0.460 OA
BRANCH  27  28
ATOM     28  C   UNL     1      -0.882   4.620   5.983  1.00  0.00     0.338 C 
ATOM     29  O   UNL     1      -0.771   5.819   6.204  1.00  0.00    -0.246 OA
BRANCH  28  30
ATOM     30  C   UNL     1      -0.378   3.603   6.925  1.00  0.00     0.060 A 
ATOM     31  C   UNL     1      -0.654   3.797   8.284  1.00  0.00     0.016 A 
ATOM     32  C   UNL     1       0.408   2.525   6.509  1.00  0.00     0.016 A 
ATOM     33  C   UNL     1      -0.101   2.945   9.236  1.00  0.00     0.010 A 
ATOM     34  C   UNL     1       0.966   1.671   7.469  1.00  0.00     0.010 A 
ATOM     35  C   UNL     1       0.743   1.898   8.839  1.00  0.00    -0.014 A 
BRANCH  35  36
ATOM     36  C   UNL     1       1.472   1.130   9.878  1.00  0.00     0.031 A 
ATOM     37  C   UNL     1       2.907   1.469  10.180  1.00  0.00     0.074 A 
ATOM     38  C   UNL     1       0.843   0.180  10.593  1.00  0.00     0.049 A 
ATOM     39  N   UNL     1       3.705   0.965  11.087  1.00  0.00    -0.248 NA
ATOM     40  C   UNL     1       3.523   2.516   9.351  1.00  0.00     0.031 C 
ATOM     41  C   UNL     1      -0.549  -0.229  10.412  1.00  0.00     0.029 A 
ATOM     42  N   UNL     1       1.296  -0.608  11.621  1.00  0.00    -0.354 N 
ATOM     43  C   UNL     1       4.914   1.635  10.942  1.00  0.00     0.074 A 
ATOM     44  C   UNL     1       4.756   2.554   9.834  1.00  0.00     0.031 C 
ATOM     45  C   UNL     1      -0.839  -1.192  11.304  1.00  0.00     0.029 A 
ATOM     46  C   UNL     1       0.351  -1.479  12.104  1.00  0.00     0.049 A 
ATOM     47  H   UNL     1       2.212  -0.554  11.978  1.00  0.00     0.167 HD
ATOM     48  C   UNL     1       6.048   1.507  11.672  1.00  0.00     0.037 A 
ATOM     49  C   UNL     1       0.436  -2.405  13.078  1.00  0.00     0.037 A 
ATOM     50  C   UNL     1       6.208   0.595  12.775  1.00  0.00     0.049 A 
ATOM     51  C   UNL     1       1.722  -2.559  13.845  1.00  0.00     0.074 A 
ATOM     52  C   UNL     1       7.312   0.413  13.591  1.00  0.00     0.029 A 
ATOM     53  N   UNL     1       5.238  -0.294  13.212  1.00  0.00    -0.354 N 
ATOM     54  N   UNL     1       2.844  -1.892  13.724  1.00  0.00    -0.248 NA
ATOM     55  C   UNL     1       1.748  -3.590  14.893  1.00  0.00     0.031 C 
ATOM     56  C   UNL     1       7.025  -0.618  14.493  1.00  0.00     0.029 A 
ATOM     57  C   UNL     1       5.726  -1.045  14.270  1.00  0.00     0.049 A 
ATOM     58  H   UNL     1       4.336  -0.379  12.828  1.00  0.00     0.167 HD
ATOM     59  C   UNL     1       3.699  -2.405  14.692  1.00  0.00     0.074 A 
ATOM     60  C   UNL     1       2.959  -3.426  15.404  1.00  0.00     0.031 C 
ATOM     61  C   UNL     1       4.982  -2.062  14.967  1.00  0.00     0.037 A 
BRANCH  48  62
ATOM     62  C   UNL     1       7.215   2.368  11.289  1.00  0.00     0.057 A 
ATOM     63  C   UNL     1       7.234   3.745  11.546  1.00  0.00     0.134 A 
ATOM     64  C   UNL     1       8.349   1.808  10.687  1.00  0.00     0.134 A 
ATOM     65  F   UNL     1       6.175   4.346  12.108  1.00  0.00    -0.206 F 
ATOM     66  C   UNL     1       8.330   4.537  11.198  1.00  0.00     0.040 A 
ATOM     67  C   UNL     1       9.460   2.585  10.357  1.00  0.00     0.040 A 
ATOM     68  F   UNL     1       8.398   0.494  10.417  1.00  0.00    -0.206 F 
ATOM     69  C   UNL     1       9.450   3.956  10.607  1.00  0.00     0.006 A 
ENDBRANCH  48  62
BRANCH  49  70
ATOM     70  C   UNL     1      -0.734  -3.262  13.391  1.00  0.00     0.057 A 
ATOM     71  C   UNL     1      -1.436  -3.124  14.594  1.00  0.00     0.134 A 
ATOM     72  C   UNL     1      -1.162  -4.256  12.504  1.00  0.00     0.134 A 
ATOM     73  F   UNL     1      -1.058  -2.206  15.495  1.00  0.00    -0.206 F 
ATOM     74  C   UNL     1      -2.512  -3.955  14.911  1.00  0.00     0.040 A 
ATOM     75  C   UNL     1      -2.251  -5.079  12.797  1.00  0.00     0.040 A 
ATOM     76  F   UNL     1      -0.531  -4.438  11.334  1.00  0.00    -0.206 F 
ATOM     77  C   UNL     1      -2.924  -4.934  14.008  1.00  0.00     0.006 A 
ENDBRANCH  49  70
BRANCH  61  78
ATOM     78  C   UNL     1       5.654  -2.783  16.099  1.00  0.00     0.057 A 
ATOM     79  C   UNL     1       6.043  -4.125  15.995  1.00  0.00     0.134 A 
ATOM     80  C   UNL     1       5.930  -2.123  17.304  1.00  0.00     0.134 A 
ATOM     81  F   UNL     1       5.796  -4.818  14.873  1.00  0.00    -0.206 F 
ATOM     82  C   UNL     1       6.652  -4.793  17.058  1.00  0.00     0.040 A 
ATOM     83  C   UNL     1       6.563  -2.773  18.364  1.00  0.00     0.040 A 
ATOM     84  F   UNL     1       5.594  -0.835  17.468  1.00  0.00    -0.206 F 
ATOM     85  C   UNL     1       6.918  -4.115  18.246  1.00  0.00     0.006 A 
ENDBRANCH  61  78
ENDBRANCH  35  36
ENDBRANCH  28  30
ENDBRANCH  27  28
ENDBRANCH  26  27
ENDBRANCH  25  26
ENDBRANCH  24  25
ENDBRANCH  23  24
ENDBRANCH   1  23
TORSDOF 19
