REMARK SMILES CC(C)CN(C)c1cc2c(cc1Cl)C=C(C(=O)OCCOCCOC(=O)c1ccc(-c3c4nc(c(-c5c(F)cccc5F)c5ccc([nH]5)c(-c5c(F)cccc5F)c5nc(c(-c6c(F)cccc6F)c6ccc3[nH]6)C=C5)C=C4)cc1)[C@@H](C(F)(F)F)O2
REMARK SMILES IDX 20 1 19 2 18 3 16 4 17 5 15 6 7 7 8 8 12 9 9 10 11 11 13 12
REMARK SMILES IDX 10 13 86 14 14 15 81 16 5 17 6 18 4 19 2 20 1 21 3 22 82 23
REMARK SMILES IDX 83 24 84 25 85 26 21 27 22 28 23 29 24 30 25 31 26 32 27 33
REMARK SMILES IDX 28 34 80 35 29 36 79 37 30 38 31 39 32 40 73 41 33 42 78 43
REMARK SMILES IDX 72 44 74 45 34 46 77 47 71 48 70 49 35 51 61 52 44 53 60 54
REMARK SMILES IDX 45 55 48 56 59 57 75 58 46 59 47 60 58 62 76 63 49 64 36 65
REMARK SMILES IDX 37 66 42 67 38 68 39 69 41 70 43 71 40 72 62 73 63 74 68 75
REMARK SMILES IDX 64 76 65 77 67 78 69 79 66 80 50 81 51 82 56 83 52 84 53 85
REMARK SMILES IDX 55 86 57 87 54 88
REMARK H PARENT 74 50 48 61
REMARK Flexibility Score: inf
ROOT
ATOM      1  C   UNL     1      -0.122  -7.289   6.623  1.00  0.00     0.202 C 
ENDROOT
BRANCH   1   2
ATOM      2  C   UNL     1      -0.627  -6.030   7.335  1.00  0.00     0.261 C 
BRANCH   2   3
ATOM      3  O   UNL     1      -1.188  -5.066   6.432  1.00  0.00    -0.460 OA
BRANCH   3   4
ATOM      4  C   UNL     1      -0.424  -3.958   6.291  1.00  0.00     0.338 C 
ATOM      5  O   UNL     1       0.584  -3.688   6.926  1.00  0.00    -0.246 OA
BRANCH   4   6
ATOM      6  C   UNL     1      -0.894  -3.128   5.170  1.00  0.00     0.087 C 
ATOM      7  C   UNL     1      -1.008   0.514   1.712  1.00  0.00     0.059 A 
ATOM      8  C   UNL     1      -1.966  -0.411   2.182  1.00  0.00     0.074 A 
ATOM      9  C   UNL     1       0.275   0.480   2.300  1.00  0.00     0.065 A 
ATOM     10  C   UNL     1      -1.631  -1.367   3.150  1.00  0.00     0.130 A 
ATOM     11  C   UNL     1       0.640  -0.546   3.163  1.00  0.00     0.034 A 
ATOM     12  Cl  UNL     1       1.455   1.719   2.038  1.00  0.00    -0.082 Cl
ATOM     13  C   UNL     1      -0.309  -1.476   3.573  1.00  0.00     0.019 A 
ATOM     14  O   UNL     1      -2.620  -2.186   3.635  1.00  0.00    -0.475 OA
ATOM     15  C   UNL     1       0.084  -2.511   4.501  1.00  0.00     0.027 C 
ATOM     16  C   UNL     1      -2.353  -2.889   4.897  1.00  0.00     0.316 C 
BRANCH   7  17
ATOM     17  N   UNL     1      -1.308   1.415   0.685  1.00  0.00    -0.373 N 
ATOM     18  C   UNL     1      -2.359   2.385   0.965  1.00  0.00     0.143 C 
BRANCH  17  19
ATOM     19  C   UNL     1      -1.120   0.970  -0.712  1.00  0.00     0.119 C 
BRANCH  19  20
ATOM     20  C   UNL     1       0.366   0.911  -1.137  1.00  0.00     0.002 C 
ATOM     21  C   UNL     1       0.990  -0.471  -0.909  1.00  0.00     0.009 C 
ATOM     22  C   UNL     1       0.552   1.282  -2.612  1.00  0.00     0.009 C 
ENDBRANCH  19  20
ENDBRANCH  17  19
ENDBRANCH   7  17
BRANCH  16  23
ATOM     23  C   UNL     1      -3.021  -2.168   6.078  1.00  0.00     0.430 C 
ATOM     24  F   UNL     1      -4.326  -1.907   5.830  1.00  0.00    -0.167 F 
ATOM     25  F   UNL     1      -2.985  -2.931   7.199  1.00  0.00    -0.167 F 
ATOM     26  F   UNL     1      -2.417  -0.995   6.372  1.00  0.00    -0.167 F 
ENDBRANCH  16  23
ENDBRANCH   4   6
ENDBRANCH   3   4
ENDBRANCH   2   3
ENDBRANCH   1   2
BRANCH   1  27
ATOM     27  O   UNL     1       0.777  -7.136   5.531  1.00  0.00    -0.374 OA
BRANCH  27  28
ATOM     28  C   UNL     1       0.285  -6.627   4.293  1.00  0.00     0.202 C 
BRANCH  28  29
ATOM     29  C   UNL     1      -0.711  -7.470   3.484  1.00  0.00     0.261 C 
BRANCH  29  30
ATOM     30  O   UNL     1      -1.951  -7.702   4.173  1.00  0.00    -0.460 OA
BRANCH  30  31
ATOM     31  C   UNL     1      -2.149  -8.983   4.571  1.00  0.00     0.338 C 
ATOM     32  O   UNL     1      -1.408  -9.939   4.396  1.00  0.00    -0.246 OA
BRANCH  31  33
ATOM     33  C   UNL     1      -3.331  -9.040   5.448  1.00  0.00     0.060 A 
ATOM     34  C   UNL     1      -4.577  -8.605   4.997  1.00  0.00     0.016 A 
ATOM     35  C   UNL     1      -3.183  -9.586   6.730  1.00  0.00     0.016 A 
ATOM     36  C   UNL     1      -5.688  -8.744   5.832  1.00  0.00     0.010 A 
ATOM     37  C   UNL     1      -4.294  -9.725   7.560  1.00  0.00     0.010 A 
ATOM     38  C   UNL     1      -5.558  -9.322   7.108  1.00  0.00    -0.014 A 
BRANCH  38  39
ATOM     39  C   UNL     1      -6.769  -9.616   7.910  1.00  0.00     0.031 A 
ATOM     40  C   UNL     1      -7.115  -8.823   9.132  1.00  0.00     0.074 A 
ATOM     41  C   UNL     1      -7.558 -10.636   7.525  1.00  0.00     0.049 A 
ATOM     42  N   UNL     1      -8.183  -8.896   9.886  1.00  0.00    -0.248 NA
ATOM     43  C   UNL     1      -6.130  -7.826   9.571  1.00  0.00     0.031 C 
ATOM     44  C   UNL     1      -7.291 -11.520   6.389  1.00  0.00     0.029 A 
ATOM     45  N   UNL     1      -8.739 -11.100   8.042  1.00  0.00    -0.354 N 
ATOM     46  C   UNL     1      -8.015  -7.937  10.875  1.00  0.00     0.074 A 
ATOM     47  C   UNL     1      -6.710  -7.343  10.661  1.00  0.00     0.031 C 
ATOM     48  C   UNL     1      -8.294 -12.404   6.279  1.00  0.00     0.029 A 
ATOM     49  C   UNL     1      -9.257 -12.167   7.350  1.00  0.00     0.049 A 
ATOM     50  H   UNL     1      -9.175 -10.706   8.832  1.00  0.00     0.167 HD
ATOM     51  C   UNL     1      -8.878  -7.571  11.855  1.00  0.00     0.037 A 
ATOM     52  C   UNL     1     -10.380 -12.877   7.557  1.00  0.00     0.037 A 
ATOM     53  C   UNL     1     -10.153  -8.202  12.092  1.00  0.00     0.049 A 
ATOM     54  C   UNL     1     -11.298 -12.489   8.680  1.00  0.00     0.074 A 
ATOM     55  C   UNL     1     -11.112  -7.889  13.040  1.00  0.00     0.029 A 
ATOM     56  N   UNL     1     -10.636  -9.299  11.390  1.00  0.00    -0.354 N 
ATOM     57  N   UNL     1     -11.177 -11.515   9.550  1.00  0.00    -0.248 NA
ATOM     58  C   UNL     1     -12.516 -13.294   8.844  1.00  0.00     0.031 C 
ATOM     59  C   UNL     1     -12.143  -8.833  12.953  1.00  0.00     0.029 A 
ATOM     60  C   UNL     1     -11.861  -9.697  11.907  1.00  0.00     0.049 A 
ATOM     61  H   UNL     1     -10.176  -9.732  10.635  1.00  0.00     0.167 HD
ATOM     62  C   UNL     1     -12.307 -11.579  10.354  1.00  0.00     0.074 A 
ATOM     63  C   UNL     1     -13.114 -12.672   9.849  1.00  0.00     0.031 C 
ATOM     64  C   UNL     1     -12.646 -10.803  11.413  1.00  0.00     0.037 A 
BRANCH  51  65
ATOM     65  C   UNL     1      -8.447  -6.442  12.750  1.00  0.00     0.057 A 
ATOM     66  C   UNL     1      -8.161  -6.662  14.103  1.00  0.00     0.134 A 
ATOM     67  C   UNL     1      -8.300  -5.133  12.267  1.00  0.00     0.134 A 
ATOM     68  F   UNL     1      -8.292  -7.885  14.638  1.00  0.00    -0.206 F 
ATOM     69  C   UNL     1      -7.724  -5.629  14.935  1.00  0.00     0.040 A 
ATOM     70  C   UNL     1      -7.833  -4.099  13.081  1.00  0.00     0.040 A 
ATOM     71  F   UNL     1      -8.553  -4.851  10.979  1.00  0.00    -0.206 F 
ATOM     72  C   UNL     1      -7.545  -4.346  14.421  1.00  0.00     0.006 A 
ENDBRANCH  51  65
BRANCH  52  73
ATOM     73  C   UNL     1     -10.698 -14.021   6.667  1.00  0.00     0.057 A 
ATOM     74  C   UNL     1      -9.932 -15.194   6.695  1.00  0.00     0.134 A 
ATOM     75  C   UNL     1     -11.764 -13.968   5.764  1.00  0.00     0.134 A 
ATOM     76  F   UNL     1      -8.889 -15.301   7.532  1.00  0.00    -0.206 F 
ATOM     77  C   UNL     1     -10.209 -16.268   5.850  1.00  0.00     0.040 A 
ATOM     78  C   UNL     1     -12.071 -15.046   4.932  1.00  0.00     0.040 A 
ATOM     79  F   UNL     1     -12.543 -12.877   5.702  1.00  0.00    -0.206 F 
ATOM     80  C   UNL     1     -11.287 -16.198   4.970  1.00  0.00     0.006 A 
ENDBRANCH  52  73
BRANCH  64  81
ATOM     81  C   UNL     1     -13.956 -11.107  12.087  1.00  0.00     0.057 A 
ATOM     82  C   UNL     1     -15.034 -10.217  11.990  1.00  0.00     0.134 A 
ATOM     83  C   UNL     1     -14.154 -12.277  12.833  1.00  0.00     0.134 A 
ATOM     84  F   UNL     1     -14.915  -9.075  11.297  1.00  0.00    -0.206 F 
ATOM     85  C   UNL     1     -16.259 -10.481  12.606  1.00  0.00     0.040 A 
ATOM     86  C   UNL     1     -15.384 -12.567  13.427  1.00  0.00     0.040 A 
ATOM     87  F   UNL     1     -13.169 -13.181  12.954  1.00  0.00    -0.206 F 
ATOM     88  C   UNL     1     -16.440 -11.664  13.319  1.00  0.00     0.006 A 
ENDBRANCH  64  81
ENDBRANCH  38  39
ENDBRANCH  31  33
ENDBRANCH  30  31
ENDBRANCH  29  30
ENDBRANCH  28  29
ENDBRANCH  27  28
ENDBRANCH   1  27
TORSDOF 18
