REMARK SMILES O=C(OCCOCCOC(=O)c1ccc([C@H]2CCCN(C(=O)c3ccc4[nH]ccc4c3)C2)cc1)c1ccc(-c2c3nc(c(-c4c(F)cccc4F)c4ccc([nH]4)c(-c4c(F)cccc4F)c4nc(c(-c5c(F)cccc5F)c5ccc2[nH]5)C=C4)C=C3)cc1
REMARK SMILES IDX 7 1 6 2 5 3 4 4 3 5 2 6 1 7 35 8 36 9 88 10 37 11 87 12
REMARK SMILES IDX 38 13 39 14 40 15 81 16 41 17 86 18 80 19 82 20 42 21 85 22
REMARK SMILES IDX 79 23 78 24 43 26 69 27 52 28 68 29 53 30 56 31 67 32 83 33
REMARK SMILES IDX 54 34 55 35 66 37 84 38 57 39 44 40 45 41 50 42 46 43 47 44
REMARK SMILES IDX 49 45 51 46 48 47 70 48 71 49 76 50 72 51 73 52 75 53 77 54
REMARK SMILES IDX 74 55 58 56 59 57 64 58 60 59 61 60 63 61 65 62 62 63 8 64
REMARK SMILES IDX 9 65 10 66 11 67 12 68 13 69 34 70 14 71 33 72 15 73 16 74
REMARK SMILES IDX 17 75 32 76 18 77 20 78 19 79 21 80 22 81 23 82 24 83 31 84
REMARK SMILES IDX 25 85 30 86 26 87 29 88 27 89 28 90
REMARK H PARENT 82 25 56 36 27 91
REMARK Flexibility Score: inf
ROOT
ATOM      1  C   UNL     1      10.952   0.257  -9.252  1.00  0.00     0.202 C 
ENDROOT
BRANCH   1   2
ATOM      2  O   UNL     1      11.319   0.748  -7.958  1.00  0.00    -0.374 OA
BRANCH   2   3
ATOM      3  C   UNL     1      11.326   2.166  -7.798  1.00  0.00     0.202 C 
BRANCH   3   4
ATOM      4  C   UNL     1      12.657   2.830  -8.161  1.00  0.00     0.261 C 
BRANCH   4   5
ATOM      5  O   UNL     1      13.012   2.538  -9.523  1.00  0.00    -0.460 OA
BRANCH   5   6
ATOM      6  C   UNL     1      13.899   1.628  -9.988  1.00  0.00     0.338 C 
ATOM      7  O   UNL     1      14.095   1.569 -11.201  1.00  0.00    -0.246 OA
BRANCH   6   8
ATOM      8  C   UNL     1      14.659   0.677  -9.117  1.00  0.00     0.060 A 
ATOM      9  C   UNL     1      14.254   0.252  -7.852  1.00  0.00     0.016 A 
ATOM     10  C   UNL     1      15.823   0.101  -9.657  1.00  0.00     0.016 A 
ATOM     11  C   UNL     1      14.984  -0.668  -7.122  1.00  0.00     0.010 A 
ATOM     12  C   UNL     1      16.551  -0.859  -8.944  1.00  0.00     0.010 A 
ATOM     13  C   UNL     1      16.130  -1.235  -7.666  1.00  0.00    -0.014 A 
BRANCH  13  14
ATOM     14  C   UNL     1      16.896  -2.139  -6.794  1.00  0.00     0.031 A 
ATOM     15  C   UNL     1      18.114  -1.601  -6.114  1.00  0.00     0.074 A 
ATOM     16  C   UNL     1      16.370  -3.335  -6.476  1.00  0.00     0.049 A 
ATOM     17  N   UNL     1      18.919  -2.191  -5.274  1.00  0.00    -0.248 NA
ATOM     18  C   UNL     1      18.458  -0.197  -6.400  1.00  0.00     0.031 C 
ATOM     19  C   UNL     1      15.103  -3.863  -6.992  1.00  0.00     0.029 A 
ATOM     20  N   UNL     1      16.802  -4.300  -5.608  1.00  0.00    -0.354 N 
ATOM     21  C   UNL     1      19.867  -1.236  -4.936  1.00  0.00     0.074 A 
ATOM     22  C   UNL     1      19.551  -0.033  -5.672  1.00  0.00     0.031 C 
ATOM     23  C   UNL     1      14.849  -5.045  -6.410  1.00  0.00     0.029 A 
ATOM     24  C   UNL     1      15.964  -5.387  -5.536  1.00  0.00     0.049 A 
ATOM     25  H   UNL     1      17.633  -4.223  -5.085  1.00  0.00     0.167 HD
ATOM     26  C   UNL     1      20.908  -1.364  -4.083  1.00  0.00     0.037 A 
ATOM     27  C   UNL     1      16.112  -6.541  -4.861  1.00  0.00     0.037 A 
ATOM     28  C   UNL     1      21.201  -2.583  -3.380  1.00  0.00     0.049 A 
ATOM     29  C   UNL     1      17.347  -6.700  -4.016  1.00  0.00     0.074 A 
ATOM     30  C   UNL     1      22.283  -2.885  -2.577  1.00  0.00     0.029 A 
ATOM     31  N   UNL     1      20.386  -3.709  -3.403  1.00  0.00    -0.354 N 
ATOM     32  N   UNL     1      18.299  -5.828  -3.772  1.00  0.00    -0.248 NA
ATOM     33  C   UNL     1      17.540  -8.000  -3.365  1.00  0.00     0.031 C 
ATOM     34  C   UNL     1      22.141  -4.209  -2.143  1.00  0.00     0.029 A 
ATOM     35  C   UNL     1      20.946  -4.713  -2.635  1.00  0.00     0.049 A 
ATOM     36  H   UNL     1      19.535  -3.781  -3.893  1.00  0.00     0.167 HD
ATOM     37  C   UNL     1      19.196  -6.468  -2.930  1.00  0.00     0.074 A 
ATOM     38  C   UNL     1      18.658  -7.792  -2.684  1.00  0.00     0.031 C 
ATOM     39  C   UNL     1      20.365  -6.014  -2.413  1.00  0.00     0.037 A 
BRANCH  26  40
ATOM     40  C   UNL     1      21.817  -0.181  -3.940  1.00  0.00     0.057 A 
ATOM     41  C   UNL     1      21.428   0.978  -3.255  1.00  0.00     0.134 A 
ATOM     42  C   UNL     1      23.082  -0.182  -4.539  1.00  0.00     0.134 A 
ATOM     43  F   UNL     1      20.215   1.057  -2.687  1.00  0.00    -0.206 F 
ATOM     44  C   UNL     1      22.255   2.102  -3.193  1.00  0.00     0.040 A 
ATOM     45  C   UNL     1      23.927   0.926  -4.465  1.00  0.00     0.040 A 
ATOM     46  F   UNL     1      23.512  -1.255  -5.220  1.00  0.00    -0.206 F 
ATOM     47  C   UNL     1      23.511   2.076  -3.797  1.00  0.00     0.006 A 
ENDBRANCH  26  40
BRANCH  27  48
ATOM     48  C   UNL     1      15.124  -7.642  -5.011  1.00  0.00     0.057 A 
ATOM     49  C   UNL     1      14.375  -8.117  -3.929  1.00  0.00     0.134 A 
ATOM     50  C   UNL     1      14.934  -8.277  -6.247  1.00  0.00     0.134 A 
ATOM     51  F   UNL     1      14.522  -7.569  -2.713  1.00  0.00    -0.206 F 
ATOM     52  C   UNL     1      13.496  -9.195  -4.062  1.00  0.00     0.040 A 
ATOM     53  C   UNL     1      14.036  -9.335  -6.402  1.00  0.00     0.040 A 
ATOM     54  F   UNL     1      15.618  -7.876  -7.329  1.00  0.00    -0.206 F 
ATOM     55  C   UNL     1      13.322  -9.805  -5.303  1.00  0.00     0.006 A 
ENDBRANCH  27  48
BRANCH  39  56
ATOM     56  C   UNL     1      21.107  -6.953  -1.511  1.00  0.00     0.057 A 
ATOM     57  C   UNL     1      21.783  -8.073  -2.009  1.00  0.00     0.134 A 
ATOM     58  C   UNL     1      21.170  -6.710  -0.134  1.00  0.00     0.134 A 
ATOM     59  F   UNL     1      21.745  -8.365  -3.318  1.00  0.00    -0.206 F 
ATOM     60  C   UNL     1      22.477  -8.937  -1.162  1.00  0.00     0.040 A 
ATOM     61  C   UNL     1      21.884  -7.550   0.718  1.00  0.00     0.040 A 
ATOM     62  F   UNL     1      20.550  -5.647   0.400  1.00  0.00    -0.206 F 
ATOM     63  C   UNL     1      22.534  -8.671   0.205  1.00  0.00     0.006 A 
ENDBRANCH  39  56
ENDBRANCH  13  14
ENDBRANCH   6   8
ENDBRANCH   5   6
ENDBRANCH   4   5
ENDBRANCH   3   4
ENDBRANCH   2   3
ENDBRANCH   1   2
BRANCH   1  64
ATOM     64  C   UNL     1       9.904  -0.848  -9.091  1.00  0.00     0.261 C 
BRANCH  64  65
ATOM     65  O   UNL     1       8.717  -0.259  -8.547  1.00  0.00    -0.460 OA
BRANCH  65  66
ATOM     66  C   UNL     1       8.739  -0.076  -7.199  1.00  0.00     0.338 C 
ATOM     67  O   UNL     1       9.340  -0.733  -6.376  1.00  0.00    -0.246 OA
BRANCH  66  68
ATOM     68  C   UNL     1       8.054   1.209  -6.917  1.00  0.00     0.060 A 
ATOM     69  C   UNL     1       8.397   1.936  -5.771  1.00  0.00     0.016 A 
ATOM     70  C   UNL     1       7.125   1.728  -7.815  1.00  0.00     0.016 A 
ATOM     71  C   UNL     1       7.753   3.146  -5.490  1.00  0.00     0.005 A 
ATOM     72  C   UNL     1       6.501   2.937  -7.543  1.00  0.00     0.005 A 
ATOM     73  C   UNL     1       6.751   3.629  -6.346  1.00  0.00    -0.043 A 
BRANCH  73  74
ATOM     74  C   UNL     1       5.826   4.739  -5.873  1.00  0.00     0.039 C 
ATOM     75  C   UNL     1       6.436   6.150  -5.800  1.00  0.00     0.012 C 
ATOM     76  C   UNL     1       4.533   4.805  -6.701  1.00  0.00     0.128 C 
ATOM     77  C   UNL     1       5.401   7.154  -5.251  1.00  0.00     0.022 C 
ATOM     78  N   UNL     1       3.590   5.713  -6.094  1.00  0.00    -0.338 N 
ATOM     79  C   UNL     1       4.053   7.095  -5.985  1.00  0.00     0.120 C 
BRANCH  78  80
ATOM     80  C   UNL     1       2.416   5.170  -5.596  1.00  0.00     0.253 C 
ATOM     81  O   UNL     1       2.161   3.969  -5.572  1.00  0.00    -0.269 OA
BRANCH  80  82
ATOM     82  C   UNL     1       1.393   6.074  -5.074  1.00  0.00     0.040 A 
ATOM     83  C   UNL     1       1.204   6.143  -3.695  1.00  0.00     0.016 A 
ATOM     84  C   UNL     1       0.577   6.757  -5.983  1.00  0.00     0.024 A 
ATOM     85  C   UNL     1       0.196   6.950  -3.171  1.00  0.00     0.027 A 
ATOM     86  C   UNL     1      -0.458   7.552  -5.466  1.00  0.00     0.000 A 
ATOM     87  C   UNL     1      -0.616   7.641  -4.081  1.00  0.00     0.045 A 
ATOM     88  C   UNL     1      -1.484   8.335  -6.059  1.00  0.00     0.028 A 
ATOM     89  N   UNL     1      -1.682   8.482  -3.853  1.00  0.00    -0.361 N 
ATOM     90  C   UNL     1      -2.224   8.892  -5.042  1.00  0.00     0.083 A 
ATOM     91  H   UNL     1      -2.007   8.749  -2.964  1.00  0.00     0.166 HD
ENDBRANCH  80  82
ENDBRANCH  78  80
ENDBRANCH  73  74
ENDBRANCH  66  68
ENDBRANCH  65  66
ENDBRANCH  64  65
ENDBRANCH   1  64
TORSDOF 17
