REMARK SMILES Cc1ccn2c([C@H]3C[C@@H]3C(=O)OCCOCCOC(=O)c3ccc(-c4c5nc(c(-c6c(F)cccc6F)c6ccc([nH]6)c(-c6c(F)cccc6F)c6nc(c(-c7c(F)cccc7F)c7ccc4[nH]7)C=C6)C=C5)cc3)nnc2c1
REMARK SMILES IDX 16 1 15 2 14 3 13 4 12 5 10 6 11 7 9 8 7 9 8 10 6 11 1 12
REMARK SMILES IDX 2 13 3 14 78 15 4 16 77 17 5 18 76 19 75 20 17 21 18 22
REMARK SMILES IDX 19 23 20 24 21 25 22 26 74 27 23 28 73 29 24 30 25 31 26 32
REMARK SMILES IDX 67 33 27 34 72 35 66 36 68 37 28 38 71 39 65 40 64 41 29 43
REMARK SMILES IDX 55 44 38 45 54 46 39 47 42 48 53 49 69 50 40 51 41 52 52 54
REMARK SMILES IDX 70 55 43 56 30 57 31 58 36 59 32 60 33 61 35 62 37 63 34 64
REMARK SMILES IDX 56 65 57 66 62 67 58 68 59 69 61 70 63 71 60 72 44 73 45 74
REMARK SMILES IDX 50 75 46 76 47 77 49 78 51 79 48 80
REMARK H PARENT 68 42 42 53
REMARK Flexibility Score: inf
ROOT
ATOM      1  C   UNL     1      -0.894   2.978   0.959  1.00  0.00     0.202 C 
ENDROOT
BRANCH   1   2
ATOM      2  O   UNL     1      -1.191   1.743   1.608  1.00  0.00    -0.374 OA
BRANCH   2   3
ATOM      3  C   UNL     1      -2.525   1.252   1.544  1.00  0.00     0.202 C 
BRANCH   3   4
ATOM      4  C   UNL     1      -3.672   2.004   2.235  1.00  0.00     0.261 C 
BRANCH   4   5
ATOM      5  O   UNL     1      -3.625   3.423   2.067  1.00  0.00    -0.463 OA
BRANCH   5   6
ATOM      6  C   UNL     1      -3.174   4.090   3.166  1.00  0.00     0.309 C 
ATOM      7  O   UNL     1      -2.882   3.600   4.237  1.00  0.00    -0.252 OA
BRANCH   6   8
ATOM      8  C   UNL     1      -3.002   5.537   2.893  1.00  0.00     0.110 C 
ATOM      9  C   UNL     1      -1.666   6.121   2.472  1.00  0.00     0.073 C 
ATOM     10  C   UNL     1      -2.170   6.347   3.866  1.00  0.00     0.028 C 
BRANCH   9  11
ATOM     11  C   UNL     1      -1.626   7.312   1.532  1.00  0.00     0.141 A 
ATOM     12  C   UNL     1       1.987  11.466   0.635  1.00  0.00     0.044 C 
ATOM     13  C   UNL     1       1.063  10.299   0.821  1.00  0.00    -0.046 A 
ATOM     14  C   UNL     1       1.496   9.252   1.749  1.00  0.00     0.022 A 
ATOM     15  C   UNL     1      -0.138  10.221   0.204  1.00  0.00     0.053 A 
ATOM     16  C   UNL     1       0.680   8.213   1.996  1.00  0.00     0.095 A 
ATOM     17  C   UNL     1      -1.010   9.133   0.485  1.00  0.00     0.161 A 
ATOM     18  N   UNL     1      -0.561   8.165   1.367  1.00  0.00    -0.286 N 
ATOM     19  N   UNL     1      -2.246   8.860   0.126  1.00  0.00    -0.130 NA
ATOM     20  N   UNL     1      -2.650   7.739   0.823  1.00  0.00    -0.134 NA
ENDBRANCH   9  11
ENDBRANCH   6   8
ENDBRANCH   5   6
ENDBRANCH   4   5
ENDBRANCH   3   4
ENDBRANCH   2   3
ENDBRANCH   1   2
BRANCH   1  21
ATOM     21  C   UNL     1      -1.069   3.137  -0.563  1.00  0.00     0.261 C 
BRANCH  21  22
ATOM     22  O   UNL     1      -2.405   2.842  -0.983  1.00  0.00    -0.460 OA
BRANCH  22  23
ATOM     23  C   UNL     1      -2.503   1.987  -2.037  1.00  0.00     0.338 C 
ATOM     24  O   UNL     1      -1.660   1.751  -2.882  1.00  0.00    -0.246 OA
BRANCH  23  25
ATOM     25  C   UNL     1      -3.640   1.097  -1.718  1.00  0.00     0.060 A 
ATOM     26  C   UNL     1      -4.859   1.617  -1.280  1.00  0.00     0.016 A 
ATOM     27  C   UNL     1      -3.328  -0.263  -1.541  1.00  0.00     0.016 A 
ATOM     28  C   UNL     1      -5.734   0.777  -0.596  1.00  0.00     0.010 A 
ATOM     29  C   UNL     1      -4.190  -1.087  -0.823  1.00  0.00     0.010 A 
ATOM     30  C   UNL     1      -5.383  -0.564  -0.324  1.00  0.00    -0.014 A 
BRANCH  30  31
ATOM     31  C   UNL     1      -6.443  -1.458   0.165  1.00  0.00     0.031 A 
ATOM     32  C   UNL     1      -7.518  -1.564  -0.859  1.00  0.00     0.074 A 
ATOM     33  C   UNL     1      -6.470  -2.223   1.281  1.00  0.00     0.049 A 
ATOM     34  N   UNL     1      -8.709  -1.072  -0.789  1.00  0.00    -0.248 NA
ATOM     35  C   UNL     1      -7.154  -2.074  -2.193  1.00  0.00     0.031 C 
ATOM     36  C   UNL     1      -5.401  -2.442   2.256  1.00  0.00     0.029 A 
ATOM     37  N   UNL     1      -7.469  -3.044   1.748  1.00  0.00    -0.354 N 
ATOM     38  C   UNL     1      -9.320  -1.409  -1.992  1.00  0.00     0.074 A 
ATOM     39  C   UNL     1      -8.271  -1.828  -2.879  1.00  0.00     0.031 C 
ATOM     40  C   UNL     1      -5.724  -3.489   3.056  1.00  0.00     0.029 A 
ATOM     41  C   UNL     1      -7.071  -3.941   2.743  1.00  0.00     0.049 A 
ATOM     42  H   UNL     1      -8.392  -3.003   1.408  1.00  0.00     0.167 HD
ATOM     43  C   UNL     1     -10.662  -1.619  -2.038  1.00  0.00     0.037 A 
ATOM     44  C   UNL     1      -7.781  -4.987   3.253  1.00  0.00     0.037 A 
ATOM     45  C   UNL     1     -11.312  -1.014  -0.898  1.00  0.00     0.049 A 
ATOM     46  C   UNL     1      -9.207  -4.749   2.951  1.00  0.00     0.074 A 
ATOM     47  C   UNL     1     -11.453   0.258  -0.380  1.00  0.00     0.029 A 
ATOM     48  N   UNL     1     -11.655  -1.874   0.109  1.00  0.00    -0.354 N 
ATOM     49  N   UNL     1      -9.928  -3.832   3.524  1.00  0.00    -0.248 NA
ATOM     50  C   UNL     1      -9.748  -5.295   1.719  1.00  0.00     0.031 C 
ATOM     51  C   UNL     1     -11.493   0.087   1.039  1.00  0.00     0.029 A 
ATOM     52  C   UNL     1     -11.431  -1.278   1.315  1.00  0.00     0.049 A 
ATOM     53  H   UNL     1     -12.009  -2.784  -0.017  1.00  0.00     0.167 HD
ATOM     54  C   UNL     1     -10.729  -3.346   2.507  1.00  0.00     0.074 A 
ATOM     55  C   UNL     1     -10.679  -4.372   1.467  1.00  0.00     0.031 C 
ATOM     56  C   UNL     1     -11.100  -2.031   2.501  1.00  0.00     0.037 A 
BRANCH  43  57
ATOM     57  C   UNL     1     -11.281  -2.809  -2.756  1.00  0.00     0.057 A 
ATOM     58  C   UNL     1     -10.577  -3.966  -3.155  1.00  0.00     0.134 A 
ATOM     59  C   UNL     1     -12.681  -2.961  -2.699  1.00  0.00     0.134 A 
ATOM     60  F   UNL     1      -9.245  -4.017  -3.245  1.00  0.00    -0.206 F 
ATOM     61  C   UNL     1     -11.203  -5.193  -3.389  1.00  0.00     0.040 A 
ATOM     62  C   UNL     1     -13.310  -4.198  -2.885  1.00  0.00     0.040 A 
ATOM     63  F   UNL     1     -13.469  -1.936  -2.341  1.00  0.00    -0.206 F 
ATOM     64  C   UNL     1     -12.568  -5.324  -3.212  1.00  0.00     0.006 A 
ENDBRANCH  43  57
BRANCH  44  65
ATOM     65  C   UNL     1      -7.348  -6.307   3.788  1.00  0.00     0.057 A 
ATOM     66  C   UNL     1      -6.170  -6.920   3.336  1.00  0.00     0.134 A 
ATOM     67  C   UNL     1      -8.230  -7.140   4.505  1.00  0.00     0.134 A 
ATOM     68  F   UNL     1      -5.291  -6.246   2.581  1.00  0.00    -0.206 F 
ATOM     69  C   UNL     1      -5.895  -8.277   3.555  1.00  0.00     0.040 A 
ATOM     70  C   UNL     1      -7.969  -8.501   4.728  1.00  0.00     0.040 A 
ATOM     71  F   UNL     1      -9.408  -6.673   4.944  1.00  0.00    -0.206 F 
ATOM     72  C   UNL     1      -6.803  -9.078   4.239  1.00  0.00     0.006 A 
ENDBRANCH  44  65
BRANCH  56  73
ATOM     73  C   UNL     1     -10.973  -1.276   3.793  1.00  0.00     0.057 A 
ATOM     74  C   UNL     1     -12.130  -0.703   4.334  1.00  0.00     0.134 A 
ATOM     75  C   UNL     1      -9.769  -1.043   4.476  1.00  0.00     0.134 A 
ATOM     76  F   UNL     1     -13.310  -0.845   3.709  1.00  0.00    -0.206 F 
ATOM     77  C   UNL     1     -12.101   0.049   5.508  1.00  0.00     0.040 A 
ATOM     78  C   UNL     1      -9.734  -0.324   5.675  1.00  0.00     0.040 A 
ATOM     79  F   UNL     1      -8.597  -1.472   3.988  1.00  0.00    -0.206 F 
ATOM     80  C   UNL     1     -10.903   0.227   6.193  1.00  0.00     0.006 A 
ENDBRANCH  56  73
ENDBRANCH  30  31
ENDBRANCH  23  25
ENDBRANCH  22  23
ENDBRANCH  21  22
ENDBRANCH   1  21
TORSDOF 15
