REMARK SMILES C/C(=N/OCC(=O)OCCOCCOC(=O)c1ccc(-c2c3nc(c(-c4c(F)cccc4F)c4ccc([nH]4)c(-c4c(F)cccc4F)c4nc(c(-c5c(F)cccc5F)c5ccc2[nH]5)C=C4)C=C3)cc1)c1ccc(C)cc1
REMARK SMILES IDX 10 1 9 2 8 3 6 4 7 5 5 6 4 7 3 8 1 9 2 10 71 11 72 12 77 13
REMARK SMILES IDX 73 14 76 15 74 16 75 17 11 18 12 19 13 20 14 21 15 22 16 23
REMARK SMILES IDX 17 24 18 25 70 26 19 27 69 28 20 29 21 30 22 31 63 32 23 33
REMARK SMILES IDX 68 34 62 35 64 36 24 37 67 38 61 39 60 40 25 42 51 43 34 44
REMARK SMILES IDX 50 45 35 46 38 47 49 48 65 49 36 50 37 51 48 53 66 54 39 55
REMARK SMILES IDX 26 56 27 57 32 58 28 59 29 60 31 61 33 62 30 63 52 64 53 65
REMARK SMILES IDX 58 66 54 67 55 68 57 69 59 70 56 71 40 72 41 73 46 74 42 75
REMARK SMILES IDX 43 76 45 77 47 78 44 79
REMARK H PARENT 64 41 38 52
REMARK Flexibility Score: inf
ROOT
ATOM      1  C   UNL     1       0.841   5.205   3.702  1.00  0.00     0.202 C 
ENDROOT
BRANCH   1   2
ATOM      2  C   UNL     1       0.025   4.628   4.862  1.00  0.00     0.261 C 
BRANCH   2   3
ATOM      3  O   UNL     1      -0.242   3.234   4.640  1.00  0.00    -0.461 OA
BRANCH   3   4
ATOM      4  C   UNL     1      -1.548   2.857   4.695  1.00  0.00     0.347 C 
ATOM      5  O   UNL     1      -2.463   3.560   5.113  1.00  0.00    -0.248 OA
BRANCH   4   6
ATOM      6  C   UNL     1      -1.779   1.456   4.151  1.00  0.00     0.386 C 
BRANCH   6   7
ATOM      7  O   UNL     1      -0.631   0.750   3.706  1.00  0.00    -0.384 OA
BRANCH   7   8
ATOM      8  N   UNL     1      -0.567   0.757   2.299  1.00  0.00    -0.091 NA
ATOM      9  C   UNL     1       0.430  -0.272   0.355  1.00  0.00     0.071 C 
ATOM     10  C   UNL     1       0.145  -0.232   1.839  1.00  0.00     0.084 C 
BRANCH  10  11
ATOM     11  C   UNL     1       0.696  -1.346   2.651  1.00  0.00    -0.001 A 
ATOM     12  C   UNL     1      -0.158  -2.063   3.494  1.00  0.00     0.010 A 
ATOM     13  C   UNL     1       2.049  -1.682   2.568  1.00  0.00     0.010 A 
ATOM     14  C   UNL     1       0.350  -3.087   4.291  1.00  0.00     0.004 A 
ATOM     15  C   UNL     1       2.554  -2.712   3.366  1.00  0.00     0.004 A 
ATOM     16  C   UNL     1       1.711  -3.415   4.238  1.00  0.00    -0.051 A 
ATOM     17  C   UNL     1       2.250  -4.483   5.143  1.00  0.00     0.044 C 
ENDBRANCH  10  11
ENDBRANCH   7   8
ENDBRANCH   6   7
ENDBRANCH   4   6
ENDBRANCH   3   4
ENDBRANCH   2   3
ENDBRANCH   1   2
BRANCH   1  18
ATOM     18  O   UNL     1       0.141   5.315   2.461  1.00  0.00    -0.374 OA
BRANCH  18  19
ATOM     19  C   UNL     1      -0.042   4.110   1.712  1.00  0.00     0.202 C 
BRANCH  19  20
ATOM     20  C   UNL     1       1.192   3.623   0.946  1.00  0.00     0.261 C 
BRANCH  20  21
ATOM     21  O   UNL     1       2.204   3.112   1.834  1.00  0.00    -0.460 OA
BRANCH  21  22
ATOM     22  C   UNL     1       3.399   3.740   1.764  1.00  0.00     0.338 C 
ATOM     23  O   UNL     1       3.747   4.594   0.961  1.00  0.00    -0.246 OA
BRANCH  22  24
ATOM     24  C   UNL     1       4.234   3.371   2.921  1.00  0.00     0.060 A 
ATOM     25  C   UNL     1       4.738   4.412   3.712  1.00  0.00     0.016 A 
ATOM     26  C   UNL     1       4.598   2.047   3.173  1.00  0.00     0.016 A 
ATOM     27  C   UNL     1       5.654   4.138   4.725  1.00  0.00     0.010 A 
ATOM     28  C   UNL     1       5.527   1.774   4.184  1.00  0.00     0.010 A 
ATOM     29  C   UNL     1       6.087   2.822   4.938  1.00  0.00    -0.014 A 
BRANCH  29  30
ATOM     30  C   UNL     1       7.239   2.567   5.836  1.00  0.00     0.031 A 
ATOM     31  C   UNL     1       8.610   2.418   5.235  1.00  0.00     0.074 A 
ATOM     32  C   UNL     1       7.079   2.497   7.169  1.00  0.00     0.049 A 
ATOM     33  N   UNL     1       9.749   2.147   5.819  1.00  0.00    -0.248 NA
ATOM     34  C   UNL     1       8.708   2.602   3.778  1.00  0.00     0.031 C 
ATOM     35  C   UNL     1       5.815   2.681   7.878  1.00  0.00     0.029 A 
ATOM     36  N   UNL     1       7.992   2.247   8.162  1.00  0.00    -0.354 N 
ATOM     37  C   UNL     1      10.696   2.119   4.803  1.00  0.00     0.074 A 
ATOM     38  C   UNL     1       9.996   2.379   3.563  1.00  0.00     0.031 C 
ATOM     39  C   UNL     1       6.032   2.533   9.197  1.00  0.00     0.029 A 
ATOM     40  C   UNL     1       7.440   2.208   9.418  1.00  0.00     0.049 A 
ATOM     41  H   UNL     1       8.951   2.109   7.990  1.00  0.00     0.167 HD
ATOM     42  C   UNL     1      12.030   1.902   4.895  1.00  0.00     0.037 A 
ATOM     43  C   UNL     1       8.005   1.922  10.607  1.00  0.00     0.037 A 
ATOM     44  C   UNL     1      12.728   1.650   6.127  1.00  0.00     0.049 A 
ATOM     45  C   UNL     1       9.472   1.590  10.672  1.00  0.00     0.074 A 
ATOM     46  C   UNL     1      14.082   1.443   6.324  1.00  0.00     0.029 A 
ATOM     47  N   UNL     1      12.124   1.564   7.371  1.00  0.00    -0.354 N 
ATOM     48  N   UNL     1      10.362   1.581   9.709  1.00  0.00    -0.248 NA
ATOM     49  C   UNL     1      10.012   1.220  11.989  1.00  0.00     0.031 C 
ATOM     50  C   UNL     1      14.291   1.186   7.684  1.00  0.00     0.029 A 
ATOM     51  C   UNL     1      13.072   1.276   8.338  1.00  0.00     0.049 A 
ATOM     52  H   UNL     1      11.162   1.689   7.543  1.00  0.00     0.167 HD
ATOM     53  C   UNL     1      11.568   1.238  10.307  1.00  0.00     0.074 A 
ATOM     54  C   UNL     1      11.298   1.045  11.717  1.00  0.00     0.031 C 
ATOM     55  C   UNL     1      12.791   1.100   9.739  1.00  0.00     0.037 A 
BRANCH  42  56
ATOM     56  C   UNL     1      12.815   1.896   3.618  1.00  0.00     0.057 A 
ATOM     57  C   UNL     1      13.098   3.075   2.917  1.00  0.00     0.134 A 
ATOM     58  C   UNL     1      13.310   0.696   3.094  1.00  0.00     0.134 A 
ATOM     59  F   UNL     1      12.639   4.256   3.360  1.00  0.00    -0.206 F 
ATOM     60  C   UNL     1      13.826   3.058   1.726  1.00  0.00     0.040 A 
ATOM     61  C   UNL     1      14.059   0.668   1.916  1.00  0.00     0.040 A 
ATOM     62  F   UNL     1      13.077  -0.468   3.718  1.00  0.00    -0.206 F 
ATOM     63  C   UNL     1      14.314   1.852   1.226  1.00  0.00     0.006 A 
ENDBRANCH  42  56
BRANCH  43  64
ATOM     64  C   UNL     1       7.179   1.921  11.840  1.00  0.00     0.057 A 
ATOM     65  C   UNL     1       7.340   2.909  12.818  1.00  0.00     0.134 A 
ATOM     66  C   UNL     1       6.223   0.927  12.076  1.00  0.00     0.134 A 
ATOM     67  F   UNL     1       8.260   3.872  12.659  1.00  0.00    -0.206 F 
ATOM     68  C   UNL     1       6.586   2.903  13.992  1.00  0.00     0.040 A 
ATOM     69  C   UNL     1       5.447   0.921  13.236  1.00  0.00     0.040 A 
ATOM     70  F   UNL     1       6.024  -0.050  11.179  1.00  0.00    -0.206 F 
ATOM     71  C   UNL     1       5.631   1.910  14.201  1.00  0.00     0.006 A 
ENDBRANCH  43  64
BRANCH  55  72
ATOM     72  C   UNL     1      13.940   0.764  10.642  1.00  0.00     0.057 A 
ATOM     73  C   UNL     1      14.127  -0.526  11.150  1.00  0.00     0.134 A 
ATOM     74  C   UNL     1      14.905   1.731  10.954  1.00  0.00     0.134 A 
ATOM     75  F   UNL     1      13.232  -1.493  10.897  1.00  0.00    -0.206 F 
ATOM     76  C   UNL     1      15.229  -0.842  11.947  1.00  0.00     0.040 A 
ATOM     77  C   UNL     1      16.022   1.422  11.731  1.00  0.00     0.040 A 
ATOM     78  F   UNL     1      14.787   2.985  10.491  1.00  0.00    -0.206 F 
ATOM     79  C   UNL     1      16.185   0.132  12.232  1.00  0.00     0.006 A 
ENDBRANCH  55  72
ENDBRANCH  29  30
ENDBRANCH  22  24
ENDBRANCH  21  22
ENDBRANCH  20  21
ENDBRANCH  19  20
ENDBRANCH  18  19
ENDBRANCH   1  18
TORSDOF 17
