REMARK SMILES Cc1c(Cl)cc2c(c1C)O[C@H](C(F)(F)F)C(C(=O)OCCOCCOC(=O)c1ccc(-c3c4nc(c(-c5c(F)cccc5F)c5ccc([nH]5)c(-c5c(F)cccc5F)c5nc(c(-c6c(F)cccc6F)c6ccc3[nH]6)C=C5)C=C4)cc1)=C2
REMARK SMILES IDX 23 1 22 2 21 3 20 4 19 5 17 6 18 7 16 8 1 9 2 10 3 11 8 12
REMARK SMILES IDX 4 13 5 14 7 15 9 16 6 17 10 18 82 19 11 20 12 21 13 22 14 23
REMARK SMILES IDX 15 24 24 25 25 26 26 27 27 28 28 29 29 30 81 31 30 32 80 33
REMARK SMILES IDX 31 34 32 35 33 36 74 37 34 38 79 39 73 40 75 41 35 42 78 43
REMARK SMILES IDX 72 44 71 45 36 47 62 48 45 49 61 50 46 51 49 52 60 53 76 54
REMARK SMILES IDX 47 55 48 56 59 58 77 59 50 60 37 61 38 62 43 63 39 64 40 65
REMARK SMILES IDX 42 66 44 67 41 68 63 69 64 70 69 71 65 72 66 73 68 74 70 75
REMARK SMILES IDX 67 76 51 77 52 78 57 79 53 80 54 81 56 82 58 83 55 84
REMARK H PARENT 75 46 49 57
REMARK Flexibility Score: inf
ROOT
ATOM      1  C   UNL     1      -2.541  -8.297  -0.942  1.00  0.00     0.202 C 
ENDROOT
BRANCH   1   2
ATOM      2  O   UNL     1      -2.466  -9.360  -1.892  1.00  0.00    -0.374 OA
BRANCH   2   3
ATOM      3  C   UNL     1      -1.340 -10.232  -1.831  1.00  0.00     0.202 C 
BRANCH   3   4
ATOM      4  C   UNL     1      -0.035  -9.708  -2.436  1.00  0.00     0.261 C 
BRANCH   4   5
ATOM      5  O   UNL     1       0.393  -8.496  -1.794  1.00  0.00    -0.460 OA
BRANCH   5   6
ATOM      6  C   UNL     1       0.373  -7.402  -2.590  1.00  0.00     0.338 C 
ATOM      7  O   UNL     1       0.162  -7.375  -3.792  1.00  0.00    -0.246 OA
BRANCH   6   8
ATOM      8  C   UNL     1       0.534  -6.184  -1.775  1.00  0.00     0.087 C 
ATOM      9  C   UNL     1       1.026   0.025   0.063  1.00  0.00     0.046 C 
ATOM     10  C   UNL     1       0.612  -1.345  -0.415  1.00  0.00    -0.026 A 
ATOM     11  C   UNL     1      -0.438  -1.506  -1.339  1.00  0.00     0.045 A 
ATOM     12  C   UNL     1       1.277  -2.504   0.068  1.00  0.00    -0.004 A 
ATOM     13  Cl  UNL     1      -1.389  -0.178  -1.911  1.00  0.00    -0.084 Cl
ATOM     14  C   UNL     1      -0.753  -2.764  -1.853  1.00  0.00     0.032 A 
ATOM     15  C   UNL     1       0.950  -3.768  -0.469  1.00  0.00     0.131 A 
ATOM     16  C   UNL     1       2.371  -2.432   1.106  1.00  0.00     0.049 C 
ATOM     17  C   UNL     1      -0.033  -3.888  -1.451  1.00  0.00     0.019 A 
ATOM     18  O   UNL     1       1.635  -4.849   0.019  1.00  0.00    -0.475 OA
ATOM     19  C   UNL     1      -0.259  -5.160  -2.110  1.00  0.00     0.027 C 
ATOM     20  C   UNL     1       1.560  -6.123  -0.680  1.00  0.00     0.316 C 
BRANCH  20  21
ATOM     21  C   UNL     1       2.971  -6.491  -1.163  1.00  0.00     0.430 C 
ATOM     22  F   UNL     1       3.875  -6.381  -0.159  1.00  0.00    -0.167 F 
ATOM     23  F   UNL     1       3.036  -7.771  -1.600  1.00  0.00    -0.167 F 
ATOM     24  F   UNL     1       3.387  -5.695  -2.172  1.00  0.00    -0.167 F 
ENDBRANCH  20  21
ENDBRANCH   6   8
ENDBRANCH   5   6
ENDBRANCH   4   5
ENDBRANCH   3   4
ENDBRANCH   2   3
ENDBRANCH   1   2
BRANCH   1  25
ATOM     25  C   UNL     1      -2.896  -8.675   0.502  1.00  0.00     0.261 C 
BRANCH  25  26
ATOM     26  O   UNL     1      -1.849  -9.427   1.143  1.00  0.00    -0.460 OA
BRANCH  26  27
ATOM     27  C   UNL     1      -2.174 -10.705   1.453  1.00  0.00     0.338 C 
ATOM     28  O   UNL     1      -3.255 -11.256   1.300  1.00  0.00    -0.246 OA
BRANCH  27  29
ATOM     29  C   UNL     1      -0.965 -11.444   1.854  1.00  0.00     0.060 A 
ATOM     30  C   UNL     1      -0.629 -12.591   1.124  1.00  0.00     0.016 A 
ATOM     31  C   UNL     1      -0.215 -11.067   2.970  1.00  0.00     0.016 A 
ATOM     32  C   UNL     1       0.440 -13.386   1.528  1.00  0.00     0.010 A 
ATOM     33  C   UNL     1       0.852 -11.872   3.381  1.00  0.00     0.010 A 
ATOM     34  C   UNL     1       1.167 -13.049   2.679  1.00  0.00    -0.014 A 
BRANCH  34  35
ATOM     35  C   UNL     1       2.179 -13.996   3.204  1.00  0.00     0.031 A 
ATOM     36  C   UNL     1       1.806 -14.922   4.328  1.00  0.00     0.074 A 
ATOM     37  C   UNL     1       3.402 -14.063   2.650  1.00  0.00     0.049 A 
ATOM     38  N   UNL     1       2.532 -15.830   4.928  1.00  0.00    -0.248 NA
ATOM     39  C   UNL     1       0.430 -14.815   4.842  1.00  0.00     0.031 C 
ATOM     40  C   UNL     1       3.864 -13.250   1.526  1.00  0.00     0.029 A 
ATOM     41  N   UNL     1       4.477 -14.860   2.954  1.00  0.00    -0.354 N 
ATOM     42  C   UNL     1       1.702 -16.409   5.879  1.00  0.00     0.074 A 
ATOM     43  C   UNL     1       0.429 -15.724   5.806  1.00  0.00     0.031 C 
ATOM     44  C   UNL     1       5.129 -13.595   1.230  1.00  0.00     0.029 A 
ATOM     45  C   UNL     1       5.574 -14.631   2.160  1.00  0.00     0.049 A 
ATOM     46  H   UNL     1       4.463 -15.532   3.674  1.00  0.00     0.167 HD
ATOM     47  C   UNL     1       1.971 -17.431   6.724  1.00  0.00     0.037 A 
ATOM     48  C   UNL     1       6.800 -15.190   2.187  1.00  0.00     0.037 A 
ATOM     49  C   UNL     1       3.238 -18.109   6.798  1.00  0.00     0.049 A 
ATOM     50  C   UNL     1       7.103 -16.262   3.200  1.00  0.00     0.074 A 
ATOM     51  C   UNL     1       3.607 -19.154   7.628  1.00  0.00     0.029 A 
ATOM     52  N   UNL     1       4.342 -17.808   6.016  1.00  0.00    -0.354 N 
ATOM     53  N   UNL     1       6.307 -16.808   4.087  1.00  0.00    -0.248 NA
ATOM     54  C   UNL     1       8.473 -16.795   3.216  1.00  0.00     0.031 C 
ATOM     55  C   UNL     1       4.948 -19.458   7.377  1.00  0.00     0.029 A 
ATOM     56  C   UNL     1       5.399 -18.635   6.357  1.00  0.00     0.049 A 
ATOM     57  H   UNL     1       4.370 -17.111   5.321  1.00  0.00     0.167 HD
ATOM     58  C   UNL     1       7.068 -17.767   4.744  1.00  0.00     0.074 A 
ATOM     59  C   UNL     1       8.388 -17.733   4.150  1.00  0.00     0.031 C 
ATOM     60  C   UNL     1       6.703 -18.602   5.747  1.00  0.00     0.037 A 
BRANCH  47  61
ATOM     61  C   UNL     1       0.877 -17.887   7.642  1.00  0.00     0.057 A 
ATOM     62  C   UNL     1      -0.214 -18.627   7.170  1.00  0.00     0.134 A 
ATOM     63  C   UNL     1       0.951 -17.650   9.020  1.00  0.00     0.134 A 
ATOM     64  F   UNL     1      -0.349 -18.877   5.859  1.00  0.00    -0.206 F 
ATOM     65  C   UNL     1      -1.197 -19.110   8.035  1.00  0.00     0.040 A 
ATOM     66  C   UNL     1      -0.013 -18.147   9.899  1.00  0.00     0.040 A 
ATOM     67  F   UNL     1       1.974 -16.952   9.537  1.00  0.00    -0.206 F 
ATOM     68  C   UNL     1      -1.092 -18.879   9.406  1.00  0.00     0.006 A 
ENDBRANCH  47  61
BRANCH  48  69
ATOM     69  C   UNL     1       7.834 -14.755   1.214  1.00  0.00     0.057 A 
ATOM     70  C   UNL     1       8.268 -15.608   0.193  1.00  0.00     0.134 A 
ATOM     71  C   UNL     1       8.414 -13.482   1.282  1.00  0.00     0.134 A 
ATOM     72  F   UNL     1       7.766 -16.847   0.090  1.00  0.00    -0.206 F 
ATOM     73  C   UNL     1       9.248 -15.216  -0.720  1.00  0.00     0.040 A 
ATOM     74  C   UNL     1       9.377 -13.068   0.361  1.00  0.00     0.040 A 
ATOM     75  F   UNL     1       8.041 -12.618   2.237  1.00  0.00    -0.206 F 
ATOM     76  C   UNL     1       9.801 -13.939  -0.641  1.00  0.00     0.006 A 
ENDBRANCH  48  69
BRANCH  60  77
ATOM     77  C   UNL     1       7.725 -19.576   6.255  1.00  0.00     0.057 A 
ATOM     78  C   UNL     1       8.785 -19.170   7.074  1.00  0.00     0.134 A 
ATOM     79  C   UNL     1       7.591 -20.946   5.997  1.00  0.00     0.134 A 
ATOM     80  F   UNL     1       8.973 -17.871   7.351  1.00  0.00    -0.206 F 
ATOM     81  C   UNL     1       9.680 -20.095   7.616  1.00  0.00     0.040 A 
ATOM     82  C   UNL     1       8.465 -21.882   6.553  1.00  0.00     0.040 A 
ATOM     83  F   UNL     1       6.589 -21.401   5.229  1.00  0.00    -0.206 F 
ATOM     84  C   UNL     1       9.514 -21.456   7.364  1.00  0.00     0.006 A 
ENDBRANCH  60  77
ENDBRANCH  34  35
ENDBRANCH  27  29
ENDBRANCH  26  27
ENDBRANCH  25  26
ENDBRANCH   1  25
TORSDOF 15
