REMARK SMILES O=C(OCCOCCOC(=O)c1nn(Cc2ccc(F)cc2)c2c1CN(C(=O)[C@H]1CC1(F)F)CC2)c1ccc(-c2c3nc(c(-c4c(F)cccc4F)c4ccc([nH]4)c(-c4c(F)cccc4F)c4nc(c(-c5c(F)cccc5F)c5ccc2[nH]5)C=C4)C=C3)cc1
REMARK SMILES IDX 6 1 5 2 4 3 3 4 2 5 1 6 36 7 37 8 89 9 38 10 88 11 39 12
REMARK SMILES IDX 40 13 41 14 82 15 42 16 87 17 81 18 83 19 43 20 86 21 80 22
REMARK SMILES IDX 79 23 44 25 70 26 53 27 69 28 54 29 57 30 68 31 84 32 55 33
REMARK SMILES IDX 56 34 67 36 85 37 58 38 45 39 46 40 51 41 47 42 48 43 50 44
REMARK SMILES IDX 52 45 49 46 71 47 72 48 77 49 73 50 74 51 76 52 78 53 75 54
REMARK SMILES IDX 59 55 60 56 65 57 61 58 62 59 64 60 66 61 63 62 7 63 8 64
REMARK SMILES IDX 9 65 10 66 11 67 12 68 13 69 24 70 14 71 23 72 25 73 35 74
REMARK SMILES IDX 26 75 34 76 15 77 16 78 17 79 22 80 18 81 21 82 19 83 20 84
REMARK SMILES IDX 27 85 28 86 29 87 30 88 31 89 32 90 33 91
REMARK H PARENT 83 24 57 35
REMARK Flexibility Score: inf
ROOT
ATOM      1  O   UNL     1      15.930   2.969   0.321  1.00  0.00    -0.374 OA
ENDROOT
BRANCH   1   2
ATOM      2  C   UNL     1      14.968   2.027  -0.133  1.00  0.00     0.202 C 
BRANCH   2   3
ATOM      3  C   UNL     1      13.887   2.487  -1.108  1.00  0.00     0.261 C 
BRANCH   3   4
ATOM      4  O   UNL     1      14.416   2.916  -2.371  1.00  0.00    -0.460 OA
BRANCH   4   5
ATOM      5  C   UNL     1      15.242   3.970  -2.551  1.00  0.00     0.338 C 
ATOM      6  O   UNL     1      16.158   3.903  -3.368  1.00  0.00    -0.246 OA
BRANCH   5   7
ATOM      7  C   UNL     1      14.874   5.291  -1.986  1.00  0.00     0.060 A 
ATOM      8  C   UNL     1      14.043   5.501  -0.886  1.00  0.00     0.016 A 
ATOM      9  C   UNL     1      15.305   6.391  -2.741  1.00  0.00     0.016 A 
ATOM     10  C   UNL     1      13.383   6.705  -0.753  1.00  0.00     0.010 A 
ATOM     11  C   UNL     1      14.716   7.623  -2.560  1.00  0.00     0.010 A 
ATOM     12  C   UNL     1      13.672   7.730  -1.649  1.00  0.00    -0.014 A 
BRANCH  12  13
ATOM     13  C   UNL     1      12.936   8.970  -1.525  1.00  0.00     0.031 A 
ATOM     14  C   UNL     1      13.175   9.664  -0.234  1.00  0.00     0.074 A 
ATOM     15  C   UNL     1      12.214   9.460  -2.551  1.00  0.00     0.049 A 
ATOM     16  N   UNL     1      12.319   9.941   0.692  1.00  0.00    -0.248 NA
ATOM     17  C   UNL     1      14.575   9.925   0.146  1.00  0.00     0.031 C 
ATOM     18  C   UNL     1      12.131   8.957  -3.926  1.00  0.00     0.029 A 
ATOM     19  N   UNL     1      11.476  10.599  -2.604  1.00  0.00    -0.354 N 
ATOM     20  C   UNL     1      13.040  10.599   1.684  1.00  0.00     0.074 A 
ATOM     21  C   UNL     1      14.433  10.404   1.382  1.00  0.00     0.031 C 
ATOM     22  C   UNL     1      11.598   9.912  -4.722  1.00  0.00     0.029 A 
ATOM     23  C   UNL     1      11.175  11.026  -3.894  1.00  0.00     0.049 A 
ATOM     24  H   UNL     1      11.178  11.081  -1.799  1.00  0.00     0.167 HD
ATOM     25  C   UNL     1      12.437  11.464   2.542  1.00  0.00     0.037 A 
ATOM     26  C   UNL     1      10.702  12.254  -4.224  1.00  0.00     0.037 A 
ATOM     27  C   UNL     1      11.015  11.259   2.583  1.00  0.00     0.049 A 
ATOM     28  C   UNL     1      10.127  12.845  -2.986  1.00  0.00     0.074 A 
ATOM     29  C   UNL     1      10.204  10.209   2.966  1.00  0.00     0.029 A 
ATOM     30  N   UNL     1      10.231  12.084   1.816  1.00  0.00    -0.354 N 
ATOM     31  N   UNL     1       9.063  12.380  -2.391  1.00  0.00    -0.248 NA
ATOM     32  C   UNL     1      11.018  13.636  -2.149  1.00  0.00     0.031 C 
ATOM     33  C   UNL     1       9.138  10.206   2.022  1.00  0.00     0.029 A 
ATOM     34  C   UNL     1       9.315  11.296   1.168  1.00  0.00     0.049 A 
ATOM     35  H   UNL     1      10.311  13.062   1.744  1.00  0.00     0.167 HD
ATOM     36  C   UNL     1       9.356  12.451  -1.037  1.00  0.00     0.074 A 
ATOM     37  C   UNL     1      10.551  13.288  -0.947  1.00  0.00     0.031 C 
ATOM     38  C   UNL     1       8.787  11.589  -0.145  1.00  0.00     0.037 A 
BRANCH  25  39
ATOM     39  C   UNL     1      13.092  12.721   3.046  1.00  0.00     0.057 A 
ATOM     40  C   UNL     1      14.131  13.388   2.365  1.00  0.00     0.134 A 
ATOM     41  C   UNL     1      12.492  13.449   4.085  1.00  0.00     0.134 A 
ATOM     42  F   UNL     1      14.720  12.874   1.277  1.00  0.00    -0.206 F 
ATOM     43  C   UNL     1      14.553  14.676   2.698  1.00  0.00     0.040 A 
ATOM     44  C   UNL     1      12.871  14.762   4.393  1.00  0.00     0.040 A 
ATOM     45  F   UNL     1      11.467  12.936   4.783  1.00  0.00    -0.206 F 
ATOM     46  C   UNL     1      13.904  15.379   3.698  1.00  0.00     0.006 A 
ENDBRANCH  25  39
BRANCH  26  47
ATOM     47  C   UNL     1      11.078  13.094  -5.389  1.00  0.00     0.057 A 
ATOM     48  C   UNL     1      12.323  12.960  -6.030  1.00  0.00     0.134 A 
ATOM     49  C   UNL     1      10.346  14.248  -5.709  1.00  0.00     0.134 A 
ATOM     50  F   UNL     1      13.140  11.934  -5.755  1.00  0.00    -0.206 F 
ATOM     51  C   UNL     1      12.823  13.927  -6.908  1.00  0.00     0.040 A 
ATOM     52  C   UNL     1      10.839  15.227  -6.582  1.00  0.00     0.040 A 
ATOM     53  F   UNL     1       9.164  14.486  -5.123  1.00  0.00    -0.206 F 
ATOM     54  C   UNL     1      12.089  15.075  -7.174  1.00  0.00     0.006 A 
ENDBRANCH  26  47
BRANCH  38  55
ATOM     55  C   UNL     1       7.671  10.700  -0.627  1.00  0.00     0.057 A 
ATOM     56  C   UNL     1       6.445  10.748   0.043  1.00  0.00     0.134 A 
ATOM     57  C   UNL     1       7.830   9.685  -1.584  1.00  0.00     0.134 A 
ATOM     58  F   UNL     1       6.239  11.659   1.008  1.00  0.00    -0.206 F 
ATOM     59  C   UNL     1       5.428   9.826  -0.211  1.00  0.00     0.040 A 
ATOM     60  C   UNL     1       6.807   8.775  -1.873  1.00  0.00     0.040 A 
ATOM     61  F   UNL     1       8.998   9.499  -2.212  1.00  0.00    -0.206 F 
ATOM     62  C   UNL     1       5.604   8.838  -1.176  1.00  0.00     0.006 A 
ENDBRANCH  38  55
ENDBRANCH  12  13
ENDBRANCH   5   7
ENDBRANCH   4   5
ENDBRANCH   3   4
ENDBRANCH   2   3
ENDBRANCH   1   2
BRANCH   1  63
ATOM     63  C   UNL     1      17.215   2.970  -0.314  1.00  0.00     0.202 C 
BRANCH  63  64
ATOM     64  C   UNL     1      18.156   1.757  -0.194  1.00  0.00     0.261 C 
BRANCH  64  65
ATOM     65  O   UNL     1      17.643   0.544  -0.765  1.00  0.00    -0.458 OA
BRANCH  65  66
ATOM     66  C   UNL     1      17.027  -0.307   0.120  1.00  0.00     0.359 C 
ATOM     67  O   UNL     1      16.931  -0.099   1.315  1.00  0.00    -0.244 OA
BRANCH  66  68
ATOM     68  C   UNL     1      16.310  -1.401  -0.557  1.00  0.00     0.175 A 
ATOM     69  N   UNL     1      16.879  -2.166  -1.507  1.00  0.00    -0.165 NA
ATOM     70  C   UNL     1      14.968  -1.815  -0.313  1.00  0.00     0.028 A 
ATOM     71  N   UNL     1      15.945  -3.098  -1.812  1.00  0.00    -0.264 N 
ATOM     72  C   UNL     1      14.780  -2.910  -1.128  1.00  0.00     0.046 A 
ATOM     73  C   UNL     1      13.916  -1.264   0.590  1.00  0.00     0.159 C 
ATOM     74  C   UNL     1      13.552  -3.747  -1.144  1.00  0.00     0.078 C 
ATOM     75  N   UNL     1      12.817  -2.237   0.718  1.00  0.00    -0.337 N 
ATOM     76  C   UNL     1      12.397  -2.939  -0.515  1.00  0.00     0.126 C 
BRANCH  71  77
ATOM     77  C   UNL     1      16.321  -4.249  -2.623  1.00  0.00     0.180 C 
BRANCH  77  78
ATOM     78  C   UNL     1      16.345  -3.955  -4.103  1.00  0.00    -0.026 A 
ATOM     79  C   UNL     1      17.358  -3.149  -4.651  1.00  0.00     0.008 A 
ATOM     80  C   UNL     1      15.395  -4.530  -4.963  1.00  0.00     0.008 A 
ATOM     81  C   UNL     1      17.433  -2.940  -6.028  1.00  0.00     0.039 A 
ATOM     82  C   UNL     1      15.473  -4.320  -6.341  1.00  0.00     0.039 A 
ATOM     83  C   UNL     1      16.494  -3.533  -6.861  1.00  0.00     0.123 A 
ATOM     84  F   UNL     1      16.577  -3.351  -8.185  1.00  0.00    -0.207 F 
ENDBRANCH  77  78
ENDBRANCH  71  77
BRANCH  75  85
ATOM     85  C   UNL     1      12.159  -2.307   1.938  1.00  0.00     0.232 C 
ATOM     86  O   UNL     1      12.405  -1.562   2.877  1.00  0.00    -0.274 OA
BRANCH  85  87
ATOM     87  C   UNL     1      11.075  -3.300   2.070  1.00  0.00     0.154 C 
ATOM     88  C   UNL     1      11.383  -4.787   2.115  1.00  0.00     0.097 C 
ATOM     89  C   UNL     1      10.936  -4.068   3.331  1.00  0.00     0.260 C 
ATOM     90  F   UNL     1      11.805  -3.958   4.389  1.00  0.00    -0.206 F 
ATOM     91  F   UNL     1       9.692  -4.350   3.849  1.00  0.00    -0.206 F 
ENDBRANCH  85  87
ENDBRANCH  75  85
ENDBRANCH  66  68
ENDBRANCH  65  66
ENDBRANCH  64  65
ENDBRANCH  63  64
ENDBRANCH   1  63
TORSDOF 18
