REMARK SMILES NS(=O)(=O)c1ccc(NS(=O)(=O)c2cccc(C(=O)OCCOCCOC(=O)c3ccc(-c4c5nc(c(-c6c(F)cccc6F)c6ccc([nH]6)c(-c6c(F)cccc6F)c6nc(c(-c7c(F)cccc7F)c7ccc4[nH]7)C=C6)C=C5)cc3)c2)cc1
REMARK SMILES IDX 21 1 20 2 18 3 19 4 17 5 13 6 14 7 83 8 15 9 16 10 10 11
REMARK SMILES IDX 11 12 12 13 9 14 8 16 5 17 6 18 85 19 7 20 84 21 2 22 3 23
REMARK SMILES IDX 4 24 1 25 22 28 23 29 24 30 25 31 26 32 27 33 28 34 29 35
REMARK SMILES IDX 30 36 82 37 31 38 81 39 32 40 33 41 34 42 75 43 35 44 80 45
REMARK SMILES IDX 74 46 76 47 36 48 79 49 73 50 72 51 37 53 63 54 46 55 62 56
REMARK SMILES IDX 47 57 50 58 61 59 77 60 48 61 49 62 60 64 78 65 51 66 38 67
REMARK SMILES IDX 39 68 44 69 40 70 41 71 43 72 45 73 42 74 64 75 65 76 70 77
REMARK SMILES IDX 66 78 67 79 69 80 71 81 68 82 52 83 53 84 58 85 54 86 55 87
REMARK SMILES IDX 57 88 59 89 56 90
REMARK H PARENT 9 15 1 26 1 27 76 52 50 63
REMARK Flexibility Score: inf
ROOT
ATOM      1  C   UNL     1      -2.225 -12.020   1.409  1.00  0.00     0.261 C 
ENDROOT
BRANCH   1   2
ATOM      2  O   UNL     1      -1.686 -10.904   0.681  1.00  0.00    -0.460 OA
BRANCH   2   3
ATOM      3  C   UNL     1      -2.477  -9.803   0.708  1.00  0.00     0.338 C 
ATOM      4  O   UNL     1      -3.594  -9.736   1.199  1.00  0.00    -0.246 OA
BRANCH   3   5
ATOM      5  C   UNL     1      -1.814  -8.607   0.119  1.00  0.00     0.061 A 
ATOM      6  C   UNL     1      -0.274  -7.457  -1.356  1.00  0.00     0.088 A 
ATOM      7  C   UNL     1      -0.966  -6.261  -1.135  1.00  0.00     0.022 A 
ATOM      8  C   UNL     1      -0.711  -8.649  -0.748  1.00  0.00     0.038 A 
ATOM      9  C   UNL     1      -1.982  -6.204  -0.189  1.00  0.00     0.002 A 
ATOM     10  C   UNL     1      -2.400  -7.372   0.438  1.00  0.00     0.016 A 
BRANCH   6  11
ATOM     11  S   UNL     1       1.056  -7.478  -2.542  1.00  0.00     0.261 S 
ATOM     12  O   UNL     1       0.521  -6.957  -3.782  1.00  0.00    -0.201 OA
ATOM     13  O   UNL     1       1.655  -8.796  -2.500  1.00  0.00    -0.201 OA
BRANCH  11  14
ATOM     14  N   UNL     1       2.301  -6.402  -2.066  1.00  0.00    -0.280 N 
ATOM     15  H   UNL     1       3.241  -6.644  -2.229  1.00  0.00     0.180 HD
BRANCH  14  16
ATOM     16  C   UNL     1       1.991  -5.154  -1.434  1.00  0.00     0.049 A 
ATOM     17  C   UNL     1       1.227  -2.787  -0.164  1.00  0.00     0.082 A 
ATOM     18  C   UNL     1       1.316  -3.974   0.569  1.00  0.00     0.024 A 
ATOM     19  C   UNL     1       1.573  -2.763  -1.518  1.00  0.00     0.024 A 
ATOM     20  C   UNL     1       1.715  -5.151  -0.066  1.00  0.00     0.028 A 
ATOM     21  C   UNL     1       1.944  -3.956  -2.158  1.00  0.00     0.028 A 
BRANCH  17  22
ATOM     22  S   UNL     1       0.631  -1.338   0.662  1.00  0.00     0.238 S 
ATOM     23  O   UNL     1       1.163  -1.328   2.008  1.00  0.00    -0.207 OA
ATOM     24  O   UNL     1      -0.774  -1.212   0.376  1.00  0.00    -0.207 OA
BRANCH  22  25
ATOM     25  N   UNL     1       1.388  -0.058  -0.117  1.00  0.00    -0.225 NA
ATOM     26  H   UNL     1       1.093   0.821   0.307  1.00  0.00     0.137 HD
ATOM     27  H   UNL     1       1.133  -0.062  -1.105  1.00  0.00     0.137 HD
ENDBRANCH  22  25
ENDBRANCH  17  22
ENDBRANCH  14  16
ENDBRANCH  11  14
ENDBRANCH   6  11
ENDBRANCH   3   5
ENDBRANCH   2   3
ENDBRANCH   1   2
BRANCH   1  28
ATOM     28  C   UNL     1      -1.507 -12.259   2.741  1.00  0.00     0.202 C 
BRANCH  28  29
ATOM     29  O   UNL     1      -1.399 -11.151   3.629  1.00  0.00    -0.374 OA
BRANCH  29  30
ATOM     30  C   UNL     1      -0.378 -10.188   3.359  1.00  0.00     0.202 C 
BRANCH  30  31
ATOM     31  C   UNL     1       1.067 -10.612   3.651  1.00  0.00     0.261 C 
BRANCH  31  32
ATOM     32  O   UNL     1       1.535 -11.608   2.722  1.00  0.00    -0.460 OA
BRANCH  32  33
ATOM     33  C   UNL     1       1.836 -12.813   3.266  1.00  0.00     0.338 C 
ATOM     34  O   UNL     1       1.839 -13.116   4.446  1.00  0.00    -0.246 OA
BRANCH  33  35
ATOM     35  C   UNL     1       1.977 -13.809   2.188  1.00  0.00     0.060 A 
ATOM     36  C   UNL     1       1.121 -14.920   2.204  1.00  0.00     0.016 A 
ATOM     37  C   UNL     1       2.953 -13.678   1.200  1.00  0.00     0.016 A 
ATOM     38  C   UNL     1       1.248 -15.913   1.234  1.00  0.00     0.010 A 
ATOM     39  C   UNL     1       3.091 -14.685   0.240  1.00  0.00     0.010 A 
ATOM     40  C   UNL     1       2.250 -15.812   0.262  1.00  0.00    -0.014 A 
BRANCH  40  41
ATOM     41  C   UNL     1       2.485 -16.926  -0.686  1.00  0.00     0.031 A 
ATOM     42  C   UNL     1       3.590 -17.904  -0.412  1.00  0.00     0.074 A 
ATOM     43  C   UNL     1       1.727 -17.051  -1.790  1.00  0.00     0.049 A 
ATOM     44  N   UNL     1       4.033 -18.884  -1.156  1.00  0.00    -0.248 NA
ATOM     45  C   UNL     1       4.289 -17.755   0.874  1.00  0.00     0.031 C 
ATOM     46  C   UNL     1       0.597 -16.193  -2.139  1.00  0.00     0.029 A 
ATOM     47  N   UNL     1       1.809 -17.943  -2.829  1.00  0.00    -0.354 N 
ATOM     48  C   UNL     1       5.066 -19.467  -0.434  1.00  0.00     0.074 A 
ATOM     49  C   UNL     1       5.199 -18.715   0.797  1.00  0.00     0.031 C 
ATOM     50  C   UNL     1       0.102 -16.587  -3.325  1.00  0.00     0.029 A 
ATOM     51  C   UNL     1       0.907 -17.695  -3.834  1.00  0.00     0.049 A 
ATOM     52  H   UNL     1       2.453 -18.687  -2.853  1.00  0.00     0.167 HD
ATOM     53  C   UNL     1       5.830 -20.534  -0.767  1.00  0.00     0.037 A 
ATOM     54  C   UNL     1       0.773 -18.273  -5.043  1.00  0.00     0.037 A 
ATOM     55  C   UNL     1       5.699 -21.270  -1.997  1.00  0.00     0.049 A 
ATOM     56  C   UNL     1       1.709 -19.383  -5.439  1.00  0.00     0.074 A 
ATOM     57  C   UNL     1       6.406 -22.384  -2.415  1.00  0.00     0.029 A 
ATOM     58  N   UNL     1       4.812 -20.954  -3.014  1.00  0.00    -0.354 N 
ATOM     59  N   UNL     1       2.665 -19.947  -4.742  1.00  0.00    -0.248 NA
ATOM     60  C   UNL     1       1.556 -19.928  -6.797  1.00  0.00     0.031 C 
ATOM     61  C   UNL     1       5.984 -22.708  -3.709  1.00  0.00     0.029 A 
ATOM     62  C   UNL     1       4.981 -21.826  -4.077  1.00  0.00     0.049 A 
ATOM     63  H   UNL     1       4.158 -20.218  -2.986  1.00  0.00     0.167 HD
ATOM     64  C   UNL     1       3.216 -20.920  -5.566  1.00  0.00     0.074 A 
ATOM     65  C   UNL     1       2.477 -20.882  -6.811  1.00  0.00     0.031 C 
ATOM     66  C   UNL     1       4.243 -21.769  -5.314  1.00  0.00     0.037 A 
BRANCH  53  67
ATOM     67  C   UNL     1       6.899 -20.946   0.202  1.00  0.00     0.057 A 
ATOM     68  C   UNL     1       6.595 -21.565   1.421  1.00  0.00     0.134 A 
ATOM     69  C   UNL     1       8.252 -20.744  -0.101  1.00  0.00     0.134 A 
ATOM     70  F   UNL     1       5.319 -21.776   1.777  1.00  0.00    -0.206 F 
ATOM     71  C   UNL     1       7.597 -21.946   2.315  1.00  0.00     0.040 A 
ATOM     72  C   UNL     1       9.263 -21.143   0.774  1.00  0.00     0.040 A 
ATOM     73  F   UNL     1       8.612 -20.160  -1.254  1.00  0.00    -0.206 F 
ATOM     74  C   UNL     1       8.936 -21.740   1.989  1.00  0.00     0.006 A 
ENDBRANCH  53  67
BRANCH  54  75
ATOM     75  C   UNL     1      -0.267 -17.788  -5.985  1.00  0.00     0.057 A 
ATOM     76  C   UNL     1      -1.375 -18.578  -6.308  1.00  0.00     0.134 A 
ATOM     77  C   UNL     1      -0.173 -16.528  -6.590  1.00  0.00     0.134 A 
ATOM     78  F   UNL     1      -1.506 -19.804  -5.781  1.00  0.00    -0.206 F 
ATOM     79  C   UNL     1      -2.349 -18.137  -7.205  1.00  0.00     0.040 A 
ATOM     80  C   UNL     1      -1.153 -16.065  -7.469  1.00  0.00     0.040 A 
ATOM     81  F   UNL     1       0.867 -15.725  -6.324  1.00  0.00    -0.206 F 
ATOM     82  C   UNL     1      -2.243 -16.874  -7.783  1.00  0.00     0.006 A 
ENDBRANCH  54  75
BRANCH  66  83
ATOM     83  C   UNL     1       4.625 -22.731  -6.400  1.00  0.00     0.057 A 
ATOM     84  C   UNL     1       5.315 -22.311  -7.544  1.00  0.00     0.134 A 
ATOM     85  C   UNL     1       4.350 -24.099  -6.276  1.00  0.00     0.134 A 
ATOM     86  F   UNL     1       5.596 -21.012  -7.730  1.00  0.00    -0.206 F 
ATOM     87  C   UNL     1       5.708 -23.216  -8.532  1.00  0.00     0.040 A 
ATOM     88  C   UNL     1       4.759 -25.016  -7.245  1.00  0.00     0.040 A 
ATOM     89  F   UNL     1       3.699 -24.568  -5.201  1.00  0.00    -0.206 F 
ATOM     90  C   UNL     1       5.437 -24.575  -8.379  1.00  0.00     0.006 A 
ENDBRANCH  66  83
ENDBRANCH  40  41
ENDBRANCH  33  35
ENDBRANCH  32  33
ENDBRANCH  31  32
ENDBRANCH  30  31
ENDBRANCH  29  30
ENDBRANCH  28  29
ENDBRANCH   1  28
TORSDOF 19
