REMARK SMILES O=C(OCCOCCOC(=O)[C@@H]1[C@@H](C(=O)N2CCN(c3cccc(Cl)c3)CC2)[C@H]2CC[C@@H]1O2)c1ccc(-c2c3nc(c(-c4c(F)cccc4F)c4ccc([nH]4)c(-c4c(F)cccc4F)c4nc(c(-c5c(F)cccc5F)c5ccc2[nH]5)C=C4)C=C3)cc1
REMARK SMILES IDX 6 1 5 2 4 3 3 4 2 5 1 6 34 7 35 8 87 9 36 10 86 11 37 12
REMARK SMILES IDX 38 13 39 14 80 15 40 16 85 17 79 18 81 19 41 20 84 21 78 22
REMARK SMILES IDX 77 23 42 25 68 26 51 27 67 28 52 29 55 30 66 31 82 32 53 33
REMARK SMILES IDX 54 34 65 36 83 37 56 38 43 39 44 40 49 41 45 42 46 43 48 44
REMARK SMILES IDX 50 45 47 46 69 47 70 48 75 49 71 50 72 51 74 52 76 53 73 54
REMARK SMILES IDX 57 55 58 56 63 57 59 58 60 59 62 60 64 61 61 62 7 63 8 64
REMARK SMILES IDX 9 65 10 66 11 67 12 68 13 69 32 70 29 71 31 72 33 73 30 74
REMARK SMILES IDX 14 75 15 76 16 77 17 78 28 79 18 80 27 81 19 82 20 83 21 84
REMARK SMILES IDX 26 85 22 86 24 87 23 88 25 89
REMARK H PARENT 81 24 55 35
REMARK Flexibility Score: inf
ROOT
ATOM      1  O   UNL     1       4.085   1.194  -0.960  1.00  0.00    -0.374 OA
ENDROOT
BRANCH   1   2
ATOM      2  C   UNL     1       4.665  -0.076  -1.276  1.00  0.00     0.202 C 
BRANCH   2   3
ATOM      3  C   UNL     1       4.259  -1.293  -0.429  1.00  0.00     0.261 C 
BRANCH   3   4
ATOM      4  O   UNL     1       2.851  -1.328  -0.152  1.00  0.00    -0.460 OA
BRANCH   4   5
ATOM      5  C   UNL     1       2.222  -0.845   0.949  1.00  0.00     0.338 C 
ATOM      6  O   UNL     1       1.006  -0.989   1.053  1.00  0.00    -0.246 OA
BRANCH   5   7
ATOM      7  C   UNL     1       2.943  -0.124   2.041  1.00  0.00     0.060 A 
ATOM      8  C   UNL     1       4.151   0.545   1.868  1.00  0.00     0.016 A 
ATOM      9  C   UNL     1       2.339  -0.060   3.305  1.00  0.00     0.016 A 
ATOM     10  C   UNL     1       4.799   1.181   2.895  1.00  0.00     0.010 A 
ATOM     11  C   UNL     1       2.965   0.618   4.357  1.00  0.00     0.010 A 
ATOM     12  C   UNL     1       4.211   1.217   4.146  1.00  0.00    -0.014 A 
BRANCH  12  13
ATOM     13  C   UNL     1       5.075   1.741   5.205  1.00  0.00     0.031 A 
ATOM     14  C   UNL     1       5.783   0.744   6.064  1.00  0.00     0.074 A 
ATOM     15  C   UNL     1       5.413   3.042   5.176  1.00  0.00     0.049 A 
ATOM     16  N   UNL     1       6.636   0.943   7.027  1.00  0.00    -0.248 NA
ATOM     17  C   UNL     1       5.516  -0.678   5.775  1.00  0.00     0.031 C 
ATOM     18  C   UNL     1       4.915   4.022   4.201  1.00  0.00     0.029 A 
ATOM     19  N   UNL     1       6.303   3.748   5.930  1.00  0.00    -0.354 N 
ATOM     20  C   UNL     1       6.965  -0.322   7.494  1.00  0.00     0.074 A 
ATOM     21  C   UNL     1       6.238  -1.284   6.702  1.00  0.00     0.031 C 
ATOM     22  C   UNL     1       5.535   5.194   4.402  1.00  0.00     0.029 A 
ATOM     23  C   UNL     1       6.401   5.069   5.566  1.00  0.00     0.049 A 
ATOM     24  H   UNL     1       6.825   3.350   6.664  1.00  0.00     0.167 HD
ATOM     25  C   UNL     1       7.792  -0.632   8.516  1.00  0.00     0.037 A 
ATOM     26  C   UNL     1       7.089   6.063   6.151  1.00  0.00     0.037 A 
ATOM     27  C   UNL     1       8.498   0.368   9.268  1.00  0.00     0.049 A 
ATOM     28  C   UNL     1       7.896   5.709   7.369  1.00  0.00     0.074 A 
ATOM     29  C   UNL     1       9.303   0.214  10.378  1.00  0.00     0.029 A 
ATOM     30  N   UNL     1       8.473   1.727   8.969  1.00  0.00    -0.354 N 
ATOM     31  N   UNL     1       8.123   4.526   7.894  1.00  0.00    -0.248 NA
ATOM     32  C   UNL     1       8.520   6.821   8.091  1.00  0.00     0.031 C 
ATOM     33  C   UNL     1       9.718   1.488  10.786  1.00  0.00     0.029 A 
ATOM     34  C   UNL     1       9.227   2.429   9.890  1.00  0.00     0.049 A 
ATOM     35  H   UNL     1       7.989   2.130   8.213  1.00  0.00     0.167 HD
ATOM     36  C   UNL     1       8.936   4.746   8.995  1.00  0.00     0.074 A 
ATOM     37  C   UNL     1       9.175   6.178   9.047  1.00  0.00     0.031 C 
ATOM     38  C   UNL     1       9.440   3.856   9.886  1.00  0.00     0.037 A 
BRANCH  25  39
ATOM     39  C   UNL     1       7.853  -2.073   8.924  1.00  0.00     0.057 A 
ATOM     40  C   UNL     1       8.459  -3.061   8.136  1.00  0.00     0.134 A 
ATOM     41  C   UNL     1       7.215  -2.490  10.100  1.00  0.00     0.134 A 
ATOM     42  F   UNL     1       9.051  -2.738   6.976  1.00  0.00    -0.206 F 
ATOM     43  C   UNL     1       8.399  -4.413   8.486  1.00  0.00     0.040 A 
ATOM     44  C   UNL     1       7.172  -3.834  10.474  1.00  0.00     0.040 A 
ATOM     45  F   UNL     1       6.601  -1.599  10.893  1.00  0.00    -0.206 F 
ATOM     46  C   UNL     1       7.755  -4.801   9.660  1.00  0.00     0.006 A 
ENDBRANCH  25  39
BRANCH  26  47
ATOM     47  C   UNL     1       6.987   7.458   5.651  1.00  0.00     0.057 A 
ATOM     48  C   UNL     1       8.104   8.145   5.164  1.00  0.00     0.134 A 
ATOM     49  C   UNL     1       5.768   8.152   5.669  1.00  0.00     0.134 A 
ATOM     50  F   UNL     1       9.304   7.547   5.133  1.00  0.00    -0.206 F 
ATOM     51  C   UNL     1       8.019   9.472   4.733  1.00  0.00     0.040 A 
ATOM     52  C   UNL     1       5.662   9.467   5.214  1.00  0.00     0.040 A 
ATOM     53  F   UNL     1       4.655   7.557   6.122  1.00  0.00    -0.206 F 
ATOM     54  C   UNL     1       6.793  10.135   4.753  1.00  0.00     0.006 A 
ENDBRANCH  26  47
BRANCH  38  55
ATOM     55  C   UNL     1      10.336   4.413  10.950  1.00  0.00     0.057 A 
ATOM     56  C   UNL     1       9.842   5.184  12.008  1.00  0.00     0.134 A 
ATOM     57  C   UNL     1      11.709   4.135  10.928  1.00  0.00     0.134 A 
ATOM     58  F   UNL     1       8.539   5.496  12.073  1.00  0.00    -0.206 F 
ATOM     59  C   UNL     1      10.690   5.686  12.995  1.00  0.00     0.040 A 
ATOM     60  C   UNL     1      12.559   4.602  11.927  1.00  0.00     0.040 A 
ATOM     61  F   UNL     1      12.238   3.392   9.944  1.00  0.00    -0.206 F 
ATOM     62  C   UNL     1      12.051   5.387  12.960  1.00  0.00     0.006 A 
ENDBRANCH  38  55
ENDBRANCH  12  13
ENDBRANCH   5   7
ENDBRANCH   4   5
ENDBRANCH   3   4
ENDBRANCH   2   3
ENDBRANCH   1   2
BRANCH   1  63
ATOM     63  C   UNL     1       2.684   1.393  -1.188  1.00  0.00     0.202 C 
BRANCH  63  64
ATOM     64  C   UNL     1       2.444   2.622  -2.068  1.00  0.00     0.261 C 
BRANCH  64  65
ATOM     65  O   UNL     1       2.839   2.277  -3.399  1.00  0.00    -0.463 OA
BRANCH  65  66
ATOM     66  C   UNL     1       4.180   2.237  -3.554  1.00  0.00     0.312 C 
ATOM     67  O   UNL     1       4.979   2.902  -2.901  1.00  0.00    -0.252 OA
BRANCH  66  68
ATOM     68  C   UNL     1       4.618   1.236  -4.582  1.00  0.00     0.143 C 
ATOM     69  C   UNL     1       4.516   1.838  -5.968  1.00  0.00     0.124 C 
ATOM     70  C   UNL     1       3.702   0.009  -4.690  1.00  0.00     0.133 C 
ATOM     71  C   UNL     1       3.735   0.753  -6.721  1.00  0.00     0.132 C 
ATOM     72  C   UNL     1       4.469  -1.102  -5.404  1.00  0.00     0.036 C 
ATOM     73  O   UNL     1       2.757   0.406  -5.707  1.00  0.00    -0.373 OA
ATOM     74  C   UNL     1       4.436  -0.603  -6.848  1.00  0.00     0.035 C 
BRANCH  69  75
ATOM     75  C   UNL     1       5.834   2.253  -6.583  1.00  0.00     0.229 C 
ATOM     76  O   UNL     1       6.231   1.801  -7.653  1.00  0.00    -0.274 OA
ATOM     77  N   UNL     1       6.379   3.389  -6.007  1.00  0.00    -0.339 N 
ATOM     78  C   UNL     1       6.638   4.529  -6.883  1.00  0.00     0.141 C 
ATOM     79  C   UNL     1       7.208   3.381  -4.787  1.00  0.00     0.141 C 
ATOM     80  C   UNL     1       6.446   5.853  -6.119  1.00  0.00     0.138 C 
ATOM     81  C   UNL     1       7.107   4.711  -4.006  1.00  0.00     0.138 C 
ATOM     82  N   UNL     1       7.302   5.840  -4.928  1.00  0.00    -0.368 N 
BRANCH  82  83
ATOM     83  C   UNL     1       7.994   6.957  -4.524  1.00  0.00     0.038 A 
ATOM     84  C   UNL     1       9.339   6.838  -4.147  1.00  0.00     0.026 A 
ATOM     85  C   UNL     1       7.419   8.231  -4.520  1.00  0.00     0.046 A 
ATOM     86  C   UNL     1      10.104   7.957  -3.814  1.00  0.00     0.004 A 
ATOM     87  C   UNL     1       8.176   9.350  -4.167  1.00  0.00     0.043 A 
ATOM     88  C   UNL     1       9.520   9.219  -3.826  1.00  0.00     0.020 A 
ATOM     89  Cl  UNL     1       7.444  10.908  -4.159  1.00  0.00    -0.084 Cl
ENDBRANCH  82  83
ENDBRANCH  69  75
ENDBRANCH  66  68
ENDBRANCH  65  66
ENDBRANCH  64  65
ENDBRANCH  63  64
ENDBRANCH   1  63
TORSDOF 16
