REMARK SMILES C[C@@H](C(=O)OCCOCCOC(=O)c1ccc(-c2c3nc(c(-c4c(F)cccc4F)c4ccc([nH]4)c(-c4c(F)cccc4F)c4nc(c(-c5c(F)cccc5F)c5ccc2[nH]5)C=C4)C=C3)cc1)c1ccc(C[C@H]2CCC[C@H]2O)cc1-c1ccc(O)cc1
REMARK SMILES IDX 7 1 6 2 5 3 3 4 4 5 2 6 1 7 68 8 69 9 80 10 70 11 79 12
REMARK SMILES IDX 71 13 81 14 82 15 87 16 83 17 86 18 84 19 85 20 72 22 73 23
REMARK SMILES IDX 74 24 77 25 75 26 76 27 78 28 8 30 9 31 10 32 11 33 12 34
REMARK SMILES IDX 13 35 14 36 15 37 67 38 16 39 66 40 17 41 18 42 19 43 60 44
REMARK SMILES IDX 20 45 65 46 59 47 61 48 21 49 64 50 58 51 57 52 22 54 48 55
REMARK SMILES IDX 31 56 47 57 32 58 35 59 46 60 62 61 33 62 34 63 45 65 63 66
REMARK SMILES IDX 36 67 23 68 24 69 29 70 25 71 26 72 28 73 30 74 27 75 49 76
REMARK SMILES IDX 50 77 55 78 51 79 52 80 54 81 56 82 53 83 37 84 38 85 43 86
REMARK SMILES IDX 39 87 40 88 42 89 44 90 41 91
REMARK H PARENT 85 21 78 29 61 53 35 64
REMARK Flexibility Score: inf
ROOT
ATOM      1  C   UNL     1       2.913  -3.028  -3.202  1.00  0.00     0.202 C 
ENDROOT
BRANCH   1   2
ATOM      2  C   UNL     1       2.577  -1.709  -3.916  1.00  0.00     0.261 C 
BRANCH   2   3
ATOM      3  O   UNL     1       1.987  -0.748  -3.031  1.00  0.00    -0.463 OA
BRANCH   3   4
ATOM      4  C   UNL     1       0.640  -0.594  -3.181  1.00  0.00     0.313 C 
ATOM      5  O   UNL     1       0.012  -0.996  -4.153  1.00  0.00    -0.252 OA
BRANCH   4   6
ATOM      6  C   UNL     1       0.043   0.254  -2.066  1.00  0.00     0.127 C 
ATOM      7  C   UNL     1       0.713   0.290  -0.684  1.00  0.00     0.025 C 
BRANCH   6   8
ATOM      8  C   UNL     1      -1.471   0.097  -1.932  1.00  0.00    -0.026 A 
ATOM      9  C   UNL     1      -2.180   1.297  -2.141  1.00  0.00     0.005 A 
ATOM     10  C   UNL     1      -2.200  -1.083  -1.613  1.00  0.00    -0.014 A 
ATOM     11  C   UNL     1      -3.555   1.363  -2.000  1.00  0.00     0.004 A 
ATOM     12  C   UNL     1      -3.589  -0.958  -1.400  1.00  0.00     0.012 A 
ATOM     13  C   UNL     1      -4.261   0.258  -1.547  1.00  0.00    -0.047 A 
BRANCH  10  14
ATOM     14  C   UNL     1      -1.694  -2.471  -1.540  1.00  0.00    -0.018 A 
ATOM     15  C   UNL     1      -1.522  -3.225  -2.716  1.00  0.00     0.012 A 
ATOM     16  C   UNL     1      -1.564  -3.148  -0.313  1.00  0.00     0.012 A 
ATOM     17  C   UNL     1      -1.106  -4.561  -2.678  1.00  0.00     0.047 A 
ATOM     18  C   UNL     1      -1.189  -4.499  -0.271  1.00  0.00     0.047 A 
ATOM     19  C   UNL     1      -0.894  -5.167  -1.452  1.00  0.00     0.115 A 
BRANCH  19  20
ATOM     20  O   UNL     1      -0.319  -6.400  -1.401  1.00  0.00    -0.508 OA
ATOM     21  H   UNL     1      -0.117  -6.857  -2.194  1.00  0.00     0.293 HD
ENDBRANCH  19  20
ENDBRANCH  10  14
BRANCH  13  22
ATOM     22  C   UNL     1      -5.709   0.387  -1.173  1.00  0.00     0.041 C 
BRANCH  22  23
ATOM     23  C   UNL     1      -5.988   0.909   0.246  1.00  0.00     0.022 C 
ATOM     24  C   UNL     1      -5.351   0.113   1.399  1.00  0.00     0.007 C 
ATOM     25  C   UNL     1      -5.654   2.376   0.572  1.00  0.00     0.117 C 
ATOM     26  C   UNL     1      -5.188   1.107   2.553  1.00  0.00     0.003 C 
ATOM     27  C   UNL     1      -5.829   2.412   2.084  1.00  0.00     0.032 C 
BRANCH  25  28
ATOM     28  O   UNL     1      -4.326   2.784   0.286  1.00  0.00    -0.393 OA
ATOM     29  H   UNL     1      -3.704   2.235   0.788  1.00  0.00     0.210 HD
ENDBRANCH  25  28
ENDBRANCH  22  23
ENDBRANCH  13  22
ENDBRANCH   6   8
ENDBRANCH   4   6
ENDBRANCH   3   4
ENDBRANCH   2   3
ENDBRANCH   1   2
BRANCH   1  30
ATOM     30  O   UNL     1       2.007  -3.507  -2.205  1.00  0.00    -0.374 OA
BRANCH  30  31
ATOM     31  C   UNL     1       1.883  -2.660  -1.065  1.00  0.00     0.202 C 
BRANCH  31  32
ATOM     32  C   UNL     1       1.800  -3.378   0.280  1.00  0.00     0.261 C 
BRANCH  32  33
ATOM     33  O   UNL     1       3.094  -3.813   0.658  1.00  0.00    -0.460 OA
BRANCH  33  34
ATOM     34  C   UNL     1       3.520  -4.863  -0.086  1.00  0.00     0.338 C 
ATOM     35  O   UNL     1       2.852  -5.738  -0.595  1.00  0.00    -0.246 OA
BRANCH  34  36
ATOM     36  C   UNL     1       4.935  -4.568  -0.371  1.00  0.00     0.060 A 
ATOM     37  C   UNL     1       5.466  -4.990  -1.593  1.00  0.00     0.016 A 
ATOM     38  C   UNL     1       5.691  -3.798   0.525  1.00  0.00     0.016 A 
ATOM     39  C   UNL     1       6.790  -4.703  -1.891  1.00  0.00     0.010 A 
ATOM     40  C   UNL     1       7.000  -3.488   0.218  1.00  0.00     0.010 A 
ATOM     41  C   UNL     1       7.561  -3.995  -0.961  1.00  0.00    -0.014 A 
BRANCH  41  42
ATOM     42  C   UNL     1       9.023  -3.967  -1.081  1.00  0.00     0.031 A 
ATOM     43  C   UNL     1       9.800  -4.912  -0.215  1.00  0.00     0.074 A 
ATOM     44  C   UNL     1       9.608  -3.082  -1.899  1.00  0.00     0.049 A 
ATOM     45  N   UNL     1      11.090  -5.021  -0.059  1.00  0.00    -0.248 NA
ATOM     46  C   UNL     1       9.011  -5.845   0.613  1.00  0.00     0.031 C 
ATOM     47  C   UNL     1       8.905  -2.130  -2.759  1.00  0.00     0.029 A 
ATOM     48  N   UNL     1      10.932  -2.832  -2.121  1.00  0.00    -0.354 N 
ATOM     49  C   UNL     1      11.264  -6.020   0.890  1.00  0.00     0.074 A 
ATOM     50  C   UNL     1       9.954  -6.451   1.314  1.00  0.00     0.031 C 
ATOM     51  C   UNL     1       9.813  -1.393  -3.421  1.00  0.00     0.029 A 
ATOM     52  C   UNL     1      11.150  -1.803  -3.002  1.00  0.00     0.049 A 
ATOM     53  H   UNL     1      11.658  -3.339  -1.692  1.00  0.00     0.167 HD
ATOM     54  C   UNL     1      12.425  -6.537   1.349  1.00  0.00     0.037 A 
ATOM     55  C   UNL     1      12.312  -1.257  -3.400  1.00  0.00     0.037 A 
ATOM     56  C   UNL     1      13.712  -6.082   0.901  1.00  0.00     0.049 A 
ATOM     57  C   UNL     1      13.590  -1.830  -2.849  1.00  0.00     0.074 A 
ATOM     58  C   UNL     1      14.964  -6.544   1.255  1.00  0.00     0.029 A 
ATOM     59  N   UNL     1      13.902  -5.043  -0.002  1.00  0.00    -0.354 N 
ATOM     60  N   UNL     1      13.757  -2.813  -1.994  1.00  0.00    -0.248 NA
ATOM     61  C   UNL     1      14.840  -1.225  -3.322  1.00  0.00     0.031 C 
ATOM     62  C   UNL     1      15.914  -5.746   0.610  1.00  0.00     0.029 A 
ATOM     63  C   UNL     1      15.254  -4.830  -0.196  1.00  0.00     0.049 A 
ATOM     64  H   UNL     1      13.181  -4.534  -0.438  1.00  0.00     0.167 HD
ATOM     65  C   UNL     1      15.129  -2.967  -1.851  1.00  0.00     0.074 A 
ATOM     66  C   UNL     1      15.745  -1.982  -2.719  1.00  0.00     0.031 C 
ATOM     67  C   UNL     1      15.823  -3.839  -1.077  1.00  0.00     0.037 A 
BRANCH  54  68
ATOM     68  C   UNL     1      12.343  -7.617   2.388  1.00  0.00     0.057 A 
ATOM     69  C   UNL     1      11.832  -8.890   2.102  1.00  0.00     0.134 A 
ATOM     70  C   UNL     1      12.783  -7.381   3.696  1.00  0.00     0.134 A 
ATOM     71  F   UNL     1      11.369  -9.178   0.875  1.00  0.00    -0.206 F 
ATOM     72  C   UNL     1      11.738  -9.880   3.083  1.00  0.00     0.040 A 
ATOM     73  C   UNL     1      12.724  -8.371   4.678  1.00  0.00     0.040 A 
ATOM     74  F   UNL     1      13.278  -6.183   4.044  1.00  0.00    -0.206 F 
ATOM     75  C   UNL     1      12.193  -9.623   4.374  1.00  0.00     0.006 A 
ENDBRANCH  54  68
BRANCH  55  76
ATOM     76  C   UNL     1      12.314  -0.138  -4.373  1.00  0.00     0.057 A 
ATOM     77  C   UNL     1      12.806  -0.313  -5.671  1.00  0.00     0.134 A 
ATOM     78  C   UNL     1      11.817   1.128  -4.038  1.00  0.00     0.134 A 
ATOM     79  F   UNL     1      13.303  -1.500  -6.050  1.00  0.00    -0.206 F 
ATOM     80  C   UNL     1      12.825   0.734  -6.595  1.00  0.00     0.040 A 
ATOM     81  C   UNL     1      11.806   2.177  -4.959  1.00  0.00     0.040 A 
ATOM     82  F   UNL     1      11.317   1.358  -2.815  1.00  0.00    -0.206 F 
ATOM     83  C   UNL     1      12.319   1.983  -6.240  1.00  0.00     0.006 A 
ENDBRANCH  55  76
BRANCH  67  84
ATOM     84  C   UNL     1      17.319  -3.788  -1.173  1.00  0.00     0.057 A 
ATOM     85  C   UNL     1      18.060  -2.727  -0.639  1.00  0.00     0.134 A 
ATOM     86  C   UNL     1      18.026  -4.841  -1.769  1.00  0.00     0.134 A 
ATOM     87  F   UNL     1      17.440  -1.685  -0.065  1.00  0.00    -0.206 F 
ATOM     88  C   UNL     1      19.452  -2.702  -0.720  1.00  0.00     0.040 A 
ATOM     89  C   UNL     1      19.418  -4.843  -1.825  1.00  0.00     0.040 A 
ATOM     90  F   UNL     1      17.374  -5.893  -2.286  1.00  0.00    -0.206 F 
ATOM     91  C   UNL     1      20.135  -3.766  -1.307  1.00  0.00     0.006 A 
ENDBRANCH  67  84
ENDBRANCH  41  42
ENDBRANCH  34  36
ENDBRANCH  33  34
ENDBRANCH  32  33
ENDBRANCH  31  32
ENDBRANCH  30  31
ENDBRANCH   1  30
TORSDOF 20
