REMARK SMILES O=C(OCCOCCOC(=O)c1ccc(Cl)cc1NC(=O)c1cc(Cl)nnc1Cl)c1ccc(-c2c3nc(c(-c4c(F)cccc4F)c4ccc([nH]4)c(-c4c(F)cccc4F)c4nc(c(-c5c(F)cccc5F)c5ccc2[nH]5)C=C4)C=C3)cc1
REMARK SMILES IDX 6 1 5 2 4 3 3 4 2 5 1 6 30 7 31 8 83 9 32 10 82 11 33 12
REMARK SMILES IDX 34 13 35 14 76 15 36 16 81 17 75 18 77 19 37 20 80 21 74 22
REMARK SMILES IDX 73 23 38 25 64 26 47 27 63 28 48 29 51 30 62 31 78 32 49 33
REMARK SMILES IDX 50 34 61 36 79 37 52 38 39 39 40 40 45 41 41 42 42 43 44 44
REMARK SMILES IDX 46 45 43 46 65 47 66 48 71 49 67 50 68 51 70 52 72 53 69 54
REMARK SMILES IDX 53 55 54 56 59 57 55 58 56 59 58 60 60 61 57 62 7 63 8 64
REMARK SMILES IDX 9 65 10 66 11 67 12 68 13 69 18 70 14 71 17 72 15 73 16 74
REMARK SMILES IDX 19 75 20 76 21 78 22 79 23 80 28 81 24 82 27 83 29 84 25 85
REMARK SMILES IDX 26 86
REMARK H PARENT 77 24 51 35 19 77
REMARK Flexibility Score: inf
ROOT
ATOM      1  O   UNL     1       3.769   0.571  -1.166  1.00  0.00    -0.374 OA
ENDROOT
BRANCH   1   2
ATOM      2  C   UNL     1       4.122  -0.806  -1.093  1.00  0.00     0.202 C 
BRANCH   2   3
ATOM      3  C   UNL     1       4.044  -1.367   0.325  1.00  0.00     0.261 C 
BRANCH   3   4
ATOM      4  O   UNL     1       2.729  -1.207   0.871  1.00  0.00    -0.460 OA
BRANCH   4   5
ATOM      5  C   UNL     1       2.222  -0.188   1.601  1.00  0.00     0.338 C 
ATOM      6  O   UNL     1       1.090  -0.339   2.064  1.00  0.00    -0.246 OA
BRANCH   5   7
ATOM      7  C   UNL     1       2.903   1.128   1.869  1.00  0.00     0.060 A 
ATOM      8  C   UNL     1       4.146   1.541   1.386  1.00  0.00     0.016 A 
ATOM      9  C   UNL     1       2.187   2.050   2.663  1.00  0.00     0.016 A 
ATOM     10  C   UNL     1       4.638   2.820   1.622  1.00  0.00     0.010 A 
ATOM     11  C   UNL     1       2.699   3.317   2.963  1.00  0.00     0.010 A 
ATOM     12  C   UNL     1       3.938   3.694   2.446  1.00  0.00    -0.014 A 
BRANCH  12  13
ATOM     13  C   UNL     1       4.671   4.874   2.929  1.00  0.00     0.031 A 
ATOM     14  C   UNL     1       5.694   4.644   4.001  1.00  0.00     0.074 A 
ATOM     15  C   UNL     1       4.549   6.058   2.310  1.00  0.00     0.049 A 
ATOM     16  N   UNL     1       6.609   5.451   4.464  1.00  0.00    -0.248 NA
ATOM     17  C   UNL     1       5.725   3.291   4.588  1.00  0.00     0.031 C 
ATOM     18  C   UNL     1       3.676   6.333   1.171  1.00  0.00     0.029 A 
ATOM     19  N   UNL     1       5.198   7.240   2.536  1.00  0.00    -0.354 N 
ATOM     20  C   UNL     1       7.360   4.687   5.348  1.00  0.00     0.074 A 
ATOM     21  C   UNL     1       6.781   3.364   5.380  1.00  0.00     0.031 C 
ATOM     22  C   UNL     1       3.847   7.613   0.793  1.00  0.00     0.029 A 
ATOM     23  C   UNL     1       4.823   8.243   1.678  1.00  0.00     0.049 A 
ATOM     24  H   UNL     1       5.869   7.361   3.246  1.00  0.00     0.167 HD
ATOM     25  C   UNL     1       8.437   5.062   6.075  1.00  0.00     0.037 A 
ATOM     26  C   UNL     1       5.230   9.525   1.635  1.00  0.00     0.037 A 
ATOM     27  C   UNL     1       8.917   6.413   6.128  1.00  0.00     0.049 A 
ATOM     28  C   UNL     1       6.270   9.975   2.627  1.00  0.00     0.074 A 
ATOM     29  C   UNL     1       9.905   6.955   6.926  1.00  0.00     0.029 A 
ATOM     30  N   UNL     1       8.399   7.451   5.363  1.00  0.00    -0.354 N 
ATOM     31  N   UNL     1       6.962   9.262   3.485  1.00  0.00    -0.248 NA
ATOM     32  C   UNL     1       6.577  11.411   2.651  1.00  0.00     0.031 C 
ATOM     33  C   UNL     1       9.943   8.335   6.685  1.00  0.00     0.029 A 
ATOM     34  C   UNL     1       9.019   8.640   5.696  1.00  0.00     0.049 A 
ATOM     35  H   UNL     1       7.693   7.353   4.683  1.00  0.00     0.167 HD
ATOM     36  C   UNL     1       7.808  10.154   4.130  1.00  0.00     0.074 A 
ATOM     37  C   UNL     1       7.545  11.460   3.556  1.00  0.00     0.031 C 
ATOM     38  C   UNL     1       8.725   9.922   5.103  1.00  0.00     0.037 A 
BRANCH  25  39
ATOM     39  C   UNL     1       9.063   3.998   6.923  1.00  0.00     0.057 A 
ATOM     40  C   UNL     1       8.828   3.954   8.301  1.00  0.00     0.134 A 
ATOM     41  C   UNL     1       9.813   2.955   6.360  1.00  0.00     0.134 A 
ATOM     42  F   UNL     1       8.102   4.912   8.898  1.00  0.00    -0.206 F 
ATOM     43  C   UNL     1       9.303   2.904   9.089  1.00  0.00     0.040 A 
ATOM     44  C   UNL     1      10.277   1.889   7.135  1.00  0.00     0.040 A 
ATOM     45  F   UNL     1      10.042   2.918   5.038  1.00  0.00    -0.206 F 
ATOM     46  C   UNL     1      10.019   1.862   8.504  1.00  0.00     0.006 A 
ENDBRANCH  25  39
BRANCH  26  47
ATOM     47  C   UNL     1       4.649  10.473   0.651  1.00  0.00     0.057 A 
ATOM     48  C   UNL     1       3.307  10.868   0.725  1.00  0.00     0.134 A 
ATOM     49  C   UNL     1       5.429  11.037  -0.363  1.00  0.00     0.134 A 
ATOM     50  F   UNL     1       2.505  10.370   1.678  1.00  0.00    -0.206 F 
ATOM     51  C   UNL     1       2.761  11.784  -0.176  1.00  0.00     0.040 A 
ATOM     52  C   UNL     1       4.902  11.971  -1.259  1.00  0.00     0.040 A 
ATOM     53  F   UNL     1       6.727  10.719  -0.474  1.00  0.00    -0.206 F 
ATOM     54  C   UNL     1       3.562  12.344  -1.168  1.00  0.00     0.006 A 
ENDBRANCH  26  47
BRANCH  38  55
ATOM     55  C   UNL     1       9.523  11.101   5.573  1.00  0.00     0.057 A 
ATOM     56  C   UNL     1      10.878  11.215   5.241  1.00  0.00     0.134 A 
ATOM     57  C   UNL     1       8.961  12.105   6.370  1.00  0.00     0.134 A 
ATOM     58  F   UNL     1      11.477  10.280   4.488  1.00  0.00    -0.206 F 
ATOM     59  C   UNL     1      11.648  12.289   5.685  1.00  0.00     0.040 A 
ATOM     60  C   UNL     1       9.714  13.199   6.797  1.00  0.00     0.040 A 
ATOM     61  F   UNL     1       7.664  12.059   6.710  1.00  0.00    -0.206 F 
ATOM     62  C   UNL     1      11.064  13.290   6.459  1.00  0.00     0.006 A 
ENDBRANCH  38  55
ENDBRANCH  12  13
ENDBRANCH   5   7
ENDBRANCH   4   5
ENDBRANCH   3   4
ENDBRANCH   2   3
ENDBRANCH   1   2
BRANCH   1  63
ATOM     63  C   UNL     1       2.584   0.877  -1.894  1.00  0.00     0.202 C 
BRANCH  63  64
ATOM     64  C   UNL     1       2.940   1.422  -3.278  1.00  0.00     0.261 C 
BRANCH  64  65
ATOM     65  O   UNL     1       3.475   0.372  -4.104  1.00  0.00    -0.460 OA
BRANCH  65  66
ATOM     66  C   UNL     1       4.822   0.219  -4.108  1.00  0.00     0.340 C 
ATOM     67  O   UNL     1       5.655   0.919  -3.557  1.00  0.00    -0.246 OA
BRANCH  66  68
ATOM     68  C   UNL     1       5.128  -1.101  -4.714  1.00  0.00     0.083 A 
ATOM     69  C   UNL     1       4.358  -1.520  -5.813  1.00  0.00     0.019 A 
ATOM     70  C   UNL     1       6.094  -1.960  -4.135  1.00  0.00     0.057 A 
ATOM     71  C   UNL     1       4.491  -2.812  -6.308  1.00  0.00     0.021 A 
ATOM     72  C   UNL     1       6.154  -3.276  -4.605  1.00  0.00     0.047 A 
ATOM     73  C   UNL     1       5.368  -3.690  -5.685  1.00  0.00     0.043 A 
ATOM     74  Cl  UNL     1       5.477  -5.317  -6.234  1.00  0.00    -0.084 Cl
BRANCH  70  75
ATOM     75  N   UNL     1       6.895  -1.492  -3.062  1.00  0.00    -0.321 N 
ATOM     76  C   UNL     1       7.917  -2.057  -2.336  1.00  0.00     0.258 C 
ATOM     77  H   UNL     1       6.674  -0.575  -2.779  1.00  0.00     0.170 HD
ATOM     78  O   UNL     1       8.180  -1.650  -1.206  1.00  0.00    -0.269 OA
BRANCH  76  79
ATOM     79  C   UNL     1       8.746  -3.136  -2.871  1.00  0.00     0.082 A 
ATOM     80  C   UNL     1       8.851  -4.323  -2.142  1.00  0.00     0.060 A 
ATOM     81  C   UNL     1       9.467  -2.993  -4.043  1.00  0.00     0.164 A 
ATOM     82  C   UNL     1       9.624  -5.328  -2.679  1.00  0.00     0.152 A 
ATOM     83  N   UNL     1      10.205  -4.007  -4.538  1.00  0.00    -0.136 NA
ATOM     84  Cl  UNL     1       9.538  -1.562  -4.984  1.00  0.00    -0.059 Cl
ATOM     85  Cl  UNL     1       9.793  -6.844  -1.908  1.00  0.00    -0.060 Cl
ATOM     86  N   UNL     1      10.273  -5.196  -3.853  1.00  0.00    -0.137 NA
ENDBRANCH  76  79
ENDBRANCH  70  75
ENDBRANCH  66  68
ENDBRANCH  65  66
ENDBRANCH  64  65
ENDBRANCH  63  64
ENDBRANCH   1  63
TORSDOF 16
