REMARK SMILES Cc1c(/C=C/C(=O)OCCOCCOC(=O)c2ccc(-c3c4nc(c(-c5c(F)cccc5F)c5ccc([nH]5)c(-c5c(F)cccc5F)c5nc(c(-c6c(F)cccc6F)c6ccc3[nH]6)C=C5)C=C4)cc2)cccc1C(=O)N1C[C@@H](C)[C@@H](C)C1
REMARK SMILES IDX 10 1 9 2 8 3 6 4 7 5 5 6 4 7 3 8 1 9 2 10 74 11 71 12 73 13
REMARK SMILES IDX 72 14 75 15 76 16 77 17 78 18 83 19 79 20 81 21 80 22 82 23
REMARK SMILES IDX 11 24 12 25 13 26 14 27 15 28 16 29 17 30 18 31 70 32 19 33
REMARK SMILES IDX 69 34 20 35 21 36 22 37 63 38 23 39 68 40 62 41 64 42 24 43
REMARK SMILES IDX 67 44 61 45 60 46 25 48 51 49 34 50 50 51 35 52 38 53 49 54
REMARK SMILES IDX 65 55 36 56 37 57 48 59 66 60 39 61 26 62 27 63 32 64 28 65
REMARK SMILES IDX 29 66 31 67 33 68 30 69 52 70 53 71 58 72 54 73 55 74 57 75
REMARK SMILES IDX 59 76 56 77 40 78 41 79 46 80 42 81 43 82 45 83 47 84 44 85
REMARK H PARENT 64 47 38 58
REMARK Flexibility Score: inf
ROOT
ATOM      1  C   UNL     1       2.080  -4.864   2.400  1.00  0.00     0.202 C 
ENDROOT
BRANCH   1   2
ATOM      2  C   UNL     1       2.508  -4.777   0.969  1.00  0.00     0.261 C 
BRANCH   2   3
ATOM      3  O   UNL     1       1.583  -3.997   0.204  1.00  0.00    -0.460 OA
BRANCH   3   4
ATOM      4  C   UNL     1       0.321  -4.411  -0.128  1.00  0.00     0.330 C 
ATOM      5  O   UNL     1      -0.117  -5.531  -0.184  1.00  0.00    -0.247 OA
BRANCH   4   6
ATOM      6  C   UNL     1      -0.512  -3.183  -0.280  1.00  0.00     0.094 C 
ATOM      7  C   UNL     1       0.141  -2.014  -0.324  1.00  0.00     0.016 C 
BRANCH   7   8
ATOM      8  C   UNL     1      -0.300  -0.632  -0.152  1.00  0.00    -0.022 A 
ATOM      9  C   UNL     1       2.078  -0.084   0.543  1.00  0.00     0.046 C 
ATOM     10  C   UNL     1       0.694   0.362   0.110  1.00  0.00    -0.031 A 
ATOM     11  C   UNL     1       0.327   1.718   0.026  1.00  0.00     0.043 A 
ATOM     12  C   UNL     1      -1.649  -0.287  -0.247  1.00  0.00     0.008 A 
ATOM     13  C   UNL     1      -1.040   2.037  -0.112  1.00  0.00     0.014 A 
ATOM     14  C   UNL     1      -2.021   1.048  -0.200  1.00  0.00     0.001 A 
BRANCH  11  15
ATOM     15  C   UNL     1       1.243   2.882   0.248  1.00  0.00     0.254 C 
ATOM     16  O   UNL     1       0.759   3.922   0.697  1.00  0.00    -0.269 OA
BRANCH  15  17
ATOM     17  N   UNL     1       2.609   2.754   0.058  1.00  0.00    -0.338 N 
ATOM     18  C   UNL     1       3.502   3.447   0.961  1.00  0.00     0.123 C 
ATOM     19  C   UNL     1       3.267   2.444  -1.209  1.00  0.00     0.123 C 
ATOM     20  C   UNL     1       4.659   3.921   0.097  1.00  0.00     0.010 C 
ATOM     21  C   UNL     1       4.743   2.854  -1.014  1.00  0.00     0.010 C 
ATOM     22  C   UNL     1       5.907   4.155   0.935  1.00  0.00     0.010 C 
ATOM     23  C   UNL     1       5.644   1.662  -0.691  1.00  0.00     0.010 C 
ENDBRANCH  15  17
ENDBRANCH  11  15
ENDBRANCH   7   8
ENDBRANCH   4   6
ENDBRANCH   3   4
ENDBRANCH   2   3
ENDBRANCH   1   2
BRANCH   1  24
ATOM     24  O   UNL     1       0.957  -5.726   2.404  1.00  0.00    -0.374 OA
BRANCH  24  25
ATOM     25  C   UNL     1       0.371  -5.959   3.667  1.00  0.00     0.202 C 
BRANCH  25  26
ATOM     26  C   UNL     1       1.334  -6.654   4.639  1.00  0.00     0.261 C 
BRANCH  26  27
ATOM     27  O   UNL     1       1.760  -7.918   4.081  1.00  0.00    -0.460 OA
BRANCH  27  28
ATOM     28  C   UNL     1       3.007  -7.950   3.530  1.00  0.00     0.338 C 
ATOM     29  O   UNL     1       4.019  -7.499   4.042  1.00  0.00    -0.246 OA
BRANCH  28  30
ATOM     30  C   UNL     1       2.916  -8.335   2.088  1.00  0.00     0.060 A 
ATOM     31  C   UNL     1       4.028  -8.175   1.236  1.00  0.00     0.016 A 
ATOM     32  C   UNL     1       1.649  -8.500   1.540  1.00  0.00     0.016 A 
ATOM     33  C   UNL     1       3.846  -8.018  -0.151  1.00  0.00     0.010 A 
ATOM     34  C   UNL     1       1.469  -8.222   0.201  1.00  0.00     0.010 A 
ATOM     35  C   UNL     1       2.549  -7.957  -0.658  1.00  0.00    -0.014 A 
BRANCH  35  36
ATOM     36  C   UNL     1       2.151  -7.514  -2.002  1.00  0.00     0.031 A 
ATOM     37  C   UNL     1       1.364  -8.435  -2.856  1.00  0.00     0.074 A 
ATOM     38  C   UNL     1       2.193  -6.208  -2.370  1.00  0.00     0.049 A 
ATOM     39  N   UNL     1       1.206  -8.266  -4.126  1.00  0.00    -0.248 NA
ATOM     40  C   UNL     1       0.686  -9.628  -2.353  1.00  0.00     0.031 C 
ATOM     41  C   UNL     1       1.317  -5.534  -3.334  1.00  0.00     0.029 A 
ATOM     42  N   UNL     1       3.024  -5.170  -1.933  1.00  0.00    -0.354 N 
ATOM     43  C   UNL     1       0.155  -9.064  -4.507  1.00  0.00     0.074 A 
ATOM     44  C   UNL     1      -0.066  -9.964  -3.402  1.00  0.00     0.031 C 
ATOM     45  C   UNL     1       1.797  -4.309  -3.599  1.00  0.00     0.029 A 
ATOM     46  C   UNL     1       3.086  -4.197  -2.949  1.00  0.00     0.049 A 
ATOM     47  H   UNL     1       3.486  -5.128  -1.065  1.00  0.00     0.167 HD
ATOM     48  C   UNL     1      -0.543  -8.774  -5.641  1.00  0.00     0.037 A 
ATOM     49  C   UNL     1       4.275  -3.815  -3.488  1.00  0.00     0.037 A 
ATOM     50  C   UNL     1      -0.088  -7.521  -6.255  1.00  0.00     0.049 A 
ATOM     51  C   UNL     1       4.340  -4.181  -4.947  1.00  0.00     0.074 A 
ATOM     52  C   UNL     1      -0.602  -6.234  -6.313  1.00  0.00     0.029 A 
ATOM     53  N   UNL     1       1.232  -7.400  -6.659  1.00  0.00    -0.354 N 
ATOM     54  N   UNL     1       3.326  -4.685  -5.591  1.00  0.00    -0.248 NA
ATOM     55  C   UNL     1       5.537  -4.113  -5.777  1.00  0.00     0.031 C 
ATOM     56  C   UNL     1       0.407  -5.365  -6.823  1.00  0.00     0.029 A 
ATOM     57  C   UNL     1       1.536  -6.120  -7.084  1.00  0.00     0.049 A 
ATOM     58  H   UNL     1       1.879  -8.142  -6.646  1.00  0.00     0.167 HD
ATOM     59  C   UNL     1       3.719  -5.134  -6.812  1.00  0.00     0.074 A 
ATOM     60  C   UNL     1       5.114  -4.728  -6.898  1.00  0.00     0.031 C 
ATOM     61  C   UNL     1       2.869  -5.846  -7.612  1.00  0.00     0.037 A 
BRANCH  48  62
ATOM     62  C   UNL     1      -1.818  -9.497  -6.007  1.00  0.00     0.057 A 
ATOM     63  C   UNL     1      -2.847  -8.859  -6.720  1.00  0.00     0.134 A 
ATOM     64  C   UNL     1      -2.090 -10.839  -5.675  1.00  0.00     0.134 A 
ATOM     65  F   UNL     1      -2.701  -7.627  -7.220  1.00  0.00    -0.206 F 
ATOM     66  C   UNL     1      -4.089  -9.459  -6.966  1.00  0.00     0.040 A 
ATOM     67  C   UNL     1      -3.347 -11.433  -5.859  1.00  0.00     0.040 A 
ATOM     68  F   UNL     1      -1.134 -11.650  -5.197  1.00  0.00    -0.206 F 
ATOM     69  C   UNL     1      -4.359 -10.736  -6.497  1.00  0.00     0.006 A 
ENDBRANCH  48  62
BRANCH  49  70
ATOM     70  C   UNL     1       5.369  -3.866  -2.474  1.00  0.00     0.057 A 
ATOM     71  C   UNL     1       5.359  -2.896  -1.450  1.00  0.00     0.134 A 
ATOM     72  C   UNL     1       6.031  -5.069  -2.199  1.00  0.00     0.134 A 
ATOM     73  F   UNL     1       4.724  -1.726  -1.633  1.00  0.00    -0.206 F 
ATOM     74  C   UNL     1       5.861  -3.164  -0.171  1.00  0.00     0.040 A 
ATOM     75  C   UNL     1       6.519  -5.353  -0.916  1.00  0.00     0.040 A 
ATOM     76  F   UNL     1       6.069  -6.046  -3.116  1.00  0.00    -0.206 F 
ATOM     77  C   UNL     1       6.399  -4.416   0.111  1.00  0.00     0.006 A 
ENDBRANCH  49  70
BRANCH  61  78
ATOM     78  C   UNL     1       3.258  -6.379  -8.960  1.00  0.00     0.057 A 
ATOM     79  C   UNL     1       4.064  -5.660  -9.849  1.00  0.00     0.134 A 
ATOM     80  C   UNL     1       2.763  -7.606  -9.451  1.00  0.00     0.134 A 
ATOM     81  F   UNL     1       4.472  -4.414  -9.565  1.00  0.00    -0.206 F 
ATOM     82  C   UNL     1       4.459  -6.181 -11.085  1.00  0.00     0.040 A 
ATOM     83  C   UNL     1       3.102  -8.111 -10.705  1.00  0.00     0.040 A 
ATOM     84  F   UNL     1       1.943  -8.388  -8.739  1.00  0.00    -0.206 F 
ATOM     85  C   UNL     1       3.982  -7.414 -11.514  1.00  0.00     0.006 A 
ENDBRANCH  61  78
ENDBRANCH  35  36
ENDBRANCH  28  30
ENDBRANCH  27  28
ENDBRANCH  26  27
ENDBRANCH  25  26
ENDBRANCH  24  25
ENDBRANCH   1  24
TORSDOF 17
