REMARK SMILES O=C(OCCOCCOC(=O)c1ccc2c(c1O)C(=O)c1ccccc1C2=O)c1ccc(-c2c3nc(c(-c4c(F)cccc4F)c4ccc([nH]4)c(-c4c(F)cccc4F)c4nc(c(-c5c(F)cccc5F)c5ccc2[nH]5)C=C4)C=C3)cc1
REMARK SMILES IDX 5 1 4 2 3 3 2 4 1 5 29 6 30 7 82 8 31 9 81 10 32 11 33 12
REMARK SMILES IDX 34 13 75 14 35 15 80 16 74 17 76 18 36 19 79 20 73 21 72 22
REMARK SMILES IDX 37 24 63 25 46 26 62 27 47 28 50 29 61 30 77 31 48 32 49 33
REMARK SMILES IDX 60 35 78 36 51 37 38 38 39 39 44 40 40 41 41 42 43 43 45 44
REMARK SMILES IDX 42 45 64 46 65 47 70 48 66 49 67 50 69 51 71 52 68 53 52 54
REMARK SMILES IDX 53 55 58 56 54 57 55 58 57 59 59 60 56 61 6 62 7 63 8 64
REMARK SMILES IDX 9 65 10 66 11 67 12 68 13 69 17 70 14 71 16 72 15 73 19 74
REMARK SMILES IDX 27 75 20 76 21 77 26 78 28 79 22 80 25 81 23 82 24 83 18 84
REMARK H PARENT 76 23 50 34 18 85
REMARK Flexibility Score: inf
ROOT
ATOM      1  C   UNL     1       4.357   0.321   1.505  1.00  0.00     0.202 C 
ENDROOT
BRANCH   1   2
ATOM      2  C   UNL     1       4.093   1.295   0.355  1.00  0.00     0.261 C 
BRANCH   2   3
ATOM      3  O   UNL     1       2.715   1.232  -0.040  1.00  0.00    -0.460 OA
BRANCH   3   4
ATOM      4  C   UNL     1       2.194   0.615  -1.124  1.00  0.00     0.338 C 
ATOM      5  O   UNL     1       0.982   0.679  -1.317  1.00  0.00    -0.246 OA
BRANCH   4   6
ATOM      6  C   UNL     1       3.011  -0.166  -2.100  1.00  0.00     0.060 A 
ATOM      7  C   UNL     1       4.163  -0.886  -1.774  1.00  0.00     0.016 A 
ATOM      8  C   UNL     1       2.503  -0.290  -3.402  1.00  0.00     0.016 A 
ATOM      9  C   UNL     1       4.798  -1.703  -2.688  1.00  0.00     0.010 A 
ATOM     10  C   UNL     1       3.120  -1.132  -4.329  1.00  0.00     0.010 A 
ATOM     11  C   UNL     1       4.262  -1.850  -3.958  1.00  0.00    -0.014 A 
BRANCH  11  12
ATOM     12  C   UNL     1       4.973  -2.734  -4.886  1.00  0.00     0.031 A 
ATOM     13  C   UNL     1       5.835  -2.109  -5.928  1.00  0.00     0.074 A 
ATOM     14  C   UNL     1       4.919  -4.063  -4.690  1.00  0.00     0.049 A 
ATOM     15  N   UNL     1       6.474  -2.672  -6.912  1.00  0.00    -0.248 NA
ATOM     16  C   UNL     1       6.015  -0.648  -5.841  1.00  0.00     0.031 C 
ATOM     17  C   UNL     1       4.210  -4.726  -3.590  1.00  0.00     0.029 A 
ATOM     18  N   UNL     1       5.478  -5.093  -5.393  1.00  0.00    -0.354 N 
ATOM     19  C   UNL     1       7.091  -1.634  -7.593  1.00  0.00     0.074 A 
ATOM     20  C   UNL     1       6.773  -0.407  -6.900  1.00  0.00     0.031 C 
ATOM     21  C   UNL     1       4.372  -6.054  -3.700  1.00  0.00     0.029 A 
ATOM     22  C   UNL     1       5.121  -6.333  -4.918  1.00  0.00     0.049 A 
ATOM     23  H   UNL     1       6.076  -4.961  -6.163  1.00  0.00     0.167 HD
ATOM     24  C   UNL     1       7.834  -1.720  -8.717  1.00  0.00     0.037 A 
ATOM     25  C   UNL     1       5.327  -7.546  -5.460  1.00  0.00     0.037 A 
ATOM     26  C   UNL     1       8.128  -2.970  -9.361  1.00  0.00     0.049 A 
ATOM     27  C   UNL     1       6.068  -7.600  -6.769  1.00  0.00     0.074 A 
ATOM     28  C   UNL     1       8.849  -3.199 -10.515  1.00  0.00     0.029 A 
ATOM     29  N   UNL     1       7.698  -4.207  -8.896  1.00  0.00    -0.354 N 
ATOM     30  N   UNL     1       6.621  -6.617  -7.444  1.00  0.00    -0.248 NA
ATOM     31  C   UNL     1       6.193  -8.914  -7.409  1.00  0.00     0.031 C 
ATOM     32  C   UNL     1       8.802  -4.570 -10.783  1.00  0.00     0.029 A 
ATOM     33  C   UNL     1       8.102  -5.202  -9.764  1.00  0.00     0.049 A 
ATOM     34  H   UNL     1       7.183  -4.353  -8.070  1.00  0.00     0.167 HD
ATOM     35  C   UNL     1       7.167  -7.194  -8.580  1.00  0.00     0.074 A 
ATOM     36  C   UNL     1       6.902  -8.617  -8.489  1.00  0.00     0.031 C 
ATOM     37  C   UNL     1       7.818  -6.608  -9.616  1.00  0.00     0.037 A 
BRANCH  24  38
ATOM     38  C   UNL     1       8.278  -0.439  -9.352  1.00  0.00     0.057 A 
ATOM     39  C   UNL     1       9.284   0.367  -8.806  1.00  0.00     0.134 A 
ATOM     40  C   UNL     1       7.670  -0.002 -10.536  1.00  0.00     0.134 A 
ATOM     41  F   UNL     1       9.883   0.023  -7.656  1.00  0.00    -0.206 F 
ATOM     42  C   UNL     1       9.661   1.569  -9.410  1.00  0.00     0.040 A 
ATOM     43  C   UNL     1       8.053   1.185 -11.161  1.00  0.00     0.040 A 
ATOM     44  F   UNL     1       6.688  -0.721 -11.102  1.00  0.00    -0.206 F 
ATOM     45  C   UNL     1       9.049   1.977 -10.595  1.00  0.00     0.006 A 
ENDBRANCH  24  38
BRANCH  25  46
ATOM     46  C   UNL     1       4.745  -8.769  -4.844  1.00  0.00     0.057 A 
ATOM     47  C   UNL     1       5.552  -9.818  -4.389  1.00  0.00     0.134 A 
ATOM     48  C   UNL     1       3.357  -8.940  -4.736  1.00  0.00     0.134 A 
ATOM     49  F   UNL     1       6.887  -9.730  -4.479  1.00  0.00    -0.206 F 
ATOM     50  C   UNL     1       5.003 -10.998  -3.881  1.00  0.00     0.040 A 
ATOM     51  C   UNL     1       2.796 -10.100  -4.199  1.00  0.00     0.040 A 
ATOM     52  F   UNL     1       2.519  -7.977  -5.150  1.00  0.00    -0.206 F 
ATOM     53  C   UNL     1       3.621 -11.140  -3.782  1.00  0.00     0.006 A 
ENDBRANCH  25  46
BRANCH  37  54
ATOM     54  C   UNL     1       8.299  -7.512 -10.708  1.00  0.00     0.057 A 
ATOM     55  C   UNL     1       7.414  -8.073 -11.636  1.00  0.00     0.134 A 
ATOM     56  C   UNL     1       9.667  -7.753 -10.878  1.00  0.00     0.134 A 
ATOM     57  F   UNL     1       6.091  -7.889 -11.513  1.00  0.00    -0.206 F 
ATOM     58  C   UNL     1       7.876  -8.854 -12.695  1.00  0.00     0.040 A 
ATOM     59  C   UNL     1      10.143  -8.505 -11.950  1.00  0.00     0.040 A 
ATOM     60  F   UNL     1      10.562  -7.231 -10.025  1.00  0.00    -0.206 F 
ATOM     61  C   UNL     1       9.245  -9.059 -12.861  1.00  0.00     0.006 A 
ENDBRANCH  37  54
ENDBRANCH  11  12
ENDBRANCH   4   6
ENDBRANCH   3   4
ENDBRANCH   2   3
ENDBRANCH   1   2
BRANCH   1  62
ATOM     62  O   UNL     1       4.080  -1.045   1.207  1.00  0.00    -0.374 OA
BRANCH  62  63
ATOM     63  C   UNL     1       2.730  -1.491   1.376  1.00  0.00     0.202 C 
BRANCH  63  64
ATOM     64  C   UNL     1       2.763  -2.877   2.026  1.00  0.00     0.261 C 
BRANCH  64  65
ATOM     65  O   UNL     1       3.321  -2.722   3.340  1.00  0.00    -0.460 OA
BRANCH  65  66
ATOM     66  C   UNL     1       4.682  -2.652   3.372  1.00  0.00     0.342 C 
ATOM     67  O   UNL     1       5.464  -3.138   2.584  1.00  0.00    -0.246 OA
BRANCH  66  68
ATOM     68  C   UNL     1       5.053  -1.694   4.441  1.00  0.00     0.102 A 
ATOM     69  C   UNL     1       6.209  -0.920   4.242  1.00  0.00     0.020 A 
ATOM     70  C   UNL     1       4.302  -1.545   5.614  1.00  0.00     0.142 A 
ATOM     71  C   UNL     1       6.638  -0.029   5.225  1.00  0.00     0.014 A 
ATOM     72  C   UNL     1       4.759  -0.687   6.617  1.00  0.00     0.076 A 
ATOM     73  C   UNL     1       5.935   0.047   6.431  1.00  0.00     0.037 A 
ATOM     74  C   UNL     1       4.065  -0.589   7.919  1.00  0.00     0.198 C 
ATOM     75  C   UNL     1       6.505   0.818   7.556  1.00  0.00     0.194 C 
ATOM     76  O   UNL     1       2.862  -0.756   8.055  1.00  0.00    -0.288 OA
ATOM     77  C   UNL     1       4.894  -0.275   9.089  1.00  0.00     0.034 A 
ATOM     78  C   UNL     1       6.075   0.445   8.919  1.00  0.00     0.034 A 
ATOM     79  O   UNL     1       7.366   1.667   7.368  1.00  0.00    -0.289 OA
ATOM     80  C   UNL     1       4.510  -0.730  10.352  1.00  0.00     0.013 A 
ATOM     81  C   UNL     1       6.874   0.742  10.024  1.00  0.00     0.013 A 
ATOM     82  C   UNL     1       5.325  -0.464  11.449  1.00  0.00     0.001 A 
ATOM     83  C   UNL     1       6.499   0.277  11.287  1.00  0.00     0.001 A 
BRANCH  70  84
ATOM     84  O   UNL     1       3.167  -2.275   5.840  1.00  0.00    -0.506 OA
ATOM     85  H   UNL     1       2.845  -2.856   5.179  1.00  0.00     0.293 HD
ENDBRANCH  70  84
ENDBRANCH  66  68
ENDBRANCH  65  66
ENDBRANCH  64  65
ENDBRANCH  63  64
ENDBRANCH  62  63
ENDBRANCH   1  62
TORSDOF 15
