REMARK SMILES Cc1cc2c(c(C)c1Br)C=C(C(=O)OCCOCCOC(=O)c1ccc(-c3c4nc(c(-c5c(F)cccc5F)c5ccc([nH]5)c(-c5c(F)cccc5F)c5nc(c(-c6c(F)cccc6F)c6ccc3[nH]6)C=C5)C=C4)cc1)[C@@H](C(F)(F)F)O2
REMARK SMILES IDX 18 1 17 2 16 3 15 4 14 5 12 6 13 7 11 8 1 9 2 10 3 11 8 12
REMARK SMILES IDX 4 13 6 14 9 15 5 16 82 17 7 18 10 19 77 20 78 21 79 22 80 23
REMARK SMILES IDX 81 24 19 25 20 26 21 27 22 28 23 29 24 30 76 31 25 32 75 33
REMARK SMILES IDX 26 34 27 35 28 36 69 37 29 38 74 39 68 40 70 41 30 42 73 43
REMARK SMILES IDX 67 44 66 45 31 47 57 48 40 49 56 50 41 51 44 52 55 53 71 54
REMARK SMILES IDX 42 55 43 56 54 58 72 59 45 60 32 61 33 62 38 63 34 64 35 65
REMARK SMILES IDX 37 66 39 67 36 68 58 69 59 70 64 71 60 72 61 73 63 74 65 75
REMARK SMILES IDX 62 76 46 77 47 78 52 79 48 80 49 81 51 82 53 83 50 84
REMARK H PARENT 70 46 44 57
REMARK Flexibility Score: inf
ROOT
ATOM      1  C   UNL     1       0.565   6.847   5.763  1.00  0.00     0.202 C 
ENDROOT
BRANCH   1   2
ATOM      2  O   UNL     1      -0.241   8.019   5.902  1.00  0.00    -0.374 OA
BRANCH   2   3
ATOM      3  C   UNL     1      -1.473   7.899   6.608  1.00  0.00     0.202 C 
BRANCH   3   4
ATOM      4  C   UNL     1      -2.648   7.291   5.835  1.00  0.00     0.261 C 
BRANCH   4   5
ATOM      5  O   UNL     1      -2.327   5.988   5.324  1.00  0.00    -0.460 OA
BRANCH   5   6
ATOM      6  C   UNL     1      -2.282   5.911   3.975  1.00  0.00     0.338 C 
ATOM      7  O   UNL     1      -2.619   6.775   3.179  1.00  0.00    -0.246 OA
BRANCH   6   8
ATOM      8  C   UNL     1      -1.635   4.651   3.566  1.00  0.00     0.087 C 
ATOM      9  C   UNL     1       1.070  -0.188   0.233  1.00  0.00     0.046 C 
ATOM     10  C   UNL     1       0.723   1.134   0.866  1.00  0.00    -0.033 A 
ATOM     11  C   UNL     1      -0.104   1.132   1.998  1.00  0.00     0.051 A 
ATOM     12  C   UNL     1       1.175   2.367   0.352  1.00  0.00     0.024 A 
ATOM     13  C   UNL     1      -0.532   2.326   2.574  1.00  0.00     0.128 A 
ATOM     14  C   UNL     1       0.774   3.590   0.942  1.00  0.00    -0.026 A 
ATOM     15  Br  UNL     1       2.317   2.349  -1.185  1.00  0.00    -0.050 Br
ATOM     16  C   UNL     1      -0.130   3.552   2.035  1.00  0.00     0.021 A 
ATOM     17  O   UNL     1      -1.346   2.187   3.664  1.00  0.00    -0.475 OA
ATOM     18  C   UNL     1       1.265   4.931   0.441  1.00  0.00     0.046 C 
ATOM     19  C   UNL     1      -0.726   4.763   2.590  1.00  0.00     0.027 C 
ATOM     20  C   UNL     1      -2.021   3.353   4.205  1.00  0.00     0.316 C 
BRANCH  20  21
ATOM     21  C   UNL     1      -3.535   3.096   4.164  1.00  0.00     0.430 C 
ATOM     22  F   UNL     1      -3.843   1.896   4.714  1.00  0.00    -0.167 F 
ATOM     23  F   UNL     1      -4.223   4.027   4.865  1.00  0.00    -0.167 F 
ATOM     24  F   UNL     1      -4.018   3.100   2.902  1.00  0.00    -0.167 F 
ENDBRANCH  20  21
ENDBRANCH   6   8
ENDBRANCH   5   6
ENDBRANCH   4   5
ENDBRANCH   3   4
ENDBRANCH   2   3
ENDBRANCH   1   2
BRANCH   1  25
ATOM     25  C   UNL     1       1.277   6.336   7.021  1.00  0.00     0.261 C 
BRANCH  25  26
ATOM     26  O   UNL     1       0.349   5.790   7.979  1.00  0.00    -0.460 OA
BRANCH  26  27
ATOM     27  C   UNL     1       0.316   6.433   9.170  1.00  0.00     0.338 C 
ATOM     28  O   UNL     1       1.028   7.359   9.537  1.00  0.00    -0.246 OA
BRANCH  27  29
ATOM     29  C   UNL     1      -0.853   5.990   9.947  1.00  0.00     0.060 A 
ATOM     30  C   UNL     1      -1.797   6.958  10.312  1.00  0.00     0.016 A 
ATOM     31  C   UNL     1      -0.977   4.671  10.389  1.00  0.00     0.016 A 
ATOM     32  C   UNL     1      -2.849   6.620  11.158  1.00  0.00     0.010 A 
ATOM     33  C   UNL     1      -2.026   4.337  11.251  1.00  0.00     0.010 A 
ATOM     34  C   UNL     1      -2.946   5.317  11.666  1.00  0.00    -0.014 A 
BRANCH  34  35
ATOM     35  C   UNL     1      -3.920   5.033  12.746  1.00  0.00     0.031 A 
ATOM     36  C   UNL     1      -3.453   5.067  14.175  1.00  0.00     0.074 A 
ATOM     37  C   UNL     1      -5.214   4.805  12.462  1.00  0.00     0.049 A 
ATOM     38  N   UNL     1      -4.132   4.862  15.274  1.00  0.00    -0.248 NA
ATOM     39  C   UNL     1      -2.031   5.379  14.395  1.00  0.00     0.031 C 
ATOM     40  C   UNL     1      -5.795   4.798  11.121  1.00  0.00     0.029 A 
ATOM     41  N   UNL     1      -6.274   4.543  13.292  1.00  0.00    -0.354 N 
ATOM     42  C   UNL     1      -3.227   5.031  16.313  1.00  0.00     0.074 A 
ATOM     43  C   UNL     1      -1.941   5.317  15.715  1.00  0.00     0.031 C 
ATOM     44  C   UNL     1      -7.112   4.548  11.220  1.00  0.00     0.029 A 
ATOM     45  C   UNL     1      -7.459   4.350  12.626  1.00  0.00     0.049 A 
ATOM     46  H   UNL     1      -6.194   4.498  14.272  1.00  0.00     0.167 HD
ATOM     47  C   UNL     1      -3.451   4.968  17.646  1.00  0.00     0.037 A 
ATOM     48  C   UNL     1      -8.682   4.039  13.099  1.00  0.00     0.037 A 
ATOM     49  C   UNL     1      -4.728   4.680  18.241  1.00  0.00     0.049 A 
ATOM     50  C   UNL     1      -8.884   3.879  14.582  1.00  0.00     0.074 A 
ATOM     51  C   UNL     1      -5.053   4.597  19.583  1.00  0.00     0.029 A 
ATOM     52  N   UNL     1      -5.889   4.422  17.529  1.00  0.00    -0.354 N 
ATOM     53  N   UNL     1      -8.024   4.050  15.556  1.00  0.00    -0.248 NA
ATOM     54  C   UNL     1     -10.226   3.478  15.031  1.00  0.00     0.031 C 
ATOM     55  C   UNL     1      -6.403   4.245  19.684  1.00  0.00     0.029 A 
ATOM     56  C   UNL     1      -6.928   4.154  18.405  1.00  0.00     0.049 A 
ATOM     57  H   UNL     1      -5.964   4.429  16.548  1.00  0.00     0.167 HD
ATOM     58  C   UNL     1      -8.722   3.800  16.731  1.00  0.00     0.074 A 
ATOM     59  C   UNL     1     -10.081   3.476  16.350  1.00  0.00     0.031 C 
ATOM     60  C   UNL     1      -8.276   3.835  18.010  1.00  0.00     0.037 A 
BRANCH  47  61
ATOM     61  C   UNL     1      -2.285   5.210  18.558  1.00  0.00     0.057 A 
ATOM     62  C   UNL     1      -1.760   6.494  18.752  1.00  0.00     0.134 A 
ATOM     63  C   UNL     1      -1.719   4.160  19.290  1.00  0.00     0.134 A 
ATOM     64  F   UNL     1      -2.250   7.540  18.070  1.00  0.00    -0.206 F 
ATOM     65  C   UNL     1      -0.703   6.722  19.635  1.00  0.00     0.040 A 
ATOM     66  C   UNL     1      -0.677   4.379  20.192  1.00  0.00     0.040 A 
ATOM     67  F   UNL     1      -2.179   2.907  19.152  1.00  0.00    -0.206 F 
ATOM     68  C   UNL     1      -0.165   5.663  20.365  1.00  0.00     0.006 A 
ENDBRANCH  47  61
BRANCH  48  69
ATOM     69  C   UNL     1      -9.815   3.861  12.157  1.00  0.00     0.057 A 
ATOM     70  C   UNL     1     -10.863   4.786  12.104  1.00  0.00     0.134 A 
ATOM     71  C   UNL     1      -9.877   2.763  11.290  1.00  0.00     0.134 A 
ATOM     72  F   UNL     1     -10.871   5.845  12.926  1.00  0.00    -0.206 F 
ATOM     73  C   UNL     1     -11.937   4.624  11.227  1.00  0.00     0.040 A 
ATOM     74  C   UNL     1     -10.933   2.600  10.392  1.00  0.00     0.040 A 
ATOM     75  F   UNL     1      -8.904   1.841  11.294  1.00  0.00    -0.206 F 
ATOM     76  C   UNL     1     -11.970   3.531  10.362  1.00  0.00     0.006 A 
ENDBRANCH  48  69
BRANCH  60  77
ATOM     77  C   UNL     1      -9.261   3.531  19.101  1.00  0.00     0.057 A 
ATOM     78  C   UNL     1      -9.692   2.224  19.356  1.00  0.00     0.134 A 
ATOM     79  C   UNL     1      -9.716   4.543  19.956  1.00  0.00     0.134 A 
ATOM     80  F   UNL     1      -9.300   1.212  18.567  1.00  0.00    -0.206 F 
ATOM     81  C   UNL     1     -10.549   1.935  20.420  1.00  0.00     0.040 A 
ATOM     82  C   UNL     1     -10.553   4.263  21.036  1.00  0.00     0.040 A 
ATOM     83  F   UNL     1      -9.331   5.815  19.772  1.00  0.00    -0.206 F 
ATOM     84  C   UNL     1     -10.973   2.955  21.270  1.00  0.00     0.006 A 
ENDBRANCH  60  77
ENDBRANCH  34  35
ENDBRANCH  27  29
ENDBRANCH  26  27
ENDBRANCH  25  26
ENDBRANCH   1  25
TORSDOF 15
