REMARK SMILES COc1ccc(CCNC(=O)c2cccnc2C(=O)OCCOCCOC(=O)c2ccc(-c3c4nc(c(-c5c(F)cccc5F)c5ccc([nH]5)c(-c5c(F)cccc5F)c5nc(c(-c6c(F)cccc6F)c6ccc3[nH]6)C=C5)C=C4)cc2)cc1OC
REMARK SMILES IDX 21 1 20 2 18 3 19 4 17 5 12 6 13 7 14 8 16 9 15 10 10 11
REMARK SMILES IDX 9 12 11 14 8 15 7 16 6 17 3 18 4 19 84 20 5 21 83 22 2 23
REMARK SMILES IDX 1 24 85 25 86 26 22 27 23 28 24 29 25 30 26 31 27 32 28 33
REMARK SMILES IDX 29 34 30 35 82 36 31 37 81 38 32 39 33 40 34 41 75 42 35 43
REMARK SMILES IDX 80 44 74 45 76 46 36 47 79 48 73 49 72 50 37 52 63 53 46 54
REMARK SMILES IDX 62 55 47 56 50 57 61 58 77 59 48 60 49 61 60 63 78 64 51 65
REMARK SMILES IDX 38 66 39 67 44 68 40 69 41 70 43 71 45 72 42 73 64 74 65 75
REMARK SMILES IDX 70 76 66 77 67 78 69 79 71 80 68 81 52 82 53 83 58 84 54 85
REMARK SMILES IDX 55 86 57 87 59 88 56 89
REMARK H PARENT 9 13 76 51 50 62
REMARK Flexibility Score: inf
ROOT
ATOM      1  C   UNL     1      -3.692  -5.432   8.059  1.00  0.00     0.261 C 
ENDROOT
BRANCH   1   2
ATOM      2  O   UNL     1      -2.295  -5.172   8.273  1.00  0.00    -0.458 OA
BRANCH   2   3
ATOM      3  C   UNL     1      -1.927  -5.129   9.579  1.00  0.00     0.357 C 
ATOM      4  O   UNL     1      -2.678  -5.149  10.543  1.00  0.00    -0.244 OA
BRANCH   3   5
ATOM      5  C   UNL     1      -0.450  -5.263   9.699  1.00  0.00     0.161 A 
ATOM      6  C   UNL     1       0.459  -4.376   9.133  1.00  0.00     0.073 A 
ATOM      7  C   UNL     1       1.804  -4.516   9.503  1.00  0.00     0.018 A 
ATOM      8  C   UNL     1       2.207  -5.581  10.307  1.00  0.00     0.021 A 
ATOM      9  N   UNL     1      -0.067  -6.327  10.476  1.00  0.00    -0.248 NA
ATOM     10  C   UNL     1       1.244  -6.466  10.750  1.00  0.00     0.112 A 
BRANCH   6  11
ATOM     11  C   UNL     1       0.033  -3.250   8.282  1.00  0.00     0.253 C 
ATOM     12  N   UNL     1       0.741  -2.896   7.158  1.00  0.00    -0.352 N 
ATOM     13  H   UNL     1       0.412  -2.079   6.719  1.00  0.00     0.163 HD
ATOM     14  O   UNL     1      -0.957  -2.598   8.599  1.00  0.00    -0.269 OA
BRANCH  12  15
ATOM     15  C   UNL     1       1.892  -3.506   6.494  1.00  0.00     0.121 C 
BRANCH  15  16
ATOM     16  C   UNL     1       1.628  -3.909   5.039  1.00  0.00     0.057 C 
BRANCH  16  17
ATOM     17  C   UNL     1       1.488  -2.756   4.074  1.00  0.00    -0.042 A 
ATOM     18  C   UNL     1       1.198  -0.703   2.165  1.00  0.00     0.160 A 
ATOM     19  C   UNL     1       0.165  -0.994   3.063  1.00  0.00     0.051 A 
ATOM     20  C   UNL     1       2.409  -1.399   2.248  1.00  0.00     0.160 A 
ATOM     21  C   UNL     1       0.302  -2.023   3.998  1.00  0.00     0.008 A 
ATOM     22  C   UNL     1       2.540  -2.416   3.209  1.00  0.00     0.054 A 
BRANCH  18  23
ATOM     23  O   UNL     1       1.025   0.318   1.269  1.00  0.00    -0.493 OA
ATOM     24  C   UNL     1      -0.021   0.048   0.331  1.00  0.00     0.278 C 
ENDBRANCH  18  23
BRANCH  20  25
ATOM     25  O   UNL     1       3.539  -1.230   1.493  1.00  0.00    -0.493 OA
ATOM     26  C   UNL     1       3.442  -0.447   0.310  1.00  0.00     0.278 C 
ENDBRANCH  20  25
ENDBRANCH  16  17
ENDBRANCH  15  16
ENDBRANCH  12  15
ENDBRANCH   6  11
ENDBRANCH   3   5
ENDBRANCH   2   3
ENDBRANCH   1   2
BRANCH   1  27
ATOM     27  C   UNL     1      -3.877  -6.469   6.952  1.00  0.00     0.202 C 
BRANCH  27  28
ATOM     28  O   UNL     1      -3.357  -7.771   7.221  1.00  0.00    -0.374 OA
BRANCH  28  29
ATOM     29  C   UNL     1      -1.940  -7.936   7.149  1.00  0.00     0.202 C 
BRANCH  29  30
ATOM     30  C   UNL     1      -1.347  -8.044   5.738  1.00  0.00     0.261 C 
BRANCH  30  31
ATOM     31  O   UNL     1      -1.516  -6.840   4.965  1.00  0.00    -0.460 OA
BRANCH  31  32
ATOM     32  C   UNL     1      -2.366  -6.944   3.915  1.00  0.00     0.338 C 
ATOM     33  O   UNL     1      -2.947  -7.945   3.516  1.00  0.00    -0.246 OA
BRANCH  32  34
ATOM     34  C   UNL     1      -2.627  -5.606   3.360  1.00  0.00     0.060 A 
ATOM     35  C   UNL     1      -3.925  -5.084   3.438  1.00  0.00     0.016 A 
ATOM     36  C   UNL     1      -1.619  -4.900   2.709  1.00  0.00     0.016 A 
ATOM     37  C   UNL     1      -4.214  -3.837   2.880  1.00  0.00     0.010 A 
ATOM     38  C   UNL     1      -1.919  -3.665   2.130  1.00  0.00     0.010 A 
ATOM     39  C   UNL     1      -3.213  -3.118   2.216  1.00  0.00    -0.014 A 
BRANCH  39  40
ATOM     40  C   UNL     1      -3.513  -1.832   1.535  1.00  0.00     0.031 A 
ATOM     41  C   UNL     1      -3.537  -1.786   0.034  1.00  0.00     0.074 A 
ATOM     42  C   UNL     1      -3.719  -0.705   2.241  1.00  0.00     0.049 A 
ATOM     43  N   UNL     1      -3.619  -0.751  -0.763  1.00  0.00    -0.248 NA
ATOM     44  C   UNL     1      -3.436  -3.078  -0.661  1.00  0.00     0.031 C 
ATOM     45  C   UNL     1      -3.738  -0.609   3.701  1.00  0.00     0.029 A 
ATOM     46  N   UNL     1      -3.919   0.587   1.819  1.00  0.00    -0.354 N 
ATOM     47  C   UNL     1      -3.586  -1.267  -2.052  1.00  0.00     0.074 A 
ATOM     48  C   UNL     1      -3.422  -2.700  -1.930  1.00  0.00     0.031 C 
ATOM     49  C   UNL     1      -3.915   0.676   4.052  1.00  0.00     0.029 A 
ATOM     50  C   UNL     1      -3.990   1.498   2.845  1.00  0.00     0.049 A 
ATOM     51  H   UNL     1      -4.004   0.837   0.870  1.00  0.00     0.167 HD
ATOM     52  C   UNL     1      -3.701  -0.612  -3.232  1.00  0.00     0.037 A 
ATOM     53  C   UNL     1      -4.075   2.843   2.816  1.00  0.00     0.037 A 
ATOM     54  C   UNL     1      -3.883   0.810  -3.360  1.00  0.00     0.049 A 
ATOM     55  C   UNL     1      -4.123   3.558   1.492  1.00  0.00     0.074 A 
ATOM     56  C   UNL     1      -4.030   1.559  -4.514  1.00  0.00     0.029 A 
ATOM     57  N   UNL     1      -3.947   1.697  -2.297  1.00  0.00    -0.354 N 
ATOM     58  N   UNL     1      -4.101   3.058   0.280  1.00  0.00    -0.248 NA
ATOM     59  C   UNL     1      -4.205   5.027   1.532  1.00  0.00     0.031 C 
ATOM     60  C   UNL     1      -4.138   2.906  -4.152  1.00  0.00     0.029 A 
ATOM     61  C   UNL     1      -4.102   2.989  -2.770  1.00  0.00     0.049 A 
ATOM     62  H   UNL     1      -3.892   1.445  -1.347  1.00  0.00     0.167 HD
ATOM     63  C   UNL     1      -4.189   4.145  -0.582  1.00  0.00     0.074 A 
ATOM     64  C   UNL     1      -4.279   5.330   0.244  1.00  0.00     0.031 C 
ATOM     65  C   UNL     1      -4.193   4.161  -1.938  1.00  0.00     0.037 A 
BRANCH  52  66
ATOM     66  C   UNL     1      -3.624  -1.433  -4.484  1.00  0.00     0.057 A 
ATOM     67  C   UNL     1      -4.671  -2.276  -4.878  1.00  0.00     0.134 A 
ATOM     68  C   UNL     1      -2.503  -1.356  -5.319  1.00  0.00     0.134 A 
ATOM     69  F   UNL     1      -5.766  -2.404  -4.113  1.00  0.00    -0.206 F 
ATOM     70  C   UNL     1      -4.596  -3.031  -6.049  1.00  0.00     0.040 A 
ATOM     71  C   UNL     1      -2.427  -2.088  -6.505  1.00  0.00     0.040 A 
ATOM     72  F   UNL     1      -1.468  -0.566  -4.999  1.00  0.00    -0.206 F 
ATOM     73  C   UNL     1      -3.474  -2.933  -6.870  1.00  0.00     0.006 A 
ENDBRANCH  52  66
BRANCH  53  74
ATOM     74  C   UNL     1      -4.087   3.617   4.084  1.00  0.00     0.057 A 
ATOM     75  C   UNL     1      -5.232   4.301   4.507  1.00  0.00     0.134 A 
ATOM     76  C   UNL     1      -2.942   3.721   4.882  1.00  0.00     0.134 A 
ATOM     77  F   UNL     1      -6.352   4.263   3.769  1.00  0.00    -0.206 F 
ATOM     78  C   UNL     1      -5.234   5.077   5.668  1.00  0.00     0.040 A 
ATOM     79  C   UNL     1      -2.936   4.473   6.058  1.00  0.00     0.040 A 
ATOM     80  F   UNL     1      -1.812   3.091   4.529  1.00  0.00    -0.206 F 
ATOM     81  C   UNL     1      -4.083   5.160   6.449  1.00  0.00     0.006 A 
ENDBRANCH  53  74
BRANCH  65  82
ATOM     82  C   UNL     1      -4.319   5.495  -2.614  1.00  0.00     0.057 A 
ATOM     83  C   UNL     1      -3.255   6.404  -2.652  1.00  0.00     0.134 A 
ATOM     84  C   UNL     1      -5.502   5.855  -3.272  1.00  0.00     0.134 A 
ATOM     85  F   UNL     1      -2.099   6.124  -2.030  1.00  0.00    -0.206 F 
ATOM     86  C   UNL     1      -3.368   7.632  -3.306  1.00  0.00     0.040 A 
ATOM     87  C   UNL     1      -5.619   7.069  -3.950  1.00  0.00     0.040 A 
ATOM     88  F   UNL     1      -6.556   5.025  -3.281  1.00  0.00    -0.206 F 
ATOM     89  C   UNL     1      -4.551   7.964  -3.964  1.00  0.00     0.006 A 
ENDBRANCH  65  82
ENDBRANCH  39  40
ENDBRANCH  32  34
ENDBRANCH  31  32
ENDBRANCH  30  31
ENDBRANCH  29  30
ENDBRANCH  28  29
ENDBRANCH  27  28
ENDBRANCH   1  27
TORSDOF 20
