REMARK SMILES O=C(OCCOCCOC(=O)c1ccc(-c2c3nc(c(-c4c(F)cccc4F)c4ccc([nH]4)c(-c4c(F)cccc4F)c4nc(c(-c5c(F)cccc5F)c5ccc2[nH]5)C=C4)C=C3)cc1)C1=Cc2c(ccc(Cl)c2-c2ccccc2)O[C@H]1C(F)(F)F
REMARK SMILES IDX 7 1 6 2 5 3 4 4 3 5 2 6 1 7 66 8 67 9 82 10 68 11 81 12
REMARK SMILES IDX 69 13 74 14 70 15 72 16 71 17 73 18 83 19 84 20 85 21 86 22
REMARK SMILES IDX 75 23 76 24 80 25 77 26 79 27 78 28 8 29 9 30 10 31 11 32
REMARK SMILES IDX 12 33 13 34 65 35 14 36 64 37 15 38 16 39 17 40 58 41 18 42
REMARK SMILES IDX 63 43 57 44 59 45 19 46 62 47 56 48 55 49 20 51 46 52 29 53
REMARK SMILES IDX 45 54 30 55 33 56 44 57 60 58 31 59 32 60 43 62 61 63 34 64
REMARK SMILES IDX 21 65 22 66 27 67 23 68 24 69 26 70 28 71 25 72 47 73 48 74
REMARK SMILES IDX 53 75 49 76 50 77 52 78 54 79 51 80 35 81 36 82 41 83 37 84
REMARK SMILES IDX 38 85 40 86 42 87 39 88
REMARK H PARENT 59 50 33 61
REMARK Flexibility Score: inf
ROOT
ATOM      1  C   UNL     1       0.988   2.800   1.756  1.00  0.00     0.202 C 
ENDROOT
BRANCH   1   2
ATOM      2  O   UNL     1       1.231   1.830   2.766  1.00  0.00    -0.374 OA
BRANCH   2   3
ATOM      3  C   UNL     1       1.854   0.610   2.433  1.00  0.00     0.202 C 
BRANCH   3   4
ATOM      4  C   UNL     1       1.414  -0.146   1.168  1.00  0.00     0.261 C 
BRANCH   4   5
ATOM      5  O   UNL     1       1.411  -1.567   1.357  1.00  0.00    -0.460 OA
BRANCH   5   6
ATOM      6  C   UNL     1       2.521  -2.328   1.244  1.00  0.00     0.338 C 
ATOM      7  O   UNL     1       2.415  -3.525   0.995  1.00  0.00    -0.246 OA
BRANCH   6   8
ATOM      8  C   UNL     1       3.855  -1.766   1.582  1.00  0.00     0.087 C 
ATOM      9  C   UNL     1       4.283  -0.490   1.509  1.00  0.00     0.028 C 
ATOM     10  C   UNL     1       4.943  -2.809   1.668  1.00  0.00     0.316 C 
ATOM     11  C   UNL     1       5.033  -0.284   0.265  1.00  0.00     0.027 A 
ATOM     12  O   UNL     1       6.173  -2.341   1.016  1.00  0.00    -0.475 OA
ATOM     13  C   UNL     1       5.977  -1.347   0.066  1.00  0.00     0.128 A 
ATOM     14  C   UNL     1       4.780   0.760  -0.675  1.00  0.00     0.011 A 
ATOM     15  C   UNL     1       6.719  -1.418  -1.087  1.00  0.00     0.049 A 
ATOM     16  C   UNL     1       5.468   0.537  -1.891  1.00  0.00     0.049 A 
ATOM     17  C   UNL     1       6.433  -0.492  -2.076  1.00  0.00     0.025 A 
ATOM     18  Cl  UNL     1       5.136   1.384  -3.342  1.00  0.00    -0.084 Cl
BRANCH  10  19
ATOM     19  C   UNL     1       5.131  -3.151   3.158  1.00  0.00     0.430 C 
ATOM     20  F   UNL     1       3.997  -2.920   3.873  1.00  0.00    -0.167 F 
ATOM     21  F   UNL     1       5.453  -4.448   3.349  1.00  0.00    -0.167 F 
ATOM     22  F   UNL     1       6.098  -2.393   3.727  1.00  0.00    -0.167 F 
ENDBRANCH  10  19
BRANCH  14  23
ATOM     23  C   UNL     1       3.857   1.988  -0.414  1.00  0.00    -0.016 A 
ATOM     24  C   UNL     1       2.778   2.658  -1.714  1.00  0.00     0.009 A 
ATOM     25  C   UNL     1       3.871   2.847   1.181  1.00  0.00     0.009 A 
ATOM     26  C   UNL     1       1.814   4.175  -1.477  1.00  0.00     0.001 A 
ATOM     27  C   UNL     1       2.898   4.364   1.455  1.00  0.00     0.001 A 
ATOM     28  C   UNL     1       1.861   5.026   0.119  1.00  0.00     0.000 A 
ENDBRANCH  14  23
ENDBRANCH   6   8
ENDBRANCH   5   6
ENDBRANCH   4   5
ENDBRANCH   3   4
ENDBRANCH   2   3
ENDBRANCH   1   2
BRANCH   1  29
ATOM     29  C   UNL     1       1.811   2.827   0.338  1.00  0.00     0.261 C 
BRANCH  29  30
ATOM     30  O   UNL     1       3.358   3.904  -0.358  1.00  0.00    -0.460 OA
BRANCH  30  31
ATOM     31  C   UNL     1       4.454   4.798  -0.463  1.00  0.00     0.338 C 
ATOM     32  O   UNL     1       5.007   5.463   0.402  1.00  0.00    -0.246 OA
BRANCH  31  33
ATOM     33  C   UNL     1       4.915   4.873  -1.853  1.00  0.00     0.060 A 
ATOM     34  C   UNL     1       6.148   4.311  -2.182  1.00  0.00     0.016 A 
ATOM     35  C   UNL     1       4.104   5.473  -2.820  1.00  0.00     0.016 A 
ATOM     36  C   UNL     1       6.536   4.274  -3.517  1.00  0.00     0.010 A 
ATOM     37  C   UNL     1       4.445   5.364  -4.153  1.00  0.00     0.010 A 
ATOM     38  C   UNL     1       5.673   4.782  -4.498  1.00  0.00    -0.014 A 
BRANCH  38  39
ATOM     39  C   UNL     1       6.152   5.046  -5.861  1.00  0.00     0.031 A 
ATOM     40  C   UNL     1       6.700   6.418  -6.086  1.00  0.00     0.074 A 
ATOM     41  C   UNL     1       5.958   4.166  -6.855  1.00  0.00     0.049 A 
ATOM     42  N   UNL     1       6.989   7.021  -7.203  1.00  0.00    -0.248 NA
ATOM     43  C   UNL     1       6.893   7.246  -4.878  1.00  0.00     0.031 C 
ATOM     44  C   UNL     1       5.394   2.829  -6.704  1.00  0.00     0.029 A 
ATOM     45  N   UNL     1       6.171   4.288  -8.201  1.00  0.00    -0.354 N 
ATOM     46  C   UNL     1       7.377   8.300  -6.833  1.00  0.00     0.074 A 
ATOM     47  C   UNL     1       7.250   8.404  -5.400  1.00  0.00     0.031 C 
ATOM     48  C   UNL     1       5.288   2.252  -7.912  1.00  0.00     0.029 A 
ATOM     49  C   UNL     1       5.723   3.208  -8.923  1.00  0.00     0.049 A 
ATOM     50  H   UNL     1       6.603   5.071  -8.612  1.00  0.00     0.167 HD
ATOM     51  C   UNL     1       7.799   9.301  -7.633  1.00  0.00     0.037 A 
ATOM     52  C   UNL     1       5.633   3.045 -10.255  1.00  0.00     0.037 A 
ATOM     53  C   UNL     1       7.867   9.172  -9.058  1.00  0.00     0.049 A 
ATOM     54  C   UNL     1       6.085   4.179 -11.132  1.00  0.00     0.074 A 
ATOM     55  C   UNL     1       8.297  10.094  -9.990  1.00  0.00     0.029 A 
ATOM     56  N   UNL     1       7.465   8.039  -9.756  1.00  0.00    -0.354 N 
ATOM     57  N   UNL     1       6.522   5.367 -10.780  1.00  0.00    -0.248 NA
ATOM     58  C   UNL     1       6.034   3.962 -12.582  1.00  0.00     0.031 C 
ATOM     59  C   UNL     1       8.106   9.536 -11.258  1.00  0.00     0.029 A 
ATOM     60  C   UNL     1       7.613   8.246 -11.113  1.00  0.00     0.049 A 
ATOM     61  H   UNL     1       7.125   7.212  -9.344  1.00  0.00     0.167 HD
ATOM     62  C   UNL     1       6.822   6.031 -11.961  1.00  0.00     0.074 A 
ATOM     63  C   UNL     1       6.520   5.108 -13.039  1.00  0.00     0.031 C 
ATOM     64  C   UNL     1       7.306   7.285 -12.145  1.00  0.00     0.037 A 
BRANCH  51  65
ATOM     65  C   UNL     1       8.149  10.595  -6.965  1.00  0.00     0.057 A 
ATOM     66  C   UNL     1       9.251  10.712  -6.104  1.00  0.00     0.134 A 
ATOM     67  C   UNL     1       7.335  11.722  -7.126  1.00  0.00     0.134 A 
ATOM     68  F   UNL     1      10.051   9.658  -5.877  1.00  0.00    -0.206 F 
ATOM     69  C   UNL     1       9.507  11.889  -5.400  1.00  0.00     0.040 A 
ATOM     70  C   UNL     1       7.599  12.914  -6.451  1.00  0.00     0.040 A 
ATOM     71  F   UNL     1       6.255  11.675  -7.920  1.00  0.00    -0.206 F 
ATOM     72  C   UNL     1       8.681  12.996  -5.576  1.00  0.00     0.006 A 
ENDBRANCH  51  65
BRANCH  52  73
ATOM     73  C   UNL     1       5.089   1.782 -10.816  1.00  0.00     0.057 A 
ATOM     74  C   UNL     1       5.917   0.865 -11.471  1.00  0.00     0.134 A 
ATOM     75  C   UNL     1       3.736   1.442 -10.681  1.00  0.00     0.134 A 
ATOM     76  F   UNL     1       7.219   1.136 -11.644  1.00  0.00    -0.206 F 
ATOM     77  C   UNL     1       5.422  -0.339 -11.979  1.00  0.00     0.040 A 
ATOM     78  C   UNL     1       3.232   0.232 -11.163  1.00  0.00     0.040 A 
ATOM     79  F   UNL     1       2.889   2.270 -10.054  1.00  0.00    -0.206 F 
ATOM     80  C   UNL     1       4.076  -0.662 -11.819  1.00  0.00     0.006 A 
ENDBRANCH  52  73
BRANCH  64  81
ATOM     81  C   UNL     1       7.579   7.710 -13.554  1.00  0.00     0.057 A 
ATOM     82  C   UNL     1       6.547   8.059 -14.432  1.00  0.00     0.134 A 
ATOM     83  C   UNL     1       8.898   7.863 -13.997  1.00  0.00     0.134 A 
ATOM     84  F   UNL     1       5.264   7.923 -14.064  1.00  0.00    -0.206 F 
ATOM     85  C   UNL     1       6.821   8.541 -15.711  1.00  0.00     0.040 A 
ATOM     86  C   UNL     1       9.183   8.370 -15.263  1.00  0.00     0.040 A 
ATOM     87  F   UNL     1       9.927   7.556 -13.193  1.00  0.00    -0.206 F 
ATOM     88  C   UNL     1       8.142   8.709 -16.125  1.00  0.00     0.006 A 
ENDBRANCH  64  81
ENDBRANCH  38  39
ENDBRANCH  31  33
ENDBRANCH  30  31
ENDBRANCH  29  30
ENDBRANCH   1  29
TORSDOF 16
