REMARK SMILES Nc1nnc(S[C@H](F)C(=O)OCCOCCOC(=O)c2ccc(-c3c4nc(c(-c5c(F)cccc5F)c5ccc([nH]5)c(-c5c(F)cccc5F)c5nc(c(-c6c(F)cccc6F)c6ccc3[nH]6)C=C5)C=C4)cc2)s1
REMARK SMILES IDX 13 1 12 2 11 3 9 4 10 5 7 6 8 7 6 8 5 9 2 10 3 11 74 12 4 13
REMARK SMILES IDX 1 14 14 17 15 18 16 19 17 20 18 21 19 22 20 23 21 24 73 25
REMARK SMILES IDX 22 26 72 27 23 28 24 29 25 30 66 31 26 32 71 33 65 34 67 35
REMARK SMILES IDX 27 36 70 37 64 38 63 39 28 41 54 42 37 43 53 44 38 45 41 46
REMARK SMILES IDX 52 47 68 48 39 49 40 50 51 52 69 53 42 54 29 55 30 56 35 57
REMARK SMILES IDX 31 58 32 59 34 60 36 61 33 62 55 63 56 64 61 65 57 66 58 67
REMARK SMILES IDX 60 68 62 69 59 70 43 71 44 72 49 73 45 74 46 75 48 76 50 77
REMARK SMILES IDX 47 78
REMARK H PARENT 1 15 1 16 67 40 41 51
REMARK Flexibility Score: inf
ROOT
ATOM      1  C   UNL     1       3.525   2.320   3.675  1.00  0.00     0.202 C 
ENDROOT
BRANCH   1   2
ATOM      2  C   UNL     1       3.851   3.132   2.425  1.00  0.00     0.261 C 
BRANCH   2   3
ATOM      3  O   UNL     1       3.658   2.348   1.236  1.00  0.00    -0.460 OA
BRANCH   3   4
ATOM      4  C   UNL     1       4.785   2.059   0.523  1.00  0.00     0.351 C 
ATOM      5  O   UNL     1       5.935   2.308   0.874  1.00  0.00    -0.248 OA
BRANCH   4   6
ATOM      6  C   UNL     1       4.450   1.359  -0.774  1.00  0.00     0.340 C 
ATOM      7  F   UNL     1       3.535   0.356  -0.579  1.00  0.00    -0.222 F 
BRANCH   6   8
ATOM      8  S   UNL     1       3.854   2.402  -2.127  1.00  0.00    -0.044 SA
BRANCH   8   9
ATOM      9  C   UNL     1       4.218   4.046  -1.682  1.00  0.00     0.179 A 
ATOM     10  C   UNL     1       4.564   6.395  -1.530  1.00  0.00     0.203 A 
ATOM     11  N   UNL     1       4.503   5.821  -0.351  1.00  0.00    -0.120 NA
ATOM     12  S   UNL     1       4.391   5.299  -2.843  1.00  0.00    -0.069 S 
ATOM     13  N   UNL     1       4.280   4.468  -0.443  1.00  0.00    -0.130 NA
BRANCH  10  14
ATOM     14  N   UNL     1       4.734   7.709  -1.718  1.00  0.00    -0.374 N 
ATOM     15  H   UNL     1       4.829   8.309  -0.944  1.00  0.00     0.159 HD
ATOM     16  H   UNL     1       4.762   8.076  -2.632  1.00  0.00     0.159 HD
ENDBRANCH  10  14
ENDBRANCH   8   9
ENDBRANCH   6   8
ENDBRANCH   4   6
ENDBRANCH   3   4
ENDBRANCH   2   3
ENDBRANCH   1   2
BRANCH   1  17
ATOM     17  O   UNL     1       4.455   1.282   3.981  1.00  0.00    -0.374 OA
BRANCH  17  18
ATOM     18  C   UNL     1       4.319   0.060   3.256  1.00  0.00     0.202 C 
BRANCH  18  19
ATOM     19  C   UNL     1       3.263  -0.907   3.801  1.00  0.00     0.261 C 
BRANCH  19  20
ATOM     20  O   UNL     1       1.929  -0.412   3.583  1.00  0.00    -0.460 OA
BRANCH  20  21
ATOM     21  C   UNL     1       1.283   0.001   4.696  1.00  0.00     0.338 C 
ATOM     22  O   UNL     1       1.675  -0.078   5.854  1.00  0.00    -0.246 OA
BRANCH  21  23
ATOM     23  C   UNL     1       0.055   0.729   4.331  1.00  0.00     0.060 A 
ATOM     24  C   UNL     1      -0.174   1.963   4.954  1.00  0.00     0.016 A 
ATOM     25  C   UNL     1      -0.895   0.185   3.463  1.00  0.00     0.016 A 
ATOM     26  C   UNL     1      -1.382   2.628   4.763  1.00  0.00     0.010 A 
ATOM     27  C   UNL     1      -2.111   0.851   3.277  1.00  0.00     0.010 A 
ATOM     28  C   UNL     1      -2.374   2.052   3.959  1.00  0.00    -0.014 A 
BRANCH  28  29
ATOM     29  C   UNL     1      -3.740   2.627   3.966  1.00  0.00     0.031 A 
ATOM     30  C   UNL     1      -4.788   2.004   4.844  1.00  0.00     0.074 A 
ATOM     31  C   UNL     1      -4.038   3.703   3.219  1.00  0.00     0.049 A 
ATOM     32  N   UNL     1      -6.046   2.328   4.995  1.00  0.00    -0.248 NA
ATOM     33  C   UNL     1      -4.358   0.856   5.658  1.00  0.00     0.031 C 
ATOM     34  C   UNL     1      -3.103   4.409   2.345  1.00  0.00     0.029 A 
ATOM     35  N   UNL     1      -5.221   4.381   3.071  1.00  0.00    -0.354 N 
ATOM     36  C   UNL     1      -6.560   1.422   5.915  1.00  0.00     0.074 A 
ATOM     37  C   UNL     1      -5.487   0.516   6.261  1.00  0.00     0.031 C 
ATOM     38  C   UNL     1      -3.756   5.411   1.733  1.00  0.00     0.029 A 
ATOM     39  C   UNL     1      -5.156   5.402   2.157  1.00  0.00     0.049 A 
ATOM     40  H   UNL     1      -6.038   4.157   3.572  1.00  0.00     0.167 HD
ATOM     41  C   UNL     1      -7.811   1.357   6.430  1.00  0.00     0.037 A 
ATOM     42  C   UNL     1      -6.121   6.220   1.698  1.00  0.00     0.037 A 
ATOM     43  C   UNL     1      -8.878   2.257   6.082  1.00  0.00     0.049 A 
ATOM     44  C   UNL     1      -7.517   6.103   2.247  1.00  0.00     0.074 A 
ATOM     45  C   UNL     1     -10.170   2.297   6.576  1.00  0.00     0.029 A 
ATOM     46  N   UNL     1      -8.778   3.270   5.141  1.00  0.00    -0.354 N 
ATOM     47  N   UNL     1      -7.983   5.271   3.147  1.00  0.00    -0.248 NA
ATOM     48  C   UNL     1      -8.518   7.042   1.722  1.00  0.00     0.031 C 
ATOM     49  C   UNL     1     -10.866   3.304   5.897  1.00  0.00     0.029 A 
ATOM     50  C   UNL     1      -9.993   3.923   5.015  1.00  0.00     0.049 A 
ATOM     51  H   UNL     1      -7.963   3.493   4.635  1.00  0.00     0.167 HD
ATOM     52  C   UNL     1      -9.324   5.596   3.309  1.00  0.00     0.074 A 
ATOM     53  C   UNL     1      -9.594   6.710   2.422  1.00  0.00     0.031 C 
ATOM     54  C   UNL     1     -10.248   5.024   4.121  1.00  0.00     0.037 A 
BRANCH  41  55
ATOM     55  C   UNL     1      -8.090   0.248   7.403  1.00  0.00     0.057 A 
ATOM     56  C   UNL     1      -7.552   0.244   8.697  1.00  0.00     0.134 A 
ATOM     57  C   UNL     1      -8.900  -0.833   7.036  1.00  0.00     0.134 A 
ATOM     58  F   UNL     1      -6.754   1.243   9.105  1.00  0.00    -0.206 F 
ATOM     59  C   UNL     1      -7.782  -0.813   9.579  1.00  0.00     0.040 A 
ATOM     60  C   UNL     1      -9.159  -1.883   7.919  1.00  0.00     0.040 A 
ATOM     61  F   UNL     1      -9.450  -0.889   5.814  1.00  0.00    -0.206 F 
ATOM     62  C   UNL     1      -8.591  -1.880   9.191  1.00  0.00     0.006 A 
ENDBRANCH  41  55
BRANCH  42  63
ATOM     63  C   UNL     1      -5.792   7.216   0.650  1.00  0.00     0.057 A 
ATOM     64  C   UNL     1      -5.709   8.581   0.942  1.00  0.00     0.134 A 
ATOM     65  C   UNL     1      -5.526   6.818  -0.666  1.00  0.00     0.134 A 
ATOM     66  F   UNL     1      -5.974   9.024   2.180  1.00  0.00    -0.206 F 
ATOM     67  C   UNL     1      -5.375   9.517  -0.038  1.00  0.00     0.040 A 
ATOM     68  C   UNL     1      -5.170   7.740  -1.651  1.00  0.00     0.040 A 
ATOM     69  F   UNL     1      -5.588   5.522  -1.006  1.00  0.00    -0.206 F 
ATOM     70  C   UNL     1      -5.096   9.095  -1.337  1.00  0.00     0.006 A 
ENDBRANCH  42  63
BRANCH  54  71
ATOM     71  C   UNL     1     -11.633   5.602   4.100  1.00  0.00     0.057 A 
ATOM     72  C   UNL     1     -12.506   5.385   3.027  1.00  0.00     0.134 A 
ATOM     73  C   UNL     1     -12.113   6.346   5.185  1.00  0.00     0.134 A 
ATOM     74  F   UNL     1     -12.104   4.691   1.952  1.00  0.00    -0.206 F 
ATOM     75  C   UNL     1     -13.803   5.904   3.026  1.00  0.00     0.040 A 
ATOM     76  C   UNL     1     -13.415   6.850   5.206  1.00  0.00     0.040 A 
ATOM     77  F   UNL     1     -11.330   6.583   6.248  1.00  0.00    -0.206 F 
ATOM     78  C   UNL     1     -14.262   6.633   4.121  1.00  0.00     0.006 A 
ENDBRANCH  54  71
ENDBRANCH  28  29
ENDBRANCH  21  23
ENDBRANCH  20  21
ENDBRANCH  19  20
ENDBRANCH  18  19
ENDBRANCH  17  18
ENDBRANCH   1  17
TORSDOF 17
