REMARK SMILES Cc1c(NC(=O)N[C@H]2CCOC2)cccc1C(=O)OCCOCCOC(=O)c1ccc(-c2c3nc(c(-c4c(F)cccc4F)c4ccc([nH]4)c(-c4c(F)cccc4F)c4nc(c(-c5c(F)cccc5F)c5ccc2[nH]5)C=C4)C=C3)cc1
REMARK SMILES IDX 22 1 21 2 20 3 19 4 17 5 18 6 16 7 1 8 2 9 3 10 13 11 15 12
REMARK SMILES IDX 14 13 4 14 5 15 6 17 7 18 8 20 9 21 12 22 10 23 11 24 23 25
REMARK SMILES IDX 24 26 25 27 26 28 27 29 28 30 29 31 81 32 30 33 80 34 31 35
REMARK SMILES IDX 32 36 33 37 74 38 34 39 79 40 73 41 75 42 35 43 78 44 72 45
REMARK SMILES IDX 71 46 36 48 62 49 45 50 61 51 46 52 49 53 60 54 76 55 47 56
REMARK SMILES IDX 48 57 59 59 77 60 50 61 37 62 38 63 43 64 39 65 40 66 42 67
REMARK SMILES IDX 44 68 41 69 63 70 64 71 69 72 65 73 66 74 68 75 70 76 67 77
REMARK SMILES IDX 51 78 52 79 57 80 53 81 54 82 56 83 58 84 55 85
REMARK H PARENT 4 16 7 19 75 47 49 58
REMARK Flexibility Score: inf
ROOT
ATOM      1  O   UNL     1      -3.571   4.197   0.010  1.00  0.00    -0.374 OA
ENDROOT
BRANCH   1   2
ATOM      2  C   UNL     1      -3.579   4.078  -1.400  1.00  0.00     0.202 C 
BRANCH   2   3
ATOM      3  C   UNL     1      -2.140   3.972  -1.740  1.00  0.00     0.261 C 
BRANCH   3   4
ATOM      4  O   UNL     1      -1.621   2.695  -1.340  1.00  0.00    -0.460 OA
BRANCH   4   5
ATOM      5  C   UNL     1      -1.055   2.447  -0.137  1.00  0.00     0.338 C 
ATOM      6  O   UNL     1      -0.997   3.188   0.817  1.00  0.00    -0.246 OA
BRANCH   5   7
ATOM      7  C   UNL     1      -0.472   1.064  -0.182  1.00  0.00     0.065 A 
ATOM      8  C   UNL     1      -0.843   0.737  -2.716  1.00  0.00     0.047 C 
ATOM      9  C   UNL     1      -0.418   0.251  -1.349  1.00  0.00    -0.013 A 
ATOM     10  C   UNL     1      -0.119  -1.113  -1.170  1.00  0.00     0.046 A 
ATOM     11  C   UNL     1       0.343  -1.601   0.064  1.00  0.00     0.026 A 
ATOM     12  C   UNL     1      -0.053   0.550   1.063  1.00  0.00     0.016 A 
ATOM     13  C   UNL     1       0.384  -0.767   1.178  1.00  0.00     0.003 A 
BRANCH  10  14
ATOM     14  N   UNL     1      -0.472  -2.019  -2.182  1.00  0.00    -0.308 N 
ATOM     15  C   UNL     1      -1.245  -3.135  -2.118  1.00  0.00     0.319 C 
ATOM     16  H   UNL     1      -0.104  -1.816  -3.073  1.00  0.00     0.171 HD
ATOM     17  O   UNL     1      -1.201  -3.952  -3.038  1.00  0.00    -0.248 OA
ATOM     18  N   UNL     1      -2.161  -3.318  -1.128  1.00  0.00    -0.333 N 
ATOM     19  H   UNL     1      -2.469  -4.243  -0.994  1.00  0.00     0.165 HD
BRANCH  18  20
ATOM     20  C   UNL     1      -2.739  -2.324  -0.249  1.00  0.00     0.112 C 
ATOM     21  C   UNL     1      -3.803  -1.448  -0.866  1.00  0.00     0.056 C 
ATOM     22  C   UNL     1      -3.416  -2.773   1.032  1.00  0.00     0.185 C 
ATOM     23  C   UNL     1      -4.200  -0.672   0.373  1.00  0.00     0.162 C 
ATOM     24  O   UNL     1      -4.224  -1.642   1.442  1.00  0.00    -0.379 OA
ENDBRANCH  18  20
ENDBRANCH  10  14
ENDBRANCH   5   7
ENDBRANCH   4   5
ENDBRANCH   3   4
ENDBRANCH   2   3
ENDBRANCH   1   2
BRANCH   1  25
ATOM     25  C   UNL     1      -4.827   4.098   0.634  1.00  0.00     0.202 C 
BRANCH  25  26
ATOM     26  C   UNL     1      -5.781   5.197   0.158  1.00  0.00     0.261 C 
BRANCH  26  27
ATOM     27  O   UNL     1      -5.224   6.495   0.473  1.00  0.00    -0.460 OA
BRANCH  27  28
ATOM     28  C   UNL     1      -4.605   7.160  -0.545  1.00  0.00     0.338 C 
ATOM     29  O   UNL     1      -5.072   7.334  -1.660  1.00  0.00    -0.246 OA
BRANCH  28  30
ATOM     30  C   UNL     1      -3.161   7.376  -0.215  1.00  0.00     0.060 A 
ATOM     31  C   UNL     1      -2.253   7.769  -1.220  1.00  0.00     0.016 A 
ATOM     32  C   UNL     1      -2.680   6.840   0.975  1.00  0.00     0.016 A 
ATOM     33  C   UNL     1      -0.887   7.455  -1.104  1.00  0.00     0.010 A 
ATOM     34  C   UNL     1      -1.368   6.421   1.023  1.00  0.00     0.010 A 
ATOM     35  C   UNL     1      -0.466   6.690  -0.021  1.00  0.00    -0.014 A 
BRANCH  35  36
ATOM     36  C   UNL     1       0.834   6.021   0.136  1.00  0.00     0.031 A 
ATOM     37  C   UNL     1       1.622   6.356   1.347  1.00  0.00     0.074 A 
ATOM     38  C   UNL     1       1.160   4.920  -0.594  1.00  0.00     0.049 A 
ATOM     39  N   UNL     1       2.785   5.873   1.593  1.00  0.00    -0.248 NA
ATOM     40  C   UNL     1       1.189   7.296   2.385  1.00  0.00     0.031 C 
ATOM     41  C   UNL     1       2.070   3.825  -0.238  1.00  0.00     0.029 A 
ATOM     42  N   UNL     1       0.709   4.521  -1.858  1.00  0.00    -0.354 N 
ATOM     43  C   UNL     1       3.093   6.138   2.904  1.00  0.00     0.074 A 
ATOM     44  C   UNL     1       2.138   7.131   3.312  1.00  0.00     0.031 C 
ATOM     45  C   UNL     1       2.339   3.081  -1.327  1.00  0.00     0.029 A 
ATOM     46  C   UNL     1       1.704   3.735  -2.456  1.00  0.00     0.049 A 
ATOM     47  H   UNL     1      -0.160   4.754  -2.259  1.00  0.00     0.167 HD
ATOM     48  C   UNL     1       4.061   5.379   3.487  1.00  0.00     0.037 A 
ATOM     49  C   UNL     1       2.266   4.118  -3.631  1.00  0.00     0.037 A 
ATOM     50  C   UNL     1       4.741   4.568   2.464  1.00  0.00     0.049 A 
ATOM     51  C   UNL     1       3.701   4.432  -3.334  1.00  0.00     0.074 A 
ATOM     52  C   UNL     1       4.731   3.224   2.140  1.00  0.00     0.029 A 
ATOM     53  N   UNL     1       5.320   5.226   1.374  1.00  0.00    -0.354 N 
ATOM     54  N   UNL     1       4.098   4.808  -2.145  1.00  0.00    -0.248 NA
ATOM     55  C   UNL     1       4.806   4.171  -4.248  1.00  0.00     0.031 C 
ATOM     56  C   UNL     1       5.208   3.100   0.796  1.00  0.00     0.029 A 
ATOM     57  C   UNL     1       5.544   4.362   0.319  1.00  0.00     0.049 A 
ATOM     58  H   UNL     1       5.541   6.185   1.360  1.00  0.00     0.167 HD
ATOM     59  C   UNL     1       5.450   4.699  -2.078  1.00  0.00     0.074 A 
ATOM     60  C   UNL     1       5.858   4.363  -3.433  1.00  0.00     0.031 C 
ATOM     61  C   UNL     1       6.154   4.840  -0.921  1.00  0.00     0.037 A 
BRANCH  48  62
ATOM     62  C   UNL     1       4.319   5.248   4.976  1.00  0.00     0.057 A 
ATOM     63  C   UNL     1       5.399   4.468   5.436  1.00  0.00     0.134 A 
ATOM     64  C   UNL     1       3.519   5.778   6.010  1.00  0.00     0.134 A 
ATOM     65  F   UNL     1       6.241   3.868   4.582  1.00  0.00    -0.206 F 
ATOM     66  C   UNL     1       5.664   4.247   6.798  1.00  0.00     0.040 A 
ATOM     67  C   UNL     1       3.799   5.602   7.375  1.00  0.00     0.040 A 
ATOM     68  F   UNL     1       2.389   6.450   5.775  1.00  0.00    -0.206 F 
ATOM     69  C   UNL     1       4.872   4.828   7.776  1.00  0.00     0.006 A 
ENDBRANCH  48  62
BRANCH  49  70
ATOM     70  C   UNL     1       1.272   4.800  -4.516  1.00  0.00     0.057 A 
ATOM     71  C   UNL     1       0.278   3.980  -5.097  1.00  0.00     0.134 A 
ATOM     72  C   UNL     1       0.946   6.153  -4.366  1.00  0.00     0.134 A 
ATOM     73  F   UNL     1       0.501   2.664  -5.254  1.00  0.00    -0.206 F 
ATOM     74  C   UNL     1      -1.014   4.446  -5.376  1.00  0.00     0.040 A 
ATOM     75  C   UNL     1      -0.351   6.628  -4.634  1.00  0.00     0.040 A 
ATOM     76  F   UNL     1       1.816   7.005  -3.806  1.00  0.00    -0.206 F 
ATOM     77  C   UNL     1      -1.346   5.767  -5.096  1.00  0.00     0.006 A 
ENDBRANCH  49  70
BRANCH  61  78
ATOM     78  C   UNL     1       7.533   5.433  -0.917  1.00  0.00     0.057 A 
ATOM     79  C   UNL     1       8.027   6.227  -1.967  1.00  0.00     0.134 A 
ATOM     80  C   UNL     1       8.338   5.393   0.238  1.00  0.00     0.134 A 
ATOM     81  F   UNL     1       7.308   6.474  -3.071  1.00  0.00    -0.206 F 
ATOM     82  C   UNL     1       9.268   6.861  -1.908  1.00  0.00     0.040 A 
ATOM     83  C   UNL     1       9.545   6.083   0.335  1.00  0.00     0.040 A 
ATOM     84  F   UNL     1       7.970   4.721   1.339  1.00  0.00    -0.206 F 
ATOM     85  C   UNL     1      10.027   6.799  -0.750  1.00  0.00     0.006 A 
ENDBRANCH  61  78
ENDBRANCH  35  36
ENDBRANCH  28  30
ENDBRANCH  27  28
ENDBRANCH  26  27
ENDBRANCH  25  26
ENDBRANCH   1  25
TORSDOF 16
