REMARK SMILES CN1C=C/C(=C\C=C/C=N\c2ccc(C(=O)OCCOCCOC(=O)c3ccc(-c4c5nc(c(-c6c(F)cccc6F)c6ccc([nH]6)c(-c6c(F)cccc6F)c6nc(c(-c7c(F)cccc7F)c7ccc4[nH]7)C=C6)C=C5)cc3)cc2)c2ccccc21
REMARK SMILES IDX 19 1 18 2 17 3 15 4 16 5 14 6 11 7 12 8 81 9 13 10 80 11
REMARK SMILES IDX 10 12 9 13 8 14 7 15 6 16 1 17 2 18 3 19 87 20 4 21 82 22
REMARK SMILES IDX 86 23 5 24 83 25 85 26 84 27 20 28 21 29 22 30 23 31 24 32
REMARK SMILES IDX 25 33 26 34 27 35 79 36 28 37 78 38 29 39 30 40 31 41 72 42
REMARK SMILES IDX 32 43 77 44 71 45 73 46 33 47 76 48 70 49 69 50 34 52 60 53
REMARK SMILES IDX 43 54 59 55 44 56 47 57 58 58 74 59 45 60 46 61 57 63 75 64
REMARK SMILES IDX 48 65 35 66 36 67 41 68 37 69 38 70 40 71 42 72 39 73 61 74
REMARK SMILES IDX 62 75 67 76 63 77 64 78 66 79 68 80 65 81 49 82 50 83 55 84
REMARK SMILES IDX 51 85 52 86 54 87 56 88 53 89
REMARK H PARENT 73 51 47 62
REMARK Flexibility Score: inf
ROOT
ATOM      1  C   UNL     1      -1.221  12.328  -8.212  1.00  0.00     0.202 C 
ENDROOT
BRANCH   1   2
ATOM      2  C   UNL     1      -0.920  11.800  -9.619  1.00  0.00     0.261 C 
BRANCH   2   3
ATOM      3  O   UNL     1      -1.214  10.401  -9.742  1.00  0.00    -0.460 OA
BRANCH   3   4
ATOM      4  C   UNL     1      -0.123   9.606  -9.887  1.00  0.00     0.338 C 
ATOM      5  O   UNL     1       1.027   9.974 -10.065  1.00  0.00    -0.246 OA
BRANCH   4   6
ATOM      6  C   UNL     1      -0.477   8.191  -9.621  1.00  0.00     0.060 A 
ATOM      7  C   UNL     1      -1.021   5.509  -8.976  1.00  0.00     0.063 A 
ATOM      8  C   UNL     1       0.258   6.041  -8.779  1.00  0.00     0.029 A 
ATOM      9  C   UNL     1      -2.014   6.324  -9.533  1.00  0.00     0.029 A 
ATOM     10  C   UNL     1       0.525   7.376  -9.080  1.00  0.00     0.018 A 
ATOM     11  C   UNL     1      -1.752   7.663  -9.851  1.00  0.00     0.018 A 
BRANCH   7  12
ATOM     12  N   UNL     1      -1.307   4.163  -8.713  1.00  0.00    -0.257 NA
ATOM     13  C   UNL     1      -1.160   3.651  -7.532  1.00  0.00     0.111 C 
BRANCH  13  14
ATOM     14  C   UNL     1      -0.750   4.313  -6.265  1.00  0.00     0.020 C 
ATOM     15  C   UNL     1      -0.443   3.701  -5.110  1.00  0.00     0.002 C 
BRANCH  15  16
ATOM     16  C   UNL     1      -0.458   2.277  -4.815  1.00  0.00     0.009 C 
ATOM     17  C   UNL     1       1.038  -0.167   0.092  1.00  0.00     0.149 C 
ATOM     18  N   UNL     1       0.589   0.427  -1.167  1.00  0.00    -0.351 N 
ATOM     19  C   UNL     1       0.731   1.784  -1.391  1.00  0.00     0.086 C 
ATOM     20  C   UNL     1       0.117  -0.410  -2.218  1.00  0.00     0.048 A 
ATOM     21  C   UNL     1       0.421   2.420  -2.525  1.00  0.00     0.026 C 
ATOM     22  C   UNL     1      -0.251   0.163  -3.480  1.00  0.00     0.005 A 
ATOM     23  C   UNL     1      -0.024  -1.804  -2.057  1.00  0.00     0.027 A 
ATOM     24  C   UNL     1      -0.109   1.664  -3.658  1.00  0.00    -0.015 C 
ATOM     25  C   UNL     1      -0.745  -0.686  -4.493  1.00  0.00     0.011 A 
ATOM     26  C   UNL     1      -0.526  -2.617  -3.075  1.00  0.00     0.002 A 
ATOM     27  C   UNL     1      -0.887  -2.059  -4.290  1.00  0.00     0.001 A 
ENDBRANCH  15  16
ENDBRANCH  13  14
ENDBRANCH   7  12
ENDBRANCH   4   6
ENDBRANCH   3   4
ENDBRANCH   2   3
ENDBRANCH   1   2
BRANCH   1  28
ATOM     28  O   UNL     1      -0.557  11.704  -7.117  1.00  0.00    -0.374 OA
BRANCH  28  29
ATOM     29  C   UNL     1      -1.046  10.439  -6.670  1.00  0.00     0.202 C 
BRANCH  29  30
ATOM     30  C   UNL     1      -2.377  10.418  -5.904  1.00  0.00     0.261 C 
BRANCH  30  31
ATOM     31  O   UNL     1      -3.497  10.764  -6.737  1.00  0.00    -0.460 OA
BRANCH  31  32
ATOM     32  C   UNL     1      -4.076  11.960  -6.464  1.00  0.00     0.338 C 
ATOM     33  O   UNL     1      -3.790  12.737  -5.568  1.00  0.00    -0.246 OA
BRANCH  32  34
ATOM     34  C   UNL     1      -4.996  12.304  -7.565  1.00  0.00     0.060 A 
ATOM     35  C   UNL     1      -6.036  11.449  -7.930  1.00  0.00     0.016 A 
ATOM     36  C   UNL     1      -4.809  13.524  -8.229  1.00  0.00     0.016 A 
ATOM     37  C   UNL     1      -6.904  11.830  -8.955  1.00  0.00     0.010 A 
ATOM     38  C   UNL     1      -5.675  13.900  -9.255  1.00  0.00     0.010 A 
ATOM     39  C   UNL     1      -6.740  13.063  -9.615  1.00  0.00    -0.014 A 
BRANCH  39  40
ATOM     40  C   UNL     1      -7.752  13.520 -10.599  1.00  0.00     0.031 A 
ATOM     41  C   UNL     1      -7.466  13.533 -12.071  1.00  0.00     0.074 A 
ATOM     42  C   UNL     1      -8.947  13.940 -10.140  1.00  0.00     0.049 A 
ATOM     43  N   UNL     1      -8.265  13.843 -13.061  1.00  0.00    -0.248 NA
ATOM     44  C   UNL     1      -6.108  13.156 -12.485  1.00  0.00     0.031 C 
ATOM     45  C   UNL     1      -9.328  14.007  -8.728  1.00  0.00     0.029 A 
ATOM     46  N   UNL     1     -10.059  14.381 -10.808  1.00  0.00    -0.354 N 
ATOM     47  C   UNL     1      -7.517  13.677 -14.219  1.00  0.00     0.074 A 
ATOM     48  C   UNL     1      -6.183  13.292 -13.803  1.00  0.00     0.031 C 
ATOM     49  C   UNL     1     -10.597  14.434  -8.637  1.00  0.00     0.029 A 
ATOM     50  C   UNL     1     -11.105  14.702  -9.978  1.00  0.00     0.049 A 
ATOM     51  H   UNL     1     -10.104  14.460 -11.789  1.00  0.00     0.167 HD
ATOM     52  C   UNL     1      -7.913  13.814 -15.509  1.00  0.00     0.037 A 
ATOM     53  C   UNL     1     -12.336  15.165 -10.267  1.00  0.00     0.037 A 
ATOM     54  C   UNL     1      -9.233  14.229 -15.916  1.00  0.00     0.049 A 
ATOM     55  C   UNL     1     -12.721  15.379 -11.705  1.00  0.00     0.074 A 
ATOM     56  C   UNL     1      -9.737  14.369 -17.199  1.00  0.00     0.029 A 
ATOM     57  N   UNL     1     -10.254  14.591 -15.049  1.00  0.00    -0.354 N 
ATOM     58  N   UNL     1     -12.033  15.136 -12.793  1.00  0.00    -0.248 NA
ATOM     59  C   UNL     1     -14.061  15.929 -11.951  1.00  0.00     0.031 C 
ATOM     60  C   UNL     1     -11.040  14.873 -17.108  1.00  0.00     0.029 A 
ATOM     61  C   UNL     1     -11.371  14.988 -15.768  1.00  0.00     0.049 A 
ATOM     62  H   UNL     1     -10.193  14.569 -14.066  1.00  0.00     0.167 HD
ATOM     63  C   UNL     1     -12.864  15.478 -13.852  1.00  0.00     0.074 A 
ATOM     64  C   UNL     1     -14.116  15.920 -13.275  1.00  0.00     0.031 C 
ATOM     65  C   UNL     1     -12.612  15.432 -15.184  1.00  0.00     0.037 A 
BRANCH  52  66
ATOM     66  C   UNL     1      -6.900  13.517 -16.578  1.00  0.00     0.057 A 
ATOM     67  C   UNL     1      -6.402  14.535 -17.402  1.00  0.00     0.134 A 
ATOM     68  C   UNL     1      -6.446  12.213 -16.820  1.00  0.00     0.134 A 
ATOM     69  F   UNL     1      -6.803  15.804 -17.235  1.00  0.00    -0.206 F 
ATOM     70  C   UNL     1      -5.489  14.267 -18.424  1.00  0.00     0.040 A 
ATOM     71  C   UNL     1      -5.512  11.937 -17.821  1.00  0.00     0.040 A 
ATOM     72  F   UNL     1      -6.878  11.191 -16.066  1.00  0.00    -0.206 F 
ATOM     73  C   UNL     1      -5.035  12.966 -18.630  1.00  0.00     0.006 A 
ENDBRANCH  52  66
BRANCH  53  74
ATOM     74  C   UNL     1     -13.302  15.457  -9.178  1.00  0.00     0.057 A 
ATOM     75  C   UNL     1     -13.098  16.517  -8.287  1.00  0.00     0.134 A 
ATOM     76  C   UNL     1     -14.476  14.709  -9.033  1.00  0.00     0.134 A 
ATOM     77  F   UNL     1     -11.990  17.268  -8.367  1.00  0.00    -0.206 F 
ATOM     78  C   UNL     1     -14.028  16.825  -7.293  1.00  0.00     0.040 A 
ATOM     79  C   UNL     1     -15.430  15.025  -8.064  1.00  0.00     0.040 A 
ATOM     80  F   UNL     1     -14.736  13.691  -9.867  1.00  0.00    -0.206 F 
ATOM     81  C   UNL     1     -15.205  16.086  -7.189  1.00  0.00     0.006 A 
ENDBRANCH  53  74
BRANCH  65  82
ATOM     82  C   UNL     1     -13.727  15.846 -16.104  1.00  0.00     0.057 A 
ATOM     83  C   UNL     1     -14.377  14.901 -16.909  1.00  0.00     0.134 A 
ATOM     84  C   UNL     1     -14.155  17.177 -16.200  1.00  0.00     0.134 A 
ATOM     85  F   UNL     1     -14.014  13.610 -16.874  1.00  0.00    -0.206 F 
ATOM     86  C   UNL     1     -15.411  15.264 -17.774  1.00  0.00     0.040 A 
ATOM     87  C   UNL     1     -15.210  17.547 -17.037  1.00  0.00     0.040 A 
ATOM     88  F   UNL     1     -13.588  18.130 -15.445  1.00  0.00    -0.206 F 
ATOM     89  C   UNL     1     -15.836  16.590 -17.832  1.00  0.00     0.006 A 
ENDBRANCH  65  82
ENDBRANCH  39  40
ENDBRANCH  32  34
ENDBRANCH  31  32
ENDBRANCH  30  31
ENDBRANCH  29  30
ENDBRANCH  28  29
ENDBRANCH   1  28
TORSDOF 17
