REMARK SMILES O=C(/C=C/Nc1cc(Cl)ccc1Cl)OCCOCCOC(=O)c1ccc(-c2c3nc(c(-c4c(F)cccc4F)c4ccc([nH]4)c(-c4c(F)cccc4F)c4nc(c(-c5c(F)cccc5F)c5ccc2[nH]5)C=C4)C=C3)cc1
REMARK SMILES IDX 17 1 16 2 15 3 14 4 2 5 1 6 3 7 4 8 5 9 6 11 7 12 12 13 8 14
REMARK SMILES IDX 11 15 13 16 9 17 10 18 18 19 19 20 20 21 21 22 22 23 23 24
REMARK SMILES IDX 24 25 76 26 25 27 75 28 26 29 27 30 28 31 69 32 29 33 74 34
REMARK SMILES IDX 68 35 70 36 30 37 73 38 67 39 66 40 31 42 57 43 40 44 56 45
REMARK SMILES IDX 41 46 44 47 55 48 71 49 42 50 43 51 54 53 72 54 45 55 32 56
REMARK SMILES IDX 33 57 38 58 34 59 35 60 37 61 39 62 36 63 58 64 59 65 64 66
REMARK SMILES IDX 60 67 61 68 63 69 65 70 62 71 46 72 47 73 52 74 48 75 49 76
REMARK SMILES IDX 51 77 53 78 50 79
REMARK H PARENT 5 10 70 41 44 52
REMARK Flexibility Score: inf
ROOT
ATOM      1  O   UNL     1       4.003   0.631  -1.189  1.00  0.00    -0.374 OA
ENDROOT
BRANCH   1   2
ATOM      2  C   UNL     1       4.309  -0.755  -1.056  1.00  0.00     0.202 C 
BRANCH   2   3
ATOM      3  C   UNL     1       4.151  -1.314   0.354  1.00  0.00     0.261 C 
BRANCH   3   4
ATOM      4  O   UNL     1       2.852  -1.109   0.943  1.00  0.00    -0.460 OA
BRANCH   4   5
ATOM      5  C   UNL     1       2.355   0.016   1.505  1.00  0.00     0.332 C 
ATOM      6  O   UNL     1       1.192   0.043   1.901  1.00  0.00    -0.247 OA
BRANCH   5   7
ATOM      7  C   UNL     1       3.123   1.270   1.530  1.00  0.00     0.111 C 
ATOM      8  C   UNL     1       4.417   1.414   1.823  1.00  0.00     0.090 C 
BRANCH   8   9
ATOM      9  N   UNL     1       5.168   2.560   1.758  1.00  0.00    -0.360 N 
ATOM     10  H   UNL     1       4.716   3.429   1.857  1.00  0.00     0.166 HD
BRANCH   9  11
ATOM     11  C   UNL     1       6.562   2.541   1.555  1.00  0.00     0.058 A 
ATOM     12  C   UNL     1       7.081   2.055   0.341  1.00  0.00     0.048 A 
ATOM     13  C   UNL     1       7.453   3.078   2.498  1.00  0.00     0.064 A 
ATOM     14  C   UNL     1       8.457   2.038   0.116  1.00  0.00     0.043 A 
ATOM     15  C   UNL     1       8.832   3.051   2.272  1.00  0.00     0.024 A 
ATOM     16  Cl  UNL     1       6.880   3.745   3.986  1.00  0.00    -0.082 Cl
ATOM     17  Cl  UNL     1       9.075   1.407  -1.361  1.00  0.00    -0.084 Cl
ATOM     18  C   UNL     1       9.336   2.522   1.082  1.00  0.00     0.022 A 
ENDBRANCH   9  11
ENDBRANCH   8   9
ENDBRANCH   5   7
ENDBRANCH   4   5
ENDBRANCH   3   4
ENDBRANCH   2   3
ENDBRANCH   1   2
BRANCH   1  19
ATOM     19  C   UNL     1       2.734   0.890  -1.800  1.00  0.00     0.202 C 
BRANCH  19  20
ATOM     20  C   UNL     1       2.810   1.010  -3.327  1.00  0.00     0.261 C 
BRANCH  20  21
ATOM     21  O   UNL     1       3.272  -0.216  -3.916  1.00  0.00    -0.460 OA
BRANCH  21  22
ATOM     22  C   UNL     1       4.595  -0.251  -4.210  1.00  0.00     0.338 C 
ATOM     23  O   UNL     1       5.383   0.679  -4.191  1.00  0.00    -0.246 OA
BRANCH  22  24
ATOM     24  C   UNL     1       5.009  -1.665  -4.353  1.00  0.00     0.060 A 
ATOM     25  C   UNL     1       6.222  -2.052  -3.768  1.00  0.00     0.016 A 
ATOM     26  C   UNL     1       4.207  -2.606  -5.003  1.00  0.00     0.016 A 
ATOM     27  C   UNL     1       6.637  -3.381  -3.831  1.00  0.00     0.010 A 
ATOM     28  C   UNL     1       4.631  -3.935  -5.079  1.00  0.00     0.010 A 
ATOM     29  C   UNL     1       5.854  -4.325  -4.506  1.00  0.00    -0.014 A 
BRANCH  29  30
ATOM     30  C   UNL     1       6.369  -5.694  -4.731  1.00  0.00     0.031 A 
ATOM     31  C   UNL     1       6.996  -6.019  -6.056  1.00  0.00     0.074 A 
ATOM     32  C   UNL     1       6.273  -6.633  -3.772  1.00  0.00     0.049 A 
ATOM     33  N   UNL     1       7.444  -7.163  -6.503  1.00  0.00    -0.248 NA
ATOM     34  C   UNL     1       7.132  -4.904  -7.008  1.00  0.00     0.031 C 
ATOM     35  C   UNL     1       5.711  -6.426  -2.438  1.00  0.00     0.029 A 
ATOM     36  N   UNL     1       6.633  -7.957  -3.785  1.00  0.00    -0.354 N 
ATOM     37  C   UNL     1       7.907  -6.909  -7.788  1.00  0.00     0.074 A 
ATOM     38  C   UNL     1       7.664  -5.509  -8.059  1.00  0.00     0.031 C 
ATOM     39  C   UNL     1       5.746  -7.591  -1.766  1.00  0.00     0.029 A 
ATOM     40  C   UNL     1       6.300  -8.629  -2.634  1.00  0.00     0.049 A 
ATOM     41  H   UNL     1       7.087  -8.385  -4.547  1.00  0.00     0.167 HD
ATOM     42  C   UNL     1       8.487  -7.766  -8.659  1.00  0.00     0.037 A 
ATOM     43  C   UNL     1       6.404  -9.937  -2.331  1.00  0.00     0.037 A 
ATOM     44  C   UNL     1       8.728  -9.157  -8.383  1.00  0.00     0.049 A 
ATOM     45  C   UNL     1       6.989 -10.884  -3.348  1.00  0.00     0.074 A 
ATOM     46  C   UNL     1       9.340 -10.101  -9.189  1.00  0.00     0.029 A 
ATOM     47  N   UNL     1       8.359  -9.806  -7.215  1.00  0.00    -0.354 N 
ATOM     48  N   UNL     1       7.462 -10.626  -4.544  1.00  0.00    -0.248 NA
ATOM     49  C   UNL     1       7.053 -12.304  -2.974  1.00  0.00     0.031 C 
ATOM     50  C   UNL     1       9.293 -11.333  -8.530  1.00  0.00     0.029 A 
ATOM     51  C   UNL     1       8.700 -11.145  -7.292  1.00  0.00     0.049 A 
ATOM     52  H   UNL     1       7.919  -9.378  -6.445  1.00  0.00     0.167 HD
ATOM     53  C   UNL     1       7.901 -11.843  -5.052  1.00  0.00     0.074 A 
ATOM     54  C   UNL     1       7.657 -12.836  -4.027  1.00  0.00     0.031 C 
ATOM     55  C   UNL     1       8.455 -12.117  -6.258  1.00  0.00     0.037 A 
BRANCH  42  56
ATOM     56  C   UNL     1       8.883  -7.232 -10.002  1.00  0.00     0.057 A 
ATOM     57  C   UNL     1       9.983  -6.381 -10.166  1.00  0.00     0.134 A 
ATOM     58  C   UNL     1       8.188  -7.621 -11.155  1.00  0.00     0.134 A 
ATOM     59  F   UNL     1      10.680  -5.959  -9.100  1.00  0.00    -0.206 F 
ATOM     60  C   UNL     1      10.371  -5.927 -11.427  1.00  0.00     0.040 A 
ATOM     61  C   UNL     1       8.582  -7.193 -12.423  1.00  0.00     0.040 A 
ATOM     62  F   UNL     1       7.126  -8.436 -11.067  1.00  0.00    -0.206 F 
ATOM     63  C   UNL     1       9.675  -6.342 -12.562  1.00  0.00     0.006 A 
ENDBRANCH  42  56
BRANCH  43  64
ATOM     64  C   UNL     1       5.917 -10.450  -1.024  1.00  0.00     0.057 A 
ATOM     65  C   UNL     1       6.800 -10.973  -0.072  1.00  0.00     0.134 A 
ATOM     66  C   UNL     1       4.551 -10.475  -0.716  1.00  0.00     0.134 A 
ATOM     67  F   UNL     1       8.118 -11.002  -0.319  1.00  0.00    -0.206 F 
ATOM     68  C   UNL     1       6.343 -11.528   1.125  1.00  0.00     0.040 A 
ATOM     69  C   UNL     1       4.082 -11.000   0.489  1.00  0.00     0.040 A 
ATOM     70  F   UNL     1       3.651  -9.990  -1.584  1.00  0.00    -0.206 F 
ATOM     71  C   UNL     1       4.979 -11.539   1.409  1.00  0.00     0.006 A 
ENDBRANCH  43  64
BRANCH  55  72
ATOM     72  C   UNL     1       8.862 -13.538  -6.523  1.00  0.00     0.057 A 
ATOM     73  C   UNL     1       7.918 -14.548  -6.746  1.00  0.00     0.134 A 
ATOM     74  C   UNL     1      10.216 -13.890  -6.598  1.00  0.00     0.134 A 
ATOM     75  F   UNL     1       6.605 -14.279  -6.677  1.00  0.00    -0.206 F 
ATOM     76  C   UNL     1       8.306 -15.863  -7.010  1.00  0.00     0.040 A 
ATOM     77  C   UNL     1      10.616 -15.195  -6.889  1.00  0.00     0.040 A 
ATOM     78  F   UNL     1      11.172 -12.968  -6.405  1.00  0.00    -0.206 F 
ATOM     79  C   UNL     1       9.659 -16.187  -7.089  1.00  0.00     0.006 A 
ENDBRANCH  55  72
ENDBRANCH  29  30
ENDBRANCH  22  24
ENDBRANCH  21  22
ENDBRANCH  20  21
ENDBRANCH  19  20
ENDBRANCH   1  19
TORSDOF 16
