REMARK SMILES CC[C@@]1(C(=O)OCCOCCOC(=O)c2ccc(-c3c4nc(c(-c5c(F)cccc5F)c5ccc([nH]5)c(-c5c(F)cccc5F)c5nc(c(-c6c(F)cccc6F)c6ccc3[nH]6)C=C5)C=C4)cc2)CCC[N@@H+](Cc2ccc(C3CC3)cc2)C1
REMARK SMILES IDX 8 1 7 2 6 3 4 4 5 5 3 6 69 7 83 8 70 9 72 10 71 11 2 13 1 14
REMARK SMILES IDX 73 15 74 16 75 17 82 18 76 19 81 20 77 21 78 22 79 23 80 24
REMARK SMILES IDX 9 25 10 26 11 27 12 28 13 29 14 30 15 31 16 32 68 33 17 34
REMARK SMILES IDX 67 35 18 36 19 37 20 38 61 39 21 40 66 41 60 42 62 43 22 44
REMARK SMILES IDX 65 45 59 46 58 47 23 49 49 50 32 51 48 52 33 53 36 54 47 55
REMARK SMILES IDX 63 56 34 57 35 58 46 60 64 61 37 62 24 63 25 64 30 65 26 66
REMARK SMILES IDX 27 67 29 68 31 69 28 70 50 71 51 72 56 73 52 74 53 75 55 76
REMARK SMILES IDX 57 77 54 78 38 79 39 80 44 81 40 82 41 83 43 84 45 85 42 86
REMARK H PARENT 72 12 62 48 36 59
REMARK Flexibility Score: inf
ROOT
ATOM      1  C   UNL     1      -0.754   0.265   1.827  1.00  0.00     0.202 C 
ENDROOT
BRANCH   1   2
ATOM      2  C   UNL     1      -0.861   1.729   1.381  1.00  0.00     0.261 C 
BRANCH   2   3
ATOM      3  O   UNL     1      -0.565   1.869  -0.018  1.00  0.00    -0.463 OA
BRANCH   3   4
ATOM      4  C   UNL     1       0.761   1.990  -0.277  1.00  0.00     0.317 C 
ATOM      5  O   UNL     1       1.593   2.143   0.609  1.00  0.00    -0.251 OA
BRANCH   4   6
ATOM      6  C   UNL     1       1.097   1.869  -1.774  1.00  0.00     0.117 C 
ATOM      7  C   UNL     1       2.606   1.509  -1.922  1.00  0.00     0.030 C 
ATOM      8  C   UNL     1       0.874   3.258  -2.378  1.00  0.00     0.281 C 
ATOM      9  C   UNL     1       3.555   2.599  -1.428  1.00  0.00     0.063 C 
ATOM     10  N   UNL     1       1.716   4.275  -1.735  1.00  0.00    -0.330 N 
ATOM     11  C   UNL     1       3.149   3.994  -1.906  1.00  0.00     0.262 C 
ATOM     12  H   UNL     1       1.529   4.211  -0.735  1.00  0.00     0.348 HD
BRANCH   6  13
ATOM     13  C   UNL     1       0.324   0.783  -2.606  1.00  0.00     0.021 C 
ATOM     14  C   UNL     1      -1.146   0.495  -2.330  1.00  0.00     0.005 C 
ENDBRANCH   6  13
BRANCH  10  15
ATOM     15  C   UNL     1       1.346   5.652  -2.108  1.00  0.00     0.299 C 
BRANCH  15  16
ATOM     16  C   UNL     1       1.595   5.998  -3.558  1.00  0.00     0.006 A 
ATOM     17  C   UNL     1       2.751   6.688  -3.932  1.00  0.00     0.010 A 
ATOM     18  C   UNL     1       0.743   5.525  -4.561  1.00  0.00     0.010 A 
ATOM     19  C   UNL     1       3.094   6.803  -5.281  1.00  0.00     0.004 A 
ATOM     20  C   UNL     1       1.112   5.614  -5.902  1.00  0.00     0.004 A 
ATOM     21  C   UNL     1       2.312   6.228  -6.297  1.00  0.00    -0.045 A 
BRANCH  21  22
ATOM     22  C   UNL     1       2.786   6.271  -7.734  1.00  0.00     0.019 C 
ATOM     23  C   UNL     1       2.422   5.186  -8.720  1.00  0.00     0.009 C 
ATOM     24  C   UNL     1       1.813   6.554  -8.851  1.00  0.00     0.009 C 
ENDBRANCH  21  22
ENDBRANCH  15  16
ENDBRANCH  10  15
ENDBRANCH   4   6
ENDBRANCH   3   4
ENDBRANCH   2   3
ENDBRANCH   1   2
BRANCH   1  25
ATOM     25  O   UNL     1       0.548  -0.319   1.893  1.00  0.00    -0.374 OA
BRANCH  25  26
ATOM     26  C   UNL     1       1.063  -0.910   0.699  1.00  0.00     0.202 C 
BRANCH  26  27
ATOM     27  C   UNL     1       0.647  -2.353   0.409  1.00  0.00     0.261 C 
BRANCH  27  28
ATOM     28  O   UNL     1      -0.758  -2.429   0.113  1.00  0.00    -0.460 OA
BRANCH  28  29
ATOM     29  C   UNL     1      -1.527  -2.809   1.158  1.00  0.00     0.338 C 
ATOM     30  O   UNL     1      -1.145  -3.236   2.238  1.00  0.00    -0.246 OA
BRANCH  29  31
ATOM     31  C   UNL     1      -2.933  -2.437   0.905  1.00  0.00     0.060 A 
ATOM     32  C   UNL     1      -3.628  -1.820   1.956  1.00  0.00     0.016 A 
ATOM     33  C   UNL     1      -3.572  -2.697  -0.309  1.00  0.00     0.016 A 
ATOM     34  C   UNL     1      -4.982  -1.532   1.826  1.00  0.00     0.010 A 
ATOM     35  C   UNL     1      -4.936  -2.417  -0.435  1.00  0.00     0.010 A 
ATOM     36  C   UNL     1      -5.655  -1.879   0.649  1.00  0.00    -0.014 A 
BRANCH  36  37
ATOM     37  C   UNL     1      -7.137  -1.860   0.633  1.00  0.00     0.031 A 
ATOM     38  C   UNL     1      -7.874  -3.161   0.805  1.00  0.00     0.074 A 
ATOM     39  C   UNL     1      -7.819  -0.708   0.516  1.00  0.00     0.049 A 
ATOM     40  N   UNL     1      -9.160  -3.397   0.787  1.00  0.00    -0.248 NA
ATOM     41  C   UNL     1      -7.046  -4.358   1.025  1.00  0.00     0.031 C 
ATOM     42  C   UNL     1      -7.222   0.620   0.398  1.00  0.00     0.029 A 
ATOM     43  N   UNL     1      -9.171  -0.477   0.474  1.00  0.00    -0.354 N 
ATOM     44  C   UNL     1      -9.294  -4.766   0.980  1.00  0.00     0.074 A 
ATOM     45  C   UNL     1      -7.960  -5.314   1.081  1.00  0.00     0.031 C 
ATOM     46  C   UNL     1      -8.205   1.530   0.284  1.00  0.00     0.029 A 
ATOM     47  C   UNL     1      -9.496   0.843   0.284  1.00  0.00     0.049 A 
ATOM     48  H   UNL     1      -9.843  -1.190   0.570  1.00  0.00     0.167 HD
ATOM     49  C   UNL     1     -10.428  -5.500   1.075  1.00  0.00     0.037 A 
ATOM     50  C   UNL     1     -10.698   1.425   0.105  1.00  0.00     0.037 A 
ATOM     51  C   UNL     1     -11.755  -4.951   0.982  1.00  0.00     0.049 A 
ATOM     52  C   UNL     1     -11.943   0.576   0.133  1.00  0.00     0.074 A 
ATOM     53  C   UNL     1     -12.968  -5.608   1.088  1.00  0.00     0.029 A 
ATOM     54  N   UNL     1     -12.043  -3.614   0.751  1.00  0.00    -0.354 N 
ATOM     55  N   UNL     1     -12.063  -0.714   0.338  1.00  0.00    -0.248 NA
ATOM     56  C   UNL     1     -13.222   1.265  -0.094  1.00  0.00     0.031 C 
ATOM     57  C   UNL     1     -13.988  -4.681   0.858  1.00  0.00     0.029 A 
ATOM     58  C   UNL     1     -13.414  -3.433   0.677  1.00  0.00     0.049 A 
ATOM     59  H   UNL     1     -11.372  -2.900   0.654  1.00  0.00     0.167 HD
ATOM     60  C   UNL     1     -13.426  -0.983   0.298  1.00  0.00     0.074 A 
ATOM     61  C   UNL     1     -14.094   0.279   0.060  1.00  0.00     0.031 C 
ATOM     62  C   UNL     1     -14.067  -2.169   0.449  1.00  0.00     0.037 A 
BRANCH  49  63
ATOM     63  C   UNL     1     -10.283  -6.983   1.259  1.00  0.00     0.057 A 
ATOM     64  C   UNL     1      -9.816  -7.543   2.455  1.00  0.00     0.134 A 
ATOM     65  C   UNL     1     -10.651  -7.864   0.234  1.00  0.00     0.134 A 
ATOM     66  F   UNL     1      -9.432  -6.756   3.471  1.00  0.00    -0.206 F 
ATOM     67  C   UNL     1      -9.697  -8.925   2.615  1.00  0.00     0.040 A 
ATOM     68  C   UNL     1     -10.565  -9.247   0.393  1.00  0.00     0.040 A 
ATOM     69  F   UNL     1     -11.110  -7.394  -0.936  1.00  0.00    -0.206 F 
ATOM     70  C   UNL     1     -10.081  -9.782   1.585  1.00  0.00     0.006 A 
ENDBRANCH  49  63
BRANCH  50  71
ATOM     71  C   UNL     1     -10.787   2.887  -0.140  1.00  0.00     0.057 A 
ATOM     72  C   UNL     1     -11.380   3.747   0.792  1.00  0.00     0.134 A 
ATOM     73  C   UNL     1     -10.305   3.457  -1.325  1.00  0.00     0.134 A 
ATOM     74  F   UNL     1     -11.883   3.260   1.936  1.00  0.00    -0.206 F 
ATOM     75  C   UNL     1     -11.508   5.116   0.547  1.00  0.00     0.040 A 
ATOM     76  C   UNL     1     -10.400   4.827  -1.571  1.00  0.00     0.040 A 
ATOM     77  F   UNL     1      -9.726   2.688  -2.259  1.00  0.00    -0.206 F 
ATOM     78  C   UNL     1     -11.011   5.660  -0.636  1.00  0.00     0.006 A 
ENDBRANCH  50  71
BRANCH  62  79
ATOM     79  C   UNL     1     -15.569  -2.158   0.406  1.00  0.00     0.057 A 
ATOM     80  C   UNL     1     -16.279  -1.940  -0.781  1.00  0.00     0.134 A 
ATOM     81  C   UNL     1     -16.314  -2.425   1.563  1.00  0.00     0.134 A 
ATOM     82  F   UNL     1     -15.628  -1.669  -1.923  1.00  0.00    -0.206 F 
ATOM     83  C   UNL     1     -17.675  -1.965  -0.813  1.00  0.00     0.040 A 
ATOM     84  C   UNL     1     -17.709  -2.483   1.538  1.00  0.00     0.040 A 
ATOM     85  F   UNL     1     -15.699  -2.654   2.733  1.00  0.00    -0.206 F 
ATOM     86  C   UNL     1     -18.393  -2.247   0.348  1.00  0.00     0.006 A 
ENDBRANCH  62  79
ENDBRANCH  36  37
ENDBRANCH  29  31
ENDBRANCH  28  29
ENDBRANCH  27  28
ENDBRANCH  26  27
ENDBRANCH  25  26
ENDBRANCH   1  25
TORSDOF 18
