REMARK SMILES Cn1cc(S(=O)(=O)N[C@@H]2C=C[C@@H](C(=O)OCCOCCOC(=O)c3ccc(-c4c5nc(c(-c6c(F)cccc6F)c6ccc([nH]6)c(-c6c(F)cccc6F)c6nc(c(-c7c(F)cccc7F)c7ccc4[nH]7)C=C6)C=C5)cc3)C2)cc1C(N)=O
REMARK SMILES IDX 17 1 16 2 15 3 13 4 14 5 12 6 9 7 10 8 78 9 11 10 8 11 5 13
REMARK SMILES IDX 6 14 7 15 4 16 1 17 2 18 3 19 80 20 79 21 81 22 82 23 83 24
REMARK SMILES IDX 18 27 19 28 20 29 21 30 22 31 23 32 24 33 25 34 77 35 26 36
REMARK SMILES IDX 76 37 27 38 28 39 29 40 70 41 30 42 75 43 69 44 71 45 31 46
REMARK SMILES IDX 74 47 68 48 67 49 32 51 58 52 41 53 57 54 42 55 45 56 56 57
REMARK SMILES IDX 72 58 43 59 44 60 55 62 73 63 46 64 33 65 34 66 39 67 35 68
REMARK SMILES IDX 36 69 38 70 40 71 37 72 59 73 60 74 65 75 61 76 62 77 64 78
REMARK SMILES IDX 66 79 63 80 47 81 48 82 53 83 49 84 50 85 52 86 54 87 51 88
REMARK H PARENT 8 12 82 25 82 26 71 50 45 61
REMARK Flexibility Score: inf
ROOT
ATOM      1  C   UNL     1      -1.616  -5.395  -0.933  1.00  0.00     0.202 C 
ENDROOT
BRANCH   1   2
ATOM      2  C   UNL     1      -3.127  -5.368  -0.704  1.00  0.00     0.261 C 
BRANCH   2   3
ATOM      3  O   UNL     1      -3.558  -4.056  -0.300  1.00  0.00    -0.463 OA
BRANCH   3   4
ATOM      4  C   UNL     1      -4.199  -3.984   0.894  1.00  0.00     0.312 C 
ATOM      5  O   UNL     1      -4.506  -4.945   1.592  1.00  0.00    -0.252 OA
BRANCH   4   6
ATOM      6  C   UNL     1      -4.582  -2.566   1.272  1.00  0.00     0.123 C 
ATOM      7  C   UNL     1      -4.512  -0.195   0.738  1.00  0.00     0.093 C 
ATOM      8  C   UNL     1      -5.777  -0.836   0.266  1.00  0.00    -0.011 C 
ATOM      9  C   UNL     1      -3.612  -1.435   0.900  1.00  0.00     0.043 C 
ATOM     10  C   UNL     1      -5.830  -2.141   0.562  1.00  0.00    -0.015 C 
BRANCH   7  11
ATOM     11  N   UNL     1      -4.661   0.432   2.062  1.00  0.00    -0.204 NA
ATOM     12  H   UNL     1      -4.797  -0.324   2.733  1.00  0.00     0.142 HD
BRANCH  11  13
ATOM     13  S   UNL     1      -5.898   1.548   2.328  1.00  0.00     0.242 S 
ATOM     14  O   UNL     1      -6.095   2.308   1.115  1.00  0.00    -0.207 OA
ATOM     15  O   UNL     1      -5.615   2.174   3.600  1.00  0.00    -0.207 OA
BRANCH  13  16
ATOM     16  C   UNL     1      -7.371   0.691   2.592  1.00  0.00     0.100 A 
ATOM     17  C   UNL     1     -10.942   0.205   2.416  1.00  0.00     0.150 C 
ATOM     18  N   UNL     1      -9.508   0.080   2.577  1.00  0.00    -0.345 N 
ATOM     19  C   UNL     1      -8.648   1.126   2.326  1.00  0.00     0.107 A 
ATOM     20  C   UNL     1      -8.793  -1.051   2.946  1.00  0.00     0.107 A 
ATOM     21  C   UNL     1      -7.473  -0.631   3.082  1.00  0.00     0.055 A 
BRANCH  20  22
ATOM     22  C   UNL     1      -9.339  -2.384   3.129  1.00  0.00     0.265 C 
ATOM     23  N   UNL     1      -8.421  -3.394   3.195  1.00  0.00    -0.364 N 
ATOM     24  O   UNL     1     -10.532  -2.661   3.186  1.00  0.00    -0.268 OA
ATOM     25  H   UNL     1      -7.460  -3.189   3.151  1.00  0.00     0.160 HD
ATOM     26  H   UNL     1      -8.722  -4.327   3.285  1.00  0.00     0.160 HD
ENDBRANCH  20  22
ENDBRANCH  13  16
ENDBRANCH  11  13
ENDBRANCH   7  11
ENDBRANCH   4   6
ENDBRANCH   3   4
ENDBRANCH   2   3
ENDBRANCH   1   2
BRANCH   1  27
ATOM     27  O   UNL     1      -0.817  -5.246   0.239  1.00  0.00    -0.374 OA
BRANCH  27  28
ATOM     28  C   UNL     1      -0.669  -3.930   0.773  1.00  0.00     0.202 C 
BRANCH  28  29
ATOM     29  C   UNL     1       0.301  -3.011   0.021  1.00  0.00     0.261 C 
BRANCH  29  30
ATOM     30  O   UNL     1      -0.221  -2.613  -1.262  1.00  0.00    -0.460 OA
BRANCH  30  31
ATOM     31  C   UNL     1       0.502  -3.042  -2.326  1.00  0.00     0.338 C 
ATOM     32  O   UNL     1       1.558  -3.651  -2.307  1.00  0.00    -0.246 OA
BRANCH  31  33
ATOM     33  C   UNL     1      -0.252  -2.819  -3.574  1.00  0.00     0.060 A 
ATOM     34  C   UNL     1      -0.452  -3.921  -4.416  1.00  0.00     0.016 A 
ATOM     35  C   UNL     1      -0.676  -1.545  -3.959  1.00  0.00     0.016 A 
ATOM     36  C   UNL     1      -1.040  -3.747  -5.667  1.00  0.00     0.010 A 
ATOM     37  C   UNL     1      -1.256  -1.371  -5.221  1.00  0.00     0.010 A 
ATOM     38  C   UNL     1      -1.412  -2.464  -6.092  1.00  0.00    -0.014 A 
BRANCH  38  39
ATOM     39  C   UNL     1      -1.837  -2.251  -7.496  1.00  0.00     0.031 A 
ATOM     40  C   UNL     1      -0.829  -1.771  -8.502  1.00  0.00     0.074 A 
ATOM     41  C   UNL     1      -3.103  -2.498  -7.876  1.00  0.00     0.049 A 
ATOM     42  N   UNL     1      -0.994  -1.477  -9.767  1.00  0.00    -0.248 NA
ATOM     43  C   UNL     1       0.551  -1.602  -8.018  1.00  0.00     0.031 C 
ATOM     44  C   UNL     1      -4.163  -3.004  -7.006  1.00  0.00     0.029 A 
ATOM     45  N   UNL     1      -3.710  -2.347  -9.097  1.00  0.00    -0.354 N 
ATOM     46  C   UNL     1       0.256  -1.085 -10.229  1.00  0.00     0.074 A 
ATOM     47  C   UNL     1       1.165  -1.156  -9.105  1.00  0.00     0.031 C 
ATOM     48  C   UNL     1      -5.298  -3.107  -7.719  1.00  0.00     0.029 A 
ATOM     49  C   UNL     1      -5.050  -2.647  -9.085  1.00  0.00     0.049 A 
ATOM     50  H   UNL     1      -3.232  -2.051  -9.905  1.00  0.00     0.167 HD
ATOM     51  C   UNL     1       0.616  -0.708 -11.478  1.00  0.00     0.037 A 
ATOM     52  C   UNL     1      -5.974  -2.539 -10.059  1.00  0.00     0.037 A 
ATOM     53  C   UNL     1      -0.285  -0.637 -12.598  1.00  0.00     0.049 A 
ATOM     54  C   UNL     1      -5.566  -2.040 -11.419  1.00  0.00     0.074 A 
ATOM     55  C   UNL     1      -0.007  -0.291 -13.909  1.00  0.00     0.029 A 
ATOM     56  N   UNL     1      -1.642  -0.911 -12.535  1.00  0.00    -0.354 N 
ATOM     57  N   UNL     1      -4.378  -1.696 -11.851  1.00  0.00    -0.248 NA
ATOM     58  C   UNL     1      -6.631  -1.910 -12.425  1.00  0.00     0.031 C 
ATOM     59  C   UNL     1      -1.206  -0.315 -14.630  1.00  0.00     0.029 A 
ATOM     60  C   UNL     1      -2.221  -0.714 -13.777  1.00  0.00     0.049 A 
ATOM     61  H   UNL     1      -2.123  -1.203 -11.727  1.00  0.00     0.167 HD
ATOM     62  C   UNL     1      -4.546  -1.331 -13.181  1.00  0.00     0.074 A 
ATOM     63  C   UNL     1      -5.951  -1.503 -13.488  1.00  0.00     0.031 C 
ATOM     64  C   UNL     1      -3.620  -0.892 -14.068  1.00  0.00     0.037 A 
BRANCH  51  65
ATOM     65  C   UNL     1       2.047  -0.319 -11.695  1.00  0.00     0.057 A 
ATOM     66  C   UNL     1       3.070  -1.274 -11.754  1.00  0.00     0.134 A 
ATOM     67  C   UNL     1       2.400   1.023 -11.881  1.00  0.00     0.134 A 
ATOM     68  F   UNL     1       2.796  -2.574 -11.569  1.00  0.00    -0.206 F 
ATOM     69  C   UNL     1       4.398  -0.905 -11.972  1.00  0.00     0.040 A 
ATOM     70  C   UNL     1       3.722   1.402 -12.121  1.00  0.00     0.040 A 
ATOM     71  F   UNL     1       1.467   1.986 -11.839  1.00  0.00    -0.206 F 
ATOM     72  C   UNL     1       4.726   0.436 -12.163  1.00  0.00     0.006 A 
ENDBRANCH  51  65
BRANCH  52  73
ATOM     73  C   UNL     1      -7.388  -2.888  -9.779  1.00  0.00     0.057 A 
ATOM     74  C   UNL     1      -7.978  -4.028 -10.336  1.00  0.00     0.134 A 
ATOM     75  C   UNL     1      -8.188  -2.079  -8.962  1.00  0.00     0.134 A 
ATOM     76  F   UNL     1      -7.269  -4.827 -11.146  1.00  0.00    -0.206 F 
ATOM     77  C   UNL     1      -9.317  -4.346 -10.101  1.00  0.00     0.040 A 
ATOM     78  C   UNL     1      -9.521  -2.396  -8.701  1.00  0.00     0.040 A 
ATOM     79  F   UNL     1      -7.680  -0.972  -8.400  1.00  0.00    -0.206 F 
ATOM     80  C   UNL     1     -10.091  -3.530  -9.277  1.00  0.00     0.006 A 
ENDBRANCH  52  73
BRANCH  64  81
ATOM     81  C   UNL     1      -4.088  -0.590 -15.460  1.00  0.00     0.057 A 
ATOM     82  C   UNL     1      -4.812   0.571 -15.756  1.00  0.00     0.134 A 
ATOM     83  C   UNL     1      -3.766  -1.444 -16.523  1.00  0.00     0.134 A 
ATOM     84  F   UNL     1      -5.162   1.422 -14.780  1.00  0.00    -0.206 F 
ATOM     85  C   UNL     1      -5.212   0.866 -17.061  1.00  0.00     0.040 A 
ATOM     86  C   UNL     1      -4.142  -1.149 -17.834  1.00  0.00     0.040 A 
ATOM     87  F   UNL     1      -3.068  -2.568 -16.305  1.00  0.00    -0.206 F 
ATOM     88  C   UNL     1      -4.870   0.008 -18.105  1.00  0.00     0.006 A 
ENDBRANCH  64  81
ENDBRANCH  38  39
ENDBRANCH  31  33
ENDBRANCH  30  31
ENDBRANCH  29  30
ENDBRANCH  28  29
ENDBRANCH  27  28
ENDBRANCH   1  27
TORSDOF 18
