REMARK SMILES O=C(NC1(C(=O)OCCOCCOC(=O)c2ccc(-c3c4nc(c(-c5c(F)cccc5F)c5ccc([nH]5)c(-c5c(F)cccc5F)c5nc(c(-c6c(F)cccc6F)c6ccc3[nH]6)C=C5)C=C4)cc2)CCCCC1)c1c[nH]c(=O)c(Cl)c1
REMARK SMILES IDX 10 1 9 2 8 3 7 4 5 5 6 6 4 7 70 8 74 9 71 10 73 11 72 12
REMARK SMILES IDX 3 13 1 14 2 15 75 17 76 18 82 19 77 20 80 21 78 22 81 24
REMARK SMILES IDX 79 25 11 26 12 27 13 28 14 29 15 30 16 31 17 32 69 33 18 34
REMARK SMILES IDX 68 35 19 36 20 37 21 38 62 39 22 40 67 41 61 42 63 43 23 44
REMARK SMILES IDX 66 45 60 46 59 47 24 49 50 50 33 51 49 52 34 53 37 54 48 55
REMARK SMILES IDX 64 56 35 57 36 58 47 60 65 61 38 62 25 63 26 64 31 65 27 66
REMARK SMILES IDX 28 67 30 68 32 69 29 70 51 71 52 72 57 73 53 74 54 75 56 76
REMARK SMILES IDX 58 77 55 78 39 79 40 80 45 81 41 82 42 83 44 84 46 85 43 86
REMARK H PARENT 3 16 77 23 63 48 37 59
REMARK Flexibility Score: inf
ROOT
ATOM      1  O   UNL     1       5.465  -3.280  -0.632  1.00  0.00    -0.374 OA
ENDROOT
BRANCH   1   2
ATOM      2  C   UNL     1       6.600  -2.490  -1.008  1.00  0.00     0.202 C 
BRANCH   2   3
ATOM      3  C   UNL     1       6.314  -1.061  -1.461  1.00  0.00     0.261 C 
BRANCH   3   4
ATOM      4  O   UNL     1       5.851  -0.344  -0.313  1.00  0.00    -0.461 OA
BRANCH   4   5
ATOM      5  C   UNL     1       5.141   0.779  -0.540  1.00  0.00     0.331 C 
ATOM      6  O   UNL     1       5.077   1.346  -1.623  1.00  0.00    -0.249 OA
BRANCH   5   7
ATOM      7  C   UNL     1       4.378   1.220   0.737  1.00  0.00     0.138 C 
ATOM      8  C   UNL     1       4.825   2.686   0.970  1.00  0.00     0.040 C 
ATOM      9  C   UNL     1       4.708   0.479   2.065  1.00  0.00     0.040 C 
ATOM     10  C   UNL     1       6.325   2.785   1.278  1.00  0.00     0.003 C 
ATOM     11  C   UNL     1       6.180   0.546   2.494  1.00  0.00     0.003 C 
ATOM     12  C   UNL     1       6.724   1.972   2.505  1.00  0.00     0.000 C 
BRANCH   7  13
ATOM     13  N   UNL     1       2.893   1.205   0.523  1.00  0.00    -0.336 N 
ATOM     14  O   UNL     1       0.903   0.207   0.296  1.00  0.00    -0.269 OA
ATOM     15  C   UNL     1       2.050   0.344  -0.126  1.00  0.00     0.253 C 
ATOM     16  H   UNL     1       2.431   1.972   0.933  1.00  0.00     0.165 HD
BRANCH  15  17
ATOM     17  C   UNL     1       2.444  -0.338  -1.389  1.00  0.00     0.057 A 
ATOM     18  C   UNL     1       2.520   0.387  -2.519  1.00  0.00     0.099 A 
ATOM     19  C   UNL     1       2.553  -1.781  -1.487  1.00  0.00     0.041 A 
ATOM     20  N   UNL     1       2.889  -0.203  -3.707  1.00  0.00    -0.327 N 
ATOM     21  C   UNL     1       2.931  -2.377  -2.630  1.00  0.00     0.106 A 
ATOM     22  C   UNL     1       3.200  -1.541  -3.844  1.00  0.00     0.266 A 
ATOM     23  H   UNL     1       2.935   0.366  -4.510  1.00  0.00     0.169 HD
ATOM     24  Cl  UNL     1       3.078  -4.084  -2.770  1.00  0.00    -0.078 Cl
ATOM     25  O   UNL     1       3.651  -1.989  -4.893  1.00  0.00    -0.268 OA
ENDBRANCH  15  17
ENDBRANCH   7  13
ENDBRANCH   5   7
ENDBRANCH   4   5
ENDBRANCH   3   4
ENDBRANCH   2   3
ENDBRANCH   1   2
BRANCH   1  26
ATOM     26  C   UNL     1       4.843  -3.000   0.619  1.00  0.00     0.202 C 
BRANCH  26  27
ATOM     27  C   UNL     1       5.422  -3.647   1.879  1.00  0.00     0.261 C 
BRANCH  27  28
ATOM     28  O   UNL     1       6.834  -3.498   1.964  1.00  0.00    -0.460 OA
BRANCH  28  29
ATOM     29  C   UNL     1       7.511  -4.507   1.364  1.00  0.00     0.338 C 
ATOM     30  O   UNL     1       7.065  -5.546   0.910  1.00  0.00    -0.246 OA
BRANCH  29  31
ATOM     31  C   UNL     1       8.890  -4.052   1.156  1.00  0.00     0.060 A 
ATOM     32  C   UNL     1       9.436  -4.198  -0.126  1.00  0.00     0.016 A 
ATOM     33  C   UNL     1       9.617  -3.469   2.196  1.00  0.00     0.016 A 
ATOM     34  C   UNL     1      10.744  -3.804  -0.363  1.00  0.00     0.010 A 
ATOM     35  C   UNL     1      10.933  -3.093   1.965  1.00  0.00     0.010 A 
ATOM     36  C   UNL     1      11.507  -3.306   0.699  1.00  0.00    -0.014 A 
BRANCH  36  37
ATOM     37  C   UNL     1      12.972  -3.246   0.562  1.00  0.00     0.031 A 
ATOM     38  C   UNL     1      13.762  -4.403   1.099  1.00  0.00     0.074 A 
ATOM     39  C   UNL     1      13.563  -2.195  -0.023  1.00  0.00     0.049 A 
ATOM     40  N   UNL     1      15.055  -4.558   1.183  1.00  0.00    -0.248 NA
ATOM     41  C   UNL     1      12.983  -5.538   1.629  1.00  0.00     0.031 C 
ATOM     42  C   UNL     1      12.867  -1.051  -0.610  1.00  0.00     0.029 A 
ATOM     43  N   UNL     1      14.890  -1.918  -0.207  1.00  0.00    -0.354 N 
ATOM     44  C   UNL     1      15.243  -5.795   1.786  1.00  0.00     0.074 A 
ATOM     45  C   UNL     1      13.936  -6.337   2.079  1.00  0.00     0.031 C 
ATOM     46  C   UNL     1      13.780  -0.184  -1.081  1.00  0.00     0.029 A 
ATOM     47  C   UNL     1      15.116  -0.699  -0.792  1.00  0.00     0.049 A 
ATOM     48  H   UNL     1      15.611  -2.534   0.055  1.00  0.00     0.167 HD
ATOM     49  C   UNL     1      16.409  -6.422   2.062  1.00  0.00     0.037 A 
ATOM     50  C   UNL     1      16.280  -0.070  -1.038  1.00  0.00     0.037 A 
ATOM     51  C   UNL     1      17.697  -5.861   1.759  1.00  0.00     0.049 A 
ATOM     52  C   UNL     1      17.564  -0.761  -0.662  1.00  0.00     0.074 A 
ATOM     53  C   UNL     1      18.948  -6.407   1.972  1.00  0.00     0.029 A 
ATOM     54  N   UNL     1      17.892  -4.614   1.182  1.00  0.00    -0.354 N 
ATOM     55  N   UNL     1      17.741  -1.941  -0.112  1.00  0.00    -0.248 NA
ATOM     56  C   UNL     1      18.811  -0.037  -0.941  1.00  0.00     0.031 C 
ATOM     57  C   UNL     1      19.902  -5.465   1.576  1.00  0.00     0.029 A 
ATOM     58  C   UNL     1      19.245  -4.359   1.057  1.00  0.00     0.049 A 
ATOM     59  H   UNL     1      17.173  -4.001   0.903  1.00  0.00     0.167 HD
ATOM     60  C   UNL     1      19.116  -2.114  -0.011  1.00  0.00     0.074 A 
ATOM     61  C   UNL     1      19.724  -0.921  -0.566  1.00  0.00     0.031 C 
ATOM     62  C   UNL     1      19.816  -3.162   0.491  1.00  0.00     0.037 A 
BRANCH  49  63
ATOM     63  C   UNL     1      16.334  -7.752   2.752  1.00  0.00     0.057 A 
ATOM     64  C   UNL     1      15.841  -8.899   2.114  1.00  0.00     0.134 A 
ATOM     65  C   UNL     1      16.769  -7.890   4.076  1.00  0.00     0.134 A 
ATOM     66  F   UNL     1      15.386  -8.833   0.853  1.00  0.00    -0.206 F 
ATOM     67  C   UNL     1      15.762 -10.126   2.775  1.00  0.00     0.040 A 
ATOM     68  C   UNL     1      16.723  -9.118   4.738  1.00  0.00     0.040 A 
ATOM     69  F   UNL     1      17.248  -6.833   4.750  1.00  0.00    -0.206 F 
ATOM     70  C   UNL     1      16.211 -10.240   4.089  1.00  0.00     0.006 A 
ENDBRANCH  49  63
BRANCH  50  71
ATOM     71  C   UNL     1      16.285   1.276  -1.664  1.00  0.00     0.057 A 
ATOM     72  C   UNL     1      16.784   1.472  -2.956  1.00  0.00     0.134 A 
ATOM     73  C   UNL     1      15.797   2.400  -0.985  1.00  0.00     0.134 A 
ATOM     74  F   UNL     1      17.281   0.438  -3.651  1.00  0.00    -0.206 F 
ATOM     75  C   UNL     1      16.818   2.737  -3.544  1.00  0.00     0.040 A 
ATOM     76  C   UNL     1      15.799   3.667  -1.571  1.00  0.00     0.040 A 
ATOM     77  F   UNL     1      15.297   2.280   0.254  1.00  0.00    -0.206 F 
ATOM     78  C   UNL     1      16.319   3.839  -2.852  1.00  0.00     0.006 A 
ENDBRANCH  50  71
BRANCH  62  79
ATOM     79  C   UNL     1      21.313  -3.079   0.421  1.00  0.00     0.057 A 
ATOM     80  C   UNL     1      22.048  -2.208   1.234  1.00  0.00     0.134 A 
ATOM     81  C   UNL     1      22.028  -3.919  -0.443  1.00  0.00     0.134 A 
ATOM     82  F   UNL     1      21.421  -1.371   2.075  1.00  0.00    -0.206 F 
ATOM     83  C   UNL     1      23.441  -2.156   1.172  1.00  0.00     0.040 A 
ATOM     84  C   UNL     1      23.422  -3.900  -0.490  1.00  0.00     0.040 A 
ATOM     85  F   UNL     1      21.384  -4.787  -1.238  1.00  0.00    -0.206 F 
ATOM     86  C   UNL     1      24.131  -3.010   0.313  1.00  0.00     0.006 A 
ENDBRANCH  62  79
ENDBRANCH  36  37
ENDBRANCH  29  31
ENDBRANCH  28  29
ENDBRANCH  27  28
ENDBRANCH  26  27
ENDBRANCH   1  26
TORSDOF 16
