REMARK SMILES O=C(COCC(=O)OCCOCCOC(=O)c1ccc(-c2c3nc(c(-c4c(F)cccc4F)c4ccc([nH]4)c(-c4c(F)cccc4F)c4nc(c(-c5c(F)cccc5F)c5ccc2[nH]5)C=C4)C=C3)cc1)/[NH+]=C1\S[C@@H]2CS(=O)(=O)C[C@H]2N1c1ccc(Cl)cc1
REMARK SMILES IDX 10 1 9 2 8 3 6 4 7 5 5 6 4 7 3 8 2 9 1 10 71 11 72 12 73 14
REMARK SMILES IDX 81 15 74 16 80 17 75 18 79 19 76 20 77 21 78 22 82 23 83 24
REMARK SMILES IDX 88 25 84 26 87 27 85 28 86 29 11 30 12 31 13 32 14 33 15 34
REMARK SMILES IDX 16 35 17 36 18 37 70 38 19 39 69 40 20 41 21 42 22 43 63 44
REMARK SMILES IDX 23 45 68 46 62 47 64 48 24 49 67 50 61 51 60 52 25 54 51 55
REMARK SMILES IDX 34 56 50 57 35 58 38 59 49 60 65 61 36 62 37 63 48 65 66 66
REMARK SMILES IDX 39 67 26 68 27 69 32 70 28 71 29 72 31 73 33 74 30 75 52 76
REMARK SMILES IDX 53 77 58 78 54 79 55 80 57 81 59 82 56 83 40 84 41 85 46 86
REMARK SMILES IDX 42 87 43 88 45 89 47 90 44 91
REMARK H PARENT 71 13 64 53 38 64
REMARK Flexibility Score: inf
ROOT
ATOM      1  C   UNL     1       0.393   2.100  -4.880  1.00  0.00     0.202 C 
ENDROOT
BRANCH   1   2
ATOM      2  C   UNL     1       1.174   3.287  -4.309  1.00  0.00     0.261 C 
BRANCH   2   3
ATOM      3  O   UNL     1       2.142   2.889  -3.316  1.00  0.00    -0.462 OA
BRANCH   3   4
ATOM      4  C   UNL     1       2.063   3.529  -2.117  1.00  0.00     0.332 C 
ATOM      5  O   UNL     1       1.236   4.388  -1.834  1.00  0.00    -0.250 OA
BRANCH   4   6
ATOM      6  C   UNL     1       3.154   3.083  -1.125  1.00  0.00     0.283 C 
BRANCH   6   7
ATOM      7  O   UNL     1       3.979   1.951  -1.351  1.00  0.00    -0.358 OA
BRANCH   7   8
ATOM      8  C   UNL     1       3.261   0.733  -1.398  1.00  0.00     0.288 C 
BRANCH   8   9
ATOM      9  C   UNL     1       2.642   0.117  -0.110  1.00  0.00     0.333 C 
ATOM     10  O   UNL     1       1.572  -0.486  -0.172  1.00  0.00    -0.244 OA
ATOM     11  N   UNL     1       3.291   0.320   1.084  1.00  0.00    -0.202 N 
ATOM     12  C   UNL     1       4.492  -0.116   1.256  1.00  0.00     0.319 C 
ATOM     13  H   UNL     1       2.837   0.801   1.813  1.00  0.00     0.316 HD
ATOM     14  S   UNL     1       5.443  -0.983   0.005  1.00  0.00    -0.029 SA
ATOM     15  N   UNL     1       5.324   0.096   2.363  1.00  0.00    -0.217 N 
ATOM     16  C   UNL     1       6.872  -0.070   0.590  1.00  0.00     0.120 C 
ATOM     17  C   UNL     1       6.721  -0.310   2.101  1.00  0.00     0.212 C 
ATOM     18  C   UNL     1       8.258  -0.450   0.162  1.00  0.00     0.156 C 
ATOM     19  C   UNL     1       7.876   0.460   2.688  1.00  0.00     0.188 C 
ATOM     20  S   UNL     1       9.232   0.035   1.585  1.00  0.00     0.155 S 
ATOM     21  O   UNL     1       9.958   1.241   1.269  1.00  0.00    -0.229 OA
ATOM     22  O   UNL     1       9.880  -1.156   2.100  1.00  0.00    -0.229 OA
BRANCH  15  23
ATOM     23  C   UNL     1       4.861   0.206   3.682  1.00  0.00     0.128 A 
ATOM     24  C   UNL     1       5.422   1.129   4.579  1.00  0.00     0.053 A 
ATOM     25  C   UNL     1       3.806  -0.593   4.159  1.00  0.00     0.053 A 
ATOM     26  C   UNL     1       4.978   1.230   5.903  1.00  0.00     0.025 A 
ATOM     27  C   UNL     1       3.359  -0.501   5.485  1.00  0.00     0.025 A 
ATOM     28  C   UNL     1       3.951   0.409   6.354  1.00  0.00     0.041 A 
ATOM     29  Cl  UNL     1       3.410   0.529   7.981  1.00  0.00    -0.084 Cl
ENDBRANCH  15  23
ENDBRANCH   8   9
ENDBRANCH   7   8
ENDBRANCH   6   7
ENDBRANCH   4   6
ENDBRANCH   3   4
ENDBRANCH   2   3
ENDBRANCH   1   2
BRANCH   1  30
ATOM     30  O   UNL     1      -0.552   1.457  -4.028  1.00  0.00    -0.374 OA
BRANCH  30  31
ATOM     31  C   UNL     1      -0.045   0.626  -2.987  1.00  0.00     0.202 C 
BRANCH  31  32
ATOM     32  C   UNL     1       0.560  -0.728  -3.414  1.00  0.00     0.261 C 
BRANCH  32  33
ATOM     33  O   UNL     1       1.637  -0.607  -4.369  1.00  0.00    -0.460 OA
BRANCH  33  34
ATOM     34  C   UNL     1       1.365  -1.147  -5.585  1.00  0.00     0.338 C 
ATOM     35  O   UNL     1       0.390  -1.810  -5.898  1.00  0.00    -0.246 OA
BRANCH  34  36
ATOM     36  C   UNL     1       2.325  -0.680  -6.604  1.00  0.00     0.060 A 
ATOM     37  C   UNL     1       1.808   0.079  -7.661  1.00  0.00     0.016 A 
ATOM     38  C   UNL     1       3.659  -1.091  -6.616  1.00  0.00     0.016 A 
ATOM     39  C   UNL     1       2.603   0.381  -8.764  1.00  0.00     0.010 A 
ATOM     40  C   UNL     1       4.457  -0.789  -7.729  1.00  0.00     0.010 A 
ATOM     41  C   UNL     1       3.921  -0.089  -8.828  1.00  0.00    -0.014 A 
BRANCH  41  42
ATOM     42  C   UNL     1       4.667   0.028 -10.110  1.00  0.00     0.031 A 
ATOM     43  C   UNL     1       4.812  -1.183 -10.994  1.00  0.00     0.074 A 
ATOM     44  C   UNL     1       5.154   1.214 -10.518  1.00  0.00     0.049 A 
ATOM     45  N   UNL     1       5.420  -1.303 -12.147  1.00  0.00    -0.248 NA
ATOM     46  C   UNL     1       4.184  -2.425 -10.515  1.00  0.00     0.031 C 
ATOM     47  C   UNL     1       5.038   2.472  -9.783  1.00  0.00     0.029 A 
ATOM     48  N   UNL     1       5.844   1.552 -11.657  1.00  0.00    -0.354 N 
ATOM     49  C   UNL     1       5.259  -2.631 -12.525  1.00  0.00     0.074 A 
ATOM     50  C   UNL     1       4.521  -3.284 -11.466  1.00  0.00     0.031 C 
ATOM     51  C   UNL     1       5.639   3.446 -10.488  1.00  0.00     0.029 A 
ATOM     52  C   UNL     1       6.215   2.874 -11.703  1.00  0.00     0.049 A 
ATOM     53  H   UNL     1       6.052   0.908 -12.372  1.00  0.00     0.167 HD
ATOM     54  C   UNL     1       5.680  -3.249 -13.656  1.00  0.00     0.037 A 
ATOM     55  C   UNL     1       6.955   3.541 -12.610  1.00  0.00     0.037 A 
ATOM     56  C   UNL     1       6.404  -2.596 -14.716  1.00  0.00     0.049 A 
ATOM     57  C   UNL     1       7.476   2.814 -13.823  1.00  0.00     0.074 A 
ATOM     58  C   UNL     1       6.848  -3.133 -15.913  1.00  0.00     0.029 A 
ATOM     59  N   UNL     1       6.799  -1.268 -14.704  1.00  0.00    -0.354 N 
ATOM     60  N   UNL     1       7.295   1.566 -14.181  1.00  0.00    -0.248 NA
ATOM     61  C   UNL     1       8.302   3.590 -14.759  1.00  0.00     0.031 C 
ATOM     62  C   UNL     1       7.566  -2.147 -16.595  1.00  0.00     0.029 A 
ATOM     63  C   UNL     1       7.513  -0.976 -15.856  1.00  0.00     0.049 A 
ATOM     64  H   UNL     1       6.602  -0.626 -13.984  1.00  0.00     0.167 HD
ATOM     65  C   UNL     1       7.955   1.417 -15.396  1.00  0.00     0.074 A 
ATOM     66  C   UNL     1       8.529   2.706 -15.720  1.00  0.00     0.031 C 
ATOM     67  C   UNL     1       8.074   0.313 -16.174  1.00  0.00     0.037 A 
BRANCH  54  68
ATOM     68  C   UNL     1       5.397  -4.718 -13.794  1.00  0.00     0.057 A 
ATOM     69  C   UNL     1       4.105  -5.214 -14.012  1.00  0.00     0.134 A 
ATOM     70  C   UNL     1       6.445  -5.648 -13.755  1.00  0.00     0.134 A 
ATOM     71  F   UNL     1       3.055  -4.380 -14.051  1.00  0.00    -0.206 F 
ATOM     72  C   UNL     1       3.862  -6.581 -14.162  1.00  0.00     0.040 A 
ATOM     73  C   UNL     1       6.219  -7.014 -13.932  1.00  0.00     0.040 A 
ATOM     74  F   UNL     1       7.709  -5.243 -13.557  1.00  0.00    -0.206 F 
ATOM     75  C   UNL     1       4.923  -7.485 -14.130  1.00  0.00     0.006 A 
ENDBRANCH  54  68
BRANCH  55  76
ATOM     76  C   UNL     1       7.275   4.978 -12.400  1.00  0.00     0.057 A 
ATOM     77  C   UNL     1       6.774   5.970 -13.251  1.00  0.00     0.134 A 
ATOM     78  C   UNL     1       8.118   5.389 -11.360  1.00  0.00     0.134 A 
ATOM     79  F   UNL     1       5.981   5.639 -14.281  1.00  0.00    -0.206 F 
ATOM     80  C   UNL     1       7.117   7.314 -13.090  1.00  0.00     0.040 A 
ATOM     81  C   UNL     1       8.445   6.732 -11.169  1.00  0.00     0.040 A 
ATOM     82  F   UNL     1       8.633   4.489 -10.508  1.00  0.00    -0.206 F 
ATOM     83  C   UNL     1       7.952   7.698 -12.042  1.00  0.00     0.006 A 
ENDBRANCH  55  76
BRANCH  67  84
ATOM     84  C   UNL     1       8.815   0.456 -17.473  1.00  0.00     0.057 A 
ATOM     85  C   UNL     1      10.203   0.641 -17.523  1.00  0.00     0.134 A 
ATOM     86  C   UNL     1       8.133   0.368 -18.695  1.00  0.00     0.134 A 
ATOM     87  F   UNL     1      10.916   0.746 -16.391  1.00  0.00    -0.206 F 
ATOM     88  C   UNL     1      10.880   0.761 -18.738  1.00  0.00     0.040 A 
ATOM     89  C   UNL     1       8.803   0.455 -19.916  1.00  0.00     0.040 A 
ATOM     90  F   UNL     1       6.805   0.180 -18.722  1.00  0.00    -0.206 F 
ATOM     91  C   UNL     1      10.181   0.660 -19.939  1.00  0.00     0.006 A 
ENDBRANCH  67  84
ENDBRANCH  41  42
ENDBRANCH  34  36
ENDBRANCH  33  34
ENDBRANCH  32  33
ENDBRANCH  31  32
ENDBRANCH  30  31
ENDBRANCH   1  30
TORSDOF 18
