REMARK SMILES CC(C)[C@H](NC(=O)CCNC(=O)c1ccoc1)C(=O)OCCOCCOC(=O)c1ccc(-c2c3nc(c(-c4c(F)cccc4F)c4ccc([nH]4)c(-c4c(F)cccc4F)c4nc(c(-c5c(F)cccc5F)c5ccc2[nH]5)C=C4)C=C3)cc1
REMARK SMILES IDX 21 1 20 2 18 3 19 4 4 5 2 6 1 7 3 8 5 9 6 10 7 12 8 13 9 14
REMARK SMILES IDX 10 15 11 16 12 18 13 19 14 20 17 21 15 22 16 23 22 24 23 25
REMARK SMILES IDX 24 26 25 27 26 28 27 29 28 30 29 31 30 32 82 33 31 34 81 35
REMARK SMILES IDX 32 36 33 37 34 38 75 39 35 40 80 41 74 42 76 43 36 44 79 45
REMARK SMILES IDX 73 46 72 47 37 49 63 50 46 51 62 52 47 53 50 54 61 55 77 56
REMARK SMILES IDX 48 57 49 58 60 60 78 61 51 62 38 63 39 64 44 65 40 66 41 67
REMARK SMILES IDX 43 68 45 69 42 70 64 71 65 72 70 73 66 74 67 75 69 76 71 77
REMARK SMILES IDX 68 78 52 79 53 80 58 81 54 82 55 83 57 84 59 85 56 86
REMARK H PARENT 5 11 10 17 76 48 50 59
REMARK Flexibility Score: inf
ROOT
ATOM      1  C   UNL     1      -2.183   4.989   0.227  1.00  0.00     0.261 C 
ENDROOT
BRANCH   1   2
ATOM      2  O   UNL     1      -1.388   3.795   0.344  1.00  0.00    -0.462 OA
BRANCH   2   3
ATOM      3  C   UNL     1      -1.914   2.714  -0.309  1.00  0.00     0.328 C 
ATOM      4  O   UNL     1      -2.765   2.784  -1.189  1.00  0.00    -0.250 OA
BRANCH   3   5
ATOM      5  C   UNL     1      -1.477   1.380   0.321  1.00  0.00     0.194 C 
BRANCH   5   6
ATOM      6  C   UNL     1      -2.662   0.864   1.174  1.00  0.00     0.017 C 
ATOM      7  C   UNL     1      -3.154   1.885   2.205  1.00  0.00     0.010 C 
ATOM      8  C   UNL     1      -3.816   0.358   0.307  1.00  0.00     0.010 C 
ENDBRANCH   5   6
BRANCH   5   9
ATOM      9  N   UNL     1      -0.233   1.465   1.103  1.00  0.00    -0.342 N 
ATOM     10  C   UNL     1       0.551   0.468   1.609  1.00  0.00     0.222 C 
ATOM     11  H   UNL     1       0.082   2.379   1.289  1.00  0.00     0.164 HD
ATOM     12  O   UNL     1       1.610   0.773   2.158  1.00  0.00    -0.275 OA
BRANCH  10  13
ATOM     13  C   UNL     1       0.116  -0.985   1.521  1.00  0.00     0.121 C 
BRANCH  13  14
ATOM     14  C   UNL     1      -0.051  -1.606   2.915  1.00  0.00     0.126 C 
BRANCH  14  15
ATOM     15  N   UNL     1      -1.024  -0.912   3.747  1.00  0.00    -0.351 N 
ATOM     16  C   UNL     1      -2.314  -1.233   4.081  1.00  0.00     0.254 C 
ATOM     17  H   UNL     1      -0.700  -0.068   4.137  1.00  0.00     0.163 HD
ATOM     18  O   UNL     1      -3.014  -0.388   4.632  1.00  0.00    -0.269 OA
BRANCH  16  19
ATOM     19  C   UNL     1      -2.828  -2.541   3.753  1.00  0.00     0.077 A 
ATOM     20  C   UNL     1      -2.445  -3.815   4.260  1.00  0.00     0.056 A 
ATOM     21  C   UNL     1      -3.927  -2.780   2.954  1.00  0.00     0.208 A 
ATOM     22  C   UNL     1      -3.325  -4.727   3.726  1.00  0.00     0.195 A 
ATOM     23  O   UNL     1      -4.217  -4.106   2.914  1.00  0.00    -0.472 OA
ENDBRANCH  16  19
ENDBRANCH  14  15
ENDBRANCH  13  14
ENDBRANCH  10  13
ENDBRANCH   5   9
ENDBRANCH   3   5
ENDBRANCH   2   3
ENDBRANCH   1   2
BRANCH   1  24
ATOM     24  C   UNL     1      -1.590   6.100  -0.643  1.00  0.00     0.202 C 
BRANCH  24  25
ATOM     25  O   UNL     1      -1.317   5.812  -2.006  1.00  0.00    -0.374 OA
BRANCH  25  26
ATOM     26  C   UNL     1      -0.302   4.863  -2.314  1.00  0.00     0.202 C 
BRANCH  26  27
ATOM     27  C   UNL     1       1.142   5.199  -1.923  1.00  0.00     0.261 C 
BRANCH  27  28
ATOM     28  O   UNL     1       1.327   5.408  -0.509  1.00  0.00    -0.460 OA
BRANCH  28  29
ATOM     29  C   UNL     1       1.749   6.656  -0.192  1.00  0.00     0.338 C 
ATOM     30  O   UNL     1       1.993   7.572  -0.965  1.00  0.00    -0.246 OA
BRANCH  29  31
ATOM     31  C   UNL     1       1.778   6.875   1.264  1.00  0.00     0.060 A 
ATOM     32  C   UNL     1       1.026   7.947   1.763  1.00  0.00     0.016 A 
ATOM     33  C   UNL     1       2.702   6.214   2.075  1.00  0.00     0.016 A 
ATOM     34  C   UNL     1       1.271   8.429   3.045  1.00  0.00     0.010 A 
ATOM     35  C   UNL     1       2.952   6.705   3.363  1.00  0.00     0.010 A 
ATOM     36  C   UNL     1       2.286   7.856   3.824  1.00  0.00    -0.014 A 
BRANCH  36  37
ATOM     37  C   UNL     1       2.788   8.619   4.993  1.00  0.00     0.031 A 
ATOM     38  C   UNL     1       3.976   9.530   4.808  1.00  0.00     0.074 A 
ATOM     39  C   UNL     1       2.147   8.584   6.174  1.00  0.00     0.049 A 
ATOM     40  N   UNL     1       4.531  10.355   5.659  1.00  0.00    -0.248 NA
ATOM     41  C   UNL     1       4.619   9.511   3.484  1.00  0.00     0.031 C 
ATOM     42  C   UNL     1       0.972   7.771   6.475  1.00  0.00     0.029 A 
ATOM     43  N   UNL     1       2.397   9.265   7.339  1.00  0.00    -0.354 N 
ATOM     44  C   UNL     1       5.583  10.952   4.975  1.00  0.00     0.074 A 
ATOM     45  C   UNL     1       5.610  10.375   3.649  1.00  0.00     0.031 C 
ATOM     46  C   UNL     1       0.598   8.002   7.746  1.00  0.00     0.029 A 
ATOM     47  C   UNL     1       1.512   8.973   8.346  1.00  0.00     0.049 A 
ATOM     48  H   UNL     1       3.139   9.904   7.441  1.00  0.00     0.167 HD
ATOM     49  C   UNL     1       6.443  11.906   5.404  1.00  0.00     0.037 A 
ATOM     50  C   UNL     1       1.448   9.438   9.608  1.00  0.00     0.037 A 
ATOM     51  C   UNL     1       6.421  12.492   6.717  1.00  0.00     0.049 A 
ATOM     52  C   UNL     1       2.429  10.482  10.069  1.00  0.00     0.074 A 
ATOM     53  C   UNL     1       7.253  13.466   7.243  1.00  0.00     0.029 A 
ATOM     54  N   UNL     1       5.516  12.157   7.711  1.00  0.00    -0.354 N 
ATOM     55  N   UNL     1       3.402  11.056   9.404  1.00  0.00    -0.248 NA
ATOM     56  C   UNL     1       2.291  10.954  11.456  1.00  0.00     0.031 C 
ATOM     57  C   UNL     1       6.866  13.703   8.567  1.00  0.00     0.029 A 
ATOM     58  C   UNL     1       5.774  12.899   8.852  1.00  0.00     0.049 A 
ATOM     59  H   UNL     1       4.797  11.491   7.620  1.00  0.00     0.167 HD
ATOM     60  C   UNL     1       3.972  11.973  10.278  1.00  0.00     0.074 A 
ATOM     61  C   UNL     1       3.231  11.887  11.519  1.00  0.00     0.031 C 
ATOM     62  C   UNL     1       5.016  12.812  10.072  1.00  0.00     0.037 A 
BRANCH  49  63
ATOM     63  C   UNL     1       7.494  12.367   4.440  1.00  0.00     0.057 A 
ATOM     64  C   UNL     1       7.189  13.227   3.377  1.00  0.00     0.134 A 
ATOM     65  C   UNL     1       8.827  11.970   4.592  1.00  0.00     0.134 A 
ATOM     66  F   UNL     1       5.926  13.630   3.170  1.00  0.00    -0.206 F 
ATOM     67  C   UNL     1       8.173  13.664   2.489  1.00  0.00     0.040 A 
ATOM     68  C   UNL     1       9.823  12.415   3.721  1.00  0.00     0.040 A 
ATOM     69  F   UNL     1       9.184  11.149   5.591  1.00  0.00    -0.206 F 
ATOM     70  C   UNL     1       9.496  13.262   2.664  1.00  0.00     0.006 A 
ENDBRANCH  49  63
BRANCH  50  71
ATOM     71  C   UNL     1       0.405   8.930  10.531  1.00  0.00     0.057 A 
ATOM     72  C   UNL     1      -0.674   9.732  10.921  1.00  0.00     0.134 A 
ATOM     73  C   UNL     1       0.479   7.639  11.065  1.00  0.00     0.134 A 
ATOM     74  F   UNL     1      -0.784  10.986  10.460  1.00  0.00    -0.206 F 
ATOM     75  C   UNL     1      -1.635   9.273  11.822  1.00  0.00     0.040 A 
ATOM     76  C   UNL     1      -0.486   7.160  11.952  1.00  0.00     0.040 A 
ATOM     77  F   UNL     1       1.491   6.825  10.730  1.00  0.00    -0.206 F 
ATOM     78  C   UNL     1      -1.544   7.981  12.338  1.00  0.00     0.006 A 
ENDBRANCH  50  71
BRANCH  62  79
ATOM     79  C   UNL     1       5.392  13.728  11.198  1.00  0.00     0.057 A 
ATOM     80  C   UNL     1       6.072  13.264  12.330  1.00  0.00     0.134 A 
ATOM     81  C   UNL     1       5.093  15.095  11.134  1.00  0.00     0.134 A 
ATOM     82  F   UNL     1       6.377  11.964  12.455  1.00  0.00    -0.206 F 
ATOM     83  C   UNL     1       6.423  14.125  13.372  1.00  0.00     0.040 A 
ATOM     84  C   UNL     1       5.456  15.969  12.159  1.00  0.00     0.040 A 
ATOM     85  F   UNL     1       4.450  15.602  10.071  1.00  0.00    -0.206 F 
ATOM     86  C   UNL     1       6.118  15.483  13.285  1.00  0.00     0.006 A 
ENDBRANCH  62  79
ENDBRANCH  36  37
ENDBRANCH  29  31
ENDBRANCH  28  29
ENDBRANCH  27  28
ENDBRANCH  26  27
ENDBRANCH  25  26
ENDBRANCH  24  25
ENDBRANCH   1  24
TORSDOF 20
