REMARK SMILES O=C(OCCOCCOC(=O)[C@@H]1[C@H](C(=O)Nc2ccc(Cn3cncn3)cc2)[C@@H]2C=C[C@H]1CC2)c1ccc(-c2c3nc(c(-c4c(F)cccc4F)c4ccc([nH]4)c(-c4c(F)cccc4F)c4nc(c(-c5c(F)cccc5F)c5ccc2[nH]5)C=C4)C=C3)cc1
REMARK SMILES IDX 7 1 6 2 5 3 4 4 3 5 2 6 1 7 35 8 36 9 88 10 37 11 87 12
REMARK SMILES IDX 38 13 39 14 40 15 81 16 41 17 86 18 80 19 82 20 42 21 85 22
REMARK SMILES IDX 79 23 78 24 43 26 69 27 52 28 68 29 53 30 56 31 67 32 83 33
REMARK SMILES IDX 54 34 55 35 66 37 84 38 57 39 44 40 45 41 50 42 46 43 47 44
REMARK SMILES IDX 49 45 51 46 48 47 70 48 71 49 76 50 72 51 73 52 75 53 77 54
REMARK SMILES IDX 74 55 58 56 59 57 64 58 60 59 61 60 63 61 65 62 62 63 8 64
REMARK SMILES IDX 9 65 10 66 11 67 12 68 13 69 32 70 29 71 31 72 33 73 30 74
REMARK SMILES IDX 34 75 14 76 15 77 16 78 17 80 18 81 28 82 19 83 27 84 20 85
REMARK SMILES IDX 21 86 22 87 23 88 26 89 24 90 25 91
REMARK H PARENT 82 25 56 36 16 79
REMARK Flexibility Score: inf
ROOT
ATOM      1  C   UNL     1       3.961  -0.581  -1.950  1.00  0.00     0.202 C 
ENDROOT
BRANCH   1   2
ATOM      2  O   UNL     1       4.714   0.067  -0.909  1.00  0.00    -0.374 OA
BRANCH   2   3
ATOM      3  C   UNL     1       5.086  -0.779   0.178  1.00  0.00     0.202 C 
BRANCH   3   4
ATOM      4  C   UNL     1       4.888  -0.154   1.556  1.00  0.00     0.261 C 
BRANCH   4   5
ATOM      5  O   UNL     1       3.511  -0.057   1.972  1.00  0.00    -0.460 OA
BRANCH   5   6
ATOM      6  C   UNL     1       2.566   0.102   1.017  1.00  0.00     0.338 C 
ATOM      7  O   UNL     1       1.815  -0.790   0.657  1.00  0.00    -0.246 OA
BRANCH   6   8
ATOM      8  C   UNL     1       2.316   1.515   0.713  1.00  0.00     0.060 A 
ATOM      9  C   UNL     1       3.370   2.418   0.576  1.00  0.00     0.016 A 
ATOM     10  C   UNL     1       0.986   1.945   0.648  1.00  0.00     0.016 A 
ATOM     11  C   UNL     1       3.112   3.765   0.571  1.00  0.00     0.010 A 
ATOM     12  C   UNL     1       0.721   3.303   0.600  1.00  0.00     0.010 A 
ATOM     13  C   UNL     1       1.790   4.199   0.644  1.00  0.00    -0.014 A 
BRANCH  13  14
ATOM     14  C   UNL     1       1.624   5.630   0.804  1.00  0.00     0.031 A 
ATOM     15  C   UNL     1       2.139   6.481  -0.300  1.00  0.00     0.074 A 
ATOM     16  C   UNL     1       1.050   6.150   1.901  1.00  0.00     0.049 A 
ATOM     17  N   UNL     1       3.025   7.423  -0.247  1.00  0.00    -0.248 NA
ATOM     18  C   UNL     1       1.649   6.184  -1.654  1.00  0.00     0.031 C 
ATOM     19  C   UNL     1       0.290   5.456   2.943  1.00  0.00     0.029 A 
ATOM     20  N   UNL     1       0.943   7.460   2.248  1.00  0.00    -0.354 N 
ATOM     21  C   UNL     1       3.093   7.952  -1.533  1.00  0.00     0.074 A 
ATOM     22  C   UNL     1       2.299   7.095  -2.377  1.00  0.00     0.031 C 
ATOM     23  C   UNL     1      -0.400   6.370   3.657  1.00  0.00     0.029 A 
ATOM     24  C   UNL     1      -0.025   7.699   3.203  1.00  0.00     0.049 A 
ATOM     25  H   UNL     1       1.501   8.169   1.855  1.00  0.00     0.167 HD
ATOM     26  C   UNL     1       3.657   9.160  -1.799  1.00  0.00     0.037 A 
ATOM     27  C   UNL     1      -0.556   8.903   3.513  1.00  0.00     0.037 A 
ATOM     28  C   UNL     1       4.555   9.591  -0.766  1.00  0.00     0.049 A 
ATOM     29  C   UNL     1       0.377   9.956   3.042  1.00  0.00     0.074 A 
ATOM     30  C   UNL     1       5.734   9.104  -0.236  1.00  0.00     0.029 A 
ATOM     31  N   UNL     1       4.139  10.570   0.100  1.00  0.00    -0.354 N 
ATOM     32  N   UNL     1       1.541  10.203   3.575  1.00  0.00    -0.248 NA
ATOM     33  C   UNL     1       0.182  10.493   1.702  1.00  0.00     0.031 C 
ATOM     34  C   UNL     1       5.706   9.475   1.140  1.00  0.00     0.029 A 
ATOM     35  C   UNL     1       4.515  10.168   1.355  1.00  0.00     0.049 A 
ATOM     36  H   UNL     1       3.663  11.399  -0.134  1.00  0.00     0.167 HD
ATOM     37  C   UNL     1       2.354  10.562   2.509  1.00  0.00     0.074 A 
ATOM     38  C   UNL     1       1.439  10.832   1.406  1.00  0.00     0.031 C 
ATOM     39  C   UNL     1       3.702  10.342   2.535  1.00  0.00     0.037 A 
BRANCH  26  40
ATOM     40  C   UNL     1       3.156  10.085  -2.871  1.00  0.00     0.057 A 
ATOM     41  C   UNL     1       3.939  11.175  -3.287  1.00  0.00     0.134 A 
ATOM     42  C   UNL     1       1.816  10.099  -3.307  1.00  0.00     0.134 A 
ATOM     43  F   UNL     1       5.219  11.289  -2.902  1.00  0.00    -0.206 F 
ATOM     44  C   UNL     1       3.412  12.224  -4.050  1.00  0.00     0.040 A 
ATOM     45  C   UNL     1       1.293  11.115  -4.110  1.00  0.00     0.040 A 
ATOM     46  F   UNL     1       0.927   9.184  -2.897  1.00  0.00    -0.206 F 
ATOM     47  C   UNL     1       2.085  12.197  -4.463  1.00  0.00     0.006 A 
ENDBRANCH  26  40
BRANCH  27  48
ATOM     48  C   UNL     1      -1.952   9.172   3.911  1.00  0.00     0.057 A 
ATOM     49  C   UNL     1      -2.306  10.365   4.548  1.00  0.00     0.134 A 
ATOM     50  C   UNL     1      -3.017   8.362   3.473  1.00  0.00     0.134 A 
ATOM     51  F   UNL     1      -1.362  11.228   4.951  1.00  0.00    -0.206 F 
ATOM     52  C   UNL     1      -3.644  10.731   4.743  1.00  0.00     0.040 A 
ATOM     53  C   UNL     1      -4.354   8.706   3.675  1.00  0.00     0.040 A 
ATOM     54  F   UNL     1      -2.797   7.247   2.760  1.00  0.00    -0.206 F 
ATOM     55  C   UNL     1      -4.672   9.901   4.304  1.00  0.00     0.006 A 
ENDBRANCH  27  48
BRANCH  39  56
ATOM     56  C   UNL     1       4.322   9.950   3.844  1.00  0.00     0.057 A 
ATOM     57  C   UNL     1       4.031   8.746   4.503  1.00  0.00     0.134 A 
ATOM     58  C   UNL     1       5.356  10.730   4.373  1.00  0.00     0.134 A 
ATOM     59  F   UNL     1       3.135   7.884   4.005  1.00  0.00    -0.206 F 
ATOM     60  C   UNL     1       4.703   8.363   5.667  1.00  0.00     0.040 A 
ATOM     61  C   UNL     1       6.057  10.343   5.518  1.00  0.00     0.040 A 
ATOM     62  F   UNL     1       5.735  11.860   3.756  1.00  0.00    -0.206 F 
ATOM     63  C   UNL     1       5.723   9.161   6.176  1.00  0.00     0.006 A 
ENDBRANCH  39  56
ENDBRANCH  13  14
ENDBRANCH   6   8
ENDBRANCH   5   6
ENDBRANCH   4   5
ENDBRANCH   3   4
ENDBRANCH   2   3
ENDBRANCH   1   2
BRANCH   1  64
ATOM     64  C   UNL     1       4.665  -1.744  -2.661  1.00  0.00     0.261 C 
BRANCH  64  65
ATOM     65  O   UNL     1       4.543  -2.959  -1.885  1.00  0.00    -0.463 OA
BRANCH  65  66
ATOM     66  C   UNL     1       5.633  -3.404  -1.232  1.00  0.00     0.310 C 
ATOM     67  O   UNL     1       6.739  -2.878  -1.307  1.00  0.00    -0.252 OA
BRANCH  66  68
ATOM     68  C   UNL     1       5.379  -4.594  -0.325  1.00  0.00     0.119 C 
ATOM     69  C   UNL     1       4.859  -5.877  -0.981  1.00  0.00     0.100 C 
ATOM     70  C   UNL     1       4.766  -4.435   1.113  1.00  0.00     0.026 C 
ATOM     71  C   UNL     1       4.309  -6.814   0.130  1.00  0.00     0.025 C 
ATOM     72  C   UNL     1       3.338  -4.943   1.246  1.00  0.00    -0.027 C 
ATOM     73  C   UNL     1       5.508  -5.479   1.989  1.00  0.00     0.009 C 
ATOM     74  C   UNL     1       3.103  -6.168   0.746  1.00  0.00    -0.027 C 
ATOM     75  C   UNL     1       5.359  -6.878   1.302  1.00  0.00     0.009 C 
BRANCH  69  76
ATOM     76  C   UNL     1       4.112  -5.801  -2.326  1.00  0.00     0.228 C 
ATOM     77  O   UNL     1       4.766  -6.122  -3.337  1.00  0.00    -0.274 OA
ATOM     78  N   UNL     1       2.810  -5.522  -2.584  1.00  0.00    -0.326 N 
ATOM     79  H   UNL     1       2.557  -5.830  -3.485  1.00  0.00     0.169 HD
BRANCH  78  80
ATOM     80  C   UNL     1       1.718  -4.921  -1.938  1.00  0.00     0.041 A 
ATOM     81  C   UNL     1       0.432  -5.315  -2.331  1.00  0.00     0.026 A 
ATOM     82  C   UNL     1       1.806  -3.922  -0.989  1.00  0.00     0.026 A 
ATOM     83  C   UNL     1      -0.714  -4.838  -1.670  1.00  0.00     0.008 A 
ATOM     84  C   UNL     1       0.674  -3.459  -0.312  1.00  0.00     0.008 A 
ATOM     85  C   UNL     1      -0.596  -3.932  -0.614  1.00  0.00    -0.026 A 
BRANCH  85  86
ATOM     86  C   UNL     1      -1.766  -3.457   0.208  1.00  0.00     0.181 C 
BRANCH  86  87
ATOM     87  N   UNL     1      -2.359  -2.242  -0.317  1.00  0.00    -0.249 N 
ATOM     88  C   UNL     1      -3.126  -2.118  -1.434  1.00  0.00     0.220 A 
ATOM     89  N   UNL     1      -2.329  -1.083   0.376  1.00  0.00    -0.160 NA
ATOM     90  N   UNL     1      -3.583  -0.890  -1.522  1.00  0.00    -0.224 NA
ATOM     91  C   UNL     1      -3.070  -0.293  -0.406  1.00  0.00     0.246 A 
ENDBRANCH  86  87
ENDBRANCH  85  86
ENDBRANCH  78  80
ENDBRANCH  69  76
ENDBRANCH  66  68
ENDBRANCH  65  66
ENDBRANCH  64  65
ENDBRANCH   1  64
TORSDOF 18
