REMARK SMILES Cc1nc(NC2CCCCCC2)sc1C(=O)OCCOCCOC(=O)c1ccc(-c2c3nc(c(-c4c(F)cccc4F)c4ccc([nH]4)c(-c4c(F)cccc4F)c4nc(c(-c5c(F)cccc5F)c5ccc2[nH]5)C=C4)C=C3)cc1
REMARK SMILES IDX 18 1 17 2 15 3 16 4 14 5 1 6 2 7 3 8 4 9 13 10 5 11 6 13
REMARK SMILES IDX 7 14 8 15 12 17 11 18 10 19 9 20 19 22 20 23 21 24 22 25
REMARK SMILES IDX 23 26 24 27 25 28 26 29 27 30 79 31 28 32 78 33 29 34 30 35
REMARK SMILES IDX 31 36 72 37 32 38 77 39 71 40 73 41 33 42 76 43 70 44 69 45
REMARK SMILES IDX 34 47 60 48 43 49 59 50 44 51 47 52 58 53 74 54 45 55 46 56
REMARK SMILES IDX 57 58 75 59 48 60 35 61 36 62 41 63 37 64 38 65 40 66 42 67
REMARK SMILES IDX 39 68 61 69 62 70 67 71 63 72 64 73 66 74 68 75 65 76 49 77
REMARK SMILES IDX 50 78 55 79 51 80 52 81 54 82 56 83 53 84
REMARK H PARENT 5 12 73 46 47 57
REMARK Flexibility Score: 80.00
ROOT
ATOM      1  C   UNL     1      -1.061  -4.497   1.012  1.00  0.00     0.261 C 
ENDROOT
BRANCH   1   2
ATOM      2  O   UNL     1      -1.159  -3.062   1.000  1.00  0.00    -0.459 OA
BRANCH   2   3
ATOM      3  C   UNL     1      -0.096  -2.377   1.505  1.00  0.00     0.350 C 
ATOM      4  O   UNL     1       0.803  -2.894   2.157  1.00  0.00    -0.245 OA
BRANCH   3   5
ATOM      5  C   UNL     1      -0.144  -0.997   1.075  1.00  0.00     0.137 A 
ATOM      6  C   UNL     1      -2.563  -0.549   0.211  1.00  0.00     0.069 C 
ATOM      7  C   UNL     1      -1.143  -0.216   0.512  1.00  0.00     0.065 A 
ATOM      8  N   UNL     1      -0.747   1.075   0.198  1.00  0.00    -0.225 NA
ATOM      9  C   UNL     1       0.514   1.278   0.477  1.00  0.00     0.183 A 
ATOM     10  S   UNL     1       1.304  -0.068   1.183  1.00  0.00    -0.090 S 
BRANCH   9  11
ATOM     11  N   UNL     1       1.194   2.421   0.259  1.00  0.00    -0.359 N 
ATOM     12  H   UNL     1       2.168   2.413   0.398  1.00  0.00     0.163 HD
BRANCH  11  13
ATOM     13  C   UNL     1       0.573   3.672  -0.170  1.00  0.00     0.081 C 
BRANCH  13  14
ATOM     14  C   UNL     1      -0.033   3.574  -1.581  1.00  0.00     0.025 C 
BRANCH  14  15
ATOM     15  C   UNL     1      -1.555   3.468  -1.693  1.00  0.00     0.002 CG0
ATOM     16  G   UNL     1      -2.283   4.798  -1.524  1.00  0.00     0.000 G0
ENDBRANCH  14  15
ENDBRANCH  13  14
BRANCH  13  17
ATOM     17  C   UNL     1      -0.305   4.242   0.950  1.00  0.00     0.025 C 
BRANCH  17  18
ATOM     18  C   UNL     1      -1.020   5.539   0.586  1.00  0.00     0.002 C 
BRANCH  18  19
ATOM     19  C   UNL     1      -2.367   5.303  -0.089  1.00  0.00     0.000 C 
BRANCH  19  20
ATOM     20  C   UNL     1      -2.283   4.798  -1.524  1.00  0.00     0.000 CG0
ATOM     21  G   UNL     1      -1.555   3.468  -1.693  1.00  0.00     0.000 G0
ENDBRANCH  19  20
ENDBRANCH  18  19
ENDBRANCH  17  18
ENDBRANCH  13  17
ENDBRANCH  11  13
ENDBRANCH   9  11
ENDBRANCH   3   5
ENDBRANCH   2   3
ENDBRANCH   1   2
BRANCH   1  22
ATOM     22  C   UNL     1      -1.002  -5.018  -0.426  1.00  0.00     0.202 C 
BRANCH  22  23
ATOM     23  O   UNL     1       0.222  -4.724  -1.102  1.00  0.00    -0.374 OA
BRANCH  23  24
ATOM     24  C   UNL     1       0.288  -3.466  -1.777  1.00  0.00     0.202 C 
BRANCH  24  25
ATOM     25  C   UNL     1      -0.298  -3.465  -3.193  1.00  0.00     0.261 C 
BRANCH  25  26
ATOM     26  O   UNL     1      -1.734  -3.572  -3.159  1.00  0.00    -0.460 OA
BRANCH  26  27
ATOM     27  C   UNL     1      -2.229  -4.766  -3.563  1.00  0.00     0.338 C 
ATOM     28  O   UNL     1      -1.610  -5.706  -4.029  1.00  0.00    -0.246 OA
BRANCH  27  29
ATOM     29  C   UNL     1      -3.657  -4.859  -3.199  1.00  0.00     0.060 A 
ATOM     30  C   UNL     1      -4.082  -6.026  -2.552  1.00  0.00     0.016 A 
ATOM     31  C   UNL     1      -4.575  -3.859  -3.531  1.00  0.00     0.016 A 
ATOM     32  C   UNL     1      -5.433  -6.220  -2.276  1.00  0.00     0.010 A 
ATOM     33  C   UNL     1      -5.934  -4.058  -3.258  1.00  0.00     0.010 A 
ATOM     34  C   UNL     1      -6.372  -5.253  -2.660  1.00  0.00    -0.014 A 
BRANCH  34  35
ATOM     35  C   UNL     1      -7.820  -5.557  -2.556  1.00  0.00     0.031 A 
ATOM     36  C   UNL     1      -8.565  -6.005  -3.783  1.00  0.00     0.074 A 
ATOM     37  C   UNL     1      -8.459  -5.462  -1.376  1.00  0.00     0.049 A 
ATOM     38  N   UNL     1      -9.833  -6.295  -3.924  1.00  0.00    -0.248 NA
ATOM     39  C   UNL     1      -7.772  -6.144  -5.015  1.00  0.00     0.031 C 
ATOM     40  C   UNL     1      -7.843  -5.072  -0.110  1.00  0.00     0.029 A 
ATOM     41  N   UNL     1      -9.775  -5.683  -1.058  1.00  0.00    -0.354 N 
ATOM     42  C   UNL     1      -9.992  -6.648  -5.258  1.00  0.00     0.074 A 
ATOM     43  C   UNL     1      -8.698  -6.506  -5.892  1.00  0.00     0.031 C 
ATOM     44  C   UNL     1      -8.784  -5.071   0.850  1.00  0.00     0.029 A 
ATOM     45  C   UNL     1     -10.072  -5.431   0.259  1.00  0.00     0.049 A 
ATOM     46  H   UNL     1     -10.444  -5.992  -1.711  1.00  0.00     0.167 HD
ATOM     47  C   UNL     1     -11.112  -7.063  -5.896  1.00  0.00     0.037 A 
ATOM     48  C   UNL     1     -11.252  -5.469   0.907  1.00  0.00     0.037 A 
ATOM     49  C   UNL     1     -12.399  -7.205  -5.269  1.00  0.00     0.049 A 
ATOM     50  C   UNL     1     -12.496  -5.869   0.161  1.00  0.00     0.074 A 
ATOM     51  C   UNL     1     -13.589  -7.635  -5.829  1.00  0.00     0.029 A 
ATOM     52  N   UNL     1     -12.664  -6.914  -3.939  1.00  0.00    -0.354 N 
ATOM     53  N   UNL     1     -12.631  -6.224  -1.094  1.00  0.00    -0.248 NA
ATOM     54  C   UNL     1     -13.754  -5.876   0.923  1.00  0.00     0.031 C 
ATOM     55  C   UNL     1     -14.585  -7.562  -4.849  1.00  0.00     0.029 A 
ATOM     56  C   UNL     1     -14.005  -7.132  -3.667  1.00  0.00     0.049 A 
ATOM     57  H   UNL     1     -11.998  -6.598  -3.286  1.00  0.00     0.167 HD
ATOM     58  C   UNL     1     -13.977  -6.521  -1.265  1.00  0.00     0.074 A 
ATOM     59  C   UNL     1     -14.617  -6.316   0.018  1.00  0.00     0.031 C 
ATOM     60  C   UNL     1     -14.626  -6.929  -2.383  1.00  0.00     0.037 A 
BRANCH  47  61
ATOM     61  C   UNL     1     -10.996  -7.376  -7.359  1.00  0.00     0.057 A 
ATOM     62  C   UNL     1     -10.340  -8.525  -7.819  1.00  0.00     0.134 A 
ATOM     63  C   UNL     1     -11.575  -6.534  -8.317  1.00  0.00     0.134 A 
ATOM     64  F   UNL     1      -9.752  -9.364  -6.953  1.00  0.00    -0.206 F 
ATOM     65  C   UNL     1     -10.245  -8.815  -9.181  1.00  0.00     0.040 A 
ATOM     66  C   UNL     1     -11.508  -6.826  -9.680  1.00  0.00     0.040 A 
ATOM     67  F   UNL     1     -12.222  -5.420  -7.943  1.00  0.00    -0.206 F 
ATOM     68  C   UNL     1     -10.837  -7.966 -10.116  1.00  0.00     0.006 A 
ENDBRANCH  47  61
BRANCH  48  69
ATOM     69  C   UNL     1     -11.320  -5.104   2.345  1.00  0.00     0.057 A 
ATOM     70  C   UNL     1     -11.586  -6.065   3.326  1.00  0.00     0.134 A 
ATOM     71  C   UNL     1     -11.141  -3.782   2.767  1.00  0.00     0.134 A 
ATOM     72  F   UNL     1     -11.790  -7.345   2.980  1.00  0.00    -0.206 F 
ATOM     73  C   UNL     1     -11.689  -5.723   4.675  1.00  0.00     0.040 A 
ATOM     74  C   UNL     1     -11.217  -3.428   4.115  1.00  0.00     0.040 A 
ATOM     75  F   UNL     1     -10.883  -2.814   1.875  1.00  0.00    -0.206 F 
ATOM     76  C   UNL     1     -11.499  -4.400   5.073  1.00  0.00     0.006 A 
ENDBRANCH  48  69
BRANCH  60  77
ATOM     77  C   UNL     1     -16.095  -7.214  -2.263  1.00  0.00     0.057 A 
ATOM     78  C   UNL     1     -17.039  -6.188  -2.138  1.00  0.00     0.134 A 
ATOM     79  C   UNL     1     -16.572  -8.530  -2.314  1.00  0.00     0.134 A 
ATOM     80  F   UNL     1     -16.646  -4.907  -2.070  1.00  0.00    -0.206 F 
ATOM     81  C   UNL     1     -18.405  -6.461  -2.048  1.00  0.00     0.040 A 
ATOM     82  C   UNL     1     -17.936  -8.815  -2.251  1.00  0.00     0.040 A 
ATOM     83  F   UNL     1     -15.721  -9.559  -2.442  1.00  0.00    -0.206 F 
ATOM     84  C   UNL     1     -18.857  -7.778  -2.112  1.00  0.00     0.006 A 
ENDBRANCH  60  77
ENDBRANCH  34  35
ENDBRANCH  27  29
ENDBRANCH  26  27
ENDBRANCH  25  26
ENDBRANCH  24  25
ENDBRANCH  23  24
ENDBRANCH  22  23
ENDBRANCH   1  22
TORSDOF 16
