REMARK SMILES C[C@@H](Oc1ccc(/C=C2\C(=O)[NH+]=C(OCCOCCOC(=O)c3ccc(-c4c5nc(c(-c6c(F)cccc6F)c6ccc([nH]6)c(-c6c(F)cccc6F)c6nc(c(-c7c(F)cccc7F)c7ccc4[nH]7)C=C6)C=C5)cc3)N(c3ccc4c(c3)OCO4)C2=O)cc1)C(=O)[O-]
REMARK SMILES IDX 16 1 15 2 14 3 13 4 8 5 9 6 10 7 87 8 11 9 12 10 77 11 88 12
REMARK SMILES IDX 7 14 4 15 5 16 90 17 6 18 89 19 3 20 2 21 1 22 91 23 92 24
REMARK SMILES IDX 93 25 78 26 79 27 83 28 80 29 82 30 81 31 84 32 86 33 85 34
REMARK SMILES IDX 17 35 18 36 19 37 20 38 21 39 22 40 23 41 24 42 76 43 25 44
REMARK SMILES IDX 75 45 26 46 27 47 28 48 69 49 29 50 74 51 68 52 70 53 30 54
REMARK SMILES IDX 73 55 67 56 66 57 31 59 57 60 40 61 56 62 41 63 44 64 55 65
REMARK SMILES IDX 71 66 42 67 43 68 54 70 72 71 45 72 32 73 33 74 38 75 34 76
REMARK SMILES IDX 35 77 37 78 39 79 36 80 58 81 59 82 64 83 60 84 61 85 63 86
REMARK SMILES IDX 65 87 62 88 46 89 47 90 52 91 48 92 49 93 51 94 53 95 50 96
REMARK H PARENT 12 13 70 58 44 69
REMARK Flexibility Score: inf
ROOT
ATOM      1  C   UNL     1       9.281  -3.112  -7.765  1.00  0.00     0.202 C 
ENDROOT
BRANCH   1   2
ATOM      2  C   UNL     1       9.594  -4.536  -7.280  1.00  0.00     0.266 C 
BRANCH   2   3
ATOM      3  O   UNL     1       8.666  -5.104  -6.327  1.00  0.00    -0.428 OA
BRANCH   3   4
ATOM      4  C   UNL     1       8.114  -4.256  -5.424  1.00  0.00     0.465 C 
ATOM      5  C   UNL     1       6.202  -2.449  -2.413  1.00  0.00     0.032 C 
ATOM      6  C   UNL     1       6.902  -2.796  -3.511  1.00  0.00     0.155 C 
ATOM      7  C   UNL     1       6.376  -2.881  -4.883  1.00  0.00     0.349 C 
ATOM      8  C   UNL     1       8.349  -3.090  -3.338  1.00  0.00     0.357 C 
ATOM      9  O   UNL     1       5.590  -2.057  -5.331  1.00  0.00    -0.240 OA
ATOM     10  N   UNL     1       6.903  -3.881  -5.646  1.00  0.00    -0.171 N 
ATOM     11  N   UNL     1       8.897  -3.850  -4.357  1.00  0.00    -0.123 N 
ATOM     12  O   UNL     1       8.954  -2.716  -2.334  1.00  0.00    -0.240 OA
ATOM     13  H   UNL     1       6.367  -4.307  -6.354  1.00  0.00     0.319 HD
BRANCH   5  14
ATOM     14  C   UNL     1       4.777  -2.120  -2.209  1.00  0.00    -0.024 A 
ATOM     15  C   UNL     1       2.092  -1.525  -1.566  1.00  0.00     0.120 A 
ATOM     16  C   UNL     1       2.400  -2.185  -2.750  1.00  0.00     0.047 A 
ATOM     17  C   UNL     1       3.111  -1.193  -0.682  1.00  0.00     0.047 A 
ATOM     18  C   UNL     1       3.731  -2.495  -3.061  1.00  0.00     0.012 A 
ATOM     19  C   UNL     1       4.441  -1.472  -1.010  1.00  0.00     0.012 A 
BRANCH  15  20
ATOM     20  O   UNL     1       0.774  -1.372  -1.247  1.00  0.00    -0.485 OA
BRANCH  20  21
ATOM     21  C   UNL     1       0.345  -0.011  -1.110  1.00  0.00     0.216 C 
ATOM     22  C   UNL     1       0.494   0.492   0.323  1.00  0.00     0.059 C 
BRANCH  21  23
ATOM     23  C   UNL     1      -1.134   0.060  -1.472  1.00  0.00     0.082 C 
ATOM     24  O   UNL     1      -1.673   0.959  -2.102  1.00  0.00    -0.546 OA
ATOM     25  O   UNL     1      -1.879  -0.942  -0.959  1.00  0.00    -0.546 OA
ENDBRANCH  21  23
ENDBRANCH  20  21
ENDBRANCH  15  20
ENDBRANCH   5  14
BRANCH  11  26
ATOM     26  C   UNL     1      10.258  -4.235  -4.234  1.00  0.00     0.144 A 
ATOM     27  C   UNL     1      11.269  -3.250  -4.345  1.00  0.00     0.056 A 
ATOM     28  C   UNL     1      10.597  -5.576  -4.019  1.00  0.00     0.103 A 
ATOM     29  C   UNL     1      12.618  -3.598  -4.259  1.00  0.00     0.055 A 
ATOM     30  C   UNL     1      11.935  -5.876  -3.881  1.00  0.00     0.170 A 
ATOM     31  C   UNL     1      12.916  -4.917  -4.003  1.00  0.00     0.166 A 
ATOM     32  O   UNL     1      12.448  -7.104  -3.599  1.00  0.00    -0.453 OA
ATOM     33  O   UNL     1      14.163  -5.430  -3.827  1.00  0.00    -0.454 OA
ATOM     34  C   UNL     1      13.838  -6.769  -3.402  1.00  0.00     0.468 C 
ENDBRANCH  11  26
ENDBRANCH   3   4
ENDBRANCH   2   3
ENDBRANCH   1   2
BRANCH   1  35
ATOM     35  O   UNL     1       9.348  -2.150  -6.705  1.00  0.00    -0.374 OA
BRANCH  35  36
ATOM     36  C   UNL     1       8.363  -1.109  -6.784  1.00  0.00     0.202 C 
BRANCH  36  37
ATOM     37  C   UNL     1       8.862   0.175  -7.437  1.00  0.00     0.261 C 
BRANCH  37  38
ATOM     38  O   UNL     1       9.176  -0.081  -8.807  1.00  0.00    -0.460 OA
BRANCH  38  39
ATOM     39  C   UNL     1      10.491  -0.274  -9.067  1.00  0.00     0.338 C 
ATOM     40  O   UNL     1      11.433  -0.054  -8.332  1.00  0.00    -0.246 OA
BRANCH  39  41
ATOM     41  C   UNL     1      10.596  -1.016 -10.344  1.00  0.00     0.060 A 
ATOM     42  C   UNL     1      11.666  -1.909 -10.490  1.00  0.00     0.016 A 
ATOM     43  C   UNL     1       9.620  -0.905 -11.340  1.00  0.00     0.016 A 
ATOM     44  C   UNL     1      11.775  -2.681 -11.643  1.00  0.00     0.010 A 
ATOM     45  C   UNL     1       9.732  -1.671 -12.495  1.00  0.00     0.010 A 
ATOM     46  C   UNL     1      10.824  -2.539 -12.659  1.00  0.00    -0.014 A 
BRANCH  46  47
ATOM     47  C   UNL     1      11.054  -3.139 -13.986  1.00  0.00     0.031 A 
ATOM     48  C   UNL     1      11.665  -2.270 -15.044  1.00  0.00     0.074 A 
ATOM     49  C   UNL     1      10.672  -4.399 -14.250  1.00  0.00     0.049 A 
ATOM     50  N   UNL     1      11.835  -2.507 -16.316  1.00  0.00    -0.248 NA
ATOM     51  C   UNL     1      12.134  -0.943 -14.606  1.00  0.00     0.031 C 
ATOM     52  C   UNL     1      10.085  -5.327 -13.285  1.00  0.00     0.029 A 
ATOM     53  N   UNL     1      10.696  -5.101 -15.426  1.00  0.00    -0.354 N 
ATOM     54  C   UNL     1      12.412  -1.356 -16.834  1.00  0.00     0.074 A 
ATOM     55  C   UNL     1      12.546  -0.413 -15.747  1.00  0.00     0.031 C 
ATOM     56  C   UNL     1       9.775  -6.472 -13.919  1.00  0.00     0.029 A 
ATOM     57  C   UNL     1      10.111  -6.340 -15.335  1.00  0.00     0.049 A 
ATOM     58  H   UNL     1      11.095  -4.752 -16.256  1.00  0.00     0.167 HD
ATOM     59  C   UNL     1      12.795  -1.111 -18.107  1.00  0.00     0.037 A 
ATOM     60  C   UNL     1       9.848  -7.241 -16.300  1.00  0.00     0.037 A 
ATOM     61  C   UNL     1      12.655  -2.057 -19.178  1.00  0.00     0.049 A 
ATOM     62  C   UNL     1      10.240  -6.925 -17.720  1.00  0.00     0.074 A 
ATOM     63  C   UNL     1      13.045  -1.931 -20.498  1.00  0.00     0.029 A 
ATOM     64  N   UNL     1      12.065  -3.306 -19.048  1.00  0.00    -0.354 N 
ATOM     65  N   UNL     1      10.825  -5.852 -18.198  1.00  0.00    -0.248 NA
ATOM     66  C   UNL     1       9.931  -7.942 -18.735  1.00  0.00     0.031 C 
ATOM     67  C   UNL     1      12.652  -3.088 -21.178  1.00  0.00     0.029 A 
ATOM     68  C   UNL     1      12.056  -3.952 -20.271  1.00  0.00     0.049 A 
ATOM     69  H   UNL     1      11.706  -3.677 -18.209  1.00  0.00     0.167 HD
ATOM     70  C   UNL     1      10.973  -6.073 -19.561  1.00  0.00     0.074 A 
ATOM     71  C   UNL     1      10.428  -7.387 -19.832  1.00  0.00     0.031 C 
ATOM     72  C   UNL     1      11.511  -5.264 -20.507  1.00  0.00     0.037 A 
BRANCH  59  73
ATOM     73  C   UNL     1      13.371   0.239 -18.404  1.00  0.00     0.057 A 
ATOM     74  C   UNL     1      14.651   0.609 -17.971  1.00  0.00     0.134 A 
ATOM     75  C   UNL     1      12.640   1.178 -19.142  1.00  0.00     0.134 A 
ATOM     76  F   UNL     1      15.392  -0.237 -17.240  1.00  0.00    -0.206 F 
ATOM     77  C   UNL     1      15.177   1.872 -18.247  1.00  0.00     0.040 A 
ATOM     78  C   UNL     1      13.164   2.435 -19.444  1.00  0.00     0.040 A 
ATOM     79  F   UNL     1      11.406   0.887 -19.581  1.00  0.00    -0.206 F 
ATOM     80  C   UNL     1      14.434   2.787 -18.991  1.00  0.00     0.006 A 
ENDBRANCH  59  73
BRANCH  60  81
ATOM     81  C   UNL     1       9.158  -8.511 -15.967  1.00  0.00     0.057 A 
ATOM     82  C   UNL     1       9.828  -9.738 -16.027  1.00  0.00     0.134 A 
ATOM     83  C   UNL     1       7.806  -8.532 -15.601  1.00  0.00     0.134 A 
ATOM     84  F   UNL     1      11.117  -9.785 -16.393  1.00  0.00    -0.206 F 
ATOM     85  C   UNL     1       9.176 -10.942 -15.751  1.00  0.00     0.040 A 
ATOM     86  C   UNL     1       7.148  -9.726 -15.300  1.00  0.00     0.040 A 
ATOM     87  F   UNL     1       7.108  -7.390 -15.523  1.00  0.00    -0.206 F 
ATOM     88  C   UNL     1       7.832 -10.937 -15.383  1.00  0.00     0.006 A 
ENDBRANCH  60  81
BRANCH  72  89
ATOM     89  C   UNL     1      11.561  -5.788 -21.910  1.00  0.00     0.057 A 
ATOM     90  C   UNL     1      10.415  -5.856 -22.711  1.00  0.00     0.134 A 
ATOM     91  C   UNL     1      12.780  -6.171 -22.484  1.00  0.00     0.134 A 
ATOM     92  F   UNL     1       9.216  -5.514 -22.214  1.00  0.00    -0.206 F 
ATOM     93  C   UNL     1      10.477  -6.302 -24.031  1.00  0.00     0.040 A 
ATOM     94  C   UNL     1      12.858  -6.595 -23.810  1.00  0.00     0.040 A 
ATOM     95  F   UNL     1      13.915  -6.118 -21.771  1.00  0.00    -0.206 F 
ATOM     96  C   UNL     1      11.703  -6.665 -24.587  1.00  0.00     0.006 A 
ENDBRANCH  72  89
ENDBRANCH  46  47
ENDBRANCH  39  41
ENDBRANCH  38  39
ENDBRANCH  37  38
ENDBRANCH  36  37
ENDBRANCH  35  36
ENDBRANCH   1  35
TORSDOF 18
