REMARK SMILES C[C@@H](C(=O)OCCOCCOC(=O)c1ccc(-c2c3nc(c(-c4c(F)cccc4F)c4ccc([nH]4)c(-c4c(F)cccc4F)c4nc(c(-c5c(F)cccc5F)c5ccc2[nH]5)C=C4)C=C3)cc1)N1C(=O)/C(=C\c2ccc(OCc3ccccc3Cl)cc2)SC1=S
REMARK SMILES IDX 6 1 5 2 3 3 4 4 2 5 1 6 68 7 69 8 89 9 70 10 71 11 88 12
REMARK SMILES IDX 90 13 72 14 73 15 74 16 87 17 75 18 86 19 76 20 77 21 78 22
REMARK SMILES IDX 79 23 80 24 84 25 81 26 83 27 85 28 82 29 7 30 8 31 9 32
REMARK SMILES IDX 10 33 11 34 12 35 13 36 14 37 15 38 67 39 16 40 66 41 17 42
REMARK SMILES IDX 18 43 19 44 60 45 20 46 65 47 59 48 61 49 21 50 64 51 58 52
REMARK SMILES IDX 57 53 22 55 48 56 31 57 47 58 32 59 35 60 46 61 62 62 33 63
REMARK SMILES IDX 34 64 45 66 63 67 36 68 23 69 24 70 29 71 25 72 26 73 28 74
REMARK SMILES IDX 30 75 27 76 49 77 50 78 55 79 51 80 52 81 54 82 56 83 53 84
REMARK SMILES IDX 37 85 38 86 43 87 39 88 40 89 42 90 44 91 41 92
REMARK H PARENT 61 54 35 65
REMARK Flexibility Score: inf
ROOT
ATOM      1  C   UNL     1       2.276   4.009  -0.701  1.00  0.00     0.261 C 
ENDROOT
BRANCH   1   2
ATOM      2  O   UNL     1       1.893   2.827   0.018  1.00  0.00    -0.462 OA
BRANCH   2   3
ATOM      3  C   UNL     1       0.606   2.842   0.474  1.00  0.00     0.329 C 
ATOM      4  O   UNL     1      -0.161   3.779   0.283  1.00  0.00    -0.250 OA
BRANCH   3   5
ATOM      5  C   UNL     1       0.240   1.586   1.301  1.00  0.00     0.199 C 
ATOM      6  C   UNL     1       1.128   0.392   0.923  1.00  0.00     0.044 C 
BRANCH   5   7
ATOM      7  N   UNL     1      -1.236   1.364   1.183  1.00  0.00    -0.279 N 
ATOM      8  C   UNL     1      -1.806   0.264   0.555  1.00  0.00     0.266 C 
ATOM      9  C   UNL     1      -2.157   2.257   1.718  1.00  0.00     0.149 C 
ATOM     10  O   UNL     1      -1.217  -0.674   0.040  1.00  0.00    -0.268 OA
ATOM     11  C   UNL     1      -3.301   0.358   0.597  1.00  0.00     0.081 C 
ATOM     12  S   UNL     1      -3.739   1.973   0.996  1.00  0.00    -0.054 SA
ATOM     13  S   UNL     1      -1.938   3.400   2.917  1.00  0.00    -0.052 S 
ATOM     14  C   UNL     1      -4.218  -0.621   0.540  1.00  0.00     0.029 C 
BRANCH  14  15
ATOM     15  C   UNL     1      -3.915  -2.049   0.633  1.00  0.00    -0.024 A 
ATOM     16  C   UNL     1      -4.090  -2.908  -0.449  1.00  0.00     0.012 A 
ATOM     17  C   UNL     1      -3.468  -2.564   1.858  1.00  0.00     0.012 A 
ATOM     18  C   UNL     1      -3.713  -4.249  -0.333  1.00  0.00     0.047 A 
ATOM     19  C   UNL     1      -3.101  -3.905   1.975  1.00  0.00     0.047 A 
ATOM     20  C   UNL     1      -3.156  -4.732   0.856  1.00  0.00     0.119 A 
BRANCH  20  21
ATOM     21  O   UNL     1      -2.604  -5.978   0.759  1.00  0.00    -0.489 OA
BRANCH  21  22
ATOM     22  C   UNL     1      -1.610  -6.378   1.714  1.00  0.00     0.267 C 
BRANCH  22  23
ATOM     23  C   UNL     1      -0.214  -5.780   1.567  1.00  0.00     0.008 A 
ATOM     24  C   UNL     1       0.009  -4.522   0.975  1.00  0.00     0.009 A 
ATOM     25  C   UNL     1       0.908  -6.437   2.108  1.00  0.00     0.047 A 
ATOM     26  C   UNL     1       1.276  -3.934   0.944  1.00  0.00     0.001 A 
ATOM     27  C   UNL     1       2.184  -5.858   2.055  1.00  0.00     0.021 A 
ATOM     28  Cl  UNL     1       0.784  -7.981   2.881  1.00  0.00    -0.084 Cl
ATOM     29  C   UNL     1       2.366  -4.602   1.484  1.00  0.00     0.002 A 
ENDBRANCH  22  23
ENDBRANCH  21  22
ENDBRANCH  20  21
ENDBRANCH  14  15
ENDBRANCH   5   7
ENDBRANCH   3   5
ENDBRANCH   2   3
ENDBRANCH   1   2
BRANCH   1  30
ATOM     30  C   UNL     1       2.024   3.939  -2.212  1.00  0.00     0.202 C 
BRANCH  30  31
ATOM     31  O   UNL     1       0.726   3.565  -2.658  1.00  0.00    -0.374 OA
BRANCH  31  32
ATOM     32  C   UNL     1       0.384   2.179  -2.649  1.00  0.00     0.202 C 
BRANCH  32  33
ATOM     33  C   UNL     1       1.043   1.289  -3.706  1.00  0.00     0.261 C 
BRANCH  33  34
ATOM     34  O   UNL     1       2.454   1.132  -3.460  1.00  0.00    -0.460 OA
BRANCH  34  35
ATOM     35  C   UNL     1       3.256   1.627  -4.427  1.00  0.00     0.338 C 
ATOM     36  O   UNL     1       2.914   2.099  -5.509  1.00  0.00    -0.246 OA
BRANCH  35  37
ATOM     37  C   UNL     1       4.643   1.716  -3.943  1.00  0.00     0.060 A 
ATOM     38  C   UNL     1       5.277   2.963  -4.027  1.00  0.00     0.016 A 
ATOM     39  C   UNL     1       5.340   0.592  -3.498  1.00  0.00     0.016 A 
ATOM     40  C   UNL     1       6.630   3.080  -3.724  1.00  0.00     0.010 A 
ATOM     41  C   UNL     1       6.703   0.709  -3.203  1.00  0.00     0.010 A 
ATOM     42  C   UNL     1       7.361   1.943  -3.355  1.00  0.00    -0.014 A 
BRANCH  42  43
ATOM     43  C   UNL     1       8.840   2.022  -3.293  1.00  0.00     0.031 A 
ATOM     44  C   UNL     1       9.643   1.535  -4.468  1.00  0.00     0.074 A 
ATOM     45  C   UNL     1       9.458   2.559  -2.227  1.00  0.00     0.049 A 
ATOM     46  N   UNL     1      10.941   1.481  -4.622  1.00  0.00    -0.248 NA
ATOM     47  C   UNL     1       8.878   1.041  -5.625  1.00  0.00     0.031 C 
ATOM     48  C   UNL     1       8.788   3.106  -1.049  1.00  0.00     0.029 A 
ATOM     49  N   UNL     1      10.794   2.725  -1.964  1.00  0.00    -0.354 N 
ATOM     50  C   UNL     1      11.148   0.947  -5.888  1.00  0.00     0.074 A 
ATOM     51  C   UNL     1       9.845   0.663  -6.447  1.00  0.00     0.031 C 
ATOM     52  C   UNL     1       9.719   3.537  -0.181  1.00  0.00     0.029 A 
ATOM     53  C   UNL     1      11.047   3.269  -0.729  1.00  0.00     0.049 A 
ATOM     54  H   UNL     1      11.504   2.479  -2.601  1.00  0.00     0.167 HD
ATOM     55  C   UNL     1      12.319   0.725  -6.530  1.00  0.00     0.037 A 
ATOM     56  C   UNL     1      12.218   3.501  -0.106  1.00  0.00     0.037 A 
ATOM     57  C   UNL     1      13.615   1.008  -5.972  1.00  0.00     0.049 A 
ATOM     58  C   UNL     1      13.508   3.176  -0.812  1.00  0.00     0.074 A 
ATOM     59  C   UNL     1      14.861   0.825  -6.547  1.00  0.00     0.029 A 
ATOM     60  N   UNL     1      13.831   1.529  -4.706  1.00  0.00    -0.354 N 
ATOM     61  N   UNL     1      13.694   2.687  -2.014  1.00  0.00    -0.248 NA
ATOM     62  C   UNL     1      14.752   3.441  -0.074  1.00  0.00     0.031 C 
ATOM     63  C   UNL     1      15.832   1.192  -5.610  1.00  0.00     0.029 A 
ATOM     64  C   UNL     1      15.190   1.653  -4.471  1.00  0.00     0.049 A 
ATOM     65  H   UNL     1      13.123   1.774  -4.067  1.00  0.00     0.167 HD
ATOM     66  C   UNL     1      15.070   2.611  -2.187  1.00  0.00     0.074 A 
ATOM     67  C   UNL     1      15.673   3.116  -0.971  1.00  0.00     0.031 C 
ATOM     68  C   UNL     1      15.773   2.164  -3.257  1.00  0.00     0.037 A 
BRANCH  55  69
ATOM     69  C   UNL     1      12.250   0.124  -7.904  1.00  0.00     0.057 A 
ATOM     70  C   UNL     1      11.800   0.856  -9.010  1.00  0.00     0.134 A 
ATOM     71  C   UNL     1      12.666  -1.195  -8.127  1.00  0.00     0.134 A 
ATOM     72  F   UNL     1      11.373   2.119  -8.861  1.00  0.00    -0.206 F 
ATOM     73  C   UNL     1      11.746   0.292 -10.286  1.00  0.00     0.040 A 
ATOM     74  C   UNL     1      12.640  -1.762  -9.402  1.00  0.00     0.040 A 
ATOM     75  F   UNL     1      13.111  -1.950  -7.112  1.00  0.00    -0.206 F 
ATOM     76  C   UNL     1      12.174  -1.020 -10.485  1.00  0.00     0.006 A 
ENDBRANCH  55  69
BRANCH  56  77
ATOM     77  C   UNL     1      12.228   4.053   1.272  1.00  0.00     0.057 A 
ATOM     78  C   UNL     1      12.693   5.346   1.535  1.00  0.00     0.134 A 
ATOM     79  C   UNL     1      11.791   3.290   2.363  1.00  0.00     0.134 A 
ATOM     80  F   UNL     1      13.147   6.116   0.536  1.00  0.00    -0.206 F 
ATOM     81  C   UNL     1      12.741   5.855   2.834  1.00  0.00     0.040 A 
ATOM     82  C   UNL     1      11.809   3.796   3.663  1.00  0.00     0.040 A 
ATOM     83  F   UNL     1      11.332   2.043   2.177  1.00  0.00    -0.206 F 
ATOM     84  C   UNL     1      12.292   5.080   3.902  1.00  0.00     0.006 A 
ENDBRANCH  56  77
BRANCH  68  85
ATOM     85  C   UNL     1      17.271   2.234  -3.176  1.00  0.00     0.057 A 
ATOM     86  C   UNL     1      18.010   1.365  -2.364  1.00  0.00     0.134 A 
ATOM     87  C   UNL     1      17.983   3.156  -3.954  1.00  0.00     0.134 A 
ATOM     88  F   UNL     1      17.387   0.467  -1.585  1.00  0.00    -0.206 F 
ATOM     89  C   UNL     1      19.404   1.426  -2.311  1.00  0.00     0.040 A 
ATOM     90  C   UNL     1      19.377   3.208  -3.930  1.00  0.00     0.040 A 
ATOM     91  F   UNL     1      17.336   4.011  -4.761  1.00  0.00    -0.206 F 
ATOM     92  C   UNL     1      20.091   2.345  -3.102  1.00  0.00     0.006 A 
ENDBRANCH  68  85
ENDBRANCH  42  43
ENDBRANCH  35  37
ENDBRANCH  34  35
ENDBRANCH  33  34
ENDBRANCH  32  33
ENDBRANCH  31  32
ENDBRANCH  30  31
ENDBRANCH   1  30
TORSDOF 19
