REMARK SMILES Cc1ccc(CNC(=O)NC[C@@H](CC(C)C)C(=O)OCCOCCOC(=O)c2ccc(-c3c4nc(c(-c5c(F)cccc5F)c5ccc([nH]5)c(-c5c(F)cccc5F)c5nc(c(-c6c(F)cccc6F)c6ccc3[nH]6)C=C5)C=C4)cc2)s1
REMARK SMILES IDX 21 1 20 2 19 3 17 4 18 5 12 6 11 7 10 8 7 9 8 10 9 12 6 14
REMARK SMILES IDX 5 15 1 16 2 17 3 18 82 19 4 20 13 21 14 22 15 23 16 24 22 25
REMARK SMILES IDX 23 26 24 27 25 28 26 29 27 30 28 31 29 32 81 33 30 34 80 35
REMARK SMILES IDX 31 36 32 37 33 38 74 39 34 40 79 41 73 42 75 43 35 44 78 45
REMARK SMILES IDX 72 46 71 47 36 49 62 50 45 51 61 52 46 53 49 54 60 55 76 56
REMARK SMILES IDX 47 57 48 58 59 60 77 61 50 62 37 63 38 64 43 65 39 66 40 67
REMARK SMILES IDX 42 68 44 69 41 70 63 71 64 72 69 73 65 74 66 75 68 76 70 77
REMARK SMILES IDX 67 78 51 79 52 80 57 81 53 82 54 83 56 84 58 85 55 86
REMARK H PARENT 7 11 10 13 75 48 49 59
REMARK Flexibility Score: inf
ROOT
ATOM      1  C   UNL     1      -4.066  -0.113  -5.597  1.00  0.00     0.202 C 
ENDROOT
BRANCH   1   2
ATOM      2  C   UNL     1      -4.557   1.333  -5.543  1.00  0.00     0.261 C 
BRANCH   2   3
ATOM      3  O   UNL     1      -4.218   1.993  -4.308  1.00  0.00    -0.463 OA
BRANCH   3   4
ATOM      4  C   UNL     1      -5.271   2.487  -3.605  1.00  0.00     0.310 C 
ATOM      5  O   UNL     1      -6.448   2.341  -3.918  1.00  0.00    -0.252 OA
BRANCH   4   6
ATOM      6  C   UNL     1      -4.867   3.329  -2.409  1.00  0.00     0.119 C 
BRANCH   6   7
ATOM      7  C   UNL     1      -3.523   2.979  -1.758  1.00  0.00     0.133 C 
BRANCH   7   8
ATOM      8  N   UNL     1      -3.430   3.575  -0.426  1.00  0.00    -0.337 N 
ATOM      9  N   UNL     1      -3.068   1.907   1.222  1.00  0.00    -0.333 N 
ATOM     10  C   UNL     1      -3.236   3.166   0.828  1.00  0.00     0.315 C 
ATOM     11  H   UNL     1      -2.905   1.841   2.191  1.00  0.00     0.165 HD
ATOM     12  O   UNL     1      -3.208   4.039   1.701  1.00  0.00    -0.249 OA
ATOM     13  H   UNL     1      -3.544   4.552  -0.467  1.00  0.00     0.165 HD
BRANCH   9  14
ATOM     14  C   UNL     1      -3.064   0.616   0.583  1.00  0.00     0.164 C 
BRANCH  14  15
ATOM     15  C   UNL     1      -1.673   0.067   0.436  1.00  0.00     0.024 A 
ATOM     16  C   UNL     1       2.224  -0.037  -0.080  1.00  0.00     0.056 C 
ATOM     17  C   UNL     1       0.762  -0.262   0.109  1.00  0.00     0.002 A 
ATOM     18  C   UNL     1       0.105  -1.450   0.338  1.00  0.00     0.015 A 
ATOM     19  S   UNL     1      -0.324   1.057   0.056  1.00  0.00    -0.144 S 
ATOM     20  C   UNL     1      -1.292  -1.259   0.541  1.00  0.00     0.017 A 
ENDBRANCH  14  15
ENDBRANCH   9  14
ENDBRANCH   7   8
ENDBRANCH   6   7
BRANCH   6  21
ATOM     21  C   UNL     1      -5.075   4.824  -2.742  1.00  0.00     0.020 C 
BRANCH  21  22
ATOM     22  C   UNL     1      -3.942   5.593  -3.457  1.00  0.00    -0.017 C 
ATOM     23  C   UNL     1      -3.489   4.966  -4.775  1.00  0.00     0.007 C 
ATOM     24  C   UNL     1      -4.407   7.030  -3.725  1.00  0.00     0.007 C 
ENDBRANCH  21  22
ENDBRANCH   6  21
ENDBRANCH   4   6
ENDBRANCH   3   4
ENDBRANCH   2   3
ENDBRANCH   1   2
BRANCH   1  25
ATOM     25  O   UNL     1      -4.628  -0.984  -4.619  1.00  0.00    -0.374 OA
BRANCH  25  26
ATOM     26  C   UNL     1      -4.141  -0.863  -3.282  1.00  0.00     0.202 C 
BRANCH  26  27
ATOM     27  C   UNL     1      -2.676  -1.256  -3.090  1.00  0.00     0.261 C 
BRANCH  27  28
ATOM     28  O   UNL     1      -1.787  -0.259  -3.631  1.00  0.00    -0.460 OA
BRANCH  28  29
ATOM     29  C   UNL     1      -0.691  -0.774  -4.229  1.00  0.00     0.338 C 
ATOM     30  O   UNL     1      -0.341  -1.951  -4.253  1.00  0.00    -0.246 OA
BRANCH  29  31
ATOM     31  C   UNL     1       0.010   0.250  -5.016  1.00  0.00     0.060 A 
ATOM     32  C   UNL     1      -0.040   0.155  -6.413  1.00  0.00     0.016 A 
ATOM     33  C   UNL     1       0.860   1.166  -4.395  1.00  0.00     0.016 A 
ATOM     34  C   UNL     1       0.811   0.936  -7.195  1.00  0.00     0.010 A 
ATOM     35  C   UNL     1       1.716   1.946  -5.183  1.00  0.00     0.010 A 
ATOM     36  C   UNL     1       1.729   1.801  -6.582  1.00  0.00    -0.014 A 
BRANCH  36  37
ATOM     37  C   UNL     1       2.808   2.420  -7.394  1.00  0.00     0.031 A 
ATOM     38  C   UNL     1       4.165   1.769  -7.431  1.00  0.00     0.074 A 
ATOM     39  C   UNL     1       2.579   3.526  -8.124  1.00  0.00     0.049 A 
ATOM     40  N   UNL     1       5.253   2.149  -8.053  1.00  0.00    -0.248 NA
ATOM     41  C   UNL     1       4.315   0.521  -6.666  1.00  0.00     0.031 C 
ATOM     42  C   UNL     1       1.300   4.227  -8.217  1.00  0.00     0.029 A 
ATOM     43  N   UNL     1       3.423   4.252  -8.927  1.00  0.00    -0.354 N 
ATOM     44  C   UNL     1       6.213   1.190  -7.757  1.00  0.00     0.074 A 
ATOM     45  C   UNL     1       5.589   0.224  -6.878  1.00  0.00     0.031 C 
ATOM     46  C   UNL     1       1.446   5.288  -9.031  1.00  0.00     0.029 A 
ATOM     47  C   UNL     1       2.832   5.355  -9.491  1.00  0.00     0.049 A 
ATOM     48  H   UNL     1       4.363   4.005  -9.084  1.00  0.00     0.167 HD
ATOM     49  C   UNL     1       7.497   1.113  -8.184  1.00  0.00     0.037 A 
ATOM     50  C   UNL     1       3.354   6.317 -10.276  1.00  0.00     0.037 A 
ATOM     51  C   UNL     1       8.126   2.068  -9.057  1.00  0.00     0.049 A 
ATOM     52  C   UNL     1       4.805   6.255 -10.670  1.00  0.00     0.074 A 
ATOM     53  C   UNL     1       9.421   2.068  -9.546  1.00  0.00     0.029 A 
ATOM     54  N   UNL     1       7.505   3.196  -9.567  1.00  0.00    -0.354 N 
ATOM     55  N   UNL     1       5.700   5.340 -10.389  1.00  0.00    -0.248 NA
ATOM     56  C   UNL     1       5.318   7.364 -11.489  1.00  0.00     0.031 C 
ATOM     57  C   UNL     1       9.594   3.217 -10.326  1.00  0.00     0.029 A 
ATOM     58  C   UNL     1       8.396   3.912 -10.350  1.00  0.00     0.049 A 
ATOM     59  H   UNL     1       6.569   3.452  -9.398  1.00  0.00     0.167 HD
ATOM     60  C   UNL     1       6.871   5.747 -11.017  1.00  0.00     0.074 A 
ATOM     61  C   UNL     1       6.574   6.989 -11.697  1.00  0.00     0.031 C 
ATOM     62  C   UNL     1       8.084   5.142 -11.030  1.00  0.00     0.037 A 
BRANCH  49  63
ATOM     63  C   UNL     1       8.315  -0.043  -7.692  1.00  0.00     0.057 A 
ATOM     64  C   UNL     1       8.137  -1.337  -8.197  1.00  0.00     0.134 A 
ATOM     65  C   UNL     1       9.309   0.145  -6.724  1.00  0.00     0.134 A 
ATOM     66  F   UNL     1       7.192  -1.584  -9.117  1.00  0.00    -0.206 F 
ATOM     67  C   UNL     1       8.908  -2.409  -7.742  1.00  0.00     0.040 A 
ATOM     68  C   UNL     1      10.099  -0.914  -6.276  1.00  0.00     0.040 A 
ATOM     69  F   UNL     1       9.530   1.361  -6.203  1.00  0.00    -0.206 F 
ATOM     70  C   UNL     1       9.896  -2.197  -6.782  1.00  0.00     0.006 A 
ENDBRANCH  49  63
BRANCH  50  71
ATOM     71  C   UNL     1       2.500   7.437 -10.739  1.00  0.00     0.057 A 
ATOM     72  C   UNL     1       2.104   7.540 -12.077  1.00  0.00     0.134 A 
ATOM     73  C   UNL     1       2.074   8.439  -9.859  1.00  0.00     0.134 A 
ATOM     74  F   UNL     1       2.504   6.623 -12.971  1.00  0.00    -0.206 F 
ATOM     75  C   UNL     1       1.322   8.604 -12.527  1.00  0.00     0.040 A 
ATOM     76  C   UNL     1       1.275   9.498 -10.291  1.00  0.00     0.040 A 
ATOM     77  F   UNL     1       2.423   8.397  -8.565  1.00  0.00    -0.206 F 
ATOM     78  C   UNL     1       0.901   9.585 -11.630  1.00  0.00     0.006 A 
ENDBRANCH  50  71
BRANCH  62  79
ATOM     79  C   UNL     1       9.171   5.795 -11.829  1.00  0.00     0.057 A 
ATOM     80  C   UNL     1       9.843   6.933 -11.368  1.00  0.00     0.134 A 
ATOM     81  C   UNL     1       9.581   5.250 -13.053  1.00  0.00     0.134 A 
ATOM     82  F   UNL     1       9.488   7.508 -10.209  1.00  0.00    -0.206 F 
ATOM     83  C   UNL     1      10.876   7.516 -12.103  1.00  0.00     0.040 A 
ATOM     84  C   UNL     1      10.625   5.813 -13.788  1.00  0.00     0.040 A 
ATOM     85  F   UNL     1       8.981   4.156 -13.546  1.00  0.00    -0.206 F 
ATOM     86  C   UNL     1      11.274   6.952 -13.315  1.00  0.00     0.006 A 
ENDBRANCH  62  79
ENDBRANCH  36  37
ENDBRANCH  29  31
ENDBRANCH  28  29
ENDBRANCH  27  28
ENDBRANCH  26  27
ENDBRANCH  25  26
ENDBRANCH   1  25
TORSDOF 20
