REMARK SMILES O=C(OCCOCCOC(=O)[C@@H](Cc1ccccc1)Nc1ccc(Cl)c(Br)c1)c1ccc(-c2c3nc(c(-c4c(F)cccc4F)c4ccc([nH]4)c(-c4c(F)cccc4F)c4nc(c(-c5c(F)cccc5F)c5ccc2[nH]5)C=C4)C=C3)cc1
REMARK SMILES IDX 6 1 5 2 4 3 3 4 2 5 1 6 29 7 30 8 82 9 31 10 81 11 32 12
REMARK SMILES IDX 33 13 34 14 75 15 35 16 80 17 74 18 76 19 36 20 79 21 73 22
REMARK SMILES IDX 72 23 37 25 63 26 46 27 62 28 47 29 50 30 61 31 77 32 48 33
REMARK SMILES IDX 49 34 60 36 78 37 51 38 38 39 39 40 44 41 40 42 41 43 43 44
REMARK SMILES IDX 45 45 42 46 64 47 65 48 70 49 66 50 67 51 69 52 71 53 68 54
REMARK SMILES IDX 52 55 53 56 58 57 54 58 55 59 57 60 59 61 56 62 7 63 8 64
REMARK SMILES IDX 9 65 10 66 11 67 12 68 13 69 14 70 15 71 19 72 16 73 18 74
REMARK SMILES IDX 17 75 20 76 21 78 22 79 28 80 23 81 26 82 24 83 27 84 25 85
REMARK H PARENT 76 24 50 35 20 77
REMARK Flexibility Score: inf
ROOT
ATOM      1  O   UNL     1       4.242  -1.511   0.773  1.00  0.00    -0.374 OA
ENDROOT
BRANCH   1   2
ATOM      2  C   UNL     1       4.659  -0.252   1.299  1.00  0.00     0.202 C 
BRANCH   2   3
ATOM      3  C   UNL     1       4.191   1.004   0.554  1.00  0.00     0.261 C 
BRANCH   3   4
ATOM      4  O   UNL     1       2.770   0.989   0.330  1.00  0.00    -0.460 OA
BRANCH   4   5
ATOM      5  C   UNL     1       2.134   0.796  -0.852  1.00  0.00     0.338 C 
ATOM      6  O   UNL     1       0.928   1.013  -0.934  1.00  0.00    -0.246 OA
BRANCH   5   7
ATOM      7  C   UNL     1       2.849   0.309  -2.068  1.00  0.00     0.060 A 
ATOM      8  C   UNL     1       3.995  -0.480  -2.018  1.00  0.00     0.016 A 
ATOM      9  C   UNL     1       2.301   0.588  -3.327  1.00  0.00     0.016 A 
ATOM     10  C   UNL     1       4.633  -0.930  -3.148  1.00  0.00     0.010 A 
ATOM     11  C   UNL     1       2.909   0.097  -4.488  1.00  0.00     0.010 A 
ATOM     12  C   UNL     1       4.081  -0.661  -4.388  1.00  0.00    -0.014 A 
BRANCH  12  13
ATOM     13  C   UNL     1       4.855  -1.131  -5.539  1.00  0.00     0.031 A 
ATOM     14  C   UNL     1       5.700  -0.141  -6.266  1.00  0.00     0.074 A 
ATOM     15  C   UNL     1       4.949  -2.456  -5.754  1.00  0.00     0.049 A 
ATOM     16  N   UNL     1       6.436  -0.310  -7.327  1.00  0.00    -0.248 NA
ATOM     17  C   UNL     1       5.740   1.223  -5.707  1.00  0.00     0.031 C 
ATOM     18  C   UNL     1       4.299  -3.490  -4.941  1.00  0.00     0.029 A 
ATOM     19  N   UNL     1       5.664  -3.161  -6.679  1.00  0.00    -0.354 N 
ATOM     20  C   UNL     1       6.987   0.934  -7.595  1.00  0.00     0.074 A 
ATOM     21  C   UNL     1       6.525   1.845  -6.573  1.00  0.00     0.031 C 
ATOM     22  C   UNL     1       4.664  -4.699  -5.394  1.00  0.00     0.029 A 
ATOM     23  C   UNL     1       5.494  -4.520  -6.577  1.00  0.00     0.049 A 
ATOM     24  H   UNL     1       6.244  -2.738  -7.352  1.00  0.00     0.167 HD
ATOM     25  C   UNL     1       7.787   1.271  -8.630  1.00  0.00     0.037 A 
ATOM     26  C   UNL     1       5.922  -5.497  -7.396  1.00  0.00     0.037 A 
ATOM     27  C   UNL     1       8.221   0.321  -9.615  1.00  0.00     0.049 A 
ATOM     28  C   UNL     1       6.714  -5.081  -8.603  1.00  0.00     0.074 A 
ATOM     29  C   UNL     1       8.957   0.533 -10.763  1.00  0.00     0.029 A 
ATOM     30  N   UNL     1       7.949  -1.042  -9.553  1.00  0.00    -0.354 N 
ATOM     31  N   UNL     1       7.140  -3.883  -8.935  1.00  0.00    -0.248 NA
ATOM     32  C   UNL     1       7.056  -6.132  -9.566  1.00  0.00     0.031 C 
ATOM     33  C   UNL     1       9.094  -0.697 -11.418  1.00  0.00     0.029 A 
ATOM     34  C   UNL     1       8.483  -1.682 -10.654  1.00  0.00     0.049 A 
ATOM     35  H   UNL     1       7.448  -1.485  -8.830  1.00  0.00     0.167 HD
ATOM     36  C   UNL     1       7.803  -4.034 -10.143  1.00  0.00     0.074 A 
ATOM     37  C   UNL     1       7.744  -5.447 -10.470  1.00  0.00     0.031 C 
ATOM     38  C   UNL     1       8.397  -3.097 -10.922  1.00  0.00     0.037 A 
BRANCH  25  39
ATOM     39  C   UNL     1       8.124   2.722  -8.779  1.00  0.00     0.057 A 
ATOM     40  C   UNL     1       9.027   3.378  -7.932  1.00  0.00     0.134 A 
ATOM     41  C   UNL     1       7.481   3.492  -9.757  1.00  0.00     0.134 A 
ATOM     42  F   UNL     1       9.646   2.707  -6.949  1.00  0.00    -0.206 F 
ATOM     43  C   UNL     1       9.259   4.751  -8.038  1.00  0.00     0.040 A 
ATOM     44  C   UNL     1       7.721   4.860  -9.887  1.00  0.00     0.040 A 
ATOM     45  F   UNL     1       6.593   2.929 -10.590  1.00  0.00    -0.206 F 
ATOM     46  C   UNL     1       8.606   5.496  -9.020  1.00  0.00     0.006 A 
ENDBRANCH  25  39
BRANCH  26  47
ATOM     47  C   UNL     1       5.530  -6.910  -7.156  1.00  0.00     0.057 A 
ATOM     48  C   UNL     1       6.479  -7.898  -6.877  1.00  0.00     0.134 A 
ATOM     49  C   UNL     1       4.187  -7.311  -7.207  1.00  0.00     0.134 A 
ATOM     50  F   UNL     1       7.783  -7.588  -6.832  1.00  0.00    -0.206 F 
ATOM     51  C   UNL     1       6.111  -9.230  -6.669  1.00  0.00     0.040 A 
ATOM     52  C   UNL     1       3.801  -8.631  -6.972  1.00  0.00     0.040 A 
ATOM     53  F   UNL     1       3.222  -6.417  -7.472  1.00  0.00    -0.206 F 
ATOM     54  C   UNL     1       4.767  -9.598  -6.710  1.00  0.00     0.006 A 
ENDBRANCH  26  47
BRANCH  38  55
ATOM     55  C   UNL     1       9.039  -3.587 -12.181  1.00  0.00     0.057 A 
ATOM     56  C   UNL     1       8.278  -3.942 -13.300  1.00  0.00     0.134 A 
ATOM     57  C   UNL     1      10.433  -3.645 -12.288  1.00  0.00     0.134 A 
ATOM     58  F   UNL     1       6.937  -3.920 -13.247  1.00  0.00    -0.206 F 
ATOM     59  C   UNL     1       8.885  -4.354 -14.485  1.00  0.00     0.040 A 
ATOM     60  C   UNL     1      11.051  -4.031 -13.476  1.00  0.00     0.040 A 
ATOM     61  F   UNL     1      11.211  -3.308 -11.249  1.00  0.00    -0.206 F 
ATOM     62  C   UNL     1      10.276  -4.390 -14.577  1.00  0.00     0.006 A 
ENDBRANCH  38  55
ENDBRANCH  12  13
ENDBRANCH   5   7
ENDBRANCH   4   5
ENDBRANCH   3   4
ENDBRANCH   2   3
ENDBRANCH   1   2
BRANCH   1  63
ATOM     63  C   UNL     1       2.885  -1.898   1.006  1.00  0.00     0.202 C 
BRANCH  63  64
ATOM     64  C   UNL     1       2.863  -3.306   1.604  1.00  0.00     0.261 C 
BRANCH  64  65
ATOM     65  O   UNL     1       3.202  -3.218   2.996  1.00  0.00    -0.462 OA
BRANCH  65  66
ATOM     66  C   UNL     1       4.508  -2.954   3.265  1.00  0.00     0.328 C 
ATOM     67  O   UNL     1       5.448  -3.249   2.533  1.00  0.00    -0.250 OA
BRANCH  66  68
ATOM     68  C   UNL     1       4.675  -2.288   4.635  1.00  0.00     0.194 C 
BRANCH  68  69
ATOM     69  C   UNL     1       3.965  -0.935   4.881  1.00  0.00     0.072 C 
BRANCH  69  70
ATOM     70  C   UNL     1       2.502  -0.680   4.575  1.00  0.00    -0.045 A 
ATOM     71  C   UNL     1       2.107   0.626   4.221  1.00  0.00     0.004 A 
ATOM     72  C   UNL     1       1.499  -1.646   4.707  1.00  0.00     0.004 A 
ATOM     73  C   UNL     1       0.768   0.939   3.976  1.00  0.00     0.000 A 
ATOM     74  C   UNL     1       0.160  -1.340   4.439  1.00  0.00     0.000 A 
ATOM     75  C   UNL     1      -0.206  -0.048   4.078  1.00  0.00     0.000 A 
ENDBRANCH  69  70
ENDBRANCH  68  69
BRANCH  68  76
ATOM     76  N   UNL     1       4.368  -3.250   5.703  1.00  0.00    -0.372 N 
ATOM     77  H   UNL     1       3.440  -3.380   6.006  1.00  0.00     0.161 HD
BRANCH  76  78
ATOM     78  C   UNL     1       5.404  -3.971   6.277  1.00  0.00     0.036 A 
ATOM     79  C   UNL     1       5.274  -5.354   6.416  1.00  0.00     0.027 A 
ATOM     80  C   UNL     1       6.600  -3.368   6.687  1.00  0.00     0.043 A 
ATOM     81  C   UNL     1       6.307  -6.119   6.961  1.00  0.00     0.024 A 
ATOM     82  C   UNL     1       7.640  -4.126   7.235  1.00  0.00     0.038 A 
ATOM     83  C   UNL     1       7.491  -5.507   7.377  1.00  0.00     0.055 A 
ATOM     84  Br  UNL     1       9.213  -3.199   7.759  1.00  0.00    -0.049 Br
ATOM     85  Cl  UNL     1       8.713  -6.514   8.063  1.00  0.00    -0.083 Cl
ENDBRANCH  76  78
ENDBRANCH  68  76
ENDBRANCH  66  68
ENDBRANCH  65  66
ENDBRANCH  64  65
ENDBRANCH  63  64
ENDBRANCH   1  63
TORSDOF 18
