REMARK SMILES CCCC[C@H]1C[NH2+]CCN1c1ccc(C(=O)OCCOCCOC(=O)c2ccc(-c3c4nc(c(-c5c(F)cccc5F)c5ccc([nH]5)c(-c5c(F)cccc5F)c5nc(c(-c6c(F)cccc6F)c6ccc3[nH]6)C=C5)C=C4)cc2)cc1
REMARK SMILES IDX 19 1 18 2 17 3 15 4 16 5 14 6 11 7 12 8 81 9 13 10 80 11
REMARK SMILES IDX 10 12 5 13 6 14 7 15 9 16 8 17 4 20 3 21 2 22 1 23 20 24
REMARK SMILES IDX 21 25 22 26 23 27 24 28 25 29 26 30 27 31 79 32 28 33 78 34
REMARK SMILES IDX 29 35 30 36 31 37 72 38 32 39 77 40 71 41 73 42 33 43 76 44
REMARK SMILES IDX 70 45 69 46 34 48 60 49 43 50 59 51 44 52 47 53 58 54 74 55
REMARK SMILES IDX 45 56 46 57 57 59 75 60 48 61 35 62 36 63 41 64 37 65 38 66
REMARK SMILES IDX 40 67 42 68 39 69 61 70 62 71 67 72 63 73 64 74 66 75 68 76
REMARK SMILES IDX 65 77 49 78 50 79 55 80 51 81 52 82 54 83 56 84 53 85
REMARK H PARENT 7 18 7 19 73 47 47 58
REMARK Flexibility Score: inf
ROOT
ATOM      1  C   UNL     1       3.232   9.713  -4.957  1.00  0.00     0.202 C 
ENDROOT
BRANCH   1   2
ATOM      2  C   UNL     1       3.867   8.814  -3.893  1.00  0.00     0.261 C 
BRANCH   2   3
ATOM      3  O   UNL     1       3.010   7.710  -3.558  1.00  0.00    -0.460 OA
BRANCH   3   4
ATOM      4  C   UNL     1       2.439   7.796  -2.333  1.00  0.00     0.338 C 
ATOM      5  O   UNL     1       2.678   8.623  -1.467  1.00  0.00    -0.246 OA
BRANCH   4   6
ATOM      6  C   UNL     1       1.341   6.818  -2.209  1.00  0.00     0.060 A 
ATOM      7  C   UNL     1      -0.688   4.970  -1.606  1.00  0.00     0.037 A 
ATOM      8  C   UNL     1      -0.844   6.326  -1.299  1.00  0.00     0.027 A 
ATOM      9  C   UNL     1       0.443   4.589  -2.346  1.00  0.00     0.027 A 
ATOM     10  C   UNL     1       0.177   7.238  -1.560  1.00  0.00     0.018 A 
ATOM     11  C   UNL     1       1.451   5.505  -2.664  1.00  0.00     0.018 A 
BRANCH   7  12
ATOM     12  N   UNL     1      -1.573   4.037  -1.108  1.00  0.00    -0.357 N 
ATOM     13  C   UNL     1      -1.088   2.816  -0.430  1.00  0.00     0.137 C 
ATOM     14  C   UNL     1      -1.698   1.584  -1.166  1.00  0.00     0.285 C 
ATOM     15  N   UNL     1      -3.174   1.615  -1.278  1.00  0.00    -0.343 N 
ATOM     16  C   UNL     1      -3.015   4.158  -1.355  1.00  0.00     0.178 C 
ATOM     17  C   UNL     1      -3.564   2.854  -1.986  1.00  0.00     0.282 C 
ATOM     18  H   UNL     1      -3.590   1.604  -0.346  1.00  0.00     0.346 HD
ATOM     19  H   UNL     1      -3.503   0.798  -1.794  1.00  0.00     0.346 HD
BRANCH  13  20
ATOM     20  C   UNL     1      -1.474   2.811   1.073  1.00  0.00     0.031 C 
BRANCH  20  21
ATOM     21  C   UNL     1      -0.448   3.440   2.030  1.00  0.00     0.002 C 
BRANCH  21  22
ATOM     22  C   UNL     1      -0.194   4.941   1.914  1.00  0.00    -0.003 C 
ATOM     23  C   UNL     1      -1.430   5.798   2.131  1.00  0.00     0.004 C 
ENDBRANCH  21  22
ENDBRANCH  20  21
ENDBRANCH  13  20
ENDBRANCH   7  12
ENDBRANCH   4   6
ENDBRANCH   3   4
ENDBRANCH   2   3
ENDBRANCH   1   2
BRANCH   1  24
ATOM     24  O   UNL     1       2.021  10.372  -4.588  1.00  0.00    -0.374 OA
BRANCH  24  25
ATOM     25  C   UNL     1       0.813   9.616  -4.691  1.00  0.00     0.202 C 
BRANCH  25  26
ATOM     26  C   UNL     1       0.218   9.480  -6.097  1.00  0.00     0.261 C 
BRANCH  26  27
ATOM     27  O   UNL     1       1.041   8.658  -6.946  1.00  0.00    -0.460 OA
BRANCH  27  28
ATOM     28  C   UNL     1       1.654   9.310  -7.960  1.00  0.00     0.338 C 
ATOM     29  O   UNL     1       1.515  10.481  -8.285  1.00  0.00    -0.246 OA
BRANCH  28  30
ATOM     30  C   UNL     1       2.694   8.445  -8.547  1.00  0.00     0.060 A 
ATOM     31  C   UNL     1       3.998   8.951  -8.619  1.00  0.00     0.016 A 
ATOM     32  C   UNL     1       2.394   7.181  -9.060  1.00  0.00     0.016 A 
ATOM     33  C   UNL     1       5.005   8.206  -9.230  1.00  0.00     0.010 A 
ATOM     34  C   UNL     1       3.403   6.440  -9.684  1.00  0.00     0.010 A 
ATOM     35  C   UNL     1       4.707   6.957  -9.791  1.00  0.00    -0.014 A 
BRANCH  35  36
ATOM     36  C   UNL     1       5.734   6.234 -10.578  1.00  0.00     0.031 A 
ATOM     37  C   UNL     1       5.704   6.316 -12.079  1.00  0.00     0.074 A 
ATOM     38  C   UNL     1       6.690   5.518  -9.960  1.00  0.00     0.049 A 
ATOM     39  N   UNL     1       6.456   5.705 -12.958  1.00  0.00    -0.248 NA
ATOM     40  C   UNL     1       4.691   7.208 -12.667  1.00  0.00     0.031 C 
ATOM     41  C   UNL     1       6.852   5.398  -8.512  1.00  0.00     0.029 A 
ATOM     42  N   UNL     1       7.700   4.746 -10.477  1.00  0.00    -0.354 N 
ATOM     43  C   UNL     1       6.010   6.136 -14.200  1.00  0.00     0.074 A 
ATOM     44  C   UNL     1       4.904   7.039 -13.964  1.00  0.00     0.031 C 
ATOM     45  C   UNL     1       7.891   4.583  -8.256  1.00  0.00     0.029 A 
ATOM     46  C   UNL     1       8.441   4.098  -9.520  1.00  0.00     0.049 A 
ATOM     47  H   UNL     1       7.876   4.664 -11.442  1.00  0.00     0.167 HD
ATOM     48  C   UNL     1       6.487   5.815 -15.426  1.00  0.00     0.037 A 
ATOM     49  C   UNL     1       9.431   3.193  -9.651  1.00  0.00     0.037 A 
ATOM     50  C   UNL     1       7.584   4.913 -15.661  1.00  0.00     0.049 A 
ATOM     51  C   UNL     1       9.876   2.778 -11.029  1.00  0.00     0.074 A 
ATOM     52  C   UNL     1       8.146   4.534 -16.867  1.00  0.00     0.029 A 
ATOM     53  N   UNL     1       8.282   4.246 -14.667  1.00  0.00    -0.354 N 
ATOM     54  N   UNL     1       9.460   3.205 -12.197  1.00  0.00    -0.248 NA
ATOM     55  C   UNL     1      10.924   1.750 -11.106  1.00  0.00     0.031 C 
ATOM     56  C   UNL     1       9.155   3.602 -16.607  1.00  0.00     0.029 A 
ATOM     57  C   UNL     1       9.251   3.436 -15.235  1.00  0.00     0.049 A 
ATOM     58  H   UNL     1       8.114   4.334 -13.701  1.00  0.00     0.167 HD
ATOM     59  C   UNL     1      10.210   2.518 -13.143  1.00  0.00     0.074 A 
ATOM     60  C   UNL     1      11.118   1.657 -12.414  1.00  0.00     0.031 C 
ATOM     61  C   UNL     1      10.152   2.591 -14.495  1.00  0.00     0.037 A 
BRANCH  48  62
ATOM     62  C   UNL     1       5.816   6.432 -16.617  1.00  0.00     0.057 A 
ATOM     63  C   UNL     1       6.008   7.777 -16.953  1.00  0.00     0.134 A 
ATOM     64  C   UNL     1       5.018   5.658 -17.469  1.00  0.00     0.134 A 
ATOM     65  F   UNL     1       6.751   8.574 -16.171  1.00  0.00    -0.206 F 
ATOM     66  C   UNL     1       5.420   8.335 -18.090  1.00  0.00     0.040 A 
ATOM     67  C   UNL     1       4.443   6.198 -18.620  1.00  0.00     0.040 A 
ATOM     68  F   UNL     1       4.799   4.361 -17.205  1.00  0.00    -0.206 F 
ATOM     69  C   UNL     1       4.642   7.542 -18.932  1.00  0.00     0.006 A 
ENDBRANCH  48  62
BRANCH  49  70
ATOM     70  C   UNL     1      10.053   2.582  -8.449  1.00  0.00     0.057 A 
ATOM     71  C   UNL     1      11.386   2.840  -8.112  1.00  0.00     0.134 A 
ATOM     72  C   UNL     1       9.343   1.690  -7.636  1.00  0.00     0.134 A 
ATOM     73  F   UNL     1      12.126   3.665  -8.867  1.00  0.00    -0.206 F 
ATOM     74  C   UNL     1      11.999   2.215  -7.024  1.00  0.00     0.040 A 
ATOM     75  C   UNL     1       9.934   1.078  -6.530  1.00  0.00     0.040 A 
ATOM     76  F   UNL     1       8.062   1.399  -7.906  1.00  0.00    -0.206 F 
ATOM     77  C   UNL     1      11.270   1.334  -6.227  1.00  0.00     0.006 A 
ENDBRANCH  49  70
BRANCH  61  78
ATOM     78  C   UNL     1      11.112   1.740 -15.273  1.00  0.00     0.057 A 
ATOM     79  C   UNL     1      10.945   0.354 -15.383  1.00  0.00     0.134 A 
ATOM     80  C   UNL     1      12.190   2.319 -15.955  1.00  0.00     0.134 A 
ATOM     81  F   UNL     1       9.941  -0.263 -14.743  1.00  0.00    -0.206 F 
ATOM     82  C   UNL     1      11.826  -0.429 -16.132  1.00  0.00     0.040 A 
ATOM     83  C   UNL     1      13.063   1.551 -16.726  1.00  0.00     0.040 A 
ATOM     84  F   UNL     1      12.401   3.643 -15.897  1.00  0.00    -0.206 F 
ATOM     85  C   UNL     1      12.885   0.171 -16.812  1.00  0.00     0.006 A 
ENDBRANCH  61  78
ENDBRANCH  35  36
ENDBRANCH  28  30
ENDBRANCH  27  28
ENDBRANCH  26  27
ENDBRANCH  25  26
ENDBRANCH  24  25
ENDBRANCH   1  24
TORSDOF 18
