REMARK SMILES CCC(CC)(C[C@H](O)COC)C(=O)OCCOCCOC(=O)c1ccc(-c2c3nc(c(-c4c(F)cccc4F)c4ccc([nH]4)c(-c4c(F)cccc4F)c4nc(c(-c5c(F)cccc5F)c5ccc2[nH]5)C=C4)C=C3)cc1
REMARK SMILES IDX 16 1 15 2 14 3 12 4 13 5 3 6 2 7 1 8 4 9 5 10 6 11 7 12 9 13
REMARK SMILES IDX 10 14 11 15 8 16 17 18 18 19 19 20 20 21 21 22 22 23 23 24
REMARK SMILES IDX 24 25 76 26 25 27 75 28 26 29 27 30 28 31 69 32 29 33 74 34
REMARK SMILES IDX 68 35 70 36 30 37 73 38 67 39 66 40 31 42 57 43 40 44 56 45
REMARK SMILES IDX 41 46 44 47 55 48 71 49 42 50 43 51 54 53 72 54 45 55 32 56
REMARK SMILES IDX 33 57 38 58 34 59 35 60 37 61 39 62 36 63 58 64 59 65 64 66
REMARK SMILES IDX 60 67 61 68 63 69 65 70 62 71 46 72 47 73 52 74 48 75 49 76
REMARK SMILES IDX 51 77 53 78 50 79
REMARK H PARENT 8 17 70 41 44 52
REMARK Flexibility Score: inf
ROOT
ATOM      1  C   UNL     1       1.697  -9.400   1.198  1.00  0.00     0.202 C 
ENDROOT
BRANCH   1   2
ATOM      2  C   UNL     1       2.981  -8.609   0.909  1.00  0.00     0.261 C 
BRANCH   2   3
ATOM      3  O   UNL     1       2.825  -7.204   0.615  1.00  0.00    -0.463 OA
BRANCH   3   4
ATOM      4  C   UNL     1       3.005  -6.877  -0.699  1.00  0.00     0.312 C 
ATOM      5  O   UNL     1       3.007  -7.713  -1.594  1.00  0.00    -0.252 OA
BRANCH   4   6
ATOM      6  C   UNL     1       3.368  -5.385  -0.926  1.00  0.00     0.070 C 
BRANCH   6   7
ATOM      7  C   UNL     1       2.905  -4.941  -2.349  1.00  0.00     0.015 C 
ATOM      8  C   UNL     1       3.522  -5.656  -3.553  1.00  0.00     0.005 C 
ENDBRANCH   6   7
BRANCH   6   9
ATOM      9  C   UNL     1       4.930  -5.360  -0.793  1.00  0.00     0.015 C 
ATOM     10  C   UNL     1       5.628  -4.079  -1.248  1.00  0.00     0.005 C 
ENDBRANCH   6   9
BRANCH   6  11
ATOM     11  C   UNL     1       2.782  -4.430   0.174  1.00  0.00     0.053 C 
BRANCH  11  12
ATOM     12  C   UNL     1       1.404  -3.761  -0.017  1.00  0.00     0.141 C 
BRANCH  12  13
ATOM     13  C   UNL     1       0.238  -4.753  -0.058  1.00  0.00     0.191 C 
BRANCH  13  14
ATOM     14  O   UNL     1      -1.044  -4.159  -0.260  1.00  0.00    -0.382 OA
ATOM     15  C   UNL     1      -1.634  -3.635   0.923  1.00  0.00     0.195 C 
ENDBRANCH  13  14
ENDBRANCH  12  13
BRANCH  12  16
ATOM     16  O   UNL     1       1.240  -2.859   1.092  1.00  0.00    -0.391 OA
ATOM     17  H   UNL     1       1.266  -3.360   1.923  1.00  0.00     0.211 HD
ENDBRANCH  12  16
ENDBRANCH  11  12
ENDBRANCH   6  11
ENDBRANCH   4   6
ENDBRANCH   3   4
ENDBRANCH   2   3
ENDBRANCH   1   2
BRANCH   1  18
ATOM     18  O   UNL     1       0.695  -9.430   0.188  1.00  0.00    -0.374 OA
BRANCH  18  19
ATOM     19  C   UNL     1      -0.097  -8.255   0.021  1.00  0.00     0.202 C 
BRANCH  19  20
ATOM     20  C   UNL     1      -1.003  -7.901   1.204  1.00  0.00     0.261 C 
BRANCH  20  21
ATOM     21  O   UNL     1      -0.203  -7.484   2.324  1.00  0.00    -0.460 OA
BRANCH  21  22
ATOM     22  C   UNL     1      -0.889  -7.406   3.482  1.00  0.00     0.338 C 
ATOM     23  O   UNL     1      -2.098  -7.313   3.623  1.00  0.00    -0.246 OA
BRANCH  22  24
ATOM     24  C   UNL     1       0.041  -7.668   4.589  1.00  0.00     0.060 A 
ATOM     25  C   UNL     1       0.211  -8.998   4.988  1.00  0.00     0.016 A 
ATOM     26  C   UNL     1       0.637  -6.625   5.300  1.00  0.00     0.016 A 
ATOM     27  C   UNL     1       0.921  -9.283   6.151  1.00  0.00     0.010 A 
ATOM     28  C   UNL     1       1.364  -6.916   6.461  1.00  0.00     0.010 A 
ATOM     29  C   UNL     1       1.461  -8.242   6.921  1.00  0.00    -0.014 A 
BRANCH  29  30
ATOM     30  C   UNL     1       1.956  -8.558   8.285  1.00  0.00     0.031 A 
ATOM     31  C   UNL     1       1.040  -8.343   9.461  1.00  0.00     0.074 A 
ATOM     32  C   UNL     1       3.159  -9.131   8.465  1.00  0.00     0.049 A 
ATOM     33  N   UNL     1       1.203  -8.687  10.713  1.00  0.00    -0.248 NA
ATOM     34  C   UNL     1      -0.232  -7.654   9.188  1.00  0.00     0.031 C 
ATOM     35  C   UNL     1       4.133  -9.399   7.409  1.00  0.00     0.029 A 
ATOM     36  N   UNL     1       3.754  -9.611   9.604  1.00  0.00    -0.354 N 
ATOM     37  C   UNL     1       0.049  -8.278  11.370  1.00  0.00     0.074 A 
ATOM     38  C   UNL     1      -0.784  -7.615  10.391  1.00  0.00     0.031 C 
ATOM     39  C   UNL     1       5.202 -10.010   7.948  1.00  0.00     0.029 A 
ATOM     40  C   UNL     1       4.987 -10.175   9.385  1.00  0.00     0.049 A 
ATOM     41  H   UNL     1       3.337  -9.556  10.495  1.00  0.00     0.167 HD
ATOM     42  C   UNL     1      -0.299  -8.457  12.667  1.00  0.00     0.037 A 
ATOM     43  C   UNL     1       5.837 -10.771  10.244  1.00  0.00     0.037 A 
ATOM     44  C   UNL     1       0.530  -9.102  13.649  1.00  0.00     0.049 A 
ATOM     45  C   UNL     1       5.439 -10.938  11.685  1.00  0.00     0.074 A 
ATOM     46  C   UNL     1       0.275  -9.313  14.993  1.00  0.00     0.029 A 
ATOM     47  N   UNL     1       1.781  -9.641  13.389  1.00  0.00    -0.354 N 
ATOM     48  N   UNL     1       4.331 -10.574  12.284  1.00  0.00    -0.248 NA
ATOM     49  C   UNL     1       6.403 -11.616  12.565  1.00  0.00     0.031 C 
ATOM     50  C   UNL     1       1.385  -9.957  15.553  1.00  0.00     0.029 A 
ATOM     51  C   UNL     1       2.314 -10.176  14.549  1.00  0.00     0.049 A 
ATOM     52  H   UNL     1       2.224  -9.642  12.510  1.00  0.00     0.167 HD
ATOM     53  C   UNL     1       4.458 -10.988  13.604  1.00  0.00     0.074 A 
ATOM     54  C   UNL     1       5.740 -11.652  13.713  1.00  0.00     0.031 C 
ATOM     55  C   UNL     1       3.594 -10.829  14.637  1.00  0.00     0.037 A 
BRANCH  42  56
ATOM     56  C   UNL     1      -1.640  -7.940  13.092  1.00  0.00     0.057 A 
ATOM     57  C   UNL     1      -2.825  -8.596  12.730  1.00  0.00     0.134 A 
ATOM     58  C   UNL     1      -1.752  -6.792  13.886  1.00  0.00     0.134 A 
ATOM     59  F   UNL     1      -2.785  -9.691  11.957  1.00  0.00    -0.206 F 
ATOM     60  C   UNL     1      -4.074  -8.117  13.127  1.00  0.00     0.040 A 
ATOM     61  C   UNL     1      -2.994  -6.315  14.306  1.00  0.00     0.040 A 
ATOM     62  F   UNL     1      -0.656  -6.119  14.267  1.00  0.00    -0.206 F 
ATOM     63  C   UNL     1      -4.160  -6.976  13.922  1.00  0.00     0.006 A 
ENDBRANCH  42  56
BRANCH  43  64
ATOM     64  C   UNL     1       7.145 -11.275   9.757  1.00  0.00     0.057 A 
ATOM     65  C   UNL     1       7.402 -12.646   9.646  1.00  0.00     0.134 A 
ATOM     66  C   UNL     1       8.172 -10.394   9.401  1.00  0.00     0.134 A 
ATOM     67  F   UNL     1       6.464 -13.539   9.994  1.00  0.00    -0.206 F 
ATOM     68  C   UNL     1       8.639 -13.124   9.211  1.00  0.00     0.040 A 
ATOM     69  C   UNL     1       9.406 -10.857   8.944  1.00  0.00     0.040 A 
ATOM     70  F   UNL     1       7.986  -9.068   9.484  1.00  0.00    -0.206 F 
ATOM     71  C   UNL     1       9.644 -12.227   8.853  1.00  0.00     0.006 A 
ENDBRANCH  43  64
BRANCH  55  72
ATOM     72  C   UNL     1       4.009 -11.387  15.965  1.00  0.00     0.057 A 
ATOM     73  C   UNL     1       4.983 -10.760  16.751  1.00  0.00     0.134 A 
ATOM     74  C   UNL     1       3.411 -12.547  16.473  1.00  0.00     0.134 A 
ATOM     75  F   UNL     1       5.599  -9.651  16.314  1.00  0.00    -0.206 F 
ATOM     76  C   UNL     1       5.367 -11.280  17.988  1.00  0.00     0.040 A 
ATOM     77  C   UNL     1       3.772 -13.066  17.717  1.00  0.00     0.040 A 
ATOM     78  F   UNL     1       2.466 -13.190  15.772  1.00  0.00    -0.206 F 
ATOM     79  C   UNL     1       4.757 -12.435  18.476  1.00  0.00     0.006 A 
ENDBRANCH  55  72
ENDBRANCH  29  30
ENDBRANCH  22  24
ENDBRANCH  21  22
ENDBRANCH  20  21
ENDBRANCH  19  20
ENDBRANCH  18  19
ENDBRANCH   1  18
TORSDOF 21
