REMARK SMILES Cc1ccc(N2CC[C@H]([NH+]3CCOCC3)[C@H](CCC(=O)OCCOCCOC(=O)c3ccc(-c4c5nc(c(-c6c(F)cccc6F)c6ccc([nH]6)c(-c6c(F)cccc6F)c6nc(c(-c7c(F)cccc7F)c7ccc4[nH]7)C=C6)C=C5)cc3)C2)nc1
REMARK SMILES IDX 23 1 22 2 21 3 19 4 20 5 18 6 17 7 16 8 6 9 7 10 84 11 8 12
REMARK SMILES IDX 9 13 5 14 1 15 2 16 3 17 86 18 4 19 85 20 10 21 11 22 15 23
REMARK SMILES IDX 12 25 14 26 13 27 24 28 25 29 26 30 27 31 28 32 29 33 30 34
REMARK SMILES IDX 31 35 83 36 32 37 82 38 33 39 34 40 35 41 76 42 36 43 81 44
REMARK SMILES IDX 75 45 77 46 37 47 80 48 74 49 73 50 38 52 64 53 47 54 63 55
REMARK SMILES IDX 48 56 51 57 62 58 78 59 49 60 50 61 61 63 79 64 52 65 39 66
REMARK SMILES IDX 40 67 45 68 41 69 42 70 44 71 46 72 43 73 65 74 66 75 71 76
REMARK SMILES IDX 67 77 68 78 70 79 72 80 69 81 53 82 54 83 59 84 55 85 56 86
REMARK SMILES IDX 58 87 60 88 57 89
REMARK H PARENT 10 24 77 51 51 62
REMARK Flexibility Score: inf
ROOT
ATOM      1  C   UNL     1      -6.750   0.251  -6.377  1.00  0.00     0.202 C 
ENDROOT
BRANCH   1   2
ATOM      2  C   UNL     1      -6.989  -0.950  -5.460  1.00  0.00     0.261 C 
BRANCH   2   3
ATOM      3  O   UNL     1      -5.914  -1.071  -4.514  1.00  0.00    -0.463 OA
BRANCH   3   4
ATOM      4  C   UNL     1      -5.478  -2.334  -4.291  1.00  0.00     0.305 C 
ATOM      5  O   UNL     1      -6.008  -3.349  -4.731  1.00  0.00    -0.252 OA
BRANCH   4   6
ATOM      6  C   UNL     1      -4.148  -2.368  -3.574  1.00  0.00     0.123 C 
BRANCH   6   7
ATOM      7  C   UNL     1      -3.840  -1.385  -2.443  1.00  0.00     0.023 C 
BRANCH   7   8
ATOM      8  C   UNL     1      -4.926  -0.652  -1.605  1.00  0.00     0.067 C 
ATOM      9  N   UNL     1      -3.366   0.334   0.092  1.00  0.00    -0.356 N 
ATOM     10  C   UNL     1      -3.940  -0.409   1.200  1.00  0.00     0.124 C 
ATOM     11  C   UNL     1      -4.243   0.644  -1.034  1.00  0.00     0.127 C 
ATOM     12  C   UNL     1      -4.603  -1.693   0.715  1.00  0.00     0.087 C 
ATOM     13  C   UNL     1      -5.628  -1.374  -0.385  1.00  0.00     0.190 C 
BRANCH   9  14
ATOM     14  C   UNL     1      -1.996   0.221  -0.067  1.00  0.00     0.128 A 
ATOM     15  C   UNL     1       2.261  -0.129  -0.069  1.00  0.00     0.046 C 
ATOM     16  C   UNL     1       0.775   0.033  -0.096  1.00  0.00    -0.033 A 
ATOM     17  C   UNL     1       0.164   1.253  -0.369  1.00  0.00     0.009 A 
ATOM     18  C   UNL     1      -0.060  -1.046   0.145  1.00  0.00     0.117 A 
ATOM     19  C   UNL     1      -1.231   1.344  -0.367  1.00  0.00     0.047 A 
ATOM     20  N   UNL     1      -1.410  -0.971   0.181  1.00  0.00    -0.239 NA
ENDBRANCH   9  14
BRANCH  13  21
ATOM     21  N   UNL     1      -6.661  -2.401  -0.647  1.00  0.00    -0.328 N 
ATOM     22  C   UNL     1      -7.499  -2.752   0.528  1.00  0.00     0.291 C 
ATOM     23  C   UNL     1      -6.320  -3.643  -1.333  1.00  0.00     0.291 C 
ATOM     24  H   UNL     1      -7.172  -1.854  -1.340  1.00  0.00     0.348 HD
ATOM     25  C   UNL     1      -7.043  -3.980   1.355  1.00  0.00     0.221 C 
ATOM     26  C   UNL     1      -5.775  -4.766  -0.454  1.00  0.00     0.221 C 
ATOM     27  O   UNL     1      -6.737  -5.117   0.542  1.00  0.00    -0.370 OA
ENDBRANCH  13  21
ENDBRANCH   7   8
ENDBRANCH   6   7
ENDBRANCH   4   6
ENDBRANCH   3   4
ENDBRANCH   2   3
ENDBRANCH   1   2
BRANCH   1  28
ATOM     28  O   UNL     1      -5.620   0.192  -7.250  1.00  0.00    -0.374 OA
BRANCH  28  29
ATOM     29  C   UNL     1      -4.329   0.019  -6.674  1.00  0.00     0.202 C 
BRANCH  29  30
ATOM     30  C   UNL     1      -3.714   1.207  -5.916  1.00  0.00     0.261 C 
BRANCH  30  31
ATOM     31  O   UNL     1      -4.616   1.882  -5.025  1.00  0.00    -0.460 OA
BRANCH  31  32
ATOM     32  C   UNL     1      -4.991   3.113  -5.453  1.00  0.00     0.338 C 
ATOM     33  O   UNL     1      -4.590   3.710  -6.442  1.00  0.00    -0.246 OA
BRANCH  32  34
ATOM     34  C   UNL     1      -6.087   3.650  -4.629  1.00  0.00     0.060 A 
ATOM     35  C   UNL     1      -7.289   3.948  -5.281  1.00  0.00     0.016 A 
ATOM     36  C   UNL     1      -5.899   3.997  -3.290  1.00  0.00     0.016 A 
ATOM     37  C   UNL     1      -8.291   4.645  -4.611  1.00  0.00     0.010 A 
ATOM     38  C   UNL     1      -6.906   4.706  -2.619  1.00  0.00     0.010 A 
ATOM     39  C   UNL     1      -8.088   5.068  -3.290  1.00  0.00    -0.014 A 
BRANCH  39  40
ATOM     40  C   UNL     1      -9.067   6.005  -2.686  1.00  0.00     0.031 A 
ATOM     41  C   UNL     1      -8.791   7.484  -2.716  1.00  0.00     0.074 A 
ATOM     42  C   UNL     1     -10.229   5.549  -2.185  1.00  0.00     0.049 A 
ATOM     43  N   UNL     1      -9.546   8.476  -2.317  1.00  0.00    -0.248 NA
ATOM     44  C   UNL     1      -7.494   7.900  -3.272  1.00  0.00     0.031 C 
ATOM     45  C   UNL     1     -10.627   4.145  -2.121  1.00  0.00     0.029 A 
ATOM     46  N   UNL     1     -11.292   6.228  -1.644  1.00  0.00    -0.354 N 
ATOM     47  C   UNL     1      -8.820   9.632  -2.579  1.00  0.00     0.074 A 
ATOM     48  C   UNL     1      -7.552   9.217  -3.140  1.00  0.00     0.031 C 
ATOM     49  C   UNL     1     -11.851   4.065  -1.571  1.00  0.00     0.029 A 
ATOM     50  C   UNL     1     -12.314   5.409  -1.233  1.00  0.00     0.049 A 
ATOM     51  H   UNL     1     -11.319   7.208  -1.558  1.00  0.00     0.167 HD
ATOM     52  C   UNL     1      -9.182  10.922  -2.384  1.00  0.00     0.037 A 
ATOM     53  C   UNL     1     -13.489   5.711  -0.646  1.00  0.00     0.037 A 
ATOM     54  C   UNL     1     -10.444  11.341  -1.833  1.00  0.00     0.049 A 
ATOM     55  C   UNL     1     -13.848   7.150  -0.396  1.00  0.00     0.074 A 
ATOM     56  C   UNL     1     -10.914  12.628  -1.631  1.00  0.00     0.029 A 
ATOM     57  N   UNL     1     -11.435  10.480  -1.389  1.00  0.00    -0.354 N 
ATOM     58  N   UNL     1     -13.171   8.234  -0.688  1.00  0.00    -0.248 NA
ATOM     59  C   UNL     1     -15.137   7.407   0.262  1.00  0.00     0.031 C 
ATOM     60  C   UNL     1     -12.172  12.545  -1.024  1.00  0.00     0.029 A 
ATOM     61  C   UNL     1     -12.502  11.206  -0.886  1.00  0.00     0.049 A 
ATOM     62  H   UNL     1     -11.388   9.497  -1.425  1.00  0.00     0.167 HD
ATOM     63  C   UNL     1     -13.958   9.299  -0.268  1.00  0.00     0.074 A 
ATOM     64  C   UNL     1     -15.170   8.732   0.285  1.00  0.00     0.031 C 
ATOM     65  C   UNL     1     -13.699  10.628  -0.333  1.00  0.00     0.037 A 
BRANCH  52  66
ATOM     66  C   UNL     1      -8.189  11.982  -2.757  1.00  0.00     0.057 A 
ATOM     67  C   UNL     1      -7.937  12.318  -4.093  1.00  0.00     0.134 A 
ATOM     68  C   UNL     1      -7.508  12.701  -1.767  1.00  0.00     0.134 A 
ATOM     69  F   UNL     1      -8.548  11.658  -5.088  1.00  0.00    -0.206 F 
ATOM     70  C   UNL     1      -7.028  13.323  -4.432  1.00  0.00     0.040 A 
ATOM     71  C   UNL     1      -6.613  13.722  -2.093  1.00  0.00     0.040 A 
ATOM     72  F   UNL     1      -7.709  12.430  -0.469  1.00  0.00    -0.206 F 
ATOM     73  C   UNL     1      -6.369  14.032  -3.429  1.00  0.00     0.006 A 
ENDBRANCH  52  66
BRANCH  53  74
ATOM     74  C   UNL     1     -14.416   4.623  -0.249  1.00  0.00     0.057 A 
ATOM     75  C   UNL     1     -15.624   4.413  -0.923  1.00  0.00     0.134 A 
ATOM     76  C   UNL     1     -14.120   3.779   0.828  1.00  0.00     0.134 A 
ATOM     77  F   UNL     1     -15.972   5.206  -1.947  1.00  0.00    -0.206 F 
ATOM     78  C   UNL     1     -16.512   3.409  -0.532  1.00  0.00     0.040 A 
ATOM     79  C   UNL     1     -14.988   2.758   1.216  1.00  0.00     0.040 A 
ATOM     80  F   UNL     1     -12.978   3.932   1.514  1.00  0.00    -0.206 F 
ATOM     81  C   UNL     1     -16.192   2.575   0.538  1.00  0.00     0.006 A 
ENDBRANCH  53  74
BRANCH  65  82
ATOM     82  C   UNL     1     -14.751  11.557   0.198  1.00  0.00     0.057 A 
ATOM     83  C   UNL     1     -14.969  11.711   1.572  1.00  0.00     0.134 A 
ATOM     84  C   UNL     1     -15.532  12.327  -0.673  1.00  0.00     0.134 A 
ATOM     85  F   UNL     1     -14.261  10.993   2.457  1.00  0.00    -0.206 F 
ATOM     86  C   UNL     1     -15.943  12.582   2.062  1.00  0.00     0.040 A 
ATOM     87  C   UNL     1     -16.494  13.218  -0.194  1.00  0.00     0.040 A 
ATOM     88  F   UNL     1     -15.367  12.233  -2.001  1.00  0.00    -0.206 F 
ATOM     89  C   UNL     1     -16.706  13.343   1.178  1.00  0.00     0.006 A 
ENDBRANCH  65  82
ENDBRANCH  39  40
ENDBRANCH  32  34
ENDBRANCH  31  32
ENDBRANCH  30  31
ENDBRANCH  29  30
ENDBRANCH  28  29
ENDBRANCH   1  28
TORSDOF 18
