REMARK SMILES CC[C@H](C)CN(CC)C(=O)Nc1ccc(C(=O)OCCOCCOC(=O)c2ccc(-c3c4nc(c(-c5c(F)cccc5F)c5ccc([nH]5)c(-c5c(F)cccc5F)c5nc(c(-c6c(F)cccc6F)c6ccc3[nH]6)C=C5)C=C4)cc2)cc1Cl
REMARK SMILES IDX 19 1 18 2 16 3 17 4 15 5 12 6 13 7 82 8 14 9 81 10 83 11
REMARK SMILES IDX 11 12 9 13 10 14 6 16 5 17 3 18 4 19 2 20 1 21 7 22 8 23
REMARK SMILES IDX 20 24 21 25 22 26 23 27 24 28 25 29 26 30 27 31 28 32 80 33
REMARK SMILES IDX 29 34 79 35 30 36 31 37 32 38 73 39 33 40 78 41 72 42 74 43
REMARK SMILES IDX 34 44 77 45 71 46 70 47 35 49 61 50 44 51 60 52 45 53 48 54
REMARK SMILES IDX 59 55 75 56 46 57 47 58 58 60 76 61 49 62 36 63 37 64 42 65
REMARK SMILES IDX 38 66 39 67 41 68 43 69 40 70 62 71 63 72 68 73 64 74 65 75
REMARK SMILES IDX 67 76 69 77 66 78 50 79 51 80 56 81 52 82 53 83 55 84 57 85
REMARK SMILES IDX 54 86
REMARK H PARENT 11 15 74 48 48 59
REMARK Flexibility Score: inf
ROOT
ATOM      1  C   UNL     1       5.592   9.430   4.868  1.00  0.00     0.261 C 
ENDROOT
BRANCH   1   2
ATOM      2  O   UNL     1       4.590   8.421   4.694  1.00  0.00    -0.460 OA
BRANCH   2   3
ATOM      3  C   UNL     1       5.065   7.157   4.615  1.00  0.00     0.338 C 
ATOM      4  O   UNL     1       6.233   6.822   4.495  1.00  0.00    -0.246 OA
BRANCH   3   5
ATOM      5  C   UNL     1       3.959   6.176   4.745  1.00  0.00     0.061 A 
ATOM      6  C   UNL     1       2.002   4.230   4.537  1.00  0.00     0.061 A 
ATOM      7  C   UNL     1       3.329   3.840   4.727  1.00  0.00     0.028 A 
ATOM      8  C   UNL     1       1.628   5.569   4.710  1.00  0.00     0.065 A 
ATOM      9  C   UNL     1       4.311   4.821   4.809  1.00  0.00     0.018 A 
ATOM     10  C   UNL     1       2.610   6.552   4.791  1.00  0.00     0.038 A 
ATOM     11  Cl  UNL     1      -0.031   6.027   4.864  1.00  0.00    -0.082 Cl
BRANCH   6  12
ATOM     12  N   UNL     1       1.131   3.265   4.039  1.00  0.00    -0.306 N 
ATOM     13  C   UNL     1       0.410   3.225   2.885  1.00  0.00     0.321 C 
ATOM     14  O   UNL     1      -0.495   2.382   2.861  1.00  0.00    -0.248 OA
ATOM     15  H   UNL     1       1.018   2.478   4.620  1.00  0.00     0.171 HD
BRANCH  13  16
ATOM     16  N   UNL     1       0.775   3.929   1.746  1.00  0.00    -0.325 N 
BRANCH  16  17
ATOM     17  C   UNL     1       0.133   3.509   0.491  1.00  0.00     0.124 C 
BRANCH  17  18
ATOM     18  C   UNL     1       0.941   2.408  -0.251  1.00  0.00     0.005 C 
ATOM     19  C   UNL     1       0.756   1.038   0.409  1.00  0.00     0.009 C 
BRANCH  18  20
ATOM     20  C   UNL     1       0.534   2.392  -1.738  1.00  0.00     0.002 C 
ATOM     21  C   UNL     1       1.279   1.363  -2.579  1.00  0.00     0.004 C 
ENDBRANCH  18  20
ENDBRANCH  17  18
ENDBRANCH  16  17
BRANCH  16  22
ATOM     22  C   UNL     1       1.812   4.956   1.556  1.00  0.00     0.118 C 
ATOM     23  C   UNL     1       1.233   6.363   1.449  1.00  0.00     0.027 C 
ENDBRANCH  16  22
ENDBRANCH  13  16
ENDBRANCH   6  12
ENDBRANCH   3   5
ENDBRANCH   2   3
ENDBRANCH   1   2
BRANCH   1  24
ATOM     24  C   UNL     1       5.496  10.064   6.257  1.00  0.00     0.202 C 
BRANCH  24  25
ATOM     25  O   UNL     1       5.639   9.207   7.389  1.00  0.00    -0.374 OA
BRANCH  25  26
ATOM     26  C   UNL     1       4.555   8.348   7.733  1.00  0.00     0.202 C 
BRANCH  26  27
ATOM     27  C   UNL     1       3.299   8.966   8.362  1.00  0.00     0.261 C 
BRANCH  27  28
ATOM     28  O   UNL     1       2.691   9.981   7.548  1.00  0.00    -0.460 OA
BRANCH  28  29
ATOM     29  C   UNL     1       2.848  11.243   8.020  1.00  0.00     0.338 C 
ATOM     30  O   UNL     1       3.395  11.588   9.052  1.00  0.00    -0.246 OA
BRANCH  29  31
ATOM     31  C   UNL     1       2.409  12.210   6.998  1.00  0.00     0.060 A 
ATOM     32  C   UNL     1       3.347  13.143   6.537  1.00  0.00     0.016 A 
ATOM     33  C   UNL     1       1.090  12.239   6.543  1.00  0.00     0.016 A 
ATOM     34  C   UNL     1       2.963  14.124   5.627  1.00  0.00     0.010 A 
ATOM     35  C   UNL     1       0.704  13.233   5.641  1.00  0.00     0.010 A 
ATOM     36  C   UNL     1       1.633  14.189   5.192  1.00  0.00    -0.014 A 
BRANCH  36  37
ATOM     37  C   UNL     1       1.188  15.305   4.326  1.00  0.00     0.031 A 
ATOM     38  C   UNL     1       0.459  16.467   4.933  1.00  0.00     0.074 A 
ATOM     39  C   UNL     1       1.432  15.272   3.005  1.00  0.00     0.049 A 
ATOM     40  N   UNL     1      -0.077  17.506   4.346  1.00  0.00    -0.248 NA
ATOM     41  C   UNL     1       0.313  16.454   6.396  1.00  0.00     0.031 C 
ATOM     42  C   UNL     1       2.171  14.221   2.310  1.00  0.00     0.029 A 
ATOM     43  N   UNL     1       1.070  16.146   2.012  1.00  0.00    -0.354 N 
ATOM     44  C   UNL     1      -0.630  18.270   5.366  1.00  0.00     0.074 A 
ATOM     45  C   UNL     1      -0.389  17.558   6.604  1.00  0.00     0.031 C 
ATOM     46  C   UNL     1       2.201  14.506   0.998  1.00  0.00     0.029 A 
ATOM     47  C   UNL     1       1.448  15.736   0.758  1.00  0.00     0.049 A 
ATOM     48  H   UNL     1       0.586  16.986   2.182  1.00  0.00     0.167 HD
ATOM     49  C   UNL     1      -1.276  19.457   5.277  1.00  0.00     0.037 A 
ATOM     50  C   UNL     1       1.190  16.276  -0.448  1.00  0.00     0.037 A 
ATOM     51  C   UNL     1      -1.523  20.152   4.040  1.00  0.00     0.049 A 
ATOM     52  C   UNL     1       0.371  17.534  -0.533  1.00  0.00     0.074 A 
ATOM     53  C   UNL     1      -2.135  21.378   3.845  1.00  0.00     0.029 A 
ATOM     54  N   UNL     1      -1.188  19.669   2.783  1.00  0.00    -0.354 N 
ATOM     55  N   UNL     1      -0.120  18.268   0.436  1.00  0.00    -0.248 NA
ATOM     56  C   UNL     1       0.059  18.032  -1.880  1.00  0.00     0.031 C 
ATOM     57  C   UNL     1      -2.226  21.607   2.467  1.00  0.00     0.029 A 
ATOM     58  C   UNL     1      -1.624  20.549   1.805  1.00  0.00     0.049 A 
ATOM     59  H   UNL     1      -0.712  18.825   2.611  1.00  0.00     0.167 HD
ATOM     60  C   UNL     1      -0.785  19.320  -0.180  1.00  0.00     0.074 A 
ATOM     61  C   UNL     1      -0.621  19.137  -1.608  1.00  0.00     0.031 C 
ATOM     62  C   UNL     1      -1.469  20.346   0.386  1.00  0.00     0.037 A 
BRANCH  49  63
ATOM     63  C   UNL     1      -1.792  20.055   6.554  1.00  0.00     0.057 A 
ATOM     64  C   UNL     1      -0.934  20.577   7.531  1.00  0.00     0.134 A 
ATOM     65  C   UNL     1      -3.168  20.109   6.808  1.00  0.00     0.134 A 
ATOM     66  F   UNL     1       0.395  20.544   7.356  1.00  0.00    -0.206 F 
ATOM     67  C   UNL     1      -1.425  21.099   8.730  1.00  0.00     0.040 A 
ATOM     68  C   UNL     1      -3.672  20.654   7.990  1.00  0.00     0.040 A 
ATOM     69  F   UNL     1      -4.047  19.633   5.913  1.00  0.00    -0.206 F 
ATOM     70  C   UNL     1      -2.799  21.142   8.960  1.00  0.00     0.006 A 
ENDBRANCH  49  63
BRANCH  50  71
ATOM     71  C   UNL     1       1.702  15.616  -1.673  1.00  0.00     0.057 A 
ATOM     72  C   UNL     1       2.729  16.194  -2.427  1.00  0.00     0.134 A 
ATOM     73  C   UNL     1       1.191  14.388  -2.112  1.00  0.00     0.134 A 
ATOM     74  F   UNL     1       3.242  17.380  -2.069  1.00  0.00    -0.206 F 
ATOM     75  C   UNL     1       3.229  15.577  -3.574  1.00  0.00     0.040 A 
ATOM     76  C   UNL     1       1.697  13.748  -3.244  1.00  0.00     0.040 A 
ATOM     77  F   UNL     1       0.206  13.783  -1.432  1.00  0.00    -0.206 F 
ATOM     78  C   UNL     1       2.718  14.345  -3.980  1.00  0.00     0.006 A 
ENDBRANCH  50  71
BRANCH  62  79
ATOM     79  C   UNL     1      -2.091  21.351  -0.540  1.00  0.00     0.057 A 
ATOM     80  C   UNL     1      -3.232  21.048  -1.294  1.00  0.00     0.134 A 
ATOM     81  C   UNL     1      -1.574  22.648  -0.643  1.00  0.00     0.134 A 
ATOM     82  F   UNL     1      -3.767  19.818  -1.253  1.00  0.00    -0.206 F 
ATOM     83  C   UNL     1      -3.826  21.995  -2.130  1.00  0.00     0.040 A 
ATOM     84  C   UNL     1      -2.175  23.612  -1.455  1.00  0.00     0.040 A 
ATOM     85  F   UNL     1      -0.488  23.007   0.058  1.00  0.00    -0.206 F 
ATOM     86  C   UNL     1      -3.302  23.284  -2.205  1.00  0.00     0.006 A 
ENDBRANCH  62  79
ENDBRANCH  36  37
ENDBRANCH  29  31
ENDBRANCH  28  29
ENDBRANCH  27  28
ENDBRANCH  26  27
ENDBRANCH  25  26
ENDBRANCH  24  25
ENDBRANCH   1  24
TORSDOF 20
