REMARK SMILES CC[C@](C)(NC(=O)NCc1ccco1)C(=O)OCCOCCOC(=O)c1ccc(-c2c3nc(c(-c4c(F)cccc4F)c4ccc([nH]4)c(-c4c(F)cccc4F)c4nc(c(-c5c(F)cccc5F)c5ccc2[nH]5)C=C4)C=C3)cc1
REMARK SMILES IDX 19 1 18 2 17 3 15 4 16 5 3 6 4 7 2 8 1 9 5 10 6 11 7 13 8 14
REMARK SMILES IDX 9 16 10 17 11 18 14 19 12 20 13 21 20 22 21 23 22 24 23 25
REMARK SMILES IDX 24 26 25 27 26 28 27 29 79 30 28 31 78 32 29 33 30 34 31 35
REMARK SMILES IDX 72 36 32 37 77 38 71 39 73 40 33 41 76 42 70 43 69 44 34 46
REMARK SMILES IDX 60 47 43 48 59 49 44 50 47 51 58 52 74 53 45 54 46 55 57 57
REMARK SMILES IDX 75 58 48 59 35 60 36 61 41 62 37 63 38 64 40 65 42 66 39 67
REMARK SMILES IDX 61 68 62 69 67 70 63 71 64 72 66 73 68 74 65 75 49 76 50 77
REMARK SMILES IDX 55 78 51 79 52 80 54 81 56 82 53 83
REMARK H PARENT 5 12 8 15 73 45 47 56
REMARK Flexibility Score: inf
ROOT
ATOM      1  C   UNL     1       5.404   2.045   1.363  1.00  0.00     0.202 C 
ENDROOT
BRANCH   1   2
ATOM      2  C   UNL     1       4.699   1.325   0.207  1.00  0.00     0.261 C 
BRANCH   2   3
ATOM      3  O   UNL     1       3.359   1.843   0.129  1.00  0.00    -0.462 OA
BRANCH   3   4
ATOM      4  C   UNL     1       2.290   1.028   0.049  1.00  0.00     0.331 C 
ATOM      5  O   UNL     1       2.389  -0.182  -0.118  1.00  0.00    -0.249 OA
BRANCH   4   6
ATOM      6  C   UNL     1       0.911   1.824   0.083  1.00  0.00     0.136 C 
ATOM      7  C   UNL     1      -0.068   0.768   0.670  1.00  0.00     0.047 C 
BRANCH   6   8
ATOM      8  C   UNL     1       0.384   2.194  -1.339  1.00  0.00     0.037 C 
ATOM      9  C   UNL     1       1.099   1.536  -2.512  1.00  0.00     0.007 C 
ENDBRANCH   6   8
BRANCH   6  10
ATOM     10  N   UNL     1       0.761   3.035   1.006  1.00  0.00    -0.322 N 
ATOM     11  C   UNL     1       0.973   4.369   1.006  1.00  0.00     0.316 C 
ATOM     12  H   UNL     1       0.394   2.752   1.874  1.00  0.00     0.166 HD
ATOM     13  O   UNL     1       0.399   5.036   1.869  1.00  0.00    -0.249 OA
ATOM     14  N   UNL     1       1.788   5.000   0.136  1.00  0.00    -0.331 N 
ATOM     15  H   UNL     1       1.603   5.936  -0.110  1.00  0.00     0.165 HD
BRANCH  14  16
ATOM     16  C   UNL     1       2.905   4.340  -0.429  1.00  0.00     0.193 C 
BRANCH  16  17
ATOM     17  C   UNL     1       3.720   4.944  -1.477  1.00  0.00     0.122 A 
ATOM     18  C   UNL     1       4.115   6.195  -1.870  1.00  0.00     0.047 A 
ATOM     19  O   UNL     1       4.350   3.999  -2.243  1.00  0.00    -0.467 OA
ATOM     20  C   UNL     1       5.053   5.994  -2.923  1.00  0.00     0.042 A 
ATOM     21  C   UNL     1       5.153   4.641  -3.112  1.00  0.00     0.195 A 
ENDBRANCH  16  17
ENDBRANCH  14  16
ENDBRANCH   6  10
ENDBRANCH   4   6
ENDBRANCH   3   4
ENDBRANCH   2   3
ENDBRANCH   1   2
BRANCH   1  22
ATOM     22  O   UNL     1       4.926   1.652   2.652  1.00  0.00    -0.374 OA
BRANCH  22  23
ATOM     23  C   UNL     1       3.656   2.166   3.055  1.00  0.00     0.202 C 
BRANCH  23  24
ATOM     24  C   UNL     1       3.706   3.465   3.857  1.00  0.00     0.261 C 
BRANCH  24  25
ATOM     25  O   UNL     1       3.934   4.617   3.020  1.00  0.00    -0.460 OA
BRANCH  25  26
ATOM     26  C   UNL     1       5.210   5.067   2.986  1.00  0.00     0.338 C 
ATOM     27  O   UNL     1       6.177   4.567   3.530  1.00  0.00    -0.246 OA
BRANCH  26  28
ATOM     28  C   UNL     1       5.319   6.255   2.108  1.00  0.00     0.060 A 
ATOM     29  C   UNL     1       6.443   6.355   1.279  1.00  0.00     0.016 A 
ATOM     30  C   UNL     1       4.409   7.312   2.179  1.00  0.00     0.016 A 
ATOM     31  C   UNL     1       6.699   7.535   0.573  1.00  0.00     0.010 A 
ATOM     32  C   UNL     1       4.665   8.494   1.469  1.00  0.00     0.010 A 
ATOM     33  C   UNL     1       5.835   8.632   0.695  1.00  0.00    -0.014 A 
BRANCH  33  34
ATOM     34  C   UNL     1       6.221   9.971   0.158  1.00  0.00     0.031 A 
ATOM     35  C   UNL     1       6.710  11.018   1.109  1.00  0.00     0.074 A 
ATOM     36  C   UNL     1       6.139  10.276  -1.149  1.00  0.00     0.049 A 
ATOM     37  N   UNL     1       7.010  12.268   0.872  1.00  0.00    -0.248 NA
ATOM     38  C   UNL     1       6.883  10.603   2.508  1.00  0.00     0.031 C 
ATOM     39  C   UNL     1       5.748   9.336  -2.178  1.00  0.00     0.029 A 
ATOM     40  N   UNL     1       6.357  11.440  -1.844  1.00  0.00    -0.354 N 
ATOM     41  C   UNL     1       7.395  12.796   2.094  1.00  0.00     0.074 A 
ATOM     42  C   UNL     1       7.255  11.740   3.075  1.00  0.00     0.031 C 
ATOM     43  C   UNL     1       5.702   9.944  -3.370  1.00  0.00     0.029 A 
ATOM     44  C   UNL     1       6.056  11.345  -3.184  1.00  0.00     0.049 A 
ATOM     45  H   UNL     1       6.696  12.264  -1.424  1.00  0.00     0.167 HD
ATOM     46  C   UNL     1       7.835  14.046   2.367  1.00  0.00     0.037 A 
ATOM     47  C   UNL     1       6.049  12.277  -4.156  1.00  0.00     0.037 A 
ATOM     48  C   UNL     1       7.966  15.093   1.388  1.00  0.00     0.049 A 
ATOM     49  C   UNL     1       6.461  13.679  -3.815  1.00  0.00     0.074 A 
ATOM     50  C   UNL     1       8.420  16.387   1.571  1.00  0.00     0.029 A 
ATOM     51  N   UNL     1       7.632  14.972   0.046  1.00  0.00    -0.354 N 
ATOM     52  N   UNL     1       6.844  14.161  -2.658  1.00  0.00    -0.248 NA
ATOM     53  C   UNL     1       6.453  14.662  -4.906  1.00  0.00     0.031 C 
ATOM     54  C   UNL     1       8.303  17.067   0.355  1.00  0.00     0.029 A 
ATOM     55  C   UNL     1       7.842  16.179  -0.604  1.00  0.00     0.049 A 
ATOM     56  H   UNL     1       7.296  14.152  -0.381  1.00  0.00     0.167 HD
ATOM     57  C   UNL     1       7.158  15.493  -2.887  1.00  0.00     0.074 A 
ATOM     58  C   UNL     1       6.921  15.742  -4.295  1.00  0.00     0.031 C 
ATOM     59  C   UNL     1       7.612  16.418  -2.008  1.00  0.00     0.037 A 
BRANCH  46  60
ATOM     60  C   UNL     1       8.160  14.350   3.799  1.00  0.00     0.057 A 
ATOM     61  C   UNL     1       9.261  13.778   4.450  1.00  0.00     0.134 A 
ATOM     62  C   UNL     1       7.351  15.221   4.538  1.00  0.00     0.134 A 
ATOM     63  F   UNL     1      10.064  12.919   3.804  1.00  0.00    -0.206 F 
ATOM     64  C   UNL     1       9.524  14.034   5.797  1.00  0.00     0.040 A 
ATOM     65  C   UNL     1       7.623  15.511   5.875  1.00  0.00     0.040 A 
ATOM     66  F   UNL     1       6.282  15.803   3.974  1.00  0.00    -0.206 F 
ATOM     67  C   UNL     1       8.707  14.908   6.511  1.00  0.00     0.006 A 
ENDBRANCH  46  60
BRANCH  47  68
ATOM     68  C   UNL     1       5.639  11.913  -5.538  1.00  0.00     0.057 A 
ATOM     69  C   UNL     1       6.565  11.880  -6.586  1.00  0.00     0.134 A 
ATOM     70  C   UNL     1       4.311  11.586  -5.842  1.00  0.00     0.134 A 
ATOM     71  F   UNL     1       7.848  12.199  -6.363  1.00  0.00    -0.206 F 
ATOM     72  C   UNL     1       6.185  11.550  -7.889  1.00  0.00     0.040 A 
ATOM     73  C   UNL     1       3.922  11.230  -7.135  1.00  0.00     0.040 A 
ATOM     74  F   UNL     1       3.375  11.591  -4.882  1.00  0.00    -0.206 F 
ATOM     75  C   UNL     1       4.860  11.218  -8.165  1.00  0.00     0.006 A 
ENDBRANCH  47  68
BRANCH  59  76
ATOM     76  C   UNL     1       7.938  17.780  -2.546  1.00  0.00     0.057 A 
ATOM     77  C   UNL     1       6.945  18.683  -2.945  1.00  0.00     0.134 A 
ATOM     78  C   UNL     1       9.269  18.213  -2.611  1.00  0.00     0.134 A 
ATOM     79  F   UNL     1       5.652  18.325  -2.923  1.00  0.00    -0.206 F 
ATOM     80  C   UNL     1       7.265  19.962  -3.403  1.00  0.00     0.040 A 
ATOM     81  C   UNL     1       9.600  19.498  -3.038  1.00  0.00     0.040 A 
ATOM     82  F   UNL     1      10.269  17.399  -2.239  1.00  0.00    -0.206 F 
ATOM     83  C   UNL     1       8.596  20.376  -3.440  1.00  0.00     0.006 A 
ENDBRANCH  59  76
ENDBRANCH  33  34
ENDBRANCH  26  28
ENDBRANCH  25  26
ENDBRANCH  24  25
ENDBRANCH  23  24
ENDBRANCH  22  23
ENDBRANCH   1  22
TORSDOF 18
