REMARK SMILES CCCCCCNC(=O)Oc1cccc(-c2ccc([C@@H](C)C(=O)OCCOCCOC(=O)c3ccc(-c4c5nc(c(-c6c(F)cccc6F)c6ccc([nH]6)c(-c6c(F)cccc6F)c6nc(c(-c7c(F)cccc7F)c7ccc4[nH]7)C=C6)C=C5)cc3)cc2C)c1
REMARK SMILES IDX 22 1 23 2 20 3 21 4 19 5 16 6 17 7 88 8 18 9 87 10 89 11
REMARK SMILES IDX 15 12 11 13 12 14 90 15 13 16 14 17 10 18 8 19 7 20 9 22
REMARK SMILES IDX 6 23 5 24 4 25 3 26 2 27 1 28 24 29 25 30 26 31 27 32 28 33
REMARK SMILES IDX 29 34 30 35 31 36 32 37 33 38 34 39 86 40 35 41 85 42 36 43
REMARK SMILES IDX 37 44 38 45 79 46 39 47 84 48 78 49 80 50 40 51 83 52 77 53
REMARK SMILES IDX 76 54 41 56 67 57 50 58 66 59 51 60 54 61 65 62 81 63 52 64
REMARK SMILES IDX 53 65 64 67 82 68 55 69 42 70 43 71 48 72 44 73 45 74 47 75
REMARK SMILES IDX 49 76 46 77 68 78 69 79 74 80 70 81 71 82 73 83 75 84 72 85
REMARK SMILES IDX 56 86 57 87 62 88 58 89 59 90 61 91 63 92 60 93
REMARK H PARENT 7 21 80 55 54 66
REMARK Flexibility Score: inf
ROOT
ATOM      1  C   UNL     1      -4.020   9.501 -11.665  1.00  0.00     0.313 C 
ATOM      2  O   UNL     1      -3.776   9.336 -12.858  1.00  0.00    -0.252 OA
ENDROOT
BRANCH   1   3
ATOM      3  C   UNL     1      -5.161   8.770 -10.976  1.00  0.00     0.126 C 
ATOM      4  C   UNL     1      -6.475   9.475 -11.300  1.00  0.00     0.025 C 
BRANCH   3   5
ATOM      5  C   UNL     1      -5.029   8.468  -9.486  1.00  0.00    -0.034 A 
ATOM      6  C   UNL     1      -4.992   7.790  -6.708  1.00  0.00    -0.015 A 
ATOM      7  C   UNL     1      -4.984   9.129  -7.145  1.00  0.00     0.009 A 
ATOM      8  C   UNL     1      -5.011   6.777  -7.690  1.00  0.00    -0.043 A 
ATOM      9  C   UNL     1      -5.010   9.464  -8.506  1.00  0.00     0.005 A 
ATOM     10  C   UNL     1      -5.005   7.130  -9.057  1.00  0.00     0.008 A 
ATOM     11  C   UNL     1      -5.036   5.307  -7.356  1.00  0.00     0.045 C 
BRANCH   6  12
ATOM     12  C   UNL     1      -5.049   7.501  -5.260  1.00  0.00    -0.014 A 
ATOM     13  C   UNL     1      -4.170   6.442  -3.258  1.00  0.00     0.133 A 
ATOM     14  C   UNL     1      -5.283   6.842  -2.522  1.00  0.00     0.047 A 
ATOM     15  C   UNL     1      -4.043   6.765  -4.612  1.00  0.00     0.056 A 
ATOM     16  C   UNL     1      -6.274   7.596  -3.143  1.00  0.00     0.004 A 
ATOM     17  C   UNL     1      -6.158   7.919  -4.498  1.00  0.00     0.009 A 
BRANCH  13  18
ATOM     18  O   UNL     1      -3.265   5.583  -2.608  1.00  0.00    -0.410 OA
BRANCH  18  19
ATOM     19  C   UNL     1      -1.911   5.867  -2.665  1.00  0.00     0.412 C 
ATOM     20  N   UNL     1      -1.134   4.937  -2.034  1.00  0.00    -0.321 N 
ATOM     21  H   UNL     1      -0.162   5.090  -2.058  1.00  0.00     0.167 HD
ATOM     22  O   UNL     1      -1.404   6.850  -3.205  1.00  0.00    -0.224 OA
BRANCH  20  23
ATOM     23  C   UNL     1      -1.585   3.748  -1.334  1.00  0.00     0.119 C 
BRANCH  23  24
ATOM     24  C   UNL     1      -0.986   2.469  -1.922  1.00  0.00     0.021 C 
BRANCH  24  25
ATOM     25  C   UNL     1       0.542   2.366  -1.831  1.00  0.00     0.002 C 
BRANCH  25  26
ATOM     26  C   UNL     1       1.127   2.407  -0.415  1.00  0.00    -0.000 C 
BRANCH  26  27
ATOM     27  C   UNL     1       0.653   1.298   0.527  1.00  0.00    -0.003 C 
ATOM     28  C   UNL     1       1.045  -0.097   0.063  1.00  0.00     0.004 C 
ENDBRANCH  26  27
ENDBRANCH  25  26
ENDBRANCH  24  25
ENDBRANCH  23  24
ENDBRANCH  20  23
ENDBRANCH  18  19
ENDBRANCH  13  18
ENDBRANCH   6  12
ENDBRANCH   3   5
ENDBRANCH   1   3
BRANCH   1  29
ATOM     29  O   UNL     1      -3.344  10.358 -10.858  1.00  0.00    -0.463 OA
BRANCH  29  30
ATOM     30  C   UNL     1      -2.171  10.967 -11.428  1.00  0.00     0.261 C 
BRANCH  30  31
ATOM     31  C   UNL     1      -0.910  10.556 -10.664  1.00  0.00     0.202 C 
BRANCH  31  32
ATOM     32  O   UNL     1      -0.525   9.186 -10.773  1.00  0.00    -0.374 OA
BRANCH  32  33
ATOM     33  C   UNL     1      -1.270   8.230 -10.020  1.00  0.00     0.202 C 
BRANCH  33  34
ATOM     34  C   UNL     1      -0.968   8.147  -8.519  1.00  0.00     0.261 C 
BRANCH  34  35
ATOM     35  O   UNL     1      -1.326   9.350  -7.818  1.00  0.00    -0.460 OA
BRANCH  35  36
ATOM     36  C   UNL     1      -0.275  10.073  -7.362  1.00  0.00     0.338 C 
ATOM     37  O   UNL     1       0.908   9.790  -7.440  1.00  0.00    -0.246 OA
BRANCH  36  38
ATOM     38  C   UNL     1      -0.734  11.398  -6.900  1.00  0.00     0.060 A 
ATOM     39  C   UNL     1      -0.042  12.516  -7.382  1.00  0.00     0.016 A 
ATOM     40  C   UNL     1      -1.753  11.546  -5.956  1.00  0.00     0.016 A 
ATOM     41  C   UNL     1      -0.318  13.781  -6.872  1.00  0.00     0.010 A 
ATOM     42  C   UNL     1      -2.029  12.820  -5.443  1.00  0.00     0.010 A 
ATOM     43  C   UNL     1      -1.281  13.935  -5.866  1.00  0.00    -0.014 A 
BRANCH  43  44
ATOM     44  C   UNL     1      -1.371  15.233  -5.153  1.00  0.00     0.031 A 
ATOM     45  C   UNL     1      -0.695  15.380  -3.817  1.00  0.00     0.074 A 
ATOM     46  C   UNL     1      -1.983  16.290  -5.715  1.00  0.00     0.049 A 
ATOM     47  N   UNL     1      -0.609  16.430  -3.039  1.00  0.00    -0.248 NA
ATOM     48  C   UNL     1      -0.022  14.183  -3.288  1.00  0.00     0.031 C 
ATOM     49  C   UNL     1      -2.636  16.290  -7.022  1.00  0.00     0.029 A 
ATOM     50  N   UNL     1      -2.145  17.573  -5.256  1.00  0.00    -0.354 N 
ATOM     51  C   UNL     1       0.125  16.020  -1.933  1.00  0.00     0.074 A 
ATOM     52  C   UNL     1       0.427  14.617  -2.121  1.00  0.00     0.031 C 
ATOM     53  C   UNL     1      -3.123  17.519  -7.264  1.00  0.00     0.029 A 
ATOM     54  C   UNL     1      -2.839  18.383  -6.119  1.00  0.00     0.049 A 
ATOM     55  H   UNL     1      -1.796  17.883  -4.389  1.00  0.00     0.167 HD
ATOM     56  C   UNL     1       0.525  16.748  -0.863  1.00  0.00     0.037 A 
ATOM     57  C   UNL     1      -3.209  19.672  -5.995  1.00  0.00     0.037 A 
ATOM     58  C   UNL     1       0.225  18.143  -0.672  1.00  0.00     0.049 A 
ATOM     59  C   UNL     1      -2.822  20.440  -4.760  1.00  0.00     0.074 A 
ATOM     60  C   UNL     1       0.598  18.971   0.372  1.00  0.00     0.029 A 
ATOM     61  N   UNL     1      -0.532  18.912  -1.543  1.00  0.00    -0.354 N 
ATOM     62  N   UNL     1      -2.108  20.051  -3.733  1.00  0.00    -0.248 NA
ATOM     63  C   UNL     1      -3.293  21.831  -4.671  1.00  0.00     0.031 C 
ATOM     64  C   UNL     1       0.026  20.230   0.157  1.00  0.00     0.029 A 
ATOM     65  C   UNL     1      -0.661  20.199  -1.047  1.00  0.00     0.049 A 
ATOM     66  H   UNL     1      -0.920  18.591  -2.389  1.00  0.00     0.167 HD
ATOM     67  C   UNL     1      -2.018  21.152  -2.890  1.00  0.00     0.074 A 
ATOM     68  C   UNL     1      -2.745  22.229  -3.531  1.00  0.00     0.031 C 
ATOM     69  C   UNL     1      -1.386  21.263  -1.695  1.00  0.00     0.037 A 
BRANCH  56  70
ATOM     70  C   UNL     1       1.312  16.032   0.196  1.00  0.00     0.057 A 
ATOM     71  C   UNL     1       2.633  15.615  -0.017  1.00  0.00     0.134 A 
ATOM     72  C   UNL     1       0.743  15.761   1.447  1.00  0.00     0.134 A 
ATOM     73  F   UNL     1       3.232  15.832  -1.197  1.00  0.00    -0.206 F 
ATOM     74  C   UNL     1       3.348  14.926   0.965  1.00  0.00     0.040 A 
ATOM     75  C   UNL     1       1.457  15.097   2.446  1.00  0.00     0.040 A 
ATOM     76  F   UNL     1      -0.515  16.138   1.719  1.00  0.00    -0.206 F 
ATOM     77  C   UNL     1       2.761  14.670   2.202  1.00  0.00     0.006 A 
ENDBRANCH  56  70
BRANCH  57  78
ATOM     78  C   UNL     1      -3.987  20.324  -7.078  1.00  0.00     0.057 A 
ATOM     79  C   UNL     1      -3.414  21.312  -7.886  1.00  0.00     0.134 A 
ATOM     80  C   UNL     1      -5.320  19.977  -7.328  1.00  0.00     0.134 A 
ATOM     81  F   UNL     1      -2.148  21.704  -7.679  1.00  0.00    -0.206 F 
ATOM     82  C   UNL     1      -4.141  21.940  -8.899  1.00  0.00     0.040 A 
ATOM     83  C   UNL     1      -6.052  20.581  -8.352  1.00  0.00     0.040 A 
ATOM     84  F   UNL     1      -5.926  19.038  -6.588  1.00  0.00    -0.206 F 
ATOM     85  C   UNL     1      -5.463  21.569  -9.138  1.00  0.00     0.006 A 
ENDBRANCH  57  78
BRANCH  69  86
ATOM     86  C   UNL     1      -1.424  22.601  -1.017  1.00  0.00     0.057 A 
ATOM     87  C   UNL     1      -2.587  23.091  -0.409  1.00  0.00     0.134 A 
ATOM     88  C   UNL     1      -0.270  23.392  -0.935  1.00  0.00     0.134 A 
ATOM     89  F   UNL     1      -3.729  22.389  -0.462  1.00  0.00    -0.206 F 
ATOM     90  C   UNL     1      -2.606  24.328   0.238  1.00  0.00     0.040 A 
ATOM     91  C   UNL     1      -0.270  24.618  -0.269  1.00  0.00     0.040 A 
ATOM     92  F   UNL     1       0.880  22.977  -1.488  1.00  0.00    -0.206 F 
ATOM     93  C   UNL     1      -1.443  25.092   0.315  1.00  0.00     0.006 A 
ENDBRANCH  69  86
ENDBRANCH  43  44
ENDBRANCH  36  38
ENDBRANCH  35  36
ENDBRANCH  34  35
ENDBRANCH  33  34
ENDBRANCH  32  33
ENDBRANCH  31  32
ENDBRANCH  30  31
ENDBRANCH  29  30
ENDBRANCH   1  29
TORSDOF 23
