REMARK SMILES COc1ccc2c(c1)O[C@@]1(CCC(=O)N([C@@H](C)C(=O)OCCOCCOC(=O)c3ccc(-c4c5nc(c(-c6c(F)cccc6F)c6ccc([nH]6)c(-c6c(F)cccc6F)c6nc(c(-c7c(F)cccc7F)c7ccc4[nH]7)C=C6)C=C5)cc3)CC1)CC2=O
REMARK SMILES IDX 21 1 20 2 18 3 19 4 16 5 17 6 15 7 13 8 14 9 12 10 11 11
REMARK SMILES IDX 10 12 3 13 4 14 8 15 5 16 7 17 6 18 9 19 86 20 85 21 87 22
REMARK SMILES IDX 2 24 1 25 83 26 84 27 22 29 23 30 24 31 25 32 26 33 27 34
REMARK SMILES IDX 28 35 29 36 30 37 82 38 31 39 81 40 32 41 33 42 34 43 75 44
REMARK SMILES IDX 35 45 80 46 74 47 76 48 36 49 79 50 73 51 72 52 37 54 63 55
REMARK SMILES IDX 46 56 62 57 47 58 50 59 61 60 77 61 48 62 49 63 60 65 78 66
REMARK SMILES IDX 51 67 38 68 39 69 44 70 40 71 41 72 43 73 45 74 42 75 64 76
REMARK SMILES IDX 65 77 70 78 66 79 67 80 69 81 71 82 68 83 52 84 53 85 58 86
REMARK SMILES IDX 54 87 55 88 57 89 59 90 56 91
REMARK H PARENT 76 53 50 64
REMARK Flexibility Score: 80.00
ROOT
ATOM      1  C   UNL     1      -3.213   2.483   2.778  1.00  0.00     0.261 C 
ENDROOT
BRANCH   1   2
ATOM      2  O   UNL     1      -3.608   1.098   2.765  1.00  0.00    -0.462 OA
BRANCH   2   3
ATOM      3  C   UNL     1      -4.213   0.726   1.603  1.00  0.00     0.328 C 
ATOM      4  O   UNL     1      -4.368   1.488   0.651  1.00  0.00    -0.250 OA
BRANCH   3   5
ATOM      5  C   UNL     1      -4.827  -0.692   1.636  1.00  0.00     0.192 C 
ATOM      6  C   UNL     1      -5.934  -0.656   2.712  1.00  0.00     0.044 C 
BRANCH   5   7
ATOM      7  N   UNL     1      -4.147  -2.080   1.489  1.00  0.00    -0.329 N 
BRANCH   7   8
ATOM      8  C   UNL     1      -4.969  -3.166   1.689  1.00  0.00     0.223 C 
ATOM      9  O   UNL     1      -4.724  -4.052   2.499  1.00  0.00    -0.275 OA
BRANCH   8  10
ATOM     10  C   UNL     1      -6.074  -3.254   0.666  1.00  0.00     0.104 C 
BRANCH  10  11
ATOM     11  C   UNL     1      -6.052  -2.328  -0.595  1.00  0.00     0.059 C 
BRANCH  11  12
ATOM     12  C   UNL     1      -4.738  -1.690  -1.329  1.00  0.00     0.118 CG0
ATOM     13  C   UNL     1      -0.870   0.899  -2.127  1.00  0.00     0.122 A 
ATOM     14  C   UNL     1      -1.529   2.023  -2.647  1.00  0.00     0.047 A 
ATOM     15  C   UNL     1      -1.641  -0.148  -1.622  1.00  0.00     0.093 A 
ATOM     16  C   UNL     1      -2.923   2.027  -2.828  1.00  0.00     0.019 A 
ATOM     17  C   UNL     1      -3.033  -0.057  -1.691  1.00  0.00     0.134 A 
ATOM     18  C   UNL     1      -3.644   0.911  -2.438  1.00  0.00     0.060 A 
ATOM     19  O   UNL     1      -3.906  -0.645  -0.792  1.00  0.00    -0.486 OA
ATOM     20  C   UNL     1      -5.037   0.548  -2.720  1.00  0.00     0.170 C 
ATOM     21  C   UNL     1      -5.372  -0.980  -2.579  1.00  0.00     0.129 C 
ATOM     22  O   UNL     1      -5.835   1.388  -3.119  1.00  0.00    -0.294 OA
ATOM     23  G   UNL     1      -3.699  -2.782  -1.061  1.00  0.00     0.000 G0
BRANCH  13  24
ATOM     24  O   UNL     1       0.496   0.936  -2.193  1.00  0.00    -0.497 OA
ATOM     25  C   UNL     1       1.271   0.273  -1.199  1.00  0.00     0.278 C 
ENDBRANCH  13  24
ENDBRANCH  11  12
ENDBRANCH  10  11
ENDBRANCH   8  10
ENDBRANCH   7   8
BRANCH   7  26
ATOM     26  C   UNL     1      -3.132  -2.512   0.461  1.00  0.00     0.124 C 
BRANCH  26  27
ATOM     27  C   UNL     1      -3.699  -2.782  -1.061  1.00  0.00     0.070 CG0
ATOM     28  G   UNL     1      -4.738  -1.690  -1.329  1.00  0.00     0.000 G0
ENDBRANCH  26  27
ENDBRANCH   7  26
ENDBRANCH   5   7
ENDBRANCH   3   5
ENDBRANCH   2   3
ENDBRANCH   1   2
BRANCH   1  29
ATOM     29  C   UNL     1      -1.702   2.696   2.683  1.00  0.00     0.202 C 
BRANCH  29  30
ATOM     30  O   UNL     1      -0.999   2.118   1.596  1.00  0.00    -0.374 OA
BRANCH  30  31
ATOM     31  C   UNL     1      -0.986   0.708   1.464  1.00  0.00     0.202 C 
BRANCH  31  32
ATOM     32  C   UNL     1      -0.220  -0.157   2.455  1.00  0.00     0.261 C 
BRANCH  32  33
ATOM     33  O   UNL     1      -0.853  -0.169   3.731  1.00  0.00    -0.460 OA
BRANCH  33  34
ATOM     34  C   UNL     1      -0.192   0.518   4.694  1.00  0.00     0.338 C 
ATOM     35  O   UNL     1       0.884   1.064   4.620  1.00  0.00    -0.246 OA
BRANCH  34  36
ATOM     36  C   UNL     1      -1.142   0.707   5.802  1.00  0.00     0.060 A 
ATOM     37  C   UNL     1      -1.820  -0.380   6.351  1.00  0.00     0.016 A 
ATOM     38  C   UNL     1      -1.362   2.012   6.261  1.00  0.00     0.016 A 
ATOM     39  C   UNL     1      -2.710  -0.160   7.395  1.00  0.00     0.010 A 
ATOM     40  C   UNL     1      -2.260   2.233   7.295  1.00  0.00     0.010 A 
ATOM     41  C   UNL     1      -2.916   1.144   7.881  1.00  0.00    -0.014 A 
BRANCH  41  42
ATOM     42  C   UNL     1      -3.696   1.345   9.114  1.00  0.00     0.031 A 
ATOM     43  C   UNL     1      -5.084   1.892   9.074  1.00  0.00     0.074 A 
ATOM     44  C   UNL     1      -3.098   1.036  10.278  1.00  0.00     0.049 A 
ATOM     45  N   UNL     1      -5.926   2.058  10.059  1.00  0.00    -0.248 NA
ATOM     46  C   UNL     1      -5.590   2.318   7.761  1.00  0.00     0.031 C 
ATOM     47  C   UNL     1      -1.724   0.541  10.409  1.00  0.00     0.029 A 
ATOM     48  N   UNL     1      -3.562   1.085  11.562  1.00  0.00    -0.354 N 
ATOM     49  C   UNL     1      -7.074   2.586   9.487  1.00  0.00     0.074 A 
ATOM     50  C   UNL     1      -6.797   2.768   8.076  1.00  0.00     0.031 C 
ATOM     51  C   UNL     1      -1.470   0.298  11.703  1.00  0.00     0.029 A 
ATOM     52  C   UNL     1      -2.647   0.649  12.488  1.00  0.00     0.049 A 
ATOM     53  H   UNL     1      -4.463   1.401  11.800  1.00  0.00     0.167 HD
ATOM     54  C   UNL     1      -8.254   2.871  10.089  1.00  0.00     0.037 A 
ATOM     55  C   UNL     1      -2.756   0.545  13.823  1.00  0.00     0.037 A 
ATOM     56  C   UNL     1      -8.489   2.720  11.504  1.00  0.00     0.049 A 
ATOM     57  C   UNL     1      -4.057   0.924  14.468  1.00  0.00     0.074 A 
ATOM     58  C   UNL     1      -9.650   2.958  12.219  1.00  0.00     0.029 A 
ATOM     59  N   UNL     1      -7.532   2.312  12.425  1.00  0.00    -0.354 N 
ATOM     60  N   UNL     1      -5.169   1.340  13.910  1.00  0.00    -0.248 NA
ATOM     61  C   UNL     1      -4.120   0.812  15.929  1.00  0.00     0.031 C 
ATOM     62  C   UNL     1      -9.379   2.751  13.576  1.00  0.00     0.029 A 
ATOM     63  C   UNL     1      -8.067   2.322  13.704  1.00  0.00     0.049 A 
ATOM     64  H   UNL     1      -6.609   2.053  12.201  1.00  0.00     0.167 HD
ATOM     65  C   UNL     1      -6.073   1.513  14.948  1.00  0.00     0.074 A 
ATOM     66  C   UNL     1      -5.383   1.131  16.165  1.00  0.00     0.031 C 
ATOM     67  C   UNL     1      -7.357   1.948  14.903  1.00  0.00     0.037 A 
BRANCH  54  68
ATOM     68  C   UNL     1      -9.363   3.388   9.218  1.00  0.00     0.057 A 
ATOM     69  C   UNL     1      -9.828   4.703   9.349  1.00  0.00     0.134 A 
ATOM     70  C   UNL     1      -9.982   2.580   8.254  1.00  0.00     0.134 A 
ATOM     71  F   UNL     1      -9.288   5.531  10.256  1.00  0.00    -0.206 F 
ATOM     72  C   UNL     1     -10.862   5.195   8.549  1.00  0.00     0.040 A 
ATOM     73  C   UNL     1     -10.996   3.070   7.429  1.00  0.00     0.040 A 
ATOM     74  F   UNL     1      -9.579   1.313   8.068  1.00  0.00    -0.206 F 
ATOM     75  C   UNL     1     -11.442   4.381   7.579  1.00  0.00     0.006 A 
ENDBRANCH  54  68
BRANCH  55  76
ATOM     76  C   UNL     1      -1.616   0.043  14.628  1.00  0.00     0.057 A 
ATOM     77  C   UNL     1      -0.436   0.783  14.766  1.00  0.00     0.134 A 
ATOM     78  C   UNL     1      -1.690  -1.184  15.297  1.00  0.00     0.134 A 
ATOM     79  F   UNL     1      -0.297   1.960  14.137  1.00  0.00    -0.206 F 
ATOM     80  C   UNL     1       0.627   0.325  15.544  1.00  0.00     0.040 A 
ATOM     81  C   UNL     1      -0.646  -1.640  16.104  1.00  0.00     0.040 A 
ATOM     82  F   UNL     1      -2.798  -1.935  15.211  1.00  0.00    -0.206 F 
ATOM     83  C   UNL     1       0.518  -0.884  16.226  1.00  0.00     0.006 A 
ENDBRANCH  55  76
BRANCH  67  84
ATOM     84  C   UNL     1      -8.095   2.003  16.211  1.00  0.00     0.057 A 
ATOM     85  C   UNL     1      -9.143   1.112  16.475  1.00  0.00     0.134 A 
ATOM     86  C   UNL     1      -7.768   2.929  17.211  1.00  0.00     0.134 A 
ATOM     87  F   UNL     1      -9.513   0.204  15.559  1.00  0.00    -0.206 F 
ATOM     88  C   UNL     1      -9.835   1.137  17.686  1.00  0.00     0.040 A 
ATOM     89  C   UNL     1      -8.430   2.941  18.439  1.00  0.00     0.040 A 
ATOM     90  F   UNL     1      -6.763   3.800  17.029  1.00  0.00    -0.206 F 
ATOM     91  C   UNL     1      -9.471   2.045  18.677  1.00  0.00     0.006 A 
ENDBRANCH  67  84
ENDBRANCH  41  42
ENDBRANCH  34  36
ENDBRANCH  33  34
ENDBRANCH  32  33
ENDBRANCH  31  32
ENDBRANCH  30  31
ENDBRANCH  29  30
ENDBRANCH   1  29
TORSDOF 16
