REMARK SMILES CCn1ncc(NC(=O)[C@@H]2CCCC[C@@H]2C(=O)OCCOCCOC(=O)c2ccc(-c3c4nc(c(-c5c(F)cccc5F)c5ccc([nH]5)c(-c5c(F)cccc5F)c5nc(c(-c6c(F)cccc6F)c6ccc3[nH]6)C=C5)C=C4)cc2)c1C(=O)Nc1cnn(C)c1C
REMARK SMILES IDX 20 1 19 2 18 3 16 4 17 5 15 6 10 7 11 8 12 9 14 10 13 11
REMARK SMILES IDX 8 12 7 13 9 15 6 16 3 17 4 18 81 19 5 20 2 21 1 22 82 23
REMARK SMILES IDX 83 24 84 25 85 27 86 28 90 29 87 30 88 31 91 32 89 33 21 34
REMARK SMILES IDX 22 35 23 36 24 37 25 38 26 39 27 40 28 41 80 42 29 43 79 44
REMARK SMILES IDX 30 45 31 46 32 47 73 48 33 49 78 50 72 51 74 52 34 53 77 54
REMARK SMILES IDX 71 55 70 56 35 58 61 59 44 60 60 61 45 62 48 63 59 64 75 65
REMARK SMILES IDX 46 66 47 67 58 69 76 70 49 71 36 72 37 73 42 74 38 75 39 76
REMARK SMILES IDX 41 77 43 78 40 79 62 80 63 81 68 82 64 83 65 84 67 85 69 86
REMARK SMILES IDX 66 87 50 88 51 89 56 90 52 91 53 92 55 93 57 94 54 95
REMARK H PARENT 7 14 84 26 74 57 48 68
REMARK Flexibility Score: inf
ROOT
ATOM      1  C   UNL     1       6.349  -5.293  -5.029  1.00  0.00     0.202 C 
ENDROOT
BRANCH   1   2
ATOM      2  C   UNL     1       5.818  -5.156  -3.597  1.00  0.00     0.261 C 
BRANCH   2   3
ATOM      3  O   UNL     1       4.399  -5.257  -3.451  1.00  0.00    -0.463 OA
BRANCH   3   4
ATOM      4  C   UNL     1       3.800  -4.040  -3.438  1.00  0.00     0.309 C 
ATOM      5  O   UNL     1       4.407  -2.996  -3.644  1.00  0.00    -0.252 OA
BRANCH   4   6
ATOM      6  C   UNL     1       2.304  -4.120  -3.152  1.00  0.00     0.111 C 
ATOM      7  C   UNL     1       1.719  -2.683  -3.042  1.00  0.00     0.093 C 
ATOM      8  C   UNL     1       2.490  -1.931  -1.941  1.00  0.00     0.014 C 
ATOM      9  C   UNL     1       2.438  -2.667  -0.602  1.00  0.00     0.001 C 
ATOM     10  C   UNL     1       2.023  -4.854  -1.836  1.00  0.00     0.016 C 
ATOM     11  C   UNL     1       2.702  -4.167  -0.655  1.00  0.00     0.001 C 
BRANCH   7  12
ATOM     12  C   UNL     1       1.601  -2.049  -4.439  1.00  0.00     0.228 C 
ATOM     13  N   UNL     1       1.310  -0.741  -4.670  1.00  0.00    -0.322 N 
ATOM     14  H   UNL     1       1.316  -0.499  -5.625  1.00  0.00     0.170 HD
ATOM     15  O   UNL     1       1.754  -2.751  -5.449  1.00  0.00    -0.274 OA
BRANCH  13  16
ATOM     16  C   UNL     1       1.007   0.317  -3.836  1.00  0.00     0.092 A 
ATOM     17  N   UNL     1       0.765   1.595  -2.113  1.00  0.00    -0.258 N 
ATOM     18  N   UNL     1       1.159   2.447  -3.090  1.00  0.00    -0.178 NA
ATOM     19  C   UNL     1       0.305   0.391  -2.626  1.00  0.00     0.150 A 
ATOM     20  C   UNL     1       1.355   1.649  -4.132  1.00  0.00     0.162 A 
BRANCH  17  21
ATOM     21  C   UNL     1       1.071   2.028  -0.763  1.00  0.00     0.142 C 
ATOM     22  C   UNL     1       2.120   1.190  -0.049  1.00  0.00     0.029 C 
ENDBRANCH  17  21
BRANCH  19  23
ATOM     23  C   UNL     1      -0.624  -0.617  -2.124  1.00  0.00     0.276 C 
ATOM     24  O   UNL     1      -1.264  -1.336  -2.896  1.00  0.00    -0.267 OA
ATOM     25  N   UNL     1      -0.597  -1.009  -0.808  1.00  0.00    -0.318 N 
ATOM     26  H   UNL     1      -0.283  -1.926  -0.633  1.00  0.00     0.170 HD
BRANCH  25  27
ATOM     27  C   UNL     1      -0.958  -0.271   0.292  1.00  0.00     0.082 A 
ATOM     28  C   UNL     1      -1.800   0.850   0.393  1.00  0.00     0.161 A 
ATOM     29  C   UNL     1      -0.544  -0.537   1.583  1.00  0.00     0.059 A 
ATOM     30  N   UNL     1      -1.786   1.367   1.622  1.00  0.00    -0.179 NA
ATOM     31  N   UNL     1      -0.950   0.560   2.304  1.00  0.00    -0.271 N 
ATOM     32  C   UNL     1       0.307  -1.613   2.157  1.00  0.00     0.068 C 
ATOM     33  C   UNL     1      -0.453   1.011   3.584  1.00  0.00     0.174 C 
ENDBRANCH  25  27
ENDBRANCH  19  23
ENDBRANCH  13  16
ENDBRANCH   7  12
ENDBRANCH   4   6
ENDBRANCH   3   4
ENDBRANCH   2   3
ENDBRANCH   1   2
BRANCH   1  34
ATOM     34  O   UNL     1       5.898  -4.493  -6.116  1.00  0.00    -0.374 OA
BRANCH  34  35
ATOM     35  C   UNL     1       4.535  -4.292  -6.471  1.00  0.00     0.202 C 
BRANCH  35  36
ATOM     36  C   UNL     1       3.602  -5.455  -6.794  1.00  0.00     0.261 C 
BRANCH  36  37
ATOM     37  O   UNL     1       3.726  -6.522  -5.880  1.00  0.00    -0.460 OA
BRANCH  37  38
ATOM     38  C   UNL     1       4.638  -7.428  -6.294  1.00  0.00     0.338 C 
ATOM     39  O   UNL     1       5.348  -7.365  -7.281  1.00  0.00    -0.246 OA
BRANCH  38  40
ATOM     40  C   UNL     1       4.603  -8.596  -5.407  1.00  0.00     0.060 A 
ATOM     41  C   UNL     1       5.520  -9.585  -5.760  1.00  0.00     0.016 A 
ATOM     42  C   UNL     1       3.398  -8.870  -4.752  1.00  0.00     0.016 A 
ATOM     43  C   UNL     1       5.051 -10.868  -5.831  1.00  0.00     0.010 A 
ATOM     44  C   UNL     1       2.923 -10.151  -4.838  1.00  0.00     0.010 A 
ATOM     45  C   UNL     1       3.715 -11.094  -5.490  1.00  0.00    -0.014 A 
BRANCH  45  46
ATOM     46  C   UNL     1       3.162 -12.376  -5.840  1.00  0.00     0.031 A 
ATOM     47  C   UNL     1       3.528 -13.426  -4.880  1.00  0.00     0.074 A 
ATOM     48  C   UNL     1       2.338 -12.535  -6.889  1.00  0.00     0.049 A 
ATOM     49  N   UNL     1       4.333 -14.418  -5.053  1.00  0.00    -0.248 NA
ATOM     50  C   UNL     1       3.097 -13.220  -3.490  1.00  0.00     0.031 C 
ATOM     51  C   UNL     1       1.687 -11.503  -7.701  1.00  0.00     0.029 A 
ATOM     52  N   UNL     1       1.825 -13.690  -7.383  1.00  0.00    -0.354 N 
ATOM     53  C   UNL     1       4.347 -15.082  -3.832  1.00  0.00     0.074 A 
ATOM     54  C   UNL     1       3.779 -14.179  -2.870  1.00  0.00     0.031 C 
ATOM     55  C   UNL     1       0.702 -12.076  -8.431  1.00  0.00     0.029 A 
ATOM     56  C   UNL     1       0.742 -13.515  -8.226  1.00  0.00     0.049 A 
ATOM     57  H   UNL     1       2.192 -14.576  -7.161  1.00  0.00     0.167 HD
ATOM     58  C   UNL     1       4.546 -16.423  -3.768  1.00  0.00     0.037 A 
ATOM     59  C   UNL     1      -0.103 -14.492  -8.633  1.00  0.00     0.037 A 
ATOM     60  C   UNL     1       5.146 -16.918  -4.983  1.00  0.00     0.049 A 
ATOM     61  C   UNL     1       0.558 -15.799  -8.380  1.00  0.00     0.074 A 
ATOM     62  C   UNL     1       6.337 -16.700  -5.646  1.00  0.00     0.029 A 
ATOM     63  N   UNL     1       4.314 -17.531  -5.887  1.00  0.00    -0.354 N 
ATOM     64  N   UNL     1       1.594 -16.235  -9.041  1.00  0.00    -0.248 NA
ATOM     65  C   UNL     1       0.333 -16.444  -7.094  1.00  0.00     0.031 C 
ATOM     66  C   UNL     1       6.027 -16.818  -7.033  1.00  0.00     0.029 A 
ATOM     67  C   UNL     1       4.669 -17.123  -7.145  1.00  0.00     0.049 A 
ATOM     68  H   UNL     1       3.587 -18.158  -5.669  1.00  0.00     0.167 HD
ATOM     69  C   UNL     1       2.373 -16.893  -8.098  1.00  0.00     0.074 A 
ATOM     70  C   UNL     1       1.494 -17.090  -6.952  1.00  0.00     0.031 C 
ATOM     71  C   UNL     1       3.731 -16.953  -8.232  1.00  0.00     0.037 A 
BRANCH  58  72
ATOM     72  C   UNL     1       3.818 -17.327  -2.798  1.00  0.00     0.057 A 
ATOM     73  C   UNL     1       4.146 -18.693  -2.783  1.00  0.00     0.134 A 
ATOM     74  C   UNL     1       2.634 -16.994  -2.103  1.00  0.00     0.134 A 
ATOM     75  F   UNL     1       5.250 -19.143  -3.399  1.00  0.00    -0.206 F 
ATOM     76  C   UNL     1       3.310 -19.660  -2.215  1.00  0.00     0.040 A 
ATOM     77  C   UNL     1       1.821 -17.946  -1.486  1.00  0.00     0.040 A 
ATOM     78  F   UNL     1       2.134 -15.755  -2.056  1.00  0.00    -0.206 F 
ATOM     79  C   UNL     1       2.135 -19.289  -1.575  1.00  0.00     0.006 A 
ENDBRANCH  58  72
BRANCH  59  80
ATOM     80  C   UNL     1      -1.545 -14.373  -8.934  1.00  0.00     0.057 A 
ATOM     81  C   UNL     1      -2.210 -15.333  -9.706  1.00  0.00     0.134 A 
ATOM     82  C   UNL     1      -2.359 -13.442  -8.265  1.00  0.00     0.134 A 
ATOM     83  F   UNL     1      -1.521 -16.292 -10.341  1.00  0.00    -0.206 F 
ATOM     84  C   UNL     1      -3.607 -15.369  -9.803  1.00  0.00     0.040 A 
ATOM     85  C   UNL     1      -3.753 -13.460  -8.360  1.00  0.00     0.040 A 
ATOM     86  F   UNL     1      -1.833 -12.536  -7.427  1.00  0.00    -0.206 F 
ATOM     87  C   UNL     1      -4.384 -14.434  -9.123  1.00  0.00     0.006 A 
ENDBRANCH  59  80
BRANCH  71  88
ATOM     88  C   UNL     1       4.305 -16.554  -9.562  1.00  0.00     0.057 A 
ATOM     89  C   UNL     1       4.253 -15.247 -10.069  1.00  0.00     0.134 A 
ATOM     90  C   UNL     1       5.047 -17.489 -10.290  1.00  0.00     0.134 A 
ATOM     91  F   UNL     1       3.650 -14.265  -9.386  1.00  0.00    -0.206 F 
ATOM     92  C   UNL     1       4.872 -14.898 -11.272  1.00  0.00     0.040 A 
ATOM     93  C   UNL     1       5.699 -17.146 -11.477  1.00  0.00     0.040 A 
ATOM     94  F   UNL     1       5.189 -18.743  -9.834  1.00  0.00    -0.206 F 
ATOM     95  C   UNL     1       5.603 -15.849 -11.978  1.00  0.00     0.006 A 
ENDBRANCH  71  88
ENDBRANCH  45  46
ENDBRANCH  38  40
ENDBRANCH  37  38
ENDBRANCH  36  37
ENDBRANCH  35  36
ENDBRANCH  34  35
ENDBRANCH   1  34
TORSDOF 19
