REMARK SMILES Cn1ncc(C(=O)OCCOCCOC(=O)c2ccc(-c3c4nc(c(-c5c(F)cccc5F)c5ccc([nH]5)c(-c5c(F)cccc5F)c5nc(c(-c6c(F)cccc6F)c6ccc3[nH]6)C=C5)C=C4)cc2)c1C(=O)Nc1nccc(-c2ccc(OC(F)F)cc2)n1
REMARK SMILES IDX 9 1 8 2 6 3 7 4 5 5 1 6 2 7 3 8 71 9 4 10 72 11 73 12 74 13
REMARK SMILES IDX 75 15 76 16 90 17 77 18 79 19 78 20 80 21 81 22 89 23 82 24
REMARK SMILES IDX 88 25 83 26 84 27 85 28 86 29 87 30 10 31 11 32 12 33 13 34
REMARK SMILES IDX 14 35 15 36 16 37 17 38 18 39 70 40 19 41 69 42 20 43 21 44
REMARK SMILES IDX 22 45 63 46 23 47 68 48 62 49 64 50 24 51 67 52 61 53 60 54
REMARK SMILES IDX 25 56 51 57 34 58 50 59 35 60 38 61 49 62 65 63 36 64 37 65
REMARK SMILES IDX 48 67 66 68 39 69 26 70 27 71 32 72 28 73 29 74 31 75 33 76
REMARK SMILES IDX 30 77 52 78 53 79 58 80 54 81 55 82 57 83 59 84 56 85 40 86
REMARK SMILES IDX 41 87 46 88 42 89 43 90 45 91 47 92 44 93
REMARK H PARENT 74 14 64 55 38 66
REMARK Flexibility Score: inf
ROOT
ATOM      1  C   UNL     1       4.159  -3.154   0.557  1.00  0.00     0.261 C 
ENDROOT
BRANCH   1   2
ATOM      2  O   UNL     1       2.838  -2.598   0.493  1.00  0.00    -0.460 OA
BRANCH   2   3
ATOM      3  C   UNL     1       2.653  -1.481   1.241  1.00  0.00     0.342 C 
ATOM      4  O   UNL     1       3.429  -1.085   2.104  1.00  0.00    -0.246 OA
BRANCH   3   5
ATOM      5  C   UNL     1       1.530  -0.668   0.823  1.00  0.00     0.111 A 
ATOM      6  C   UNL     1      -1.541   0.699   1.480  1.00  0.00     0.174 C 
ATOM      7  N   UNL     1      -0.404   0.281   0.688  1.00  0.00    -0.262 N 
ATOM      8  N   UNL     1       0.452   1.268   0.342  1.00  0.00    -0.180 NA
ATOM      9  C   UNL     1       0.172  -0.978   0.647  1.00  0.00     0.140 A 
ATOM     10  C   UNL     1       1.638   0.711   0.553  1.00  0.00     0.151 A 
BRANCH   9  11
ATOM     11  C   UNL     1      -0.447  -2.290   0.699  1.00  0.00     0.277 C 
ATOM     12  O   UNL     1       0.217  -3.285   1.009  1.00  0.00    -0.267 OA
ATOM     13  N   UNL     1      -1.776  -2.546   0.517  1.00  0.00    -0.289 N 
ATOM     14  H   UNL     1      -2.018  -3.462   0.786  1.00  0.00     0.173 HD
BRANCH  13  15
ATOM     15  C   UNL     1      -2.861  -1.839   0.048  1.00  0.00     0.230 A 
ATOM     16  N   UNL     1      -4.026  -2.288   0.538  1.00  0.00    -0.221 NA
ATOM     17  N   UNL     1      -2.743  -0.767  -0.738  1.00  0.00    -0.213 NA
ATOM     18  C   UNL     1      -5.120  -1.545   0.301  1.00  0.00     0.117 A 
ATOM     19  C   UNL     1      -3.877  -0.069  -0.999  1.00  0.00     0.076 A 
ATOM     20  C   UNL     1      -5.101  -0.406  -0.459  1.00  0.00     0.049 A 
BRANCH  19  21
ATOM     21  C   UNL     1      -3.714   1.127  -1.831  1.00  0.00     0.001 A 
ATOM     22  C   UNL     1      -3.436   1.020  -3.199  1.00  0.00     0.014 A 
ATOM     23  C   UNL     1      -3.820   2.413  -1.278  1.00  0.00     0.014 A 
ATOM     24  C   UNL     1      -3.251   2.165  -3.981  1.00  0.00     0.047 A 
ATOM     25  C   UNL     1      -3.615   3.558  -2.057  1.00  0.00     0.047 A 
ATOM     26  C   UNL     1      -3.319   3.440  -3.413  1.00  0.00     0.126 A 
BRANCH  26  27
ATOM     27  O   UNL     1      -3.080   4.467  -4.280  1.00  0.00    -0.435 OA
BRANCH  27  28
ATOM     28  C   UNL     1      -2.969   5.782  -3.749  1.00  0.00     0.542 C 
ATOM     29  F   UNL     1      -4.150   6.158  -3.199  1.00  0.00    -0.167 F 
ATOM     30  F   UNL     1      -2.019   5.822  -2.785  1.00  0.00    -0.167 F 
ENDBRANCH  27  28
ENDBRANCH  26  27
ENDBRANCH  19  21
ENDBRANCH  13  15
ENDBRANCH   9  11
ENDBRANCH   3   5
ENDBRANCH   2   3
ENDBRANCH   1   2
BRANCH   1  31
ATOM     31  C   UNL     1       4.759  -3.199  -0.847  1.00  0.00     0.202 C 
BRANCH  31  32
ATOM     32  O   UNL     1       4.945  -1.921  -1.459  1.00  0.00    -0.374 OA
BRANCH  32  33
ATOM     33  C   UNL     1       3.805  -1.343  -2.103  1.00  0.00     0.202 C 
BRANCH  33  34
ATOM     34  C   UNL     1       3.501  -1.881  -3.505  1.00  0.00     0.261 C 
BRANCH  34  35
ATOM     35  O   UNL     1       2.955  -3.212  -3.439  1.00  0.00    -0.460 OA
BRANCH  35  36
ATOM     36  C   UNL     1       3.748  -4.185  -3.946  1.00  0.00     0.338 C 
ATOM     37  O   UNL     1       4.795  -4.046  -4.554  1.00  0.00    -0.246 OA
BRANCH  36  38
ATOM     38  C   UNL     1       3.263  -5.506  -3.495  1.00  0.00     0.060 A 
ATOM     39  C   UNL     1       4.206  -6.378  -2.935  1.00  0.00     0.016 A 
ATOM     40  C   UNL     1       1.936  -5.908  -3.659  1.00  0.00     0.016 A 
ATOM     41  C   UNL     1       3.837  -7.674  -2.584  1.00  0.00     0.010 A 
ATOM     42  C   UNL     1       1.570  -7.215  -3.319  1.00  0.00     0.010 A 
ATOM     43  C   UNL     1       2.527  -8.113  -2.813  1.00  0.00    -0.014 A 
BRANCH  43  44
ATOM     44  C   UNL     1       2.211  -9.553  -2.670  1.00  0.00     0.031 A 
ATOM     45  C   UNL     1       2.255 -10.430  -3.890  1.00  0.00     0.074 A 
ATOM     46  C   UNL     1       1.930 -10.083  -1.466  1.00  0.00     0.049 A 
ATOM     47  N   UNL     1       2.014 -11.712  -4.001  1.00  0.00    -0.248 NA
ATOM     48  C   UNL     1       2.622  -9.774  -5.155  1.00  0.00     0.031 C 
ATOM     49  C   UNL     1       1.893  -9.345  -0.205  1.00  0.00     0.029 A 
ATOM     50  N   UNL     1       1.621 -11.372  -1.114  1.00  0.00    -0.354 N 
ATOM     51  C   UNL     1       2.202 -12.015  -5.343  1.00  0.00     0.074 A 
ATOM     52  C   UNL     1       2.549 -10.780  -6.014  1.00  0.00     0.031 C 
ATOM     53  C   UNL     1       1.568 -10.195   0.785  1.00  0.00     0.029 A 
ATOM     54  C   UNL     1       1.353 -11.527   0.223  1.00  0.00     0.049 A 
ATOM     55  H   UNL     1       1.593 -12.116  -1.759  1.00  0.00     0.167 HD
ATOM     56  C   UNL     1       2.104 -13.216  -5.960  1.00  0.00     0.037 A 
ATOM     57  C   UNL     1       0.963 -12.618   0.909  1.00  0.00     0.037 A 
ATOM     58  C   UNL     1       1.758 -14.444  -5.297  1.00  0.00     0.049 A 
ATOM     59  C   UNL     1       0.792 -13.928   0.187  1.00  0.00     0.074 A 
ATOM     60  C   UNL     1       1.651 -15.715  -5.835  1.00  0.00     0.029 A 
ATOM     61  N   UNL     1       1.457 -14.553  -3.949  1.00  0.00    -0.354 N 
ATOM     62  N   UNL     1       0.997 -14.209  -1.077  1.00  0.00    -0.248 NA
ATOM     63  C   UNL     1       0.335 -15.073   0.989  1.00  0.00     0.031 C 
ATOM     64  C   UNL     1       1.245 -16.586  -4.819  1.00  0.00     0.029 A 
ATOM     65  C   UNL     1       1.139 -15.865  -3.641  1.00  0.00     0.049 A 
ATOM     66  H   UNL     1       1.468 -13.807  -3.305  1.00  0.00     0.167 HD
ATOM     67  C   UNL     1       0.716 -15.562  -1.217  1.00  0.00     0.074 A 
ATOM     68  C   UNL     1       0.337 -16.050   0.092  1.00  0.00     0.031 C 
ATOM     69  C   UNL     1       0.767 -16.333  -2.331  1.00  0.00     0.037 A 
BRANCH  56  70
ATOM     70  C   UNL     1       2.358 -13.252  -7.437  1.00  0.00     0.057 A 
ATOM     71  C   UNL     1       3.651 -13.149  -7.964  1.00  0.00     0.134 A 
ATOM     72  C   UNL     1       1.300 -13.421  -8.339  1.00  0.00     0.134 A 
ATOM     73  F   UNL     1       4.704 -12.970  -7.152  1.00  0.00    -0.206 F 
ATOM     74  C   UNL     1       3.882 -13.195  -9.340  1.00  0.00     0.040 A 
ATOM     75  C   UNL     1       1.521 -13.489  -9.715  1.00  0.00     0.040 A 
ATOM     76  F   UNL     1       0.038 -13.528  -7.897  1.00  0.00    -0.206 F 
ATOM     77  C   UNL     1       2.815 -13.372 -10.219  1.00  0.00     0.006 A 
ENDBRANCH  56  70
BRANCH  57  78
ATOM     78  C   UNL     1       0.690 -12.522   2.364  1.00  0.00     0.057 A 
ATOM     79  C   UNL     1       1.535 -13.124   3.303  1.00  0.00     0.134 A 
ATOM     80  C   UNL     1      -0.438 -11.848   2.848  1.00  0.00     0.134 A 
ATOM     81  F   UNL     1       2.616 -13.806   2.898  1.00  0.00    -0.206 F 
ATOM     82  C   UNL     1       1.261 -13.072   4.671  1.00  0.00     0.040 A 
ATOM     83  C   UNL     1      -0.713 -11.770   4.213  1.00  0.00     0.040 A 
ATOM     84  F   UNL     1      -1.288 -11.255   1.997  1.00  0.00    -0.206 F 
ATOM     85  C   UNL     1       0.136 -12.389   5.129  1.00  0.00     0.006 A 
ENDBRANCH  57  78
BRANCH  69  86
ATOM     86  C   UNL     1       0.430 -17.786  -2.178  1.00  0.00     0.057 A 
ATOM     87  C   UNL     1      -0.891 -18.221  -2.015  1.00  0.00     0.134 A 
ATOM     88  C   UNL     1       1.432 -18.762  -2.239  1.00  0.00     0.134 A 
ATOM     89  F   UNL     1      -1.894 -17.334  -1.937  1.00  0.00    -0.206 F 
ATOM     90  C   UNL     1      -1.202 -19.577  -1.900  1.00  0.00     0.040 A 
ATOM     91  C   UNL     1       1.132 -20.122  -2.147  1.00  0.00     0.040 A 
ATOM     92  F   UNL     1       2.716 -18.411  -2.402  1.00  0.00    -0.206 F 
ATOM     93  C   UNL     1      -0.189 -20.532  -1.972  1.00  0.00     0.006 A 
ENDBRANCH  69  86
ENDBRANCH  43  44
ENDBRANCH  36  38
ENDBRANCH  35  36
ENDBRANCH  34  35
ENDBRANCH  33  34
ENDBRANCH  32  33
ENDBRANCH  31  32
ENDBRANCH   1  31
TORSDOF 19
