REMARK SMILES COc1ccc(C2=NO[C@](C)(C(=O)OCCOCCOC(=O)c3ccc(-c4c5nc(c(-c6c(F)cccc6F)c6ccc([nH]6)c(-c6c(F)cccc6F)c6nc(c(-c7c(F)cccc7F)c7ccc4[nH]7)C=C6)C=C5)cc3)C2)c(OC)c1OC
REMARK SMILES IDX 17 1 16 2 15 3 14 4 12 5 13 6 10 7 7 8 8 9 77 10 9 11 11 12
REMARK SMILES IDX 6 13 3 14 4 15 81 16 5 17 78 18 2 19 1 20 82 21 83 22 79 23
REMARK SMILES IDX 80 24 18 25 19 26 20 27 21 28 22 29 23 30 24 31 76 32 25 33
REMARK SMILES IDX 75 34 26 35 27 36 28 37 69 38 29 39 74 40 68 41 70 42 30 43
REMARK SMILES IDX 73 44 67 45 66 46 31 48 57 49 40 50 56 51 41 52 44 53 55 54
REMARK SMILES IDX 71 55 42 56 43 57 54 59 72 60 45 61 32 62 33 63 38 64 34 65
REMARK SMILES IDX 35 66 37 67 39 68 36 69 58 70 59 71 64 72 60 73 61 74 63 75
REMARK SMILES IDX 65 76 62 77 46 78 47 79 52 80 48 81 49 82 51 83 53 84 50 85
REMARK H PARENT 70 47 44 58
REMARK Flexibility Score: inf
ROOT
ATOM      1  O   UNL     1       2.145  -7.272   8.667  1.00  0.00    -0.374 OA
ENDROOT
BRANCH   1   2
ATOM      2  C   UNL     1       2.903  -6.966   9.840  1.00  0.00     0.202 C 
BRANCH   2   3
ATOM      3  C   UNL     1       3.914  -5.830   9.675  1.00  0.00     0.261 C 
BRANCH   3   4
ATOM      4  O   UNL     1       3.213  -4.584   9.513  1.00  0.00    -0.460 OA
BRANCH   4   5
ATOM      5  C   UNL     1       3.488  -3.875   8.382  1.00  0.00     0.353 C 
ATOM      6  O   UNL     1       4.384  -4.163   7.597  1.00  0.00    -0.247 OA
BRANCH   5   7
ATOM      7  C   UNL     1       2.482  -2.737   8.159  1.00  0.00     0.236 C 
ATOM      8  C   UNL     1       2.225  -1.603   6.189  1.00  0.00     0.096 C 
ATOM      9  N   UNL     1       2.951  -0.828   6.925  1.00  0.00    -0.089 NA
ATOM     10  C   UNL     1       1.829  -2.898   6.789  1.00  0.00     0.124 C 
ATOM     11  O   UNL     1       3.243  -1.520   8.117  1.00  0.00    -0.377 OA
ATOM     12  C   UNL     1       1.439  -2.560   9.265  1.00  0.00     0.073 C 
BRANCH   8  13
ATOM     13  C   UNL     1       1.814  -1.233   4.826  1.00  0.00     0.046 A 
ATOM     14  C   UNL     1       1.130  -0.149   2.369  1.00  0.00     0.164 A 
ATOM     15  C   UNL     1       0.164  -0.261   3.382  1.00  0.00     0.051 A 
ATOM     16  C   UNL     1       2.450  -0.611   2.562  1.00  0.00     0.203 A 
ATOM     17  C   UNL     1       0.504  -0.803   4.618  1.00  0.00     0.018 A 
ATOM     18  C   UNL     1       2.787  -1.181   3.808  1.00  0.00     0.173 A 
BRANCH  14  19
ATOM     19  O   UNL     1       0.791   0.557   1.242  1.00  0.00    -0.493 OA
ATOM     20  C   UNL     1      -0.178  -0.115   0.440  1.00  0.00     0.278 C 
ENDBRANCH  14  19
BRANCH  16  21
ATOM     21  O   UNL     1       3.461  -0.514   1.644  1.00  0.00    -0.490 OA
ATOM     22  C   UNL     1       3.172  -0.272   0.279  1.00  0.00     0.278 C 
ENDBRANCH  16  21
BRANCH  18  23
ATOM     23  O   UNL     1       3.978  -1.766   4.164  1.00  0.00    -0.492 OA
ATOM     24  C   UNL     1       5.143  -1.537   3.391  1.00  0.00     0.278 C 
ENDBRANCH  18  23
ENDBRANCH   8  13
ENDBRANCH   5   7
ENDBRANCH   4   5
ENDBRANCH   3   4
ENDBRANCH   2   3
ENDBRANCH   1   2
BRANCH   1  25
ATOM     25  C   UNL     1       1.030  -6.429   8.380  1.00  0.00     0.202 C 
BRANCH  25  26
ATOM     26  C   UNL     1      -0.266  -6.762   9.127  1.00  0.00     0.261 C 
BRANCH  26  27
ATOM     27  O   UNL     1      -0.141  -6.543  10.543  1.00  0.00    -0.460 OA
BRANCH  27  28
ATOM     28  C   UNL     1      -0.070  -7.673  11.285  1.00  0.00     0.338 C 
ATOM     29  O   UNL     1      -0.184  -8.825  10.890  1.00  0.00    -0.246 OA
BRANCH  28  30
ATOM     30  C   UNL     1       0.338  -7.353  12.665  1.00  0.00     0.060 A 
ATOM     31  C   UNL     1       1.380  -8.107  13.220  1.00  0.00     0.016 A 
ATOM     32  C   UNL     1      -0.323  -6.388  13.430  1.00  0.00     0.016 A 
ATOM     33  C   UNL     1       1.731  -7.936  14.557  1.00  0.00     0.010 A 
ATOM     34  C   UNL     1       0.026  -6.223  14.775  1.00  0.00     0.010 A 
ATOM     35  C   UNL     1       1.030  -7.021  15.354  1.00  0.00    -0.014 A 
BRANCH  35  36
ATOM     36  C   UNL     1       1.256  -7.004  16.819  1.00  0.00     0.031 A 
ATOM     37  C   UNL     1       0.289  -7.726  17.717  1.00  0.00     0.074 A 
ATOM     38  C   UNL     1       2.329  -6.387  17.343  1.00  0.00     0.049 A 
ATOM     39  N   UNL     1       0.281  -7.823  19.022  1.00  0.00    -0.248 NA
ATOM     40  C   UNL     1      -0.818  -8.434  17.053  1.00  0.00     0.031 C 
ATOM     41  C   UNL     1       3.361  -5.690  16.578  1.00  0.00     0.029 A 
ATOM     42  N   UNL     1       2.726  -6.249  18.649  1.00  0.00    -0.354 N 
ATOM     43  C   UNL     1      -0.827  -8.600  19.336  1.00  0.00     0.074 A 
ATOM     44  C   UNL     1      -1.487  -8.920  18.088  1.00  0.00     0.031 C 
ATOM     45  C   UNL     1       4.273  -5.192  17.430  1.00  0.00     0.029 A 
ATOM     46  C   UNL     1       3.874  -5.510  18.800  1.00  0.00     0.049 A 
ATOM     47  H   UNL     1       2.235  -6.642  19.407  1.00  0.00     0.167 HD
ATOM     48  C   UNL     1      -1.251  -9.018  20.552  1.00  0.00     0.037 A 
ATOM     49  C   UNL     1       4.517  -5.122  19.917  1.00  0.00     0.037 A 
ATOM     50  C   UNL     1      -0.597  -8.700  21.794  1.00  0.00     0.049 A 
ATOM     51  C   UNL     1       3.983  -5.535  21.263  1.00  0.00     0.074 A 
ATOM     52  C   UNL     1      -0.947  -9.083  23.077  1.00  0.00     0.029 A 
ATOM     53  N   UNL     1       0.541  -7.915  21.907  1.00  0.00    -0.354 N 
ATOM     54  N   UNL     1       2.943  -6.280  21.547  1.00  0.00    -0.248 NA
ATOM     55  C   UNL     1       4.715  -5.051  22.443  1.00  0.00     0.031 C 
ATOM     56  C   UNL     1      -0.045  -8.496  23.970  1.00  0.00     0.029 A 
ATOM     57  C   UNL     1       0.894  -7.785  23.240  1.00  0.00     0.049 A 
ATOM     58  H   UNL     1       1.026  -7.511  21.152  1.00  0.00     0.167 HD
ATOM     59  C   UNL     1       2.912  -6.380  22.933  1.00  0.00     0.074 A 
ATOM     60  C   UNL     1       4.043  -5.626  23.431  1.00  0.00     0.031 C 
ATOM     61  C   UNL     1       2.028  -7.039  23.721  1.00  0.00     0.037 A 
BRANCH  48  62
ATOM     62  C   UNL     1      -2.495  -9.855  20.598  1.00  0.00     0.057 A 
ATOM     63  C   UNL     1      -2.506 -11.186  20.163  1.00  0.00     0.134 A 
ATOM     64  C   UNL     1      -3.689  -9.332  21.111  1.00  0.00     0.134 A 
ATOM     65  F   UNL     1      -1.400 -11.742  19.646  1.00  0.00    -0.206 F 
ATOM     66  C   UNL     1      -3.666 -11.962  20.218  1.00  0.00     0.040 A 
ATOM     67  C   UNL     1      -4.848 -10.105  21.194  1.00  0.00     0.040 A 
ATOM     68  F   UNL     1      -3.745  -8.065  21.548  1.00  0.00    -0.206 F 
ATOM     69  C   UNL     1      -4.840 -11.423  20.742  1.00  0.00     0.006 A 
ENDBRANCH  48  62
BRANCH  49  70
ATOM     70  C   UNL     1       5.741  -4.287  19.817  1.00  0.00     0.057 A 
ATOM     71  C   UNL     1       6.998  -4.801  20.154  1.00  0.00     0.134 A 
ATOM     72  C   UNL     1       5.679  -2.951  19.404  1.00  0.00     0.134 A 
ATOM     73  F   UNL     1       7.117  -6.067  20.582  1.00  0.00    -0.206 F 
ATOM     74  C   UNL     1       8.148  -4.013  20.098  1.00  0.00     0.040 A 
ATOM     75  C   UNL     1       6.824  -2.158  19.320  1.00  0.00     0.040 A 
ATOM     76  F   UNL     1       4.503  -2.400  19.069  1.00  0.00    -0.206 F 
ATOM     77  C   UNL     1       8.063  -2.688  19.674  1.00  0.00     0.006 A 
ENDBRANCH  49  70
BRANCH  61  78
ATOM     78  C   UNL     1       2.268  -7.007  25.203  1.00  0.00     0.057 A 
ATOM     79  C   UNL     1       2.033  -5.857  25.966  1.00  0.00     0.134 A 
ATOM     80  C   UNL     1       2.701  -8.155  25.878  1.00  0.00     0.134 A 
ATOM     81  F   UNL     1       1.629  -4.721  25.378  1.00  0.00    -0.206 F 
ATOM     82  C   UNL     1       2.241  -5.844  27.347  1.00  0.00     0.040 A 
ATOM     83  C   UNL     1       2.888  -8.162  27.261  1.00  0.00     0.040 A 
ATOM     84  F   UNL     1       2.936  -9.293  25.207  1.00  0.00    -0.206 F 
ATOM     85  C   UNL     1       2.663  -7.001  27.998  1.00  0.00     0.006 A 
ENDBRANCH  61  78
ENDBRANCH  35  36
ENDBRANCH  28  30
ENDBRANCH  27  28
ENDBRANCH  26  27
ENDBRANCH  25  26
ENDBRANCH   1  25
TORSDOF 18
