REMARK SMILES COC[C@@H](C)Nc1ccc([N+](=O)[O-])c(C(=O)OCCOCCOC(=O)c2ccc(-c3c4nc(c(-c5c(F)cccc5F)c5ccc([nH]5)c(-c5c(F)cccc5F)c5nc(c(-c6c(F)cccc6F)c6ccc3[nH]6)C=C5)C=C4)cc2)c1
REMARK SMILES IDX 19 1 18 2 17 3 15 4 16 5 14 6 7 7 8 8 80 9 9 10 10 11 6 12
REMARK SMILES IDX 4 14 5 15 3 16 2 17 1 18 11 19 12 20 13 21 20 22 21 23 22 24
REMARK SMILES IDX 23 25 24 26 25 27 26 28 27 29 79 30 28 31 78 32 29 33 30 34
REMARK SMILES IDX 31 35 72 36 32 37 77 38 71 39 73 40 33 41 76 42 70 43 69 44
REMARK SMILES IDX 34 46 60 47 43 48 59 49 44 50 47 51 58 52 74 53 45 54 46 55
REMARK SMILES IDX 57 57 75 58 48 59 35 60 36 61 41 62 37 63 38 64 40 65 42 66
REMARK SMILES IDX 39 67 61 68 62 69 67 70 63 71 64 72 66 73 68 74 65 75 49 76
REMARK SMILES IDX 50 77 55 78 51 79 52 80 54 81 56 82 53 83
REMARK H PARENT 6 13 73 45 47 56
REMARK Flexibility Score: inf
ROOT
ATOM      1  C   UNL     1      -4.592   6.431   3.848  1.00  0.00     0.202 C 
ENDROOT
BRANCH   1   2
ATOM      2  C   UNL     1      -4.801   5.570   2.596  1.00  0.00     0.261 C 
BRANCH   2   3
ATOM      3  O   UNL     1      -3.594   5.472   1.830  1.00  0.00    -0.459 OA
BRANCH   3   4
ATOM      4  C   UNL     1      -3.686   5.846   0.533  1.00  0.00     0.345 C 
ATOM      5  O   UNL     1      -4.695   6.052  -0.122  1.00  0.00    -0.246 OA
BRANCH   4   6
ATOM      6  C   UNL     1      -2.327   6.041   0.003  1.00  0.00     0.139 A 
ATOM      7  C   UNL     1      -0.112   5.078  -0.382  1.00  0.00     0.036 A 
ATOM      8  C   UNL     1       0.239   6.249  -1.070  1.00  0.00     0.033 A 
ATOM      9  C   UNL     1      -1.399   4.999   0.160  1.00  0.00     0.048 A 
ATOM     10  C   UNL     1      -0.662   7.308  -1.218  1.00  0.00     0.089 A 
ATOM     11  C   UNL     1      -1.950   7.196  -0.682  1.00  0.00     0.284 A 
BRANCH   7  12
ATOM     12  N   UNL     1       0.797   4.042  -0.331  1.00  0.00    -0.380 N 
ATOM     13  H   UNL     1       1.736   4.251  -0.537  1.00  0.00     0.160 HD
BRANCH  12  14
ATOM     14  C   UNL     1       0.472   2.653   0.008  1.00  0.00     0.102 C 
ATOM     15  C   UNL     1       1.028   2.364   1.401  1.00  0.00     0.033 C 
BRANCH  14  16
ATOM     16  C   UNL     1       1.046   1.725  -1.087  1.00  0.00     0.184 C 
BRANCH  16  17
ATOM     17  O   UNL     1       0.440   0.433  -1.139  1.00  0.00    -0.383 OA
ATOM     18  C   UNL     1       0.947  -0.493  -0.193  1.00  0.00     0.194 C 
ENDBRANCH  16  17
ENDBRANCH  14  16
ENDBRANCH  12  14
ENDBRANCH   7  12
BRANCH  11  19
ATOM     19  N   UNL     1      -2.833   8.350  -0.792  1.00  0.00     0.063 N 
ATOM     20  O   UNL     1      -2.799   8.986  -1.855  1.00  0.00    -0.258 OA
ATOM     21  O   UNL     1      -3.473   8.681   0.212  1.00  0.00    -0.258 OA
ENDBRANCH  11  19
ENDBRANCH   4   6
ENDBRANCH   3   4
ENDBRANCH   2   3
ENDBRANCH   1   2
BRANCH   1  22
ATOM     22  O   UNL     1      -4.182   7.784   3.665  1.00  0.00    -0.374 OA
BRANCH  22  23
ATOM     23  C   UNL     1      -2.849   8.031   3.223  1.00  0.00     0.202 C 
BRANCH  23  24
ATOM     24  C   UNL     1      -1.713   7.895   4.242  1.00  0.00     0.261 C 
BRANCH  24  25
ATOM     25  O   UNL     1      -1.639   6.591   4.836  1.00  0.00    -0.460 OA
BRANCH  25  26
ATOM     26  C   UNL     1      -2.097   6.539   6.110  1.00  0.00     0.338 C 
ATOM     27  O   UNL     1      -2.503   7.461   6.796  1.00  0.00    -0.246 OA
BRANCH  26  28
ATOM     28  C   UNL     1      -2.196   5.136   6.542  1.00  0.00     0.060 A 
ATOM     29  C   UNL     1      -3.446   4.677   6.976  1.00  0.00     0.016 A 
ATOM     30  C   UNL     1      -1.070   4.314   6.604  1.00  0.00     0.016 A 
ATOM     31  C   UNL     1      -3.566   3.405   7.524  1.00  0.00     0.010 A 
ATOM     32  C   UNL     1      -1.191   3.039   7.160  1.00  0.00     0.010 A 
ATOM     33  C   UNL     1      -2.431   2.595   7.655  1.00  0.00    -0.014 A 
BRANCH  33  34
ATOM     34  C   UNL     1      -2.518   1.339   8.437  1.00  0.00     0.031 A 
ATOM     35  C   UNL     1      -1.970   1.306   9.834  1.00  0.00     0.074 A 
ATOM     36  C   UNL     1      -3.098   0.248   7.909  1.00  0.00     0.049 A 
ATOM     37  N   UNL     1      -1.910   0.309  10.680  1.00  0.00    -0.248 NA
ATOM     38  C   UNL     1      -1.402   2.564  10.343  1.00  0.00     0.031 C 
ATOM     39  C   UNL     1      -3.689   0.171   6.575  1.00  0.00     0.029 A 
ATOM     40  N   UNL     1      -3.274  -1.006   8.433  1.00  0.00    -0.354 N 
ATOM     41  C   UNL     1      -1.286   0.814  11.813  1.00  0.00     0.074 A 
ATOM     42  C   UNL     1      -0.954   2.195  11.533  1.00  0.00     0.031 C 
ATOM     43  C   UNL     1      -4.153  -1.075   6.379  1.00  0.00     0.029 A 
ATOM     44  C   UNL     1      -3.860  -1.886   7.559  1.00  0.00     0.049 A 
ATOM     45  H   UNL     1      -3.005  -1.252   9.348  1.00  0.00     0.167 HD
ATOM     46  C   UNL     1      -1.021   0.185  12.983  1.00  0.00     0.037 A 
ATOM     47  C   UNL     1      -4.109  -3.203   7.687  1.00  0.00     0.037 A 
ATOM     48  C   UNL     1      -1.356  -1.190  13.252  1.00  0.00     0.049 A 
ATOM     49  C   UNL     1      -3.759  -3.898   8.974  1.00  0.00     0.074 A 
ATOM     50  C   UNL     1      -1.171  -1.910  14.419  1.00  0.00     0.029 A 
ATOM     51  N   UNL     1      -1.931  -2.057  12.334  1.00  0.00    -0.354 N 
ATOM     52  N   UNL     1      -3.208  -3.404  10.057  1.00  0.00    -0.248 NA
ATOM     53  C   UNL     1      -4.071  -5.331   9.060  1.00  0.00     0.031 C 
ATOM     54  C   UNL     1      -1.569  -3.231  14.184  1.00  0.00     0.029 A 
ATOM     55  C   UNL     1      -2.070  -3.317  12.895  1.00  0.00     0.049 A 
ATOM     56  H   UNL     1      -2.202  -1.813  11.420  1.00  0.00     0.167 HD
ATOM     57  C   UNL     1      -3.129  -4.457  10.961  1.00  0.00     0.074 A 
ATOM     58  C   UNL     1      -3.702  -5.613  10.302  1.00  0.00     0.031 C 
ATOM     59  C   UNL     1      -2.632  -4.464  12.223  1.00  0.00     0.037 A 
BRANCH  46  60
ATOM     60  C   UNL     1      -0.293   0.971  14.038  1.00  0.00     0.057 A 
ATOM     61  C   UNL     1      -0.878   2.058  14.701  1.00  0.00     0.134 A 
ATOM     62  C   UNL     1       1.019   0.632  14.394  1.00  0.00     0.134 A 
ATOM     63  F   UNL     1      -2.127   2.446  14.402  1.00  0.00    -0.206 F 
ATOM     64  C   UNL     1      -0.171   2.804  15.647  1.00  0.00     0.040 A 
ATOM     65  C   UNL     1       1.724   1.349  15.362  1.00  0.00     0.040 A 
ATOM     66  F   UNL     1       1.640  -0.402  13.806  1.00  0.00    -0.206 F 
ATOM     67  C   UNL     1       1.133   2.447  15.983  1.00  0.00     0.006 A 
ENDBRANCH  46  60
BRANCH  47  68
ATOM     68  C   UNL     1      -4.714  -3.944   6.552  1.00  0.00     0.057 A 
ATOM     69  C   UNL     1      -6.028  -4.420   6.612  1.00  0.00     0.134 A 
ATOM     70  C   UNL     1      -3.999  -4.168   5.369  1.00  0.00     0.134 A 
ATOM     71  F   UNL     1      -6.756  -4.253   7.725  1.00  0.00    -0.206 F 
ATOM     72  C   UNL     1      -6.608  -5.098   5.538  1.00  0.00     0.040 A 
ATOM     73  C   UNL     1      -4.575  -4.820   4.278  1.00  0.00     0.040 A 
ATOM     74  F   UNL     1      -2.737  -3.730   5.247  1.00  0.00    -0.206 F 
ATOM     75  C   UNL     1      -5.883  -5.291   4.364  1.00  0.00     0.006 A 
ENDBRANCH  47  68
BRANCH  59  76
ATOM     76  C   UNL     1      -2.709  -5.756  12.988  1.00  0.00     0.057 A 
ATOM     77  C   UNL     1      -1.913  -6.862  12.662  1.00  0.00     0.134 A 
ATOM     78  C   UNL     1      -3.562  -5.880  14.093  1.00  0.00     0.134 A 
ATOM     79  F   UNL     1      -1.083  -6.816  11.609  1.00  0.00    -0.206 F 
ATOM     80  C   UNL     1      -1.982  -8.052  13.390  1.00  0.00     0.040 A 
ATOM     81  C   UNL     1      -3.616  -7.053  14.848  1.00  0.00     0.040 A 
ATOM     82  F   UNL     1      -4.344  -4.857  14.469  1.00  0.00    -0.206 F 
ATOM     83  C   UNL     1      -2.830  -8.146  14.492  1.00  0.00     0.006 A 
ENDBRANCH  59  76
ENDBRANCH  33  34
ENDBRANCH  26  28
ENDBRANCH  25  26
ENDBRANCH  24  25
ENDBRANCH  23  24
ENDBRANCH  22  23
ENDBRANCH   1  22
TORSDOF 19
