REMARK SMILES Cc1ccccc1-n1c(S[C@@H](C)C(=O)OCCOCCOC(=O)c2ccc(-c3c4nc(c(-c5c(F)cccc5F)c5ccc([nH]5)c(-c5c(F)cccc5F)c5nc(c(-c6c(F)cccc6F)c6ccc3[nH]6)C=C5)C=C4)cc2)nc2sc3c(c2c1=O)C[C@@H](C(C)C)OC3
REMARK SMILES IDX 17 1 16 2 15 3 13 4 14 5 11 6 12 7 10 8 9 9 8 10 84 11 78 12
REMARK SMILES IDX 83 13 85 14 79 15 82 16 80 17 81 18 86 19 92 20 87 21 91 22
REMARK SMILES IDX 7 23 1 24 2 25 3 26 4 27 6 28 5 29 88 30 89 31 90 32 18 33
REMARK SMILES IDX 19 34 20 35 21 36 22 37 23 38 24 39 25 40 77 41 26 42 76 43
REMARK SMILES IDX 27 44 28 45 29 46 70 47 30 48 75 49 69 50 71 51 31 52 74 53
REMARK SMILES IDX 68 54 67 55 32 57 58 58 41 59 57 60 42 61 45 62 56 63 72 64
REMARK SMILES IDX 43 65 44 66 55 68 73 69 46 70 33 71 34 72 39 73 35 74 36 75
REMARK SMILES IDX 38 76 40 77 37 78 59 79 60 80 65 81 61 82 62 83 64 84 66 85
REMARK SMILES IDX 63 86 47 87 48 88 53 89 49 90 50 91 52 92 54 93 51 94
REMARK H PARENT 71 56 45 67
REMARK Flexibility Score: inf
ROOT
ATOM      1  C   UNL     1      -1.677   0.651  -3.300  1.00  0.00     0.202 C 
ENDROOT
BRANCH   1   2
ATOM      2  C   UNL     1      -1.216   1.075  -1.901  1.00  0.00     0.261 C 
BRANCH   2   3
ATOM      3  O   UNL     1       0.180   1.314  -1.896  1.00  0.00    -0.462 OA
BRANCH   3   4
ATOM      4  C   UNL     1       0.852   0.142  -1.969  1.00  0.00     0.319 C 
ATOM      5  O   UNL     1       0.338  -0.946  -1.947  1.00  0.00    -0.251 OA
BRANCH   4   6
ATOM      6  C   UNL     1       2.305   0.373  -2.225  1.00  0.00     0.161 C 
ATOM      7  C   UNL     1       3.120  -0.745  -1.631  1.00  0.00     0.032 C 
BRANCH   6   8
ATOM      8  S   UNL     1       3.119   1.886  -1.805  1.00  0.00    -0.072 SA
BRANCH   8   9
ATOM      9  C   UNL     1       2.416   2.888  -0.566  1.00  0.00     0.177 A 
ATOM     10  N   UNL     1       1.639   2.525   0.556  1.00  0.00    -0.255 N 
ATOM     11  C   UNL     1       1.165   3.524   1.436  1.00  0.00     0.267 A 
ATOM     12  N   UNL     1       2.793   4.112  -0.812  1.00  0.00    -0.212 NA
ATOM     13  C   UNL     1       1.651   4.850   1.175  1.00  0.00     0.081 A 
ATOM     14  O   UNL     1       0.448   3.326   2.415  1.00  0.00    -0.268 OA
ATOM     15  C   UNL     1       2.447   5.049   0.085  1.00  0.00     0.132 A 
ATOM     16  C   UNL     1       1.498   6.019   1.959  1.00  0.00    -0.014 A 
ATOM     17  S   UNL     1       3.073   6.637   0.031  1.00  0.00    -0.117 S 
ATOM     18  C   UNL     1       2.317   7.030   1.506  1.00  0.00     0.037 A 
ATOM     19  C   UNL     1       0.725   6.199   3.219  1.00  0.00     0.070 C 
ATOM     20  C   UNL     1       2.618   8.279   2.265  1.00  0.00     0.207 C 
ATOM     21  C   UNL     1       1.512   7.137   4.147  1.00  0.00     0.125 C 
ATOM     22  O   UNL     1       1.779   8.373   3.441  1.00  0.00    -0.372 OA
BRANCH  10  23
ATOM     23  C   UNL     1       1.214   1.213   0.922  1.00  0.00     0.054 A 
ATOM     24  C   UNL     1       3.501   0.381   1.706  1.00  0.00     0.046 C 
ATOM     25  C   UNL     1       2.072   0.172   1.297  1.00  0.00    -0.027 A 
ATOM     26  C   UNL     1       1.535  -1.108   1.531  1.00  0.00     0.005 A 
ATOM     27  C   UNL     1       0.168  -1.297   1.621  1.00  0.00     0.000 A 
ATOM     28  C   UNL     1      -0.162   1.022   1.134  1.00  0.00     0.027 A 
ATOM     29  C   UNL     1      -0.662  -0.203   1.534  1.00  0.00     0.002 A 
ENDBRANCH  10  23
BRANCH  21  30
ATOM     30  C   UNL     1       2.793   6.507   4.765  1.00  0.00     0.012 C 
ATOM     31  C   UNL     1       3.453   7.500   5.724  1.00  0.00     0.010 C 
ATOM     32  C   UNL     1       2.518   5.191   5.503  1.00  0.00     0.010 C 
ENDBRANCH  21  30
ENDBRANCH   8   9
ENDBRANCH   6   8
ENDBRANCH   4   6
ENDBRANCH   3   4
ENDBRANCH   2   3
ENDBRANCH   1   2
BRANCH   1  33
ATOM     33  O   UNL     1      -0.921   1.334  -4.284  1.00  0.00    -0.374 OA
BRANCH  33  34
ATOM     34  C   UNL     1      -1.284   2.693  -4.529  1.00  0.00     0.202 C 
BRANCH  34  35
ATOM     35  C   UNL     1      -2.067   3.546  -3.467  1.00  0.00     0.261 C 
BRANCH  35  36
ATOM     36  O   UNL     1      -3.253   2.873  -2.898  1.00  0.00    -0.460 OA
BRANCH  36  37
ATOM     37  C   UNL     1      -3.698   3.228  -1.633  1.00  0.00     0.338 C 
ATOM     38  O   UNL     1      -3.576   4.349  -1.167  1.00  0.00    -0.246 OA
BRANCH  37  39
ATOM     39  C   UNL     1      -4.084   1.992  -0.779  1.00  0.00     0.060 A 
ATOM     40  C   UNL     1      -4.034   1.949   0.635  1.00  0.00     0.016 A 
ATOM     41  C   UNL     1      -4.251   0.764  -1.374  1.00  0.00     0.016 A 
ATOM     42  C   UNL     1      -4.011   0.694   1.413  1.00  0.00     0.010 A 
ATOM     43  C   UNL     1      -4.062  -0.431  -0.627  1.00  0.00     0.010 A 
ATOM     44  C   UNL     1      -3.933  -0.570   0.797  1.00  0.00    -0.014 A 
BRANCH  44  45
ATOM     45  C   UNL     1      -3.817  -2.108   1.402  1.00  0.00     0.031 A 
ATOM     46  C   UNL     1      -4.380  -2.978   0.294  1.00  0.00     0.074 A 
ATOM     47  C   UNL     1      -3.127  -2.773   2.458  1.00  0.00     0.049 A 
ATOM     48  N   UNL     1      -3.704  -3.445  -0.711  1.00  0.00    -0.248 NA
ATOM     49  C   UNL     1      -5.838  -2.955   0.013  1.00  0.00     0.031 C 
ATOM     50  C   UNL     1      -3.892  -3.183   3.681  1.00  0.00     0.029 A 
ATOM     51  N   UNL     1      -2.136  -3.851   2.522  1.00  0.00    -0.354 N 
ATOM     52  C   UNL     1      -4.632  -4.079  -1.555  1.00  0.00     0.074 A 
ATOM     53  C   UNL     1      -5.918  -3.530  -1.201  1.00  0.00     0.031 C 
ATOM     54  C   UNL     1      -3.452  -4.349   4.242  1.00  0.00     0.029 A 
ATOM     55  C   UNL     1      -2.292  -4.891   3.542  1.00  0.00     0.049 A 
ATOM     56  H   UNL     1      -1.380  -3.876   1.892  1.00  0.00     0.167 HD
ATOM     57  C   UNL     1      -4.345  -5.316  -2.071  1.00  0.00     0.037 A 
ATOM     58  C   UNL     1      -1.667  -6.147   3.764  1.00  0.00     0.037 A 
ATOM     59  C   UNL     1      -3.329  -5.829  -1.240  1.00  0.00     0.049 A 
ATOM     60  C   UNL     1      -0.398  -6.440   2.988  1.00  0.00     0.074 A 
ATOM     61  C   UNL     1      -3.609  -6.196   0.038  1.00  0.00     0.029 A 
ATOM     62  N   UNL     1      -1.980  -5.735  -1.456  1.00  0.00    -0.354 N 
ATOM     63  N   UNL     1      -0.433  -7.099   1.865  1.00  0.00    -0.248 NA
ATOM     64  C   UNL     1       0.986  -6.061   3.302  1.00  0.00     0.031 C 
ATOM     65  C   UNL     1      -2.396  -6.047   0.621  1.00  0.00     0.029 A 
ATOM     66  C   UNL     1      -1.342  -5.831  -0.241  1.00  0.00     0.049 A 
ATOM     67  H   UNL     1      -1.543  -5.618  -2.331  1.00  0.00     0.167 HD
ATOM     68  C   UNL     1       0.495  -6.428   1.123  1.00  0.00     0.074 A 
ATOM     69  C   UNL     1       1.548  -6.245   2.089  1.00  0.00     0.031 C 
ATOM     70  C   UNL     1       0.092  -5.679   0.035  1.00  0.00     0.037 A 
BRANCH  57  71
ATOM     71  C   UNL     1      -5.138  -6.374  -2.767  1.00  0.00     0.057 A 
ATOM     72  C   UNL     1      -4.950  -7.753  -2.436  1.00  0.00     0.134 A 
ATOM     73  C   UNL     1      -5.905  -6.121  -3.892  1.00  0.00     0.134 A 
ATOM     74  F   UNL     1      -4.261  -8.166  -1.362  1.00  0.00    -0.206 F 
ATOM     75  C   UNL     1      -5.423  -8.799  -3.209  1.00  0.00     0.040 A 
ATOM     76  C   UNL     1      -6.400  -7.176  -4.674  1.00  0.00     0.040 A 
ATOM     77  F   UNL     1      -6.141  -4.863  -4.288  1.00  0.00    -0.206 F 
ATOM     78  C   UNL     1      -6.140  -8.511  -4.348  1.00  0.00     0.006 A 
ENDBRANCH  57  71
BRANCH  58  79
ATOM     79  C   UNL     1      -2.361  -7.542   4.081  1.00  0.00     0.057 A 
ATOM     80  C   UNL     1      -2.285  -8.186   5.319  1.00  0.00     0.134 A 
ATOM     81  C   UNL     1      -2.785  -8.444   3.046  1.00  0.00     0.134 A 
ATOM     82  F   UNL     1      -1.785  -7.541   6.381  1.00  0.00    -0.206 F 
ATOM     83  C   UNL     1      -2.650  -9.556   5.506  1.00  0.00     0.040 A 
ATOM     84  C   UNL     1      -3.124  -9.797   3.207  1.00  0.00     0.040 A 
ATOM     85  F   UNL     1      -2.824  -8.114   1.762  1.00  0.00    -0.206 F 
ATOM     86  C   UNL     1      -3.069 -10.366   4.451  1.00  0.00     0.006 A 
ENDBRANCH  58  79
BRANCH  70  87
ATOM     87  C   UNL     1       1.014  -4.745  -0.705  1.00  0.00     0.057 A 
ATOM     88  C   UNL     1       2.288  -4.385  -0.246  1.00  0.00     0.134 A 
ATOM     89  C   UNL     1       0.717  -4.248  -1.983  1.00  0.00     0.134 A 
ATOM     90  F   UNL     1       2.585  -4.317   1.057  1.00  0.00    -0.206 F 
ATOM     91  C   UNL     1       3.299  -3.960  -1.103  1.00  0.00     0.040 A 
ATOM     92  C   UNL     1       1.696  -3.765  -2.846  1.00  0.00     0.040 A 
ATOM     93  F   UNL     1      -0.527  -4.191  -2.467  1.00  0.00    -0.206 F 
ATOM     94  C   UNL     1       3.017  -3.729  -2.439  1.00  0.00     0.006 A 
ENDBRANCH  70  87
ENDBRANCH  44  45
ENDBRANCH  37  39
ENDBRANCH  36  37
ENDBRANCH  35  36
ENDBRANCH  34  35
ENDBRANCH  33  34
ENDBRANCH   1  33
TORSDOF 18
