REMARK SMILES C[C@@H]1CC[C@H](C)[N@H+]1Cc1cc2c(cc1Cl)C=C(C(=O)OCCOCCOC(=O)c1ccc(-c3c4nc(c(-c5c(F)cccc5F)c5ccc([nH]5)c(-c5c(F)cccc5F)c5nc(c(-c6c(F)cccc6F)c6ccc3[nH]6)C=C5)C=C4)cc1)[C@@H](C(F)(F)F)O2
REMARK SMILES IDX 23 1 22 2 21 3 20 4 18 5 19 6 17 7 9 8 10 9 14 10 11 11
REMARK SMILES IDX 13 12 15 13 12 14 88 15 16 16 83 17 8 18 7 19 6 20 5 21 4 22
REMARK SMILES IDX 3 23 2 24 1 26 84 27 85 28 86 29 87 30 24 31 25 32 26 33
REMARK SMILES IDX 27 34 28 35 29 36 30 37 82 38 31 39 81 40 32 41 33 42 34 43
REMARK SMILES IDX 75 44 35 45 80 46 74 47 76 48 36 49 79 50 73 51 72 52 37 54
REMARK SMILES IDX 63 55 46 56 62 57 47 58 50 59 61 60 77 61 48 62 49 63 60 65
REMARK SMILES IDX 78 66 51 67 38 68 39 69 44 70 40 71 41 72 43 73 45 74 42 75
REMARK SMILES IDX 64 76 65 77 70 78 66 79 67 80 69 81 71 82 68 83 52 84 53 85
REMARK SMILES IDX 58 86 54 87 55 88 57 89 59 90 56 91
REMARK H PARENT 7 25 76 53 50 64
REMARK Flexibility Score: inf
ROOT
ATOM      1  O   UNL     1      -8.503   3.518   4.546  1.00  0.00    -0.374 OA
ENDROOT
BRANCH   1   2
ATOM      2  C   UNL     1      -9.592   2.780   4.003  1.00  0.00     0.202 C 
BRANCH   2   3
ATOM      3  C   UNL     1      -9.731   2.713   2.479  1.00  0.00     0.261 C 
BRANCH   3   4
ATOM      4  O   UNL     1      -8.537   2.229   1.846  1.00  0.00    -0.460 OA
BRANCH   4   5
ATOM      5  C   UNL     1      -7.890   3.173   1.126  1.00  0.00     0.338 C 
ATOM      6  O   UNL     1      -8.294   4.295   0.862  1.00  0.00    -0.246 OA
BRANCH   5   7
ATOM      7  C   UNL     1      -6.529   2.724   0.792  1.00  0.00     0.087 C 
ATOM      8  C   UNL     1      -1.823   2.946  -0.910  1.00  0.00     0.029 A 
ATOM      9  C   UNL     1      -2.724   1.881  -0.662  1.00  0.00     0.058 A 
ATOM     10  C   UNL     1      -2.254   4.249  -0.610  1.00  0.00     0.050 A 
ATOM     11  C   UNL     1      -3.978   2.114  -0.090  1.00  0.00     0.128 A 
ATOM     12  C   UNL     1      -3.443   4.461   0.083  1.00  0.00     0.033 A 
ATOM     13  Cl  UNL     1      -1.471   5.677  -1.194  1.00  0.00    -0.084 Cl
ATOM     14  C   UNL     1      -4.305   3.398   0.333  1.00  0.00     0.019 A 
ATOM     15  O   UNL     1      -4.838   1.054   0.033  1.00  0.00    -0.475 OA
ATOM     16  C   UNL     1      -5.597   3.673   0.916  1.00  0.00     0.027 C 
ATOM     17  C   UNL     1      -6.257   1.353   0.242  1.00  0.00     0.316 C 
BRANCH   8  18
ATOM     18  C   UNL     1      -0.448   2.640  -1.485  1.00  0.00     0.301 C 
BRANCH  18  19
ATOM     19  N   UNL     1       0.661   2.496  -0.524  1.00  0.00    -0.327 N 
ATOM     20  C   UNL     1       1.093   0.114   0.016  1.00  0.00     0.075 C 
ATOM     21  C   UNL     1       0.508   1.439   0.487  1.00  0.00     0.181 C 
ATOM     22  C   UNL     1       1.237   1.967   1.720  1.00  0.00     0.071 C 
ATOM     23  C   UNL     1       1.003   3.458   1.629  1.00  0.00     0.071 C 
ATOM     24  C   UNL     1       1.099   3.734   0.135  1.00  0.00     0.181 C 
ATOM     25  H   UNL     1       1.400   2.203  -1.164  1.00  0.00     0.348 HD
ATOM     26  C   UNL     1       2.518   4.085  -0.306  1.00  0.00     0.075 C 
ENDBRANCH  18  19
ENDBRANCH   8  18
BRANCH  17  27
ATOM     27  C   UNL     1      -7.054   1.094  -1.046  1.00  0.00     0.430 C 
ATOM     28  F   UNL     1      -6.778  -0.127  -1.562  1.00  0.00    -0.167 F 
ATOM     29  F   UNL     1      -8.389   1.123  -0.810  1.00  0.00    -0.167 F 
ATOM     30  F   UNL     1      -6.793   2.012  -2.002  1.00  0.00    -0.167 F 
ENDBRANCH  17  27
ENDBRANCH   5   7
ENDBRANCH   4   5
ENDBRANCH   3   4
ENDBRANCH   2   3
ENDBRANCH   1   2
BRANCH   1  31
ATOM     31  C   UNL     1      -7.189   2.971   4.465  1.00  0.00     0.202 C 
BRANCH  31  32
ATOM     32  C   UNL     1      -6.855   1.717   5.285  1.00  0.00     0.261 C 
BRANCH  32  33
ATOM     33  O   UNL     1      -7.616   0.563   4.890  1.00  0.00    -0.460 OA
BRANCH  33  34
ATOM     34  C   UNL     1      -8.534   0.147   5.798  1.00  0.00     0.338 C 
ATOM     35  O   UNL     1      -8.760   0.628   6.899  1.00  0.00    -0.246 OA
BRANCH  34  36
ATOM     36  C   UNL     1      -9.396  -0.876   5.182  1.00  0.00     0.060 A 
ATOM     37  C   UNL     1      -8.859  -2.062   4.681  1.00  0.00     0.016 A 
ATOM     38  C   UNL     1     -10.778  -0.646   5.144  1.00  0.00     0.016 A 
ATOM     39  C   UNL     1      -9.718  -3.030   4.154  1.00  0.00     0.010 A 
ATOM     40  C   UNL     1     -11.632  -1.612   4.614  1.00  0.00     0.010 A 
ATOM     41  C   UNL     1     -11.109  -2.819   4.129  1.00  0.00    -0.014 A 
BRANCH  41  42
ATOM     42  C   UNL     1     -12.021  -3.897   3.673  1.00  0.00     0.031 A 
ATOM     43  C   UNL     1     -12.726  -3.809   2.352  1.00  0.00     0.074 A 
ATOM     44  C   UNL     1     -12.220  -4.960   4.476  1.00  0.00     0.049 A 
ATOM     45  N   UNL     1     -13.531  -4.675   1.789  1.00  0.00    -0.248 NA
ATOM     46  C   UNL     1     -12.501  -2.591   1.560  1.00  0.00     0.031 C 
ATOM     47  C   UNL     1     -11.617  -5.141   5.798  1.00  0.00     0.029 A 
ATOM     48  N   UNL     1     -12.982  -6.086   4.299  1.00  0.00    -0.354 N 
ATOM     49  C   UNL     1     -13.884  -4.124   0.564  1.00  0.00     0.074 A 
ATOM     50  C   UNL     1     -13.256  -2.820   0.495  1.00  0.00     0.031 C 
ATOM     51  C   UNL     1     -12.020  -6.317   6.305  1.00  0.00     0.029 A 
ATOM     52  C   UNL     1     -12.932  -6.955   5.362  1.00  0.00     0.049 A 
ATOM     53  H   UNL     1     -13.514  -6.255   3.489  1.00  0.00     0.167 HD
ATOM     54  C   UNL     1     -14.640  -4.667  -0.421  1.00  0.00     0.037 A 
ATOM     55  C   UNL     1     -13.560  -8.130   5.556  1.00  0.00     0.037 A 
ATOM     56  C   UNL     1     -15.294  -5.948  -0.335  1.00  0.00     0.049 A 
ATOM     57  C   UNL     1     -14.461  -8.668   4.476  1.00  0.00     0.074 A 
ATOM     58  C   UNL     1     -16.086  -6.580  -1.279  1.00  0.00     0.029 A 
ATOM     59  N   UNL     1     -15.242  -6.790   0.766  1.00  0.00    -0.354 N 
ATOM     60  N   UNL     1     -14.735  -8.166   3.296  1.00  0.00    -0.248 NA
ATOM     61  C   UNL     1     -15.136  -9.944   4.754  1.00  0.00     0.031 C 
ATOM     62  C   UNL     1     -16.550  -7.781  -0.732  1.00  0.00     0.029 A 
ATOM     63  C   UNL     1     -16.001  -7.926   0.530  1.00  0.00     0.049 A 
ATOM     64  H   UNL     1     -14.740  -6.608   1.594  1.00  0.00     0.167 HD
ATOM     65  C   UNL     1     -15.580  -9.081   2.680  1.00  0.00     0.074 A 
ATOM     66  C   UNL     1     -15.758 -10.177   3.609  1.00  0.00     0.031 C 
ATOM     67  C   UNL     1     -16.158  -9.019   1.456  1.00  0.00     0.037 A 
BRANCH  54  68
ATOM     68  C   UNL     1     -14.793  -3.876  -1.688  1.00  0.00     0.057 A 
ATOM     69  C   UNL     1     -16.028  -3.328  -2.057  1.00  0.00     0.134 A 
ATOM     70  C   UNL     1     -13.719  -3.700  -2.572  1.00  0.00     0.134 A 
ATOM     71  F   UNL     1     -17.100  -3.468  -1.264  1.00  0.00    -0.206 F 
ATOM     72  C   UNL     1     -16.189  -2.636  -3.259  1.00  0.00     0.040 A 
ATOM     73  C   UNL     1     -13.862  -2.987  -3.764  1.00  0.00     0.040 A 
ATOM     74  F   UNL     1     -12.507  -4.194  -2.276  1.00  0.00    -0.206 F 
ATOM     75  C   UNL     1     -15.103  -2.458  -4.113  1.00  0.00     0.006 A 
ENDBRANCH  54  68
BRANCH  55  76
ATOM     76  C   UNL     1     -13.379  -8.885   6.823  1.00  0.00     0.057 A 
ATOM     77  C   UNL     1     -13.882  -8.399   8.036  1.00  0.00     0.134 A 
ATOM     78  C   UNL     1     -12.764 -10.142   6.839  1.00  0.00     0.134 A 
ATOM     79  F   UNL     1     -14.475  -7.197   8.091  1.00  0.00    -0.206 F 
ATOM     80  C   UNL     1     -13.793  -9.141   9.214  1.00  0.00     0.040 A 
ATOM     81  C   UNL     1     -12.698 -10.910   8.003  1.00  0.00     0.040 A 
ATOM     82  F   UNL     1     -12.276 -10.670   5.706  1.00  0.00    -0.206 F 
ATOM     83  C   UNL     1     -13.215 -10.408   9.195  1.00  0.00     0.006 A 
ENDBRANCH  55  76
BRANCH  67  84
ATOM     84  C   UNL     1     -16.991 -10.195   1.030  1.00  0.00     0.057 A 
ATOM     85  C   UNL     1     -16.551 -11.043   0.005  1.00  0.00     0.134 A 
ATOM     86  C   UNL     1     -18.231 -10.482   1.616  1.00  0.00     0.134 A 
ATOM     87  F   UNL     1     -15.377 -10.822  -0.605  1.00  0.00    -0.206 F 
ATOM     88  C   UNL     1     -17.313 -12.132  -0.421  1.00  0.00     0.040 A 
ATOM     89  C   UNL     1     -18.987 -11.588   1.220  1.00  0.00     0.040 A 
ATOM     90  F   UNL     1     -18.705  -9.721   2.614  1.00  0.00    -0.206 F 
ATOM     91  C   UNL     1     -18.531 -12.412   0.193  1.00  0.00     0.006 A 
ENDBRANCH  67  84
ENDBRANCH  41  42
ENDBRANCH  34  36
ENDBRANCH  33  34
ENDBRANCH  32  33
ENDBRANCH  31  32
ENDBRANCH   1  31
TORSDOF 17
