REMARK SMILES O=C(OCCOCCOC(=O)c1ccc(-n2cc(CSc3nc4ccccc4c(=O)n3-c3ccccc3)nn2)cc1)c1ccc(-c2c3nc(c(-c4c(F)cccc4F)c4ccc([nH]4)c(-c4c(F)cccc4F)c4nc(c(-c5c(F)cccc5F)c5ccc2[nH]5)C=C4)C=C3)cc1
REMARK SMILES IDX 7 1 6 2 5 3 4 4 3 5 2 6 1 7 42 8 43 9 95 10 44 11 94 12
REMARK SMILES IDX 45 13 46 14 47 15 88 16 48 17 93 18 87 19 89 20 49 21 92 22
REMARK SMILES IDX 86 23 85 24 50 26 76 27 59 28 75 29 60 30 63 31 74 32 90 33
REMARK SMILES IDX 61 34 62 35 73 37 91 38 64 39 51 40 52 41 57 42 53 43 54 44
REMARK SMILES IDX 56 45 58 46 55 47 77 48 78 49 83 50 79 51 80 52 82 53 84 54
REMARK SMILES IDX 81 55 65 56 66 57 71 58 67 59 68 60 70 61 72 62 69 63 8 64
REMARK SMILES IDX 9 65 10 66 11 67 12 68 13 69 41 70 14 71 40 72 15 73 16 74
REMARK SMILES IDX 17 75 39 76 18 77 38 78 19 79 20 80 21 81 22 82 31 83 23 84
REMARK SMILES IDX 29 85 24 86 28 87 30 88 25 89 27 90 26 91 32 92 33 93 37 94
REMARK SMILES IDX 34 95 36 96 35 97
REMARK H PARENT 89 25 63 36
REMARK Flexibility Score: inf
ROOT
ATOM      1  C   UNL     1       2.992   0.332  -2.080  1.00  0.00     0.202 C 
ENDROOT
BRANCH   1   2
ATOM      2  O   UNL     1       4.132   0.516  -1.224  1.00  0.00    -0.374 OA
BRANCH   2   3
ATOM      3  C   UNL     1       4.728  -0.654  -0.680  1.00  0.00     0.202 C 
BRANCH   3   4
ATOM      4  C   UNL     1       4.402  -1.043   0.760  1.00  0.00     0.261 C 
BRANCH   4   5
ATOM      5  O   UNL     1       3.010  -1.340   0.966  1.00  0.00    -0.460 OA
BRANCH   5   6
ATOM      6  C   UNL     1       1.992  -0.466   0.804  1.00  0.00     0.338 C 
ATOM      7  O   UNL     1       0.936  -0.832   0.294  1.00  0.00    -0.246 OA
BRANCH   6   8
ATOM      8  C   UNL     1       2.043   0.842   1.499  1.00  0.00     0.060 A 
ATOM      9  C   UNL     1       3.207   1.502   1.885  1.00  0.00     0.016 A 
ATOM     10  C   UNL     1       0.798   1.358   1.889  1.00  0.00     0.016 A 
ATOM     11  C   UNL     1       3.156   2.445   2.888  1.00  0.00     0.010 A 
ATOM     12  C   UNL     1       0.732   2.367   2.826  1.00  0.00     0.010 A 
ATOM     13  C   UNL     1       1.915   2.825   3.394  1.00  0.00    -0.014 A 
BRANCH  13  14
ATOM     14  C   UNL     1       1.902   3.866   4.402  1.00  0.00     0.031 A 
ATOM     15  C   UNL     1       2.480   5.141   3.904  1.00  0.00     0.074 A 
ATOM     16  C   UNL     1       1.316   3.687   5.600  1.00  0.00     0.049 A 
ATOM     17  N   UNL     1       3.513   5.773   4.351  1.00  0.00    -0.248 NA
ATOM     18  C   UNL     1       1.960   5.672   2.629  1.00  0.00     0.031 C 
ATOM     19  C   UNL     1       0.529   2.533   6.043  1.00  0.00     0.029 A 
ATOM     20  N   UNL     1       1.194   4.552   6.642  1.00  0.00    -0.354 N 
ATOM     21  C   UNL     1       3.619   6.913   3.558  1.00  0.00     0.074 A 
ATOM     22  C   UNL     1       2.792   6.689   2.406  1.00  0.00     0.031 C 
ATOM     23  C   UNL     1      -0.186   2.875   7.137  1.00  0.00     0.029 A 
ATOM     24  C   UNL     1       0.182   4.221   7.538  1.00  0.00     0.049 A 
ATOM     25  H   UNL     1       1.770   5.343   6.753  1.00  0.00     0.167 HD
ATOM     26  C   UNL     1       4.105   8.067   4.088  1.00  0.00     0.037 A 
ATOM     27  C   UNL     1      -0.364   5.042   8.470  1.00  0.00     0.037 A 
ATOM     28  C   UNL     1       4.955   7.789   5.223  1.00  0.00     0.049 A 
ATOM     29  C   UNL     1       0.574   6.176   8.670  1.00  0.00     0.074 A 
ATOM     30  C   UNL     1       6.086   7.020   5.426  1.00  0.00     0.029 A 
ATOM     31  N   UNL     1       4.454   8.047   6.475  1.00  0.00    -0.354 N 
ATOM     32  N   UNL     1       1.738   6.062   9.245  1.00  0.00    -0.248 NA
ATOM     33  C   UNL     1       0.416   7.340   7.809  1.00  0.00     0.031 C 
ATOM     34  C   UNL     1       5.927   6.463   6.730  1.00  0.00     0.029 A 
ATOM     35  C   UNL     1       4.752   6.978   7.276  1.00  0.00     0.049 A 
ATOM     36  H   UNL     1       3.966   8.857   6.748  1.00  0.00     0.167 HD
ATOM     37  C   UNL     1       2.584   6.853   8.482  1.00  0.00     0.074 A 
ATOM     38  C   UNL     1       1.699   7.684   7.668  1.00  0.00     0.031 C 
ATOM     39  C   UNL     1       3.910   6.547   8.365  1.00  0.00     0.037 A 
BRANCH  26  40
ATOM     40  C   UNL     1       3.407   9.402   3.903  1.00  0.00     0.057 A 
ATOM     41  C   UNL     1       3.957  10.534   4.532  1.00  0.00     0.134 A 
ATOM     42  C   UNL     1       2.081   9.568   3.445  1.00  0.00     0.134 A 
ATOM     43  F   UNL     1       5.215  10.519   4.998  1.00  0.00    -0.206 F 
ATOM     44  C   UNL     1       3.203  11.681   4.809  1.00  0.00     0.040 A 
ATOM     45  C   UNL     1       1.335  10.725   3.676  1.00  0.00     0.040 A 
ATOM     46  F   UNL     1       1.390   8.603   2.832  1.00  0.00    -0.206 F 
ATOM     47  C   UNL     1       1.880  11.770   4.400  1.00  0.00     0.006 A 
ENDBRANCH  26  40
BRANCH  27  48
ATOM     48  C   UNL     1      -1.766   5.090   8.953  1.00  0.00     0.057 A 
ATOM     49  C   UNL     1      -2.111   5.830  10.094  1.00  0.00     0.134 A 
ATOM     50  C   UNL     1      -2.841   4.641   8.166  1.00  0.00     0.134 A 
ATOM     51  F   UNL     1      -1.159   6.341  10.889  1.00  0.00    -0.206 F 
ATOM     52  C   UNL     1      -3.442   6.127  10.418  1.00  0.00     0.040 A 
ATOM     53  C   UNL     1      -4.175   4.920   8.484  1.00  0.00     0.040 A 
ATOM     54  F   UNL     1      -2.636   3.993   7.011  1.00  0.00    -0.206 F 
ATOM     55  C   UNL     1      -4.479   5.679   9.605  1.00  0.00     0.006 A 
ENDBRANCH  27  48
BRANCH  39  56
ATOM     56  C   UNL     1       4.479   5.519   9.301  1.00  0.00     0.057 A 
ATOM     57  C   UNL     1       4.064   4.179   9.357  1.00  0.00     0.134 A 
ATOM     58  C   UNL     1       5.580   5.872  10.088  1.00  0.00     0.134 A 
ATOM     59  F   UNL     1       3.087   3.720   8.563  1.00  0.00    -0.206 F 
ATOM     60  C   UNL     1       4.682   3.252  10.201  1.00  0.00     0.040 A 
ATOM     61  C   UNL     1       6.230   4.947  10.906  1.00  0.00     0.040 A 
ATOM     62  F   UNL     1       6.070   7.122  10.042  1.00  0.00    -0.206 F 
ATOM     63  C   UNL     1       5.773   3.635  10.976  1.00  0.00     0.006 A 
ENDBRANCH  39  56
ENDBRANCH  13  14
ENDBRANCH   6   8
ENDBRANCH   5   6
ENDBRANCH   4   5
ENDBRANCH   3   4
ENDBRANCH   2   3
ENDBRANCH   1   2
BRANCH   1  64
ATOM     64  C   UNL     1       3.135  -0.439  -3.407  1.00  0.00     0.261 C 
BRANCH  64  65
ATOM     65  O   UNL     1       3.401  -1.844  -3.217  1.00  0.00    -0.460 OA
BRANCH  65  66
ATOM     66  C   UNL     1       4.670  -2.241  -3.515  1.00  0.00     0.338 C 
ATOM     67  O   UNL     1       5.538  -1.581  -4.034  1.00  0.00    -0.246 OA
BRANCH  66  68
ATOM     68  C   UNL     1       4.934  -3.533  -2.832  1.00  0.00     0.060 A 
ATOM     69  C   UNL     1       6.013  -3.569  -1.934  1.00  0.00     0.018 A 
ATOM     70  C   UNL     1       4.158  -4.673  -3.055  1.00  0.00     0.018 A 
ATOM     71  C   UNL     1       6.319  -4.738  -1.247  1.00  0.00     0.029 A 
ATOM     72  C   UNL     1       4.485  -5.864  -2.394  1.00  0.00     0.029 A 
ATOM     73  C   UNL     1       5.555  -5.880  -1.483  1.00  0.00     0.066 A 
BRANCH  73  74
ATOM     74  N   UNL     1       6.092  -7.104  -1.058  1.00  0.00    -0.220 N 
ATOM     75  C   UNL     1       7.042  -7.798  -1.758  1.00  0.00     0.141 A 
ATOM     76  N   UNL     1       5.627  -7.847  -0.044  1.00  0.00    -0.062 NA
ATOM     77  C   UNL     1       7.115  -9.034  -1.172  1.00  0.00     0.093 A 
ATOM     78  N   UNL     1       6.268  -9.014  -0.078  1.00  0.00    -0.134 NA
BRANCH  77  79
ATOM     79  C   UNL     1       7.615 -10.338  -1.681  1.00  0.00     0.138 C 
BRANCH  79  80
ATOM     80  S   UNL     1       9.281 -10.723  -2.194  1.00  0.00    -0.081 SA
BRANCH  80  81
ATOM     81  C   UNL     1      10.247  -9.369  -2.701  1.00  0.00     0.176 A 
ATOM     82  N   UNL     1      11.489  -9.510  -2.337  1.00  0.00    -0.223 NA
ATOM     83  N   UNL     1       9.825  -8.253  -3.407  1.00  0.00    -0.255 N 
ATOM     84  C   UNL     1      12.376  -8.450  -2.547  1.00  0.00     0.079 A 
ATOM     85  C   UNL     1      10.449  -7.065  -2.997  1.00  0.00     0.266 A 
ATOM     86  C   UNL     1      13.756  -8.636  -2.480  1.00  0.00     0.029 A 
ATOM     87  C   UNL     1      11.884  -7.165  -2.701  1.00  0.00     0.066 A 
ATOM     88  O   UNL     1       9.898  -5.977  -2.835  1.00  0.00    -0.268 OA
ATOM     89  C   UNL     1      14.616  -7.530  -2.491  1.00  0.00     0.002 A 
ATOM     90  C   UNL     1      12.719  -6.046  -2.650  1.00  0.00     0.016 A 
ATOM     91  C   UNL     1      14.095  -6.235  -2.534  1.00  0.00     0.001 A 
BRANCH  83  92
ATOM     92  C   UNL     1       8.789  -8.171  -4.421  1.00  0.00     0.051 A 
ATOM     93  C   UNL     1       8.585  -6.961  -5.120  1.00  0.00     0.027 A 
ATOM     94  C   UNL     1       7.913  -9.212  -4.745  1.00  0.00     0.027 A 
ATOM     95  C   UNL     1       7.445  -6.730  -5.893  1.00  0.00     0.002 A 
ATOM     96  C   UNL     1       6.734  -8.971  -5.465  1.00  0.00     0.002 A 
ATOM     97  C   UNL     1       6.483  -7.719  -6.010  1.00  0.00     0.000 A 
ENDBRANCH  83  92
ENDBRANCH  80  81
ENDBRANCH  79  80
ENDBRANCH  77  79
ENDBRANCH  73  74
ENDBRANCH  66  68
ENDBRANCH  65  66
ENDBRANCH  64  65
ENDBRANCH   1  64
TORSDOF 19
