REMARK SMILES Cc1cccc(-n2c(C)cc(/C=N\c3ccc(O)c(C(=O)OCCOCCOC(=O)c4ccc(-c5c6nc(c(-c7c(F)cccc7F)c7ccc([nH]7)c(-c7c(F)cccc7F)c7nc(c(-c8c(F)cccc8F)c8ccc5[nH]8)C=C7)C=C6)cc4)c3)c2C)c1
REMARK SMILES IDX 24 1 23 2 22 3 20 4 21 5 19 6 14 7 15 8 85 9 16 10 17 11
REMARK SMILES IDX 13 12 12 13 11 14 7 15 8 16 86 17 9 18 10 19 87 20 6 21 1 22
REMARK SMILES IDX 2 23 3 24 88 25 4 26 5 27 18 28 25 30 26 31 27 32 28 33
REMARK SMILES IDX 29 34 30 35 31 36 32 37 84 38 33 39 83 40 34 41 35 42 36 43
REMARK SMILES IDX 77 44 37 45 82 46 76 47 78 48 38 49 81 50 75 51 74 52 39 54
REMARK SMILES IDX 65 55 48 56 64 57 49 58 52 59 63 60 79 61 50 62 51 63 62 65
REMARK SMILES IDX 80 66 53 67 40 68 41 69 46 70 42 71 43 72 45 73 47 74 44 75
REMARK SMILES IDX 66 76 67 77 72 78 68 79 69 80 71 81 73 82 70 83 54 84 55 85
REMARK SMILES IDX 60 86 56 87 57 88 59 89 61 90 58 91
REMARK H PARENT 18 29 78 53 52 64
REMARK Flexibility Score: inf
ROOT
ATOM      1  C   UNL     1      -5.470   0.247   7.006  1.00  0.00     0.202 C 
ENDROOT
BRANCH   1   2
ATOM      2  C   UNL     1      -5.545  -0.715   5.878  1.00  0.00     0.261 C 
BRANCH   2   3
ATOM      3  O   UNL     1      -4.758  -0.297   4.765  1.00  0.00    -0.460 OA
BRANCH   3   4
ATOM      4  C   UNL     1      -5.336   0.732   4.106  1.00  0.00     0.342 C 
ATOM      5  O   UNL     1      -6.426   0.706   3.545  1.00  0.00    -0.246 OA
BRANCH   4   6
ATOM      6  C   UNL     1      -4.420   1.874   4.184  1.00  0.00     0.103 A 
ATOM      7  C   UNL     1      -3.898   4.021   3.270  1.00  0.00     0.064 A 
ATOM      8  C   UNL     1      -2.665   4.008   3.929  1.00  0.00     0.032 A 
ATOM      9  C   UNL     1      -4.830   3.023   3.515  1.00  0.00     0.048 A 
ATOM     10  C   UNL     1      -2.290   2.907   4.696  1.00  0.00     0.049 A 
ATOM     11  C   UNL     1      -3.134   1.810   4.755  1.00  0.00     0.130 A 
BRANCH   7  12
ATOM     12  N   UNL     1      -4.227   4.997   2.346  1.00  0.00    -0.256 NA
ATOM     13  C   UNL     1      -3.843   4.952   1.103  1.00  0.00     0.121 C 
BRANCH  13  14
ATOM     14  C   UNL     1      -2.987   4.039   0.332  1.00  0.00     0.014 A 
ATOM     15  N   UNL     1      -1.698   2.397  -0.573  1.00  0.00    -0.318 N 
ATOM     16  C   UNL     1      -1.518   3.522  -1.350  1.00  0.00     0.021 A 
ATOM     17  C   UNL     1      -2.651   2.683   0.410  1.00  0.00     0.029 A 
ATOM     18  C   UNL     1      -0.660   3.559  -2.562  1.00  0.00     0.065 C 
ATOM     19  C   UNL     1      -2.311   4.519  -0.831  1.00  0.00     0.033 A 
ATOM     20  C   UNL     1      -3.060   1.624   1.362  1.00  0.00     0.065 C 
BRANCH  15  21
ATOM     21  C   UNL     1      -0.953   1.187  -0.665  1.00  0.00     0.046 A 
ATOM     22  C   UNL     1       2.614   0.035  -0.008  1.00  0.00     0.044 C 
ATOM     23  C   UNL     1       1.140   0.026  -0.285  1.00  0.00    -0.049 A 
ATOM     24  C   UNL     1       0.458  -1.196  -0.366  1.00  0.00     0.003 A 
ATOM     25  C   UNL     1       0.428   1.224  -0.437  1.00  0.00     0.030 A 
ATOM     26  C   UNL     1      -0.910  -1.230  -0.637  1.00  0.00     0.002 A 
ATOM     27  C   UNL     1      -1.612  -0.039  -0.810  1.00  0.00     0.026 A 
ENDBRANCH  15  21
ENDBRANCH  13  14
ENDBRANCH   7  12
BRANCH  11  28
ATOM     28  O   UNL     1      -2.574   0.678   5.288  1.00  0.00    -0.507 OA
ATOM     29  H   UNL     1      -1.711   0.709   5.652  1.00  0.00     0.293 HD
ENDBRANCH  11  28
ENDBRANCH   4   6
ENDBRANCH   3   4
ENDBRANCH   2   3
ENDBRANCH   1   2
BRANCH   1  30
ATOM     30  O   UNL     1      -6.510   1.178   6.750  1.00  0.00    -0.374 OA
BRANCH  30  31
ATOM     31  C   UNL     1      -6.688   2.142   7.768  1.00  0.00     0.202 C 
BRANCH  31  32
ATOM     32  C   UNL     1      -6.855   1.517   9.164  1.00  0.00     0.261 C 
BRANCH  32  33
ATOM     33  O   UNL     1      -7.986   0.613   9.153  1.00  0.00    -0.460 OA
BRANCH  33  34
ATOM     34  C   UNL     1      -7.729  -0.722   9.283  1.00  0.00     0.338 C 
ATOM     35  O   UNL     1      -6.915  -1.218  10.045  1.00  0.00    -0.246 OA
BRANCH  34  36
ATOM     36  C   UNL     1      -8.318  -1.458   8.118  1.00  0.00     0.060 A 
ATOM     37  C   UNL     1      -7.900  -2.776   7.831  1.00  0.00     0.016 A 
ATOM     38  C   UNL     1      -8.952  -0.710   7.132  1.00  0.00     0.016 A 
ATOM     39  C   UNL     1      -7.945  -3.268   6.514  1.00  0.00     0.010 A 
ATOM     40  C   UNL     1      -8.894  -1.157   5.829  1.00  0.00     0.010 A 
ATOM     41  C   UNL     1      -8.356  -2.415   5.494  1.00  0.00    -0.014 A 
BRANCH  41  42
ATOM     42  C   UNL     1      -8.166  -2.631   4.050  1.00  0.00     0.031 A 
ATOM     43  C   UNL     1      -9.377  -2.641   3.208  1.00  0.00     0.074 A 
ATOM     44  C   UNL     1      -6.947  -2.582   3.449  1.00  0.00     0.049 A 
ATOM     45  N   UNL     1      -9.429  -3.180   2.044  1.00  0.00    -0.248 NA
ATOM     46  C   UNL     1     -10.664  -2.088   3.620  1.00  0.00     0.031 C 
ATOM     47  C   UNL     1      -6.602  -2.336   2.046  1.00  0.00     0.029 A 
ATOM     48  N   UNL     1      -5.681  -2.712   4.023  1.00  0.00    -0.354 N 
ATOM     49  C   UNL     1     -10.572  -2.722   1.430  1.00  0.00     0.074 A 
ATOM     50  C   UNL     1     -11.375  -2.196   2.498  1.00  0.00     0.031 C 
ATOM     51  C   UNL     1      -5.310  -2.658   1.828  1.00  0.00     0.029 A 
ATOM     52  C   UNL     1      -4.776  -3.184   3.071  1.00  0.00     0.049 A 
ATOM     53  H   UNL     1      -5.460  -2.502   4.959  1.00  0.00     0.167 HD
ATOM     54  C   UNL     1     -10.604  -2.693   0.067  1.00  0.00     0.037 A 
ATOM     55  C   UNL     1      -4.065  -4.312   3.313  1.00  0.00     0.037 A 
ATOM     56  C   UNL     1      -9.316  -3.181  -0.471  1.00  0.00     0.049 A 
ATOM     57  C   UNL     1      -4.582  -5.318   2.334  1.00  0.00     0.074 A 
ATOM     58  C   UNL     1      -8.235  -2.544  -1.060  1.00  0.00     0.029 A 
ATOM     59  N   UNL     1      -8.853  -4.449  -0.105  1.00  0.00    -0.354 N 
ATOM     60  N   UNL     1      -5.787  -5.232   1.827  1.00  0.00    -0.248 NA
ATOM     61  C   UNL     1      -3.758  -6.324   1.679  1.00  0.00     0.031 C 
ATOM     62  C   UNL     1      -7.118  -3.432  -1.018  1.00  0.00     0.029 A 
ATOM     63  C   UNL     1      -7.512  -4.612  -0.401  1.00  0.00     0.049 A 
ATOM     64  H   UNL     1      -9.415  -5.142   0.312  1.00  0.00     0.167 HD
ATOM     65  C   UNL     1      -5.840  -5.984   0.696  1.00  0.00     0.074 A 
ATOM     66  C   UNL     1      -4.575  -6.705   0.680  1.00  0.00     0.031 C 
ATOM     67  C   UNL     1      -6.857  -5.906  -0.210  1.00  0.00     0.037 A 
BRANCH  54  68
ATOM     68  C   UNL     1     -11.661  -1.985  -0.771  1.00  0.00     0.057 A 
ATOM     69  C   UNL     1     -11.434  -1.727  -2.138  1.00  0.00     0.134 A 
ATOM     70  C   UNL     1     -12.920  -1.531  -0.322  1.00  0.00     0.134 A 
ATOM     71  F   UNL     1     -10.327  -2.153  -2.760  1.00  0.00    -0.206 F 
ATOM     72  C   UNL     1     -12.341  -1.033  -2.956  1.00  0.00     0.040 A 
ATOM     73  C   UNL     1     -13.819  -0.802  -1.117  1.00  0.00     0.040 A 
ATOM     74  F   UNL     1     -13.402  -1.819   0.887  1.00  0.00    -0.206 F 
ATOM     75  C   UNL     1     -13.533  -0.550  -2.444  1.00  0.00     0.006 A 
ENDBRANCH  54  68
BRANCH  55  76
ATOM     76  C   UNL     1      -3.669  -4.406   4.756  1.00  0.00     0.057 A 
ATOM     77  C   UNL     1      -2.676  -3.493   5.190  1.00  0.00     0.134 A 
ATOM     78  C   UNL     1      -4.524  -4.896   5.751  1.00  0.00     0.134 A 
ATOM     79  F   UNL     1      -1.828  -2.955   4.297  1.00  0.00    -0.206 F 
ATOM     80  C   UNL     1      -2.627  -2.988   6.498  1.00  0.00     0.040 A 
ATOM     81  C   UNL     1      -4.483  -4.395   7.068  1.00  0.00     0.040 A 
ATOM     82  F   UNL     1      -5.515  -5.743   5.439  1.00  0.00    -0.206 F 
ATOM     83  C   UNL     1      -3.562  -3.412   7.434  1.00  0.00     0.006 A 
ENDBRANCH  55  76
BRANCH  67  84
ATOM     84  C   UNL     1      -7.288  -7.075  -1.051  1.00  0.00     0.057 A 
ATOM     85  C   UNL     1      -6.922  -8.401  -0.779  1.00  0.00     0.134 A 
ATOM     86  C   UNL     1      -8.276  -6.918  -2.049  1.00  0.00     0.134 A 
ATOM     87  F   UNL     1      -6.093  -8.723   0.223  1.00  0.00    -0.206 F 
ATOM     88  C   UNL     1      -7.444  -9.483  -1.489  1.00  0.00     0.040 A 
ATOM     89  C   UNL     1      -8.864  -7.997  -2.704  1.00  0.00     0.040 A 
ATOM     90  F   UNL     1      -8.752  -5.718  -2.409  1.00  0.00    -0.206 F 
ATOM     91  C   UNL     1      -8.433  -9.286  -2.441  1.00  0.00     0.006 A 
ENDBRANCH  67  84
ENDBRANCH  41  42
ENDBRANCH  34  36
ENDBRANCH  33  34
ENDBRANCH  32  33
ENDBRANCH  31  32
ENDBRANCH  30  31
ENDBRANCH   1  30
TORSDOF 18
