REMARK SMILES COc1cccc(-c2nn(-c3cc4c(cc3C(N)=O)OCO4)cc2C(=O)OCCOCCOC(=O)c2ccc(-c3c4nc(c(-c5c(F)cccc5F)c5ccc([nH]5)c(-c5c(F)cccc5F)c5nc(c(-c6c(F)cccc6F)c6ccc3[nH]6)C=C5)C=C4)cc2)c1
REMARK SMILES IDX 30 1 29 2 28 3 27 4 25 5 26 6 24 7 8 8 9 9 10 10 23 11 7 12
REMARK SMILES IDX 3 13 4 14 90 15 5 16 6 17 2 18 1 19 11 20 12 21 16 22 13 23
REMARK SMILES IDX 15 24 14 25 22 26 20 27 21 28 17 29 18 30 19 31 31 34 32 35
REMARK SMILES IDX 33 36 34 37 35 38 36 39 37 40 89 41 38 42 88 43 39 44 40 45
REMARK SMILES IDX 41 46 82 47 42 48 87 49 81 50 83 51 43 52 86 53 80 54 79 55
REMARK SMILES IDX 44 57 70 58 53 59 69 60 54 61 57 62 68 63 84 64 55 65 56 66
REMARK SMILES IDX 67 68 85 69 58 70 45 71 46 72 51 73 47 74 48 75 50 76 52 77
REMARK SMILES IDX 49 78 71 79 72 80 77 81 73 82 74 83 76 84 78 85 75 86 59 87
REMARK SMILES IDX 60 88 65 89 61 90 62 91 64 92 66 93 63 94
REMARK H PARENT 18 32 18 33 83 56 57 67
REMARK Flexibility Score: inf
ROOT
ATOM      1  O   UNL     1       0.926  -5.323  -5.594  1.00  0.00    -0.374 OA
ENDROOT
BRANCH   1   2
ATOM      2  C   UNL     1       1.974  -5.078  -6.531  1.00  0.00     0.202 C 
BRANCH   2   3
ATOM      3  C   UNL     1       3.020  -4.002  -6.227  1.00  0.00     0.261 C 
BRANCH   3   4
ATOM      4  O   UNL     1       3.838  -4.333  -5.096  1.00  0.00    -0.460 OA
BRANCH   4   5
ATOM      5  C   UNL     1       3.619  -3.586  -3.978  1.00  0.00     0.342 C 
ATOM      6  O   UNL     1       2.836  -2.632  -3.916  1.00  0.00    -0.246 OA
BRANCH   5   7
ATOM      7  C   UNL     1       4.316  -4.094  -2.825  1.00  0.00     0.106 A 
ATOM      8  C   UNL     1       3.918  -4.113  -1.458  1.00  0.00     0.107 A 
ATOM      9  N   UNL     1       4.926  -4.540  -0.670  1.00  0.00    -0.167 NA
ATOM     10  N   UNL     1       5.987  -4.566  -1.520  1.00  0.00    -0.239 N 
ATOM     11  C   UNL     1       5.563  -4.684  -2.821  1.00  0.00     0.131 A 
BRANCH   8  12
ATOM     12  C   UNL     1       2.582  -3.817  -0.946  1.00  0.00     0.007 A 
ATOM     13  C   UNL     1       0.925  -2.248  -0.135  1.00  0.00     0.119 A 
ATOM     14  C   UNL     1      -0.058  -3.237  -0.233  1.00  0.00     0.046 A 
ATOM     15  C   UNL     1       2.245  -2.534  -0.499  1.00  0.00     0.056 A 
ATOM     16  C   UNL     1       0.272  -4.517  -0.668  1.00  0.00     0.005 A 
ATOM     17  C   UNL     1       1.594  -4.811  -0.994  1.00  0.00     0.011 A 
BRANCH  13  18
ATOM     18  O   UNL     1       0.490  -1.062   0.391  1.00  0.00    -0.497 OA
ATOM     19  C   UNL     1       1.096   0.107  -0.144  1.00  0.00     0.278 C 
ENDBRANCH  13  18
ENDBRANCH   8  12
BRANCH  10  20
ATOM     20  C   UNL     1       7.334  -4.540  -1.078  1.00  0.00     0.081 A 
ATOM     21  C   UNL     1       7.647  -5.185   0.135  1.00  0.00     0.079 A 
ATOM     22  C   UNL     1       8.355  -3.890  -1.842  1.00  0.00     0.069 A 
ATOM     23  C   UNL     1       8.975  -5.231   0.505  1.00  0.00     0.167 A 
ATOM     24  C   UNL     1       9.699  -4.095  -1.492  1.00  0.00     0.066 A 
ATOM     25  C   UNL     1       9.968  -4.735  -0.306  1.00  0.00     0.166 A 
ATOM     26  O   UNL     1       9.481  -5.727   1.668  1.00  0.00    -0.454 OA
ATOM     27  O   UNL     1      11.207  -4.866   0.241  1.00  0.00    -0.454 OA
ATOM     28  C   UNL     1      10.842  -5.250   1.581  1.00  0.00     0.468 C 
BRANCH  22  29
ATOM     29  C   UNL     1       8.047  -2.787  -2.829  1.00  0.00     0.251 C 
ATOM     30  N   UNL     1       9.073  -2.011  -3.293  1.00  0.00    -0.366 N 
ATOM     31  O   UNL     1       6.920  -2.469  -3.177  1.00  0.00    -0.269 OA
ATOM     32  H   UNL     1      10.002  -2.221  -3.044  1.00  0.00     0.159 HD
ATOM     33  H   UNL     1       8.883  -1.241  -3.877  1.00  0.00     0.159 HD
ENDBRANCH  22  29
ENDBRANCH  10  20
ENDBRANCH   5   7
ENDBRANCH   4   5
ENDBRANCH   3   4
ENDBRANCH   2   3
ENDBRANCH   1   2
BRANCH   1  34
ATOM     34  C   UNL     1       1.221  -5.749  -4.272  1.00  0.00     0.202 C 
BRANCH  34  35
ATOM     35  C   UNL     1       1.809  -7.133  -4.037  1.00  0.00     0.261 C 
BRANCH  35  36
ATOM     36  O   UNL     1       2.842  -7.456  -4.945  1.00  0.00    -0.460 OA
BRANCH  36  37
ATOM     37  C   UNL     1       2.400  -8.148  -6.016  1.00  0.00     0.338 C 
ATOM     38  O   UNL     1       1.244  -8.269  -6.402  1.00  0.00    -0.246 OA
BRANCH  37  39
ATOM     39  C   UNL     1       3.517  -8.917  -6.555  1.00  0.00     0.060 A 
ATOM     40  C   UNL     1       3.234  -9.716  -7.663  1.00  0.00     0.016 A 
ATOM     41  C   UNL     1       4.638  -9.130  -5.742  1.00  0.00     0.016 A 
ATOM     42  C   UNL     1       3.898 -10.914  -7.768  1.00  0.00     0.010 A 
ATOM     43  C   UNL     1       5.300 -10.322  -5.853  1.00  0.00     0.010 A 
ATOM     44  C   UNL     1       4.835 -11.248  -6.781  1.00  0.00    -0.014 A 
BRANCH  44  45
ATOM     45  C   UNL     1       5.497 -12.531  -6.843  1.00  0.00     0.031 A 
ATOM     46  C   UNL     1       6.493 -12.511  -7.936  1.00  0.00     0.074 A 
ATOM     47  C   UNL     1       5.282 -13.516  -5.945  1.00  0.00     0.049 A 
ATOM     48  N   UNL     1       6.358 -13.034  -9.109  1.00  0.00    -0.248 NA
ATOM     49  C   UNL     1       7.608 -11.549  -7.841  1.00  0.00     0.031 C 
ATOM     50  C   UNL     1       4.465 -13.488  -4.727  1.00  0.00     0.029 A 
ATOM     51  N   UNL     1       5.831 -14.767  -5.905  1.00  0.00    -0.354 N 
ATOM     52  C   UNL     1       7.527 -12.700  -9.780  1.00  0.00     0.074 A 
ATOM     53  C   UNL     1       8.078 -11.572  -9.089  1.00  0.00     0.031 C 
ATOM     54  C   UNL     1       4.761 -14.562  -3.954  1.00  0.00     0.029 A 
ATOM     55  C   UNL     1       5.676 -15.425  -4.676  1.00  0.00     0.049 A 
ATOM     56  H   UNL     1       6.295 -15.171  -6.674  1.00  0.00     0.167 HD
ATOM     57  C   UNL     1       8.131 -13.623 -10.576  1.00  0.00     0.037 A 
ATOM     58  C   UNL     1       6.318 -16.572  -4.312  1.00  0.00     0.037 A 
ATOM     59  C   UNL     1       7.193 -14.664 -10.932  1.00  0.00     0.049 A 
ATOM     60  C   UNL     1       6.786 -17.217  -5.569  1.00  0.00     0.074 A 
ATOM     61  C   UNL     1       5.989 -14.707 -11.606  1.00  0.00     0.029 A 
ATOM     62  N   UNL     1       7.256 -15.815 -10.186  1.00  0.00    -0.354 N 
ATOM     63  N   UNL     1       5.973 -17.703  -6.465  1.00  0.00    -0.248 NA
ATOM     64  C   UNL     1       8.100 -16.822  -6.053  1.00  0.00     0.031 C 
ATOM     65  C   UNL     1       5.199 -15.662 -10.899  1.00  0.00     0.029 A 
ATOM     66  C   UNL     1       5.985 -16.231  -9.897  1.00  0.00     0.049 A 
ATOM     67  H   UNL     1       8.083 -16.268  -9.905  1.00  0.00     0.167 HD
ATOM     68  C   UNL     1       6.482 -17.249  -7.674  1.00  0.00     0.074 A 
ATOM     69  C   UNL     1       7.819 -16.742  -7.356  1.00  0.00     0.031 C 
ATOM     70  C   UNL     1       5.660 -17.040  -8.744  1.00  0.00     0.037 A 
BRANCH  57  71
ATOM     71  C   UNL     1       9.629 -13.849 -10.596  1.00  0.00     0.057 A 
ATOM     72  C   UNL     1      10.143 -14.809 -11.485  1.00  0.00     0.134 A 
ATOM     73  C   UNL     1      10.541 -13.412  -9.608  1.00  0.00     0.134 A 
ATOM     74  F   UNL     1       9.380 -15.314 -12.466  1.00  0.00    -0.206 F 
ATOM     75  C   UNL     1      11.424 -15.355 -11.344  1.00  0.00     0.040 A 
ATOM     76  C   UNL     1      11.838 -13.915  -9.490  1.00  0.00     0.040 A 
ATOM     77  F   UNL     1      10.220 -12.549  -8.640  1.00  0.00    -0.206 F 
ATOM     78  C   UNL     1      12.273 -14.915 -10.338  1.00  0.00     0.006 A 
ENDBRANCH  57  71
BRANCH  58  79
ATOM     79  C   UNL     1       6.896 -16.958  -2.997  1.00  0.00     0.057 A 
ATOM     80  C   UNL     1       7.324 -18.273  -2.739  1.00  0.00     0.134 A 
ATOM     81  C   UNL     1       7.337 -15.985  -2.085  1.00  0.00     0.134 A 
ATOM     82  F   UNL     1       7.006 -19.270  -3.578  1.00  0.00    -0.206 F 
ATOM     83  C   UNL     1       8.156 -18.594  -1.653  1.00  0.00     0.040 A 
ATOM     84  C   UNL     1       8.167 -16.292  -0.999  1.00  0.00     0.040 A 
ATOM     85  F   UNL     1       7.058 -14.688  -2.276  1.00  0.00    -0.206 F 
ATOM     86  C   UNL     1       8.591 -17.598  -0.786  1.00  0.00     0.006 A 
ENDBRANCH  58  79
BRANCH  70  87
ATOM     87  C   UNL     1       4.246 -17.550  -8.653  1.00  0.00     0.057 A 
ATOM     88  C   UNL     1       3.272 -17.065  -7.765  1.00  0.00     0.134 A 
ATOM     89  C   UNL     1       3.820 -18.472  -9.614  1.00  0.00     0.134 A 
ATOM     90  F   UNL     1       3.564 -16.116  -6.866  1.00  0.00    -0.206 F 
ATOM     91  C   UNL     1       1.943 -17.506  -7.816  1.00  0.00     0.040 A 
ATOM     92  C   UNL     1       2.493 -18.895  -9.697  1.00  0.00     0.040 A 
ATOM     93  F   UNL     1       4.685 -18.939 -10.528  1.00  0.00    -0.206 F 
ATOM     94  C   UNL     1       1.550 -18.420  -8.790  1.00  0.00     0.006 A 
ENDBRANCH  70  87
ENDBRANCH  44  45
ENDBRANCH  37  39
ENDBRANCH  36  37
ENDBRANCH  35  36
ENDBRANCH  34  35
ENDBRANCH   1  34
TORSDOF 18
