REMARK SMILES C[C@@H](C(=O)OCCOCCOC(=O)c1ccc(-c2c3nc(c(-c4c(F)cccc4F)c4ccc([nH]4)c(-c4c(F)cccc4F)c4nc(c(-c5c(F)cccc5F)c5ccc2[nH]5)C=C4)C=C3)cc1)c1ccc(-c2ccccc2)c(F)c1
REMARK SMILES IDX 8 1 7 2 6 3 5 4 3 5 4 6 2 7 1 8 68 9 69 10 80 11 70 12 78 13
REMARK SMILES IDX 71 14 79 15 72 16 73 17 77 18 74 19 76 20 75 21 9 22 10 23
REMARK SMILES IDX 11 24 12 25 13 26 14 27 15 28 67 29 16 30 66 31 17 32 18 33
REMARK SMILES IDX 19 34 60 35 20 36 65 37 59 38 61 39 21 40 64 41 58 42 57 43
REMARK SMILES IDX 22 45 48 46 31 47 47 48 32 49 35 50 46 51 62 52 33 53 34 54
REMARK SMILES IDX 45 56 63 57 36 58 23 59 24 60 29 61 25 62 26 63 28 64 30 65
REMARK SMILES IDX 27 66 49 67 50 68 55 69 51 70 52 71 54 72 56 73 53 74 37 75
REMARK SMILES IDX 38 76 43 77 39 78 40 79 42 80 44 81 41 82
REMARK H PARENT 61 44 35 55
REMARK Flexibility Score: inf
ROOT
ATOM      1  O   UNL     1       0.735   4.702  -0.469  1.00  0.00    -0.374 OA
ENDROOT
BRANCH   1   2
ATOM      2  C   UNL     1       2.007   4.704   0.182  1.00  0.00     0.202 C 
BRANCH   2   3
ATOM      3  C   UNL     1       2.074   3.947   1.512  1.00  0.00     0.261 C 
BRANCH   3   4
ATOM      4  O   UNL     1       1.808   2.551   1.302  1.00  0.00    -0.463 OA
BRANCH   4   5
ATOM      5  C   UNL     1       1.066   1.944   2.267  1.00  0.00     0.313 C 
ATOM      6  O   UNL     1       0.841   2.432   3.369  1.00  0.00    -0.252 OA
BRANCH   5   7
ATOM      7  C   UNL     1       0.442   0.632   1.785  1.00  0.00     0.126 C 
ATOM      8  C   UNL     1       1.127   0.028   0.552  1.00  0.00     0.025 C 
BRANCH   7   9
ATOM      9  C   UNL     1      -1.074   0.709   1.597  1.00  0.00    -0.031 A 
ATOM     10  C   UNL     1      -1.773   1.922   1.493  1.00  0.00     0.005 A 
ATOM     11  C   UNL     1      -1.821  -0.477   1.546  1.00  0.00     0.044 A 
ATOM     12  C   UNL     1      -3.172   1.947   1.388  1.00  0.00     0.012 A 
ATOM     13  C   UNL     1      -3.215  -0.443   1.444  1.00  0.00     0.131 A 
ATOM     14  C   UNL     1      -3.924   0.763   1.383  1.00  0.00     0.017 A 
ATOM     15  F   UNL     1      -3.869  -1.615   1.421  1.00  0.00    -0.206 F 
BRANCH  14  16
ATOM     16  C   UNL     1      -5.397   0.806   1.379  1.00  0.00    -0.015 A 
ATOM     17  C   UNL     1      -6.110   1.530   0.408  1.00  0.00     0.009 A 
ATOM     18  C   UNL     1      -6.133   0.157   2.386  1.00  0.00     0.009 A 
ATOM     19  C   UNL     1      -7.506   1.605   0.447  1.00  0.00     0.001 A 
ATOM     20  C   UNL     1      -7.528   0.234   2.428  1.00  0.00     0.001 A 
ATOM     21  C   UNL     1      -8.214   0.960   1.459  1.00  0.00     0.000 A 
ENDBRANCH  14  16
ENDBRANCH   7   9
ENDBRANCH   5   7
ENDBRANCH   4   5
ENDBRANCH   3   4
ENDBRANCH   2   3
ENDBRANCH   1   2
BRANCH   1  22
ATOM     22  C   UNL     1       0.328   3.495  -1.117  1.00  0.00     0.202 C 
BRANCH  22  23
ATOM     23  C   UNL     1       1.004   3.169  -2.454  1.00  0.00     0.261 C 
BRANCH  23  24
ATOM     24  O   UNL     1       2.412   2.905  -2.307  1.00  0.00    -0.460 OA
BRANCH  24  25
ATOM     25  C   UNL     1       3.222   3.789  -2.933  1.00  0.00     0.338 C 
ATOM     26  O   UNL     1       2.887   4.714  -3.665  1.00  0.00    -0.246 OA
BRANCH  25  27
ATOM     27  C   UNL     1       4.615   3.616  -2.489  1.00  0.00     0.060 A 
ATOM     28  C   UNL     1       5.273   4.743  -1.980  1.00  0.00     0.016 A 
ATOM     29  C   UNL     1       5.299   2.409  -2.653  1.00  0.00     0.016 A 
ATOM     30  C   UNL     1       6.632   4.683  -1.680  1.00  0.00     0.010 A 
ATOM     31  C   UNL     1       6.667   2.353  -2.361  1.00  0.00     0.010 A 
ATOM     32  C   UNL     1       7.346   3.499  -1.909  1.00  0.00    -0.014 A 
BRANCH  32  33
ATOM     33  C   UNL     1       8.826   3.518  -1.819  1.00  0.00     0.031 A 
ATOM     34  C   UNL     1       9.632   3.678  -3.080  1.00  0.00     0.074 A 
ATOM     35  C   UNL     1       9.446   3.438  -0.629  1.00  0.00     0.049 A 
ATOM     36  N   UNL     1      10.930   3.714  -3.237  1.00  0.00    -0.248 NA
ATOM     37  C   UNL     1       8.870   3.819  -4.332  1.00  0.00     0.031 C 
ATOM     38  C   UNL     1       8.777   3.322   0.665  1.00  0.00     0.029 A 
ATOM     39  N   UNL     1      10.783   3.442  -0.320  1.00  0.00    -0.354 N 
ATOM     40  C   UNL     1      11.141   3.877  -4.600  1.00  0.00     0.074 A 
ATOM     41  C   UNL     1       9.839   3.906  -5.231  1.00  0.00     0.031 C 
ATOM     42  C   UNL     1       9.709   3.258   1.632  1.00  0.00     0.029 A 
ATOM     43  C   UNL     1      11.037   3.302   1.022  1.00  0.00     0.049 A 
ATOM     44  H   UNL     1      11.492   3.536  -0.996  1.00  0.00     0.167 HD
ATOM     45  C   UNL     1      12.314   4.001  -5.266  1.00  0.00     0.037 A 
ATOM     46  C   UNL     1      12.209   3.203   1.679  1.00  0.00     0.037 A 
ATOM     47  C   UNL     1      13.609   3.977  -4.640  1.00  0.00     0.049 A 
ATOM     48  C   UNL     1      13.499   3.276   0.908  1.00  0.00     0.074 A 
ATOM     49  C   UNL     1      14.854   4.115  -5.229  1.00  0.00     0.029 A 
ATOM     50  N   UNL     1      13.826   3.797  -3.283  1.00  0.00    -0.354 N 
ATOM     51  N   UNL     1      13.687   3.456  -0.378  1.00  0.00    -0.248 NA
ATOM     52  C   UNL     1      14.743   3.134   1.680  1.00  0.00     0.031 C 
ATOM     53  C   UNL     1      15.827   3.976  -4.233  1.00  0.00     0.029 A 
ATOM     54  C   UNL     1      15.185   3.796  -3.018  1.00  0.00     0.049 A 
ATOM     55  H   UNL     1      13.118   3.687  -2.608  1.00  0.00     0.167 HD
ATOM     56  C   UNL     1      15.064   3.475  -0.563  1.00  0.00     0.074 A 
ATOM     57  C   UNL     1      15.665   3.299   0.742  1.00  0.00     0.031 C 
ATOM     58  C   UNL     1      15.767   3.627  -1.712  1.00  0.00     0.037 A 
BRANCH  45  59
ATOM     59  C   UNL     1      12.248   4.154  -6.756  1.00  0.00     0.057 A 
ATOM     60  C   UNL     1      11.829   5.346  -7.360  1.00  0.00     0.134 A 
ATOM     61  C   UNL     1      12.643   3.106  -7.598  1.00  0.00     0.134 A 
ATOM     62  F   UNL     1      11.424   6.382  -6.610  1.00  0.00    -0.206 F 
ATOM     63  C   UNL     1      11.786   5.484  -8.748  1.00  0.00     0.040 A 
ATOM     64  C   UNL     1      12.626   3.239  -8.986  1.00  0.00     0.040 A 
ATOM     65  F   UNL     1      13.058   1.938  -7.082  1.00  0.00    -0.206 F 
ATOM     66  C   UNL     1      12.192   4.430  -9.566  1.00  0.00     0.006 A 
ENDBRANCH  45  59
BRANCH  46  67
ATOM     67  C   UNL     1      12.222   3.012   3.151  1.00  0.00     0.057 A 
ATOM     68  C   UNL     1      12.670   4.021   4.010  1.00  0.00     0.134 A 
ATOM     69  C   UNL     1      11.811   1.806   3.730  1.00  0.00     0.134 A 
ATOM     70  F   UNL     1      13.100   5.190   3.512  1.00  0.00    -0.206 F 
ATOM     71  C   UNL     1      12.725   3.833   5.392  1.00  0.00     0.040 A 
ATOM     72  C   UNL     1      11.839   1.611   5.112  1.00  0.00     0.040 A 
ATOM     73  F   UNL     1      11.372   0.799   2.960  1.00  0.00    -0.206 F 
ATOM     74  C   UNL     1      12.304   2.625   5.947  1.00  0.00     0.006 A 
ENDBRANCH  46  67
BRANCH  58  75
ATOM     75  C   UNL     1      17.264   3.644  -1.605  1.00  0.00     0.057 A 
ATOM     76  C   UNL     1      18.000   2.478  -1.365  1.00  0.00     0.134 A 
ATOM     77  C   UNL     1      17.977   4.836  -1.788  1.00  0.00     0.134 A 
ATOM     78  F   UNL     1      17.376   1.308  -1.169  1.00  0.00    -0.206 F 
ATOM     79  C   UNL     1      19.394   2.500  -1.290  1.00  0.00     0.040 A 
ATOM     80  C   UNL     1      19.372   4.866  -1.739  1.00  0.00     0.040 A 
ATOM     81  F   UNL     1      17.331   5.987  -2.030  1.00  0.00    -0.206 F 
ATOM     82  C   UNL     1      20.084   3.696  -1.484  1.00  0.00     0.006 A 
ENDBRANCH  58  75
ENDBRANCH  32  33
ENDBRANCH  25  27
ENDBRANCH  24  25
ENDBRANCH  23  24
ENDBRANCH  22  23
ENDBRANCH   1  22
TORSDOF 16
