REMARK SMILES O=C(N[C@@H](Cc1ccc(O)cc1)C(=O)N[C@@H](Cc1c[nH]c2ccccc12)C(=O)N[C@@H](CO)C(=O)OCCOCCOC(=O)c1ccc(-c2c3nc(c(-c4c(F)cccc4F)c4ccc([nH]4)c(-c4c(F)cccc4F)c4nc(c(-c5c(F)cccc5F)c5ccc2[nH]5)C=C4)C=C3)cc1)c1ccc(F)cc1
REMARK SMILES IDX 36 1 35 2 33 3 34 4 30 5 29 6 27 7 28 8 16 10 15 11 13 12
REMARK SMILES IDX 14 13 4 15 3 16 1 17 2 18 98 20 99 21 104 22 100 23 103 24
REMARK SMILES IDX 101 25 102 26 5 27 6 28 7 29 12 30 8 31 11 32 9 33 10 34
REMARK SMILES IDX 17 36 18 37 19 38 26 39 20 40 21 41 25 42 22 44 24 45 23 46
REMARK SMILES IDX 31 47 32 48 37 50 38 51 39 52 40 53 41 54 42 55 43 56 44 57
REMARK SMILES IDX 45 58 97 59 46 60 96 61 47 62 48 63 49 64 90 65 50 66 95 67
REMARK SMILES IDX 89 68 91 69 51 70 94 71 88 72 87 73 52 75 78 76 61 77 77 78
REMARK SMILES IDX 62 79 65 80 76 81 92 82 63 83 64 84 75 86 93 87 66 88 53 89
REMARK SMILES IDX 54 90 59 91 55 92 56 93 58 94 60 95 57 96 79 97 80 98 85 99
REMARK SMILES IDX 81 100 82 101 84 102 86 103 83 104 67 105 68 106 73 107
REMARK SMILES IDX 69 108 70 109 72 110 74 111 71 112
REMARK H PARENT 29 9 15 14 3 19 10 35 20 43 32 49 91 74 65 85
REMARK Flexibility Score: inf
ROOT
ATOM      1  C   UNL     1       3.740   0.234  10.606  1.00  0.00     0.261 C 
ENDROOT
BRANCH   1   2
ATOM      2  O   UNL     1       4.399   0.481   9.339  1.00  0.00    -0.462 OA
BRANCH   2   3
ATOM      3  C   UNL     1       5.184  -0.552   8.894  1.00  0.00     0.331 C 
ATOM      4  O   UNL     1       5.429  -1.544   9.574  1.00  0.00    -0.250 OA
BRANCH   3   5
ATOM      5  C   UNL     1       5.636  -0.415   7.413  1.00  0.00     0.218 C 
BRANCH   5   6
ATOM      6  N   UNL     1       5.209   0.812   6.718  1.00  0.00    -0.339 N 
ATOM      7  C   UNL     1       5.083   0.993   5.378  1.00  0.00     0.243 C 
ATOM      8  O   UNL     1       5.819   1.888   4.934  1.00  0.00    -0.273 OA
ATOM      9  H   UNL     1       4.991   1.585   7.288  1.00  0.00     0.164 HD
BRANCH   7  10
ATOM     10  C   UNL     1       4.230   0.132   4.369  1.00  0.00     0.175 C 
BRANCH  10  11
ATOM     11  N   UNL     1       5.087  -0.621   3.469  1.00  0.00    -0.342 N 
ATOM     12  C   UNL     1       5.374  -0.359   2.159  1.00  0.00     0.243 C 
ATOM     13  O   UNL     1       6.284  -1.030   1.657  1.00  0.00    -0.273 OA
ATOM     14  H   UNL     1       5.516  -1.421   3.852  1.00  0.00     0.164 HD
BRANCH  12  15
ATOM     15  C   UNL     1       4.577   0.657   1.270  1.00  0.00     0.176 C 
BRANCH  15  16
ATOM     16  N   UNL     1       3.162   0.294   1.141  1.00  0.00    -0.340 N 
ATOM     17  O   UNL     1       1.248  -0.242   0.095  1.00  0.00    -0.269 OA
ATOM     18  C   UNL     1       2.473  -0.173   0.051  1.00  0.00     0.251 C 
ATOM     19  H   UNL     1       2.627   0.401   1.960  1.00  0.00     0.164 HD
BRANCH  18  20
ATOM     20  C   UNL     1       3.185  -0.578  -1.179  1.00  0.00     0.040 A 
ATOM     21  C   UNL     1       4.212  -1.529  -1.131  1.00  0.00     0.017 A 
ATOM     22  C   UNL     1       2.780  -0.037  -2.405  1.00  0.00     0.017 A 
ATOM     23  C   UNL     1       4.880  -1.887  -2.303  1.00  0.00     0.040 A 
ATOM     24  C   UNL     1       3.444  -0.407  -3.577  1.00  0.00     0.040 A 
ATOM     25  C   UNL     1       4.494  -1.319  -3.513  1.00  0.00     0.123 A 
ATOM     26  F   UNL     1       5.139  -1.661  -4.635  1.00  0.00    -0.207 F 
ENDBRANCH  18  20
ENDBRANCH  15  16
BRANCH  15  27
ATOM     27  C   UNL     1       4.859   2.182   1.385  1.00  0.00     0.070 C 
BRANCH  27  28
ATOM     28  C   UNL     1       4.268   3.098   2.441  1.00  0.00    -0.045 A 
ATOM     29  C   UNL     1       5.074   4.144   2.927  1.00  0.00     0.007 A 
ATOM     30  C   UNL     1       2.969   2.994   2.956  1.00  0.00     0.007 A 
ATOM     31  C   UNL     1       4.678   4.921   4.019  1.00  0.00     0.046 A 
ATOM     32  C   UNL     1       2.588   3.731   4.084  1.00  0.00     0.046 A 
ATOM     33  C   UNL     1       3.462   4.659   4.630  1.00  0.00     0.115 A 
BRANCH  33  34
ATOM     34  O   UNL     1       3.093   5.290   5.780  1.00  0.00    -0.508 OA
ATOM     35  H   UNL     1       3.663   5.922   6.171  1.00  0.00     0.293 HD
ENDBRANCH  33  34
ENDBRANCH  27  28
ENDBRANCH  15  27
ENDBRANCH  12  15
ENDBRANCH  10  11
BRANCH  10  36
ATOM     36  C   UNL     1       2.844  -0.515   4.590  1.00  0.00     0.072 C 
BRANCH  36  37
ATOM     37  C   UNL     1       2.686  -1.468   5.712  1.00  0.00    -0.020 A 
ATOM     38  C   UNL     1       2.709  -1.034   7.003  1.00  0.00     0.087 A 
ATOM     39  C   UNL     1       2.403  -2.864   5.794  1.00  0.00     0.003 A 
ATOM     40  N   UNL     1       2.575  -2.058   7.869  1.00  0.00    -0.361 N 
ATOM     41  C   UNL     1       2.441  -3.212   7.152  1.00  0.00     0.046 A 
ATOM     42  C   UNL     1       2.127  -3.882   4.867  1.00  0.00     0.010 A 
ATOM     43  H   UNL     1       2.573  -1.987   8.851  1.00  0.00     0.166 HD
ATOM     44  C   UNL     1       2.336  -4.518   7.625  1.00  0.00     0.026 A 
ATOM     45  C   UNL     1       1.969  -5.198   5.330  1.00  0.00     0.001 A 
ATOM     46  C   UNL     1       2.101  -5.512   6.682  1.00  0.00     0.002 A 
ENDBRANCH  36  37
ENDBRANCH  10  36
ENDBRANCH   7  10
ENDBRANCH   5   6
BRANCH   5  47
ATOM     47  C   UNL     1       7.164  -0.555   7.375  1.00  0.00     0.193 C 
BRANCH  47  48
ATOM     48  O   UNL     1       7.790   0.530   8.059  1.00  0.00    -0.394 OA
ATOM     49  H   UNL     1       7.550   1.365   7.628  1.00  0.00     0.210 HD
ENDBRANCH  47  48
ENDBRANCH   5  47
ENDBRANCH   3   5
ENDBRANCH   2   3
ENDBRANCH   1   2
BRANCH   1  50
ATOM     50  C   UNL     1       2.521   1.140  10.889  1.00  0.00     0.202 C 
BRANCH  50  51
ATOM     51  O   UNL     1       1.375   1.088  10.033  1.00  0.00    -0.374 OA
BRANCH  51  52
ATOM     52  C   UNL     1       1.577   1.489   8.686  1.00  0.00     0.202 C 
BRANCH  52  53
ATOM     53  C   UNL     1       1.528   2.954   8.268  1.00  0.00     0.261 C 
BRANCH  53  54
ATOM     54  O   UNL     1       2.519   3.696   8.981  1.00  0.00    -0.460 OA
BRANCH  54  55
ATOM     55  C   UNL     1       2.006   4.404  10.005  1.00  0.00     0.338 C 
ATOM     56  O   UNL     1       0.826   4.609  10.255  1.00  0.00    -0.246 OA
BRANCH  55  57
ATOM     57  C   UNL     1       3.080   4.709  10.954  1.00  0.00     0.060 A 
ATOM     58  C   UNL     1       2.839   4.355  12.287  1.00  0.00     0.016 A 
ATOM     59  C   UNL     1       4.267   5.338  10.569  1.00  0.00     0.016 A 
ATOM     60  C   UNL     1       3.746   4.712  13.264  1.00  0.00     0.010 A 
ATOM     61  C   UNL     1       5.168   5.728  11.559  1.00  0.00     0.010 A 
ATOM     62  C   UNL     1       4.867   5.471  12.909  1.00  0.00    -0.014 A 
BRANCH  62  63
ATOM     63  C   UNL     1       5.514   6.233  13.992  1.00  0.00     0.031 A 
ATOM     64  C   UNL     1       5.041   7.641  14.228  1.00  0.00     0.074 A 
ATOM     65  C   UNL     1       6.371   5.629  14.829  1.00  0.00     0.049 A 
ATOM     66  N   UNL     1       5.375   8.484  15.168  1.00  0.00    -0.248 NA
ATOM     67  C   UNL     1       4.041   8.165  13.279  1.00  0.00     0.031 C 
ATOM     68  C   UNL     1       6.820   4.242  14.723  1.00  0.00     0.029 A 
ATOM     69  N   UNL     1       6.992   6.105  15.950  1.00  0.00    -0.354 N 
ATOM     70  C   UNL     1       4.626   9.629  14.926  1.00  0.00     0.074 A 
ATOM     71  C   UNL     1       3.854   9.395  13.728  1.00  0.00     0.031 C 
ATOM     72  C   UNL     1       7.646   3.975  15.749  1.00  0.00     0.029 A 
ATOM     73  C   UNL     1       7.799   5.179  16.561  1.00  0.00     0.049 A 
ATOM     74  H   UNL     1       6.872   7.022  16.287  1.00  0.00     0.167 HD
ATOM     75  C   UNL     1       4.575  10.769  15.652  1.00  0.00     0.037 A 
ATOM     76  C   UNL     1       8.577   5.307  17.651  1.00  0.00     0.037 A 
ATOM     77  C   UNL     1       5.356  10.987  16.839  1.00  0.00     0.049 A 
ATOM     78  C   UNL     1       8.572   6.621  18.387  1.00  0.00     0.074 A 
ATOM     79  C   UNL     1       5.416  12.111  17.641  1.00  0.00     0.029 A 
ATOM     80  N   UNL     1       6.218  10.050  17.392  1.00  0.00    -0.354 N 
ATOM     81  N   UNL     1       7.874   7.707  18.147  1.00  0.00    -0.248 NA
ATOM     82  C   UNL     1       9.455   6.722  19.556  1.00  0.00     0.031 C 
ATOM     83  C   UNL     1       6.355  11.873  18.650  1.00  0.00     0.029 A 
ATOM     84  C   UNL     1       6.829  10.576  18.517  1.00  0.00     0.049 A 
ATOM     85  H   UNL     1       6.373   9.146  17.036  1.00  0.00     0.167 HD
ATOM     86  C   UNL     1       8.201   8.603  19.156  1.00  0.00     0.074 A 
ATOM     87  C   UNL     1       9.149   7.925  20.018  1.00  0.00     0.031 C 
ATOM     88  C   UNL     1       7.761   9.871  19.360  1.00  0.00     0.037 A 
BRANCH  75  89
ATOM     89  C   UNL     1       3.678  11.866  15.153  1.00  0.00     0.057 A 
ATOM     90  C   UNL     1       2.281  11.759  15.184  1.00  0.00     0.134 A 
ATOM     91  C   UNL     1       4.221  13.047  14.634  1.00  0.00     0.134 A 
ATOM     92  F   UNL     1       1.694  10.644  15.645  1.00  0.00    -0.206 F 
ATOM     93  C   UNL     1       1.458  12.776  14.695  1.00  0.00     0.040 A 
ATOM     94  C   UNL     1       3.410  14.084  14.170  1.00  0.00     0.040 A 
ATOM     95  F   UNL     1       5.551  13.215  14.568  1.00  0.00    -0.206 F 
ATOM     96  C   UNL     1       2.023  13.947  14.193  1.00  0.00     0.006 A 
ENDBRANCH  75  89
BRANCH  76  97
ATOM     97  C   UNL     1       9.422   4.176  18.108  1.00  0.00     0.057 A 
ATOM     98  C   UNL     1       9.198   3.543  19.336  1.00  0.00     0.134 A 
ATOM     99  C   UNL     1      10.501   3.721  17.338  1.00  0.00     0.134 A 
ATOM    100  F   UNL     1       8.191   3.943  20.127  1.00  0.00    -0.206 F 
ATOM    101  C   UNL     1      10.031   2.523  19.797  1.00  0.00     0.040 A 
ATOM    102  C   UNL     1      11.324   2.681  17.773  1.00  0.00     0.040 A 
ATOM    103  F   UNL     1      10.768   4.279  16.148  1.00  0.00    -0.206 F 
ATOM    104  C   UNL     1      11.097   2.087  19.012  1.00  0.00     0.006 A 
ENDBRANCH  76  97
BRANCH  88 105
ATOM    105  C   UNL     1       8.254  10.570  20.594  1.00  0.00     0.057 A 
ATOM    106  C   UNL     1       9.588  10.972  20.744  1.00  0.00     0.134 A 
ATOM    107  C   UNL     1       7.373  10.851  21.647  1.00  0.00     0.134 A 
ATOM    108  F   UNL     1      10.485  10.726  19.777  1.00  0.00    -0.206 F 
ATOM    109  C   UNL     1      10.038  11.581  21.916  1.00  0.00     0.040 A 
ATOM    110  C   UNL     1       7.803  11.493  22.808  1.00  0.00     0.040 A 
ATOM    111  F   UNL     1       6.078  10.509  21.563  1.00  0.00    -0.206 F 
ATOM    112  C   UNL     1       9.142  11.847  22.950  1.00  0.00     0.006 A 
ENDBRANCH  88 105
ENDBRANCH  62  63
ENDBRANCH  55  57
ENDBRANCH  54  55
ENDBRANCH  53  54
ENDBRANCH  52  53
ENDBRANCH  51  52
ENDBRANCH  50  51
ENDBRANCH   1  50
TORSDOF 27
