REMARK SMILES COc1cc(Cl)c2c(c1)C=C(C(=O)OCCOCCOC(=O)c1ccc(-c3c4nc(c(-c5c(F)cccc5F)c5ccc([nH]5)c(-c5c(F)cccc5F)c5nc(c(-c6c(F)cccc6F)c6ccc3[nH]6)C=C5)C=C4)cc1)[C@@H](C(F)(F)F)O2
REMARK SMILES IDX 18 1 17 2 16 3 15 4 14 5 12 6 13 7 11 8 3 9 4 10 9 11 5 12
REMARK SMILES IDX 8 13 6 14 7 15 10 16 82 17 77 18 2 19 1 20 78 21 79 22 80 23
REMARK SMILES IDX 81 24 19 25 20 26 21 27 22 28 23 29 24 30 76 31 25 32 75 33
REMARK SMILES IDX 26 34 27 35 28 36 69 37 29 38 74 39 68 40 70 41 30 42 73 43
REMARK SMILES IDX 67 44 66 45 31 47 57 48 40 49 56 50 41 51 44 52 55 53 71 54
REMARK SMILES IDX 42 55 43 56 54 58 72 59 45 60 32 61 33 62 38 63 34 64 35 65
REMARK SMILES IDX 37 66 39 67 36 68 58 69 59 70 64 71 60 72 61 73 63 74 65 75
REMARK SMILES IDX 62 76 46 77 47 78 52 79 48 80 49 81 51 82 53 83 50 84
REMARK H PARENT 70 46 44 57
REMARK Flexibility Score: inf
ROOT
ATOM      1  C   UNL     1      -2.245   4.322  -7.479  1.00  0.00     0.202 C 
ENDROOT
BRANCH   1   2
ATOM      2  O   UNL     1      -3.334   5.246  -7.391  1.00  0.00    -0.374 OA
BRANCH   2   3
ATOM      3  C   UNL     1      -3.033   6.633  -7.515  1.00  0.00     0.202 C 
BRANCH   3   4
ATOM      4  C   UNL     1      -2.520   7.326  -6.250  1.00  0.00     0.261 C 
BRANCH   4   5
ATOM      5  O   UNL     1      -1.368   6.659  -5.711  1.00  0.00    -0.460 OA
BRANCH   5   6
ATOM      6  C   UNL     1      -1.579   6.055  -4.519  1.00  0.00     0.338 C 
ATOM      7  O   UNL     1      -2.577   6.140  -3.820  1.00  0.00    -0.246 OA
BRANCH   6   8
ATOM      8  C   UNL     1      -0.451   5.159  -4.202  1.00  0.00     0.087 C 
ATOM      9  C   UNL     1       0.996   1.131  -2.029  1.00  0.00     0.121 A 
ATOM     10  C   UNL     1       2.329   1.477  -2.230  1.00  0.00     0.070 A 
ATOM     11  C   UNL     1      -0.024   1.925  -2.544  1.00  0.00     0.058 A 
ATOM     12  C   UNL     1       2.637   2.643  -2.936  1.00  0.00     0.087 A 
ATOM     13  C   UNL     1       0.285   3.110  -3.220  1.00  0.00     0.022 A 
ATOM     14  Cl  UNL     1       4.303   3.045  -3.159  1.00  0.00    -0.080 Cl
ATOM     15  C   UNL     1       1.619   3.471  -3.432  1.00  0.00     0.146 A 
ATOM     16  C   UNL     1      -0.786   3.984  -3.657  1.00  0.00     0.027 C 
ATOM     17  O   UNL     1       1.976   4.594  -4.130  1.00  0.00    -0.474 OA
ATOM     18  C   UNL     1       0.966   5.588  -4.459  1.00  0.00     0.316 C 
BRANCH   9  19
ATOM     19  O   UNL     1       0.628  -0.015  -1.381  1.00  0.00    -0.497 OA
ATOM     20  C   UNL     1       1.032   0.003  -0.011  1.00  0.00     0.278 C 
ENDBRANCH   9  19
BRANCH  18  21
ATOM     21  C   UNL     1       1.321   6.901  -3.745  1.00  0.00     0.430 C 
ATOM     22  F   UNL     1       2.609   7.253  -3.973  1.00  0.00    -0.167 F 
ATOM     23  F   UNL     1       0.558   7.931  -4.179  1.00  0.00    -0.167 F 
ATOM     24  F   UNL     1       1.155   6.811  -2.406  1.00  0.00    -0.167 F 
ENDBRANCH  18  21
ENDBRANCH   6   8
ENDBRANCH   5   6
ENDBRANCH   4   5
ENDBRANCH   3   4
ENDBRANCH   2   3
ENDBRANCH   1   2
BRANCH   1  25
ATOM     25  C   UNL     1      -1.599   4.161  -8.860  1.00  0.00     0.261 C 
BRANCH  25  26
ATOM     26  O   UNL     1      -0.781   5.302  -9.188  1.00  0.00    -0.460 OA
BRANCH  26  27
ATOM     27  C   UNL     1      -1.109   5.922 -10.345  1.00  0.00     0.338 C 
ATOM     28  O   UNL     1      -1.946   5.579 -11.165  1.00  0.00    -0.246 OA
BRANCH  27  29
ATOM     29  C   UNL     1      -0.414   7.215 -10.435  1.00  0.00     0.060 A 
ATOM     30  C   UNL     1      -1.191   8.382 -10.401  1.00  0.00     0.016 A 
ATOM     31  C   UNL     1       0.952   7.273 -10.712  1.00  0.00     0.016 A 
ATOM     32  C   UNL     1      -0.612   9.612 -10.703  1.00  0.00     0.010 A 
ATOM     33  C   UNL     1       1.526   8.505 -11.038  1.00  0.00     0.010 A 
ATOM     34  C   UNL     1       0.735   9.668 -11.083  1.00  0.00    -0.014 A 
BRANCH  34  35
ATOM     35  C   UNL     1       1.248  10.880 -11.762  1.00  0.00     0.031 A 
ATOM     36  C   UNL     1       1.141  10.951 -13.263  1.00  0.00     0.074 A 
ATOM     37  C   UNL     1       1.784  11.898 -11.069  1.00  0.00     0.049 A 
ATOM     38  N   UNL     1       1.578  11.870 -14.085  1.00  0.00    -0.248 NA
ATOM     39  C   UNL     1       0.441   9.836 -13.924  1.00  0.00     0.031 C 
ATOM     40  C   UNL     1       1.889  11.972  -9.614  1.00  0.00     0.029 A 
ATOM     41  N   UNL     1       2.355  13.065 -11.510  1.00  0.00    -0.354 N 
ATOM     42  C   UNL     1       1.208  11.444 -15.354  1.00  0.00     0.074 A 
ATOM     43  C   UNL     1       0.526  10.179 -15.200  1.00  0.00     0.031 C 
ATOM     44  C   UNL     1       2.514  13.116  -9.282  1.00  0.00     0.029 A 
ATOM     45  C   UNL     1       2.877  13.836 -10.501  1.00  0.00     0.049 A 
ATOM     46  H   UNL     1       2.388  13.325 -12.460  1.00  0.00     0.167 HD
ATOM     47  C   UNL     1       1.418  12.054 -16.544  1.00  0.00     0.037 A 
ATOM     48  C   UNL     1       3.593  14.975 -10.566  1.00  0.00     0.037 A 
ATOM     49  C   UNL     1       2.110  13.303 -16.701  1.00  0.00     0.049 A 
ATOM     50  C   UNL     1       3.901  15.580 -11.911  1.00  0.00     0.074 A 
ATOM     51  C   UNL     1       2.378  14.001 -17.865  1.00  0.00     0.029 A 
ATOM     52  N   UNL     1       2.650  14.036 -15.657  1.00  0.00    -0.354 N 
ATOM     53  N   UNL     1       3.531  15.181 -13.104  1.00  0.00    -0.248 NA
ATOM     54  C   UNL     1       4.733  16.794 -11.918  1.00  0.00     0.031 C 
ATOM     55  C   UNL     1       3.117  15.140 -17.529  1.00  0.00     0.029 A 
ATOM     56  C   UNL     1       3.272  15.169 -16.152  1.00  0.00     0.049 A 
ATOM     57  H   UNL     1       2.600  13.788 -14.706  1.00  0.00     0.167 HD
ATOM     58  C   UNL     1       4.051  16.112 -13.996  1.00  0.00     0.074 A 
ATOM     59  C   UNL     1       4.762  17.097 -13.208  1.00  0.00     0.031 C 
ATOM     60  C   UNL     1       3.947  16.152 -15.346  1.00  0.00     0.037 A 
BRANCH  47  61
ATOM     61  C   UNL     1       0.917  11.359 -17.773  1.00  0.00     0.057 A 
ATOM     62  C   UNL     1       1.808  10.727 -18.648  1.00  0.00     0.134 A 
ATOM     63  C   UNL     1      -0.443  11.344 -18.106  1.00  0.00     0.134 A 
ATOM     64  F   UNL     1       3.123  10.706 -18.384  1.00  0.00    -0.206 F 
ATOM     65  C   UNL     1       1.364  10.109 -19.818  1.00  0.00     0.040 A 
ATOM     66  C   UNL     1      -0.901  10.712 -19.264  1.00  0.00     0.040 A 
ATOM     67  F   UNL     1      -1.347  11.917 -17.298  1.00  0.00    -0.206 F 
ATOM     68  C   UNL     1       0.005  10.098 -20.127  1.00  0.00     0.006 A 
ENDBRANCH  47  61
BRANCH  48  69
ATOM     69  C   UNL     1       4.108  15.614  -9.328  1.00  0.00     0.057 A 
ATOM     70  C   UNL     1       5.143  15.031  -8.587  1.00  0.00     0.134 A 
ATOM     71  C   UNL     1       3.624  16.854  -8.897  1.00  0.00     0.134 A 
ATOM     72  F   UNL     1       5.653  13.845  -8.951  1.00  0.00    -0.206 F 
ATOM     73  C   UNL     1       5.680  15.659  -7.463  1.00  0.00     0.040 A 
ATOM     74  C   UNL     1       4.168  17.505  -7.788  1.00  0.00     0.040 A 
ATOM     75  F   UNL     1       2.652  17.474  -9.582  1.00  0.00    -0.206 F 
ATOM     76  C   UNL     1       5.199  16.906  -7.067  1.00  0.00     0.006 A 
ENDBRANCH  48  69
BRANCH  60  77
ATOM     77  C   UNL     1       4.560  17.323 -16.053  1.00  0.00     0.057 A 
ATOM     78  C   UNL     1       3.748  18.324 -16.601  1.00  0.00     0.134 A 
ATOM     79  C   UNL     1       5.943  17.432 -16.241  1.00  0.00     0.134 A 
ATOM     80  F   UNL     1       2.415  18.271 -16.462  1.00  0.00    -0.206 F 
ATOM     81  C   UNL     1       4.290  19.390 -17.319  1.00  0.00     0.040 A 
ATOM     82  C   UNL     1       6.498  18.506 -16.938  1.00  0.00     0.040 A 
ATOM     83  F   UNL     1       6.773  16.511 -15.729  1.00  0.00    -0.206 F 
ATOM     84  C   UNL     1       5.670  19.484 -17.486  1.00  0.00     0.006 A 
ENDBRANCH  60  77
ENDBRANCH  34  35
ENDBRANCH  27  29
ENDBRANCH  26  27
ENDBRANCH  25  26
ENDBRANCH   1  25
TORSDOF 16
