REMARK SMILES [NH3+]Cc1c(-c2ccccc2)c(C(=O)OCCOCCOC(=O)c2ccc(-c3c4nc(c(-c5c(F)cccc5F)c5ccc([nH]5)c(-c5c(F)cccc5F)c5nc(c(-c6c(F)cccc6F)c6ccc3[nH]6)C=C5)C=C4)cc2)c2ccccn12
REMARK SMILES IDX 17 1 16 2 15 3 14 4 12 5 13 6 11 7 3 8 4 9 82 10 77 11 81 12
REMARK SMILES IDX 78 13 80 14 79 15 2 16 1 17 5 21 6 22 10 23 7 24 9 25 8 26
REMARK SMILES IDX 18 27 19 28 20 29 21 30 22 31 23 32 24 33 76 34 25 35 75 36
REMARK SMILES IDX 26 37 27 38 28 39 69 40 29 41 74 42 68 43 70 44 30 45 73 46
REMARK SMILES IDX 67 47 66 48 31 50 57 51 40 52 56 53 41 54 44 55 55 56 71 57
REMARK SMILES IDX 42 58 43 59 54 61 72 62 45 63 32 64 33 65 38 66 34 67 35 68
REMARK SMILES IDX 37 69 39 70 36 71 58 72 59 73 64 74 60 75 61 76 63 77 65 78
REMARK SMILES IDX 62 79 46 80 47 81 52 82 48 83 49 84 51 85 53 86 50 87
REMARK H PARENT 1 18 1 19 1 20 70 49 44 60
REMARK Flexibility Score: inf
ROOT
ATOM      1  O   UNL     1      -0.231  -7.104   4.406  1.00  0.00    -0.374 OA
ENDROOT
BRANCH   1   2
ATOM      2  C   UNL     1       0.910  -6.923   5.250  1.00  0.00     0.202 C 
BRANCH   2   3
ATOM      3  C   UNL     1       2.205  -6.588   4.505  1.00  0.00     0.261 C 
BRANCH   3   4
ATOM      4  O   UNL     1       2.188  -5.201   4.119  1.00  0.00    -0.460 OA
BRANCH   4   5
ATOM      5  C   UNL     1       2.371  -4.950   2.791  1.00  0.00     0.341 C 
ATOM      6  O   UNL     1       2.767  -5.782   1.983  1.00  0.00    -0.246 OA
BRANCH   5   7
ATOM      7  C   UNL     1       1.943  -3.607   2.408  1.00  0.00     0.093 A 
ATOM      8  C   UNL     1       1.025  -1.890   1.185  1.00  0.00     0.086 A 
ATOM      9  C   UNL     1       1.253  -3.263   1.206  1.00  0.00     0.024 A 
ATOM     10  N   UNL     1       1.529  -1.379   2.376  1.00  0.00    -0.314 N 
ATOM     11  C   UNL     1       2.050  -2.434   3.137  1.00  0.00     0.061 A 
ATOM     12  C   UNL     1       1.556  -0.056   2.838  1.00  0.00     0.092 A 
ATOM     13  C   UNL     1       2.573  -2.118   4.431  1.00  0.00     0.027 A 
ATOM     14  C   UNL     1       2.088   0.235   4.035  1.00  0.00     0.018 A 
ATOM     15  C   UNL     1       2.593  -0.843   4.859  1.00  0.00     0.004 A 
BRANCH   8  16
ATOM     16  C   UNL     1       0.290  -1.101   0.142  1.00  0.00     0.315 C 
BRANCH  16  17
ATOM     17  N   UNL     1       1.025   0.049  -0.358  1.00  0.00    -0.353 N 
ATOM     18  H   UNL     1       0.463   0.532  -1.060  1.00  0.00     0.344 HD
ATOM     19  H   UNL     1       1.900  -0.263  -0.779  1.00  0.00     0.344 HD
ATOM     20  H   UNL     1       1.226   0.685   0.413  1.00  0.00     0.344 HD
ENDBRANCH  16  17
ENDBRANCH   8  16
BRANCH   9  21
ATOM     21  C   UNL     1       0.711  -4.177   0.216  1.00  0.00    -0.015 A 
ATOM     22  C   UNL     1      -0.589  -4.676   0.378  1.00  0.00     0.009 A 
ATOM     23  C   UNL     1       1.486  -4.598  -0.865  1.00  0.00     0.009 A 
ATOM     24  C   UNL     1      -1.103  -5.604  -0.527  1.00  0.00     0.001 A 
ATOM     25  C   UNL     1       0.965  -5.520  -1.776  1.00  0.00     0.001 A 
ATOM     26  C   UNL     1      -0.325  -6.025  -1.604  1.00  0.00     0.000 A 
ENDBRANCH   9  21
ENDBRANCH   5   7
ENDBRANCH   4   5
ENDBRANCH   3   4
ENDBRANCH   2   3
ENDBRANCH   1   2
BRANCH   1  27
ATOM     27  C   UNL     1      -0.856  -5.917   3.918  1.00  0.00     0.202 C 
BRANCH  27  28
ATOM     28  C   UNL     1      -1.940  -5.333   4.829  1.00  0.00     0.261 C 
BRANCH  28  29
ATOM     29  O   UNL     1      -1.415  -4.990   6.121  1.00  0.00    -0.460 OA
BRANCH  29  30
ATOM     30  C   UNL     1      -1.728  -5.870   7.102  1.00  0.00     0.338 C 
ATOM     31  O   UNL     1      -2.491  -6.818   7.034  1.00  0.00    -0.246 OA
BRANCH  30  32
ATOM     32  C   UNL     1      -0.877  -5.622   8.282  1.00  0.00     0.060 A 
ATOM     33  C   UNL     1      -0.271  -6.734   8.879  1.00  0.00     0.016 A 
ATOM     34  C   UNL     1      -0.714  -4.345   8.826  1.00  0.00     0.016 A 
ATOM     35  C   UNL     1       0.458  -6.581  10.055  1.00  0.00     0.010 A 
ATOM     36  C   UNL     1       0.012  -4.194  10.011  1.00  0.00     0.010 A 
ATOM     37  C   UNL     1       0.570  -5.317  10.648  1.00  0.00    -0.014 A 
BRANCH  37  38
ATOM     38  C   UNL     1       1.141  -5.205  12.009  1.00  0.00     0.031 A 
ATOM     39  C   UNL     1       0.209  -5.181  13.188  1.00  0.00     0.074 A 
ATOM     40  C   UNL     1       2.471  -5.165  12.196  1.00  0.00     0.049 A 
ATOM     41  N   UNL     1       0.486  -5.098  14.464  1.00  0.00    -0.248 NA
ATOM     42  C   UNL     1      -1.230  -5.262  12.887  1.00  0.00     0.031 C 
ATOM     43  C   UNL     1       3.476  -5.213  11.135  1.00  0.00     0.029 A 
ATOM     44  N   UNL     1       3.204  -5.075  13.352  1.00  0.00    -0.354 N 
ATOM     45  C   UNL     1      -0.739  -5.120  15.117  1.00  0.00     0.074 A 
ATOM     46  C   UNL     1      -1.764  -5.192  14.098  1.00  0.00     0.031 C 
ATOM     47  C   UNL     1       4.698  -5.144  11.691  1.00  0.00     0.029 A 
ATOM     48  C   UNL     1       4.559  -5.029  13.142  1.00  0.00     0.049 A 
ATOM     49  H   UNL     1       2.796  -5.047  14.248  1.00  0.00     0.167 HD
ATOM     50  C   UNL     1      -0.989  -5.094  16.447  1.00  0.00     0.037 A 
ATOM     51  C   UNL     1       5.569  -4.896  14.022  1.00  0.00     0.037 A 
ATOM     52  C   UNL     1       0.028  -5.021  17.462  1.00  0.00     0.049 A 
ATOM     53  C   UNL     1       5.264  -4.808  15.493  1.00  0.00     0.074 A 
ATOM     54  C   UNL     1      -0.124  -5.007  18.837  1.00  0.00     0.029 A 
ATOM     55  N   UNL     1       1.389  -4.945  17.207  1.00  0.00    -0.354 N 
ATOM     56  N   UNL     1       4.103  -4.859  16.101  1.00  0.00    -0.248 NA
ATOM     57  C   UNL     1       6.410  -4.647  16.400  1.00  0.00     0.031 C 
ATOM     58  C   UNL     1       1.145  -4.882  19.415  1.00  0.00     0.029 A 
ATOM     59  C   UNL     1       2.088  -4.859  18.400  1.00  0.00     0.049 A 
ATOM     60  H   UNL     1       1.798  -4.950  16.312  1.00  0.00     0.167 HD
ATOM     61  C   UNL     1       4.380  -4.763  17.459  1.00  0.00     0.074 A 
ATOM     62  C   UNL     1       5.819  -4.659  17.587  1.00  0.00     0.031 C 
ATOM     63  C   UNL     1       3.520  -4.762  18.507  1.00  0.00     0.037 A 
BRANCH  50  64
ATOM     64  C   UNL     1      -2.424  -5.128  16.877  1.00  0.00     0.057 A 
ATOM     65  C   UNL     1      -3.188  -6.299  16.803  1.00  0.00     0.134 A 
ATOM     66  C   UNL     1      -3.042  -3.981  17.390  1.00  0.00     0.134 A 
ATOM     67  F   UNL     1      -2.657  -7.426  16.306  1.00  0.00    -0.206 F 
ATOM     68  C   UNL     1      -4.524  -6.324  17.207  1.00  0.00     0.040 A 
ATOM     69  C   UNL     1      -4.371  -3.999  17.816  1.00  0.00     0.040 A 
ATOM     70  F   UNL     1      -2.365  -2.827  17.487  1.00  0.00    -0.206 F 
ATOM     71  C   UNL     1      -5.117  -5.172  17.721  1.00  0.00     0.006 A 
ENDBRANCH  50  64
BRANCH  51  72
ATOM     72  C   UNL     1       6.970  -4.832  13.538  1.00  0.00     0.057 A 
ATOM     73  C   UNL     1       7.862  -5.887  13.758  1.00  0.00     0.134 A 
ATOM     74  C   UNL     1       7.454  -3.707  12.860  1.00  0.00     0.134 A 
ATOM     75  F   UNL     1       7.462  -6.981  14.423  1.00  0.00    -0.206 F 
ATOM     76  C   UNL     1       9.190  -5.821  13.334  1.00  0.00     0.040 A 
ATOM     77  C   UNL     1       8.773  -3.635  12.412  1.00  0.00     0.040 A 
ATOM     78  F   UNL     1       6.647  -2.663  12.619  1.00  0.00    -0.206 F 
ATOM     79  C   UNL     1       9.647  -4.693  12.655  1.00  0.00     0.006 A 
ENDBRANCH  51  72
BRANCH  63  80
ATOM     80  C   UNL     1       4.113  -4.674  19.881  1.00  0.00     0.057 A 
ATOM     81  C   UNL     1       4.630  -3.474  20.385  1.00  0.00     0.134 A 
ATOM     82  C   UNL     1       4.129  -5.792  20.724  1.00  0.00     0.134 A 
ATOM     83  F   UNL     1       4.655  -2.371  19.622  1.00  0.00    -0.206 F 
ATOM     84  C   UNL     1       5.158  -3.394  21.675  1.00  0.00     0.040 A 
ATOM     85  C   UNL     1       4.634  -5.719  22.023  1.00  0.00     0.040 A 
ATOM     86  F   UNL     1       3.641  -6.969  20.304  1.00  0.00    -0.206 F 
ATOM     87  C   UNL     1       5.155  -4.518  22.500  1.00  0.00     0.006 A 
ENDBRANCH  63  80
ENDBRANCH  37  38
ENDBRANCH  30  32
ENDBRANCH  29  30
ENDBRANCH  28  29
ENDBRANCH  27  28
ENDBRANCH   1  27
TORSDOF 17
