REMARK SMILES CCC1CN(c2cccc(F)c2C(=O)OCCOCCOC(=O)c2ccc(-c3c4nc(c(-c5c(F)cccc5F)c5ccc([nH]5)c(-c5c(F)cccc5F)c5nc(c(-c6c(F)cccc6F)c6ccc3[nH]6)C=C5)C=C4)cc2)C1
REMARK SMILES IDX 18 1 17 2 16 3 15 4 13 5 14 6 12 7 6 8 7 9 8 10 10 11 9 12
REMARK SMILES IDX 11 13 5 14 3 15 4 16 78 17 2 18 1 19 19 20 20 21 21 22 22 23
REMARK SMILES IDX 23 24 24 25 25 26 77 27 26 28 76 29 27 30 28 31 29 32 70 33
REMARK SMILES IDX 30 34 75 35 69 36 71 37 31 38 74 39 68 40 67 41 32 43 58 44
REMARK SMILES IDX 41 45 57 46 42 47 45 48 56 49 72 50 43 51 44 52 55 54 73 55
REMARK SMILES IDX 46 56 33 57 34 58 39 59 35 60 36 61 38 62 40 63 37 64 59 65
REMARK SMILES IDX 60 66 65 67 61 68 62 69 64 70 66 71 63 72 47 73 48 74 53 75
REMARK SMILES IDX 49 76 50 77 52 78 54 79 51 80
REMARK H PARENT 71 42 45 53
REMARK Flexibility Score: inf
ROOT
ATOM      1  O   UNL     1       1.692   7.020   0.126  1.00  0.00    -0.374 OA
ENDROOT
BRANCH   1   2
ATOM      2  C   UNL     1       2.945   7.673   0.348  1.00  0.00     0.202 C 
BRANCH   2   3
ATOM      3  C   UNL     1       4.199   6.817   0.160  1.00  0.00     0.261 C 
BRANCH   3   4
ATOM      4  O   UNL     1       4.320   6.431  -1.216  1.00  0.00    -0.460 OA
BRANCH   4   5
ATOM      5  C   UNL     1       4.568   5.118  -1.430  1.00  0.00     0.343 C 
ATOM      6  O   UNL     1       4.884   4.290  -0.588  1.00  0.00    -0.246 OA
BRANCH   5   7
ATOM      7  C   UNL     1       4.283   4.804  -2.841  1.00  0.00     0.119 A 
ATOM      8  C   UNL     1       3.419   3.741  -3.167  1.00  0.00     0.054 A 
ATOM      9  C   UNL     1       3.246   3.414  -4.521  1.00  0.00     0.027 A 
ATOM     10  C   UNL     1       3.888   4.146  -5.526  1.00  0.00     0.005 A 
ATOM     11  C   UNL     1       4.907   5.541  -3.848  1.00  0.00     0.139 A 
ATOM     12  C   UNL     1       4.709   5.220  -5.188  1.00  0.00     0.040 A 
ATOM     13  F   UNL     1       5.724   6.562  -3.553  1.00  0.00    -0.206 F 
BRANCH   8  14
ATOM     14  N   UNL     1       2.718   3.045  -2.169  1.00  0.00    -0.370 N 
ATOM     15  C   UNL     1       1.214   1.789  -1.492  1.00  0.00     0.028 C 
ATOM     16  C   UNL     1       1.399   3.299  -1.686  1.00  0.00     0.122 C 
ATOM     17  C   UNL     1       2.695   1.650  -1.879  1.00  0.00     0.122 C 
BRANCH  15  18
ATOM     18  C   UNL     1       0.769   1.374  -0.095  1.00  0.00     0.004 C 
ATOM     19  C   UNL     1       0.986  -0.113   0.123  1.00  0.00     0.004 C 
ENDBRANCH  15  18
ENDBRANCH   8  14
ENDBRANCH   5   7
ENDBRANCH   4   5
ENDBRANCH   3   4
ENDBRANCH   2   3
ENDBRANCH   1   2
BRANCH   1  20
ATOM     20  C   UNL     1       1.314   6.768  -1.226  1.00  0.00     0.202 C 
BRANCH  20  21
ATOM     21  C   UNL     1       0.706   7.931  -2.016  1.00  0.00     0.261 C 
BRANCH  21  22
ATOM     22  O   UNL     1       1.576   9.066  -2.103  1.00  0.00    -0.460 OA
BRANCH  22  23
ATOM     23  C   UNL     1       1.262  10.071  -1.253  1.00  0.00     0.338 C 
ATOM     24  O   UNL     1       0.303  10.138  -0.497  1.00  0.00    -0.246 OA
BRANCH  23  25
ATOM     25  C   UNL     1       2.355  11.056  -1.234  1.00  0.00     0.060 A 
ATOM     26  C   UNL     1       2.877  11.420   0.014  1.00  0.00     0.016 A 
ATOM     27  C   UNL     1       2.819  11.653  -2.407  1.00  0.00     0.016 A 
ATOM     28  C   UNL     1       3.836  12.424   0.097  1.00  0.00     0.010 A 
ATOM     29  C   UNL     1       3.776  12.666  -2.321  1.00  0.00     0.010 A 
ATOM     30  C   UNL     1       4.260  13.078  -1.067  1.00  0.00    -0.014 A 
BRANCH  30  31
ATOM     31  C   UNL     1       5.100  14.291  -0.957  1.00  0.00     0.031 A 
ATOM     32  C   UNL     1       4.445  15.639  -1.066  1.00  0.00     0.074 A 
ATOM     33  C   UNL     1       6.420  14.189  -0.731  1.00  0.00     0.049 A 
ATOM     34  N   UNL     1       4.988  16.828  -1.037  1.00  0.00    -0.248 NA
ATOM     35  C   UNL     1       2.981  15.648  -1.229  1.00  0.00     0.031 C 
ATOM     36  C   UNL     1       7.152  12.935  -0.562  1.00  0.00     0.029 A 
ATOM     37  N   UNL     1       7.379  15.161  -0.606  1.00  0.00    -0.354 N 
ATOM     38  C   UNL     1       3.937  17.724  -1.181  1.00  0.00     0.074 A 
ATOM     39  C   UNL     1       2.728  16.944  -1.329  1.00  0.00     0.031 C 
ATOM     40  C   UNL     1       8.450  13.214  -0.356  1.00  0.00     0.029 A 
ATOM     41  C   UNL     1       8.644  14.662  -0.414  1.00  0.00     0.049 A 
ATOM     42  H   UNL     1       7.180  16.124  -0.649  1.00  0.00     0.167 HD
ATOM     43  C   UNL     1       3.978  19.076  -1.176  1.00  0.00     0.037 A 
ATOM     44  C   UNL     1       9.824  15.303  -0.316  1.00  0.00     0.037 A 
ATOM     45  C   UNL     1       5.185  19.844  -1.023  1.00  0.00     0.049 A 
ATOM     46  C   UNL     1       9.854  16.805  -0.392  1.00  0.00     0.074 A 
ATOM     47  C   UNL     1       5.331  21.220  -0.994  1.00  0.00     0.029 A 
ATOM     48  N   UNL     1       6.453  19.302  -0.877  1.00  0.00    -0.354 N 
ATOM     49  N   UNL     1       8.856  17.646  -0.521  1.00  0.00    -0.248 NA
ATOM     50  C   UNL     1      11.173  17.450  -0.310  1.00  0.00     0.031 C 
ATOM     51  C   UNL     1       6.693  21.510  -0.880  1.00  0.00     0.029 A 
ATOM     52  C   UNL     1       7.390  20.316  -0.782  1.00  0.00     0.049 A 
ATOM     53  H   UNL     1       6.656  18.339  -0.845  1.00  0.00     0.167 HD
ATOM     54  C   UNL     1       9.420  18.915  -0.511  1.00  0.00     0.074 A 
ATOM     55  C   UNL     1      10.849  18.736  -0.354  1.00  0.00     0.031 C 
ATOM     56  C   UNL     1       8.809  20.120  -0.620  1.00  0.00     0.037 A 
BRANCH  43  57
ATOM     57  C   UNL     1       2.686  19.816  -1.353  1.00  0.00     0.057 A 
ATOM     58  C   UNL     1       2.430  20.534  -2.529  1.00  0.00     0.134 A 
ATOM     59  C   UNL     1       1.723  19.874  -0.338  1.00  0.00     0.134 A 
ATOM     60  F   UNL     1       3.312  20.523  -3.539  1.00  0.00    -0.206 F 
ATOM     61  C   UNL     1       1.270  21.294  -2.682  1.00  0.00     0.040 A 
ATOM     62  C   UNL     1       0.547  20.611  -0.489  1.00  0.00     0.040 A 
ATOM     63  F   UNL     1       1.901  19.197   0.807  1.00  0.00    -0.206 F 
ATOM     64  C   UNL     1       0.323  21.332  -1.660  1.00  0.00     0.006 A 
ENDBRANCH  43  57
BRANCH  44  65
ATOM     65  C   UNL     1      11.072  14.520  -0.133  1.00  0.00     0.057 A 
ATOM     66  C   UNL     1      11.582  13.710  -1.155  1.00  0.00     0.134 A 
ATOM     67  C   UNL     1      11.772  14.547   1.078  1.00  0.00     0.134 A 
ATOM     68  F   UNL     1      10.957  13.640  -2.340  1.00  0.00    -0.206 F 
ATOM     69  C   UNL     1      12.732  12.940  -0.973  1.00  0.00     0.040 A 
ATOM     70  C   UNL     1      12.936  13.800   1.266  1.00  0.00     0.040 A 
ATOM     71  F   UNL     1      11.344  15.320   2.087  1.00  0.00    -0.206 F 
ATOM     72  C   UNL     1      13.414  12.986   0.241  1.00  0.00     0.006 A 
ENDBRANCH  44  65
BRANCH  56  73
ATOM     73  C   UNL     1       9.668  21.348  -0.550  1.00  0.00     0.057 A 
ATOM     74  C   UNL     1       9.599  22.203   0.558  1.00  0.00     0.134 A 
ATOM     75  C   UNL     1      10.492  21.732  -1.614  1.00  0.00     0.134 A 
ATOM     76  F   UNL     1       8.818  21.899   1.606  1.00  0.00    -0.206 F 
ATOM     77  C   UNL     1      10.306  23.405   0.598  1.00  0.00     0.040 A 
ATOM     78  C   UNL     1      11.225  22.920  -1.575  1.00  0.00     0.040 A 
ATOM     79  F   UNL     1      10.608  20.953  -2.700  1.00  0.00    -0.206 F 
ATOM     80  C   UNL     1      11.123  23.765  -0.471  1.00  0.00     0.006 A 
ENDBRANCH  56  73
ENDBRANCH  30  31
ENDBRANCH  23  25
ENDBRANCH  22  23
ENDBRANCH  21  22
ENDBRANCH  20  21
ENDBRANCH   1  20
TORSDOF 16
