REMARK SMILES CC1(C)Oc2ccc(NC(=O)[C@H]3CC=CC[C@@H]3C(=O)OCCOCCOC(=O)c3ccc(-c4c5nc(c(-c6c(F)cccc6F)c6ccc([nH]6)c(-c6c(F)cccc6F)c6nc(c(-c7c(F)cccc7F)c7ccc4[nH]7)C=C6)C=C5)cc3)cc2NC1=O
REMARK SMILES IDX 23 1 22 2 21 3 20 4 18 5 19 6 17 7 12 8 13 9 14 10 16 11
REMARK SMILES IDX 15 12 10 13 9 14 11 16 8 17 1 18 2 19 3 20 4 21 86 22 5 23
REMARK SMILES IDX 85 24 87 25 6 26 84 27 7 29 83 30 24 31 25 32 26 33 27 34
REMARK SMILES IDX 28 35 29 36 30 37 82 38 31 39 81 40 32 41 33 42 34 43 75 44
REMARK SMILES IDX 35 45 80 46 74 47 76 48 36 49 79 50 73 51 72 52 37 54 63 55
REMARK SMILES IDX 46 56 62 57 47 58 50 59 61 60 77 61 48 62 49 63 60 65 78 66
REMARK SMILES IDX 51 67 38 68 39 69 44 70 40 71 41 72 43 73 45 74 42 75 64 76
REMARK SMILES IDX 65 77 70 78 66 79 67 80 69 81 71 82 68 83 52 84 53 85 58 86
REMARK SMILES IDX 54 87 55 88 57 89 59 90 56 91
REMARK H PARENT 9 15 85 28 76 53 50 64
REMARK Flexibility Score: inf
ROOT
ATOM      1  O   UNL     1       6.419  -8.151  -0.726  1.00  0.00    -0.374 OA
ENDROOT
BRANCH   1   2
ATOM      2  C   UNL     1       6.242  -6.836  -1.246  1.00  0.00     0.202 C 
BRANCH   2   3
ATOM      3  C   UNL     1       5.169  -6.618  -2.317  1.00  0.00     0.261 C 
BRANCH   3   4
ATOM      4  O   UNL     1       3.833  -6.897  -1.851  1.00  0.00    -0.463 OA
BRANCH   4   5
ATOM      5  C   UNL     1       3.265  -8.016  -2.389  1.00  0.00     0.310 C 
ATOM      6  O   UNL     1       3.842  -8.768  -3.161  1.00  0.00    -0.252 OA
BRANCH   5   7
ATOM      7  C   UNL     1       1.828  -8.202  -1.902  1.00  0.00     0.116 C 
ATOM      8  C   UNL     1       1.755  -8.919  -0.535  1.00  0.00     0.097 C 
ATOM      9  C   UNL     1       2.192 -10.401  -0.644  1.00  0.00     0.041 C 
ATOM     10  C   UNL     1       1.840 -11.074  -1.937  1.00  0.00    -0.030 C 
ATOM     11  C   UNL     1       1.034  -8.957  -2.981  1.00  0.00     0.043 C 
ATOM     12  C   UNL     1       1.296 -10.433  -2.980  1.00  0.00    -0.030 C 
BRANCH   8  13
ATOM     13  C   UNL     1       0.369  -8.795   0.102  1.00  0.00     0.228 C 
ATOM     14  N   UNL     1      -0.159  -7.610   0.528  1.00  0.00    -0.326 N 
ATOM     15  H   UNL     1      -1.078  -7.710   0.866  1.00  0.00     0.169 HD
ATOM     16  O   UNL     1      -0.362  -9.782   0.240  1.00  0.00    -0.274 OA
BRANCH  14  17
ATOM     17  C   UNL     1       0.296  -6.283   0.598  1.00  0.00     0.043 A 
ATOM     18  C   UNL     1       0.837   0.028   0.156  1.00  0.00     0.067 C 
ATOM     19  C   UNL     1       0.302  -1.380  -0.111  1.00  0.00     0.182 C 
ATOM     20  C   UNL     1      -0.015  -1.518  -1.613  1.00  0.00     0.067 C 
ATOM     21  O   UNL     1       1.369  -2.275   0.237  1.00  0.00    -0.476 OA
ATOM     22  C   UNL     1      -1.012  -1.621   0.670  1.00  0.00     0.268 C 
ATOM     23  C   UNL     1       0.974  -3.570   0.426  1.00  0.00     0.144 A 
ATOM     24  N   UNL     1      -1.308  -2.949   0.877  1.00  0.00    -0.319 N 
ATOM     25  O   UNL     1      -1.806  -0.740   0.988  1.00  0.00    -0.270 OA
ATOM     26  C   UNL     1       1.968  -4.535   0.387  1.00  0.00     0.051 A 
ATOM     27  C   UNL     1      -0.344  -3.942   0.683  1.00  0.00     0.086 A 
ATOM     28  H   UNL     1      -2.214  -3.204   1.167  1.00  0.00     0.170 HD
ATOM     29  C   UNL     1       1.629  -5.885   0.494  1.00  0.00     0.030 A 
ATOM     30  C   UNL     1      -0.686  -5.292   0.771  1.00  0.00     0.056 A 
ENDBRANCH  14  17
ENDBRANCH   8  13
ENDBRANCH   5   7
ENDBRANCH   4   5
ENDBRANCH   3   4
ENDBRANCH   2   3
ENDBRANCH   1   2
BRANCH   1  31
ATOM     31  C   UNL     1       5.430  -8.631   0.177  1.00  0.00     0.202 C 
BRANCH  31  32
ATOM     32  C   UNL     1       5.501  -8.162   1.636  1.00  0.00     0.261 C 
BRANCH  32  33
ATOM     33  O   UNL     1       5.436  -6.733   1.755  1.00  0.00    -0.460 OA
BRANCH  33  34
ATOM     34  C   UNL     1       6.633  -6.141   1.994  1.00  0.00     0.338 C 
ATOM     35  O   UNL     1       7.701  -6.691   2.211  1.00  0.00    -0.246 OA
BRANCH  34  36
ATOM     36  C   UNL     1       6.518  -4.692   1.746  1.00  0.00     0.060 A 
ATOM     37  C   UNL     1       5.501  -3.925   2.317  1.00  0.00     0.016 A 
ATOM     38  C   UNL     1       7.478  -4.099   0.914  1.00  0.00     0.016 A 
ATOM     39  C   UNL     1       5.474  -2.547   2.085  1.00  0.00     0.010 A 
ATOM     40  C   UNL     1       7.450  -2.725   0.686  1.00  0.00     0.010 A 
ATOM     41  C   UNL     1       6.464  -1.936   1.293  1.00  0.00    -0.014 A 
BRANCH  41  42
ATOM     42  C   UNL     1       6.556  -0.458   1.221  1.00  0.00     0.031 A 
ATOM     43  C   UNL     1       6.183   0.294  -0.019  1.00  0.00     0.074 A 
ATOM     44  C   UNL     1       7.031   0.200   2.296  1.00  0.00     0.049 A 
ATOM     45  N   UNL     1       6.168   1.587  -0.224  1.00  0.00    -0.248 NA
ATOM     46  C   UNL     1       5.785  -0.508  -1.185  1.00  0.00     0.031 C 
ATOM     47  C   UNL     1       7.474  -0.433   3.540  1.00  0.00     0.029 A 
ATOM     48  N   UNL     1       7.218   1.539   2.517  1.00  0.00    -0.354 N 
ATOM     49  C   UNL     1       5.741   1.760  -1.533  1.00  0.00     0.074 A 
ATOM     50  C   UNL     1       5.562   0.434  -2.092  1.00  0.00     0.031 C 
ATOM     51  C   UNL     1       7.851   0.520   4.406  1.00  0.00     0.029 A 
ATOM     52  C   UNL     1       7.710   1.824   3.768  1.00  0.00     0.049 A 
ATOM     53  H   UNL     1       7.020   2.231   1.845  1.00  0.00     0.167 HD
ATOM     54  C   UNL     1       5.505   2.917  -2.199  1.00  0.00     0.037 A 
ATOM     55  C   UNL     1       8.014   3.005   4.335  1.00  0.00     0.037 A 
ATOM     56  C   UNL     1       5.723   4.232  -1.646  1.00  0.00     0.049 A 
ATOM     57  C   UNL     1       7.799   4.269   3.550  1.00  0.00     0.074 A 
ATOM     58  C   UNL     1       5.485   5.465  -2.228  1.00  0.00     0.029 A 
ATOM     59  N   UNL     1       6.253   4.484  -0.388  1.00  0.00    -0.354 N 
ATOM     60  N   UNL     1       7.308   4.424   2.344  1.00  0.00    -0.248 NA
ATOM     61  C   UNL     1       8.175   5.525   4.212  1.00  0.00     0.031 C 
ATOM     62  C   UNL     1       5.925   6.461  -1.348  1.00  0.00     0.029 A 
ATOM     63  C   UNL     1       6.380   5.852  -0.191  1.00  0.00     0.049 A 
ATOM     64  H   UNL     1       6.503   3.794   0.268  1.00  0.00     0.167 HD
ATOM     65  C   UNL     1       7.292   5.793   2.114  1.00  0.00     0.074 A 
ATOM     66  C   UNL     1       7.798   6.424   3.316  1.00  0.00     0.031 C 
ATOM     67  C   UNL     1       6.894   6.469   1.007  1.00  0.00     0.037 A 
BRANCH  54  68
ATOM     68  C   UNL     1       4.992   2.809  -3.607  1.00  0.00     0.057 A 
ATOM     69  C   UNL     1       5.778   3.217  -4.693  1.00  0.00     0.134 A 
ATOM     70  C   UNL     1       3.707   2.326  -3.889  1.00  0.00     0.134 A 
ATOM     71  F   UNL     1       7.014   3.699  -4.498  1.00  0.00    -0.206 F 
ATOM     72  C   UNL     1       5.306   3.145  -6.005  1.00  0.00     0.040 A 
ATOM     73  C   UNL     1       3.234   2.222  -5.199  1.00  0.00     0.040 A 
ATOM     74  F   UNL     1       2.903   1.910  -2.898  1.00  0.00    -0.206 F 
ATOM     75  C   UNL     1       4.034   2.637  -6.262  1.00  0.00     0.006 A 
ENDBRANCH  54  68
BRANCH  55  76
ATOM     76  C   UNL     1       8.540   3.057   5.722  1.00  0.00     0.057 A 
ATOM     77  C   UNL     1       9.814   2.571   6.040  1.00  0.00     0.134 A 
ATOM     78  C   UNL     1       7.791   3.629   6.757  1.00  0.00     0.134 A 
ATOM     79  F   UNL     1      10.578   2.003   5.096  1.00  0.00    -0.206 F 
ATOM     80  C   UNL     1      10.325   2.654   7.336  1.00  0.00     0.040 A 
ATOM     81  C   UNL     1       8.301   3.746   8.050  1.00  0.00     0.040 A 
ATOM     82  F   UNL     1       6.569   4.126   6.511  1.00  0.00    -0.206 F 
ATOM     83  C   UNL     1       9.572   3.256   8.343  1.00  0.00     0.006 A 
ENDBRANCH  55  76
BRANCH  67  84
ATOM     84  C   UNL     1       6.967   7.969   1.064  1.00  0.00     0.057 A 
ATOM     85  C   UNL     1       5.797   8.739   1.096  1.00  0.00     0.134 A 
ATOM     86  C   UNL     1       8.190   8.654   1.087  1.00  0.00     0.134 A 
ATOM     87  F   UNL     1       4.592   8.151   1.069  1.00  0.00    -0.206 F 
ATOM     88  C   UNL     1       5.840  10.133   1.153  1.00  0.00     0.040 A 
ATOM     89  C   UNL     1       8.246  10.047   1.178  1.00  0.00     0.040 A 
ATOM     90  F   UNL     1       9.348   7.978   1.076  1.00  0.00    -0.206 F 
ATOM     91  C   UNL     1       7.068  10.790   1.206  1.00  0.00     0.006 A 
ENDBRANCH  67  84
ENDBRANCH  41  42
ENDBRANCH  34  36
ENDBRANCH  33  34
ENDBRANCH  32  33
ENDBRANCH  31  32
ENDBRANCH   1  31
TORSDOF 16
