REMARK SMILES O=C(OCCOCCOC(=O)c1ccc(-c2c3nc(c(-c4c(F)cccc4F)c4ccc([nH]4)c(-c4c(F)cccc4F)c4nc(c(-c5c(F)cccc5F)c5ccc2[nH]5)C=C4)C=C3)cc1)C1=Cc2cc(Cl)ccc2O[C@@H]1C(F)(F)F
REMARK SMILES IDX 7 1 6 2 5 3 4 4 3 5 2 6 1 7 66 8 67 9 76 10 68 11 75 12
REMARK SMILES IDX 69 13 74 14 70 15 73 16 71 17 72 18 77 19 78 20 79 21 80 22
REMARK SMILES IDX 8 23 9 24 10 25 11 26 12 27 13 28 65 29 14 30 64 31 15 32
REMARK SMILES IDX 16 33 17 34 58 35 18 36 63 37 57 38 59 39 19 40 62 41 56 42
REMARK SMILES IDX 55 43 20 45 46 46 29 47 45 48 30 49 33 50 44 51 60 52 31 53
REMARK SMILES IDX 32 54 43 56 61 57 34 58 21 59 22 60 27 61 23 62 24 63 26 64
REMARK SMILES IDX 28 65 25 66 47 67 48 68 53 69 49 70 50 71 52 72 54 73 51 74
REMARK SMILES IDX 35 75 36 76 41 77 37 78 38 79 40 80 42 81 39 82
REMARK H PARENT 59 44 33 55
REMARK Flexibility Score: inf
ROOT
ATOM      1  C   UNL     1       2.832   2.674   1.629  1.00  0.00     0.202 C 
ENDROOT
BRANCH   1   2
ATOM      2  O   UNL     1       4.032   1.881   1.693  1.00  0.00    -0.374 OA
BRANCH   2   3
ATOM      3  C   UNL     1       4.369   0.351   1.286  1.00  0.00     0.202 C 
BRANCH   3   4
ATOM      4  C   UNL     1       3.470  -0.966  -0.207  1.00  0.00     0.261 C 
BRANCH   4   5
ATOM      5  O   UNL     1       2.465  -2.089   0.059  1.00  0.00    -0.460 OA
BRANCH   5   6
ATOM      6  C   UNL     1       2.613  -2.636   1.268  1.00  0.00     0.338 C 
ATOM      7  O   UNL     1       1.941  -3.473   1.815  1.00  0.00    -0.246 OA
BRANCH   6   8
ATOM      8  C   UNL     1       3.533  -1.641   1.778  1.00  0.00     0.087 C 
ATOM      9  C   UNL     1       4.914  -1.858   1.283  1.00  0.00     0.027 C 
ATOM     10  C   UNL     1       2.429  -0.115   1.326  1.00  0.00     0.316 C 
ATOM     11  C   UNL     1       5.689  -0.855  -0.014  1.00  0.00     0.019 A 
ATOM     12  O   UNL     1       3.206   0.934  -0.098  1.00  0.00    -0.475 OA
ATOM     13  C   UNL     1       6.882  -1.251  -0.553  1.00  0.00     0.032 A 
ATOM     14  C   UNL     1       4.843   0.466  -0.761  1.00  0.00     0.128 A 
ATOM     15  C   UNL     1       7.264  -0.558  -1.715  1.00  0.00     0.041 A 
ATOM     16  C   UNL     1       5.237   0.998  -1.950  1.00  0.00     0.048 A 
ATOM     17  Cl  UNL     1       8.780  -1.008  -2.432  1.00  0.00    -0.084 Cl
ATOM     18  C   UNL     1       6.479   0.470  -2.389  1.00  0.00     0.024 A 
BRANCH  10  19
ATOM     19  C   UNL     1       2.002   0.279   2.809  1.00  0.00     0.430 C 
ATOM     20  F   UNL     1       1.127   1.294   2.915  1.00  0.00    -0.167 F 
ATOM     21  F   UNL     1       1.346  -0.800   3.335  1.00  0.00    -0.167 F 
ATOM     22  F   UNL     1       3.029   0.500   3.660  1.00  0.00    -0.167 F 
ENDBRANCH  10  19
ENDBRANCH   6   8
ENDBRANCH   5   6
ENDBRANCH   4   5
ENDBRANCH   3   4
ENDBRANCH   2   3
ENDBRANCH   1   2
BRANCH   1  23
ATOM     23  C   UNL     1       2.965   4.050   0.988  1.00  0.00     0.261 C 
BRANCH  23  24
ATOM     24  O   UNL     1       3.458   3.983  -0.340  1.00  0.00    -0.460 OA
BRANCH  24  25
ATOM     25  C   UNL     1       4.785   4.209  -0.444  1.00  0.00     0.338 C 
ATOM     26  O   UNL     1       5.604   4.315   0.450  1.00  0.00    -0.246 OA
BRANCH  25  27
ATOM     27  C   UNL     1       5.106   4.310  -1.875  1.00  0.00     0.060 A 
ATOM     28  C   UNL     1       6.375   3.896  -2.293  1.00  0.00     0.016 A 
ATOM     29  C   UNL     1       4.152   4.761  -2.798  1.00  0.00     0.016 A 
ATOM     30  C   UNL     1       6.676   3.879  -3.648  1.00  0.00     0.010 A 
ATOM     31  C   UNL     1       4.463   4.774  -4.149  1.00  0.00     0.010 A 
ATOM     32  C   UNL     1       5.726   4.336  -4.570  1.00  0.00    -0.014 A 
BRANCH  32  33
ATOM     33  C   UNL     1       6.135   4.586  -5.959  1.00  0.00     0.031 A 
ATOM     34  C   UNL     1       6.671   5.945  -6.273  1.00  0.00     0.074 A 
ATOM     35  C   UNL     1       6.007   3.636  -6.897  1.00  0.00     0.049 A 
ATOM     36  N   UNL     1       7.041   6.444  -7.419  1.00  0.00    -0.248 NA
ATOM     37  C   UNL     1       6.798   6.872  -5.134  1.00  0.00     0.031 C 
ATOM     38  C   UNL     1       5.520   2.278  -6.667  1.00  0.00     0.029 A 
ATOM     39  N   UNL     1       6.261   3.685  -8.241  1.00  0.00    -0.354 N 
ATOM     40  C   UNL     1       7.446   7.741  -7.140  1.00  0.00     0.074 A 
ATOM     41  C   UNL     1       7.246   7.964  -5.727  1.00  0.00     0.031 C 
ATOM     42  C   UNL     1       5.490   1.625  -7.842  1.00  0.00     0.029 A 
ATOM     43  C   UNL     1       5.917   2.534  -8.904  1.00  0.00     0.049 A 
ATOM     44  H   UNL     1       6.653   4.470  -8.688  1.00  0.00     0.167 HD
ATOM     45  C   UNL     1       7.941   8.661  -7.996  1.00  0.00     0.037 A 
ATOM     46  C   UNL     1       5.916   2.272 -10.225  1.00  0.00     0.037 A 
ATOM     47  C   UNL     1       8.086   8.427  -9.405  1.00  0.00     0.049 A 
ATOM     48  C   UNL     1       6.386   3.345 -11.175  1.00  0.00     0.074 A 
ATOM     49  C   UNL     1       8.578   9.281 -10.373  1.00  0.00     0.029 A 
ATOM     50  N   UNL     1       7.707   7.257 -10.051  1.00  0.00    -0.354 N 
ATOM     51  N   UNL     1       6.813   4.558 -10.907  1.00  0.00    -0.248 NA
ATOM     52  C   UNL     1       6.377   3.018 -12.606  1.00  0.00     0.031 C 
ATOM     53  C   UNL     1       8.420   8.660 -11.614  1.00  0.00     0.029 A 
ATOM     54  C   UNL     1       7.915   7.383 -11.412  1.00  0.00     0.049 A 
ATOM     55  H   UNL     1       7.345   6.458  -9.605  1.00  0.00     0.167 HD
ATOM     56  C   UNL     1       7.152   5.125 -12.129  1.00  0.00     0.074 A 
ATOM     57  C   UNL     1       6.886   4.121 -13.139  1.00  0.00     0.031 C 
ATOM     58  C   UNL     1       7.647   6.361 -12.394  1.00  0.00     0.037 A 
BRANCH  45  59
ATOM     59  C   UNL     1       8.281  10.007  -7.429  1.00  0.00     0.057 A 
ATOM     60  C   UNL     1       9.328  10.192  -6.515  1.00  0.00     0.134 A 
ATOM     61  C   UNL     1       7.526  11.133  -7.781  1.00  0.00     0.134 A 
ATOM     62  F   UNL     1      10.076   9.151  -6.116  1.00  0.00    -0.206 F 
ATOM     63  C   UNL     1       9.585  11.438  -5.942  1.00  0.00     0.040 A 
ATOM     64  C   UNL     1       7.797  12.391  -7.243  1.00  0.00     0.040 A 
ATOM     65  F   UNL     1       6.506  11.027  -8.646  1.00  0.00    -0.206 F 
ATOM     66  C   UNL     1       8.821  12.543  -6.311  1.00  0.00     0.006 A 
ENDBRANCH  45  59
BRANCH  46  67
ATOM     67  C   UNL     1       5.427   0.961 -10.721  1.00  0.00     0.057 A 
ATOM     68  C   UNL     1       6.286   0.043 -11.337  1.00  0.00     0.134 A 
ATOM     69  C   UNL     1       4.081   0.594 -10.593  1.00  0.00     0.134 A 
ATOM     70  F   UNL     1       7.582   0.341 -11.508  1.00  0.00    -0.206 F 
ATOM     71  C   UNL     1       5.822  -1.182 -11.822  1.00  0.00     0.040 A 
ATOM     72  C   UNL     1       3.609  -0.639 -11.046  1.00  0.00     0.040 A 
ATOM     73  F   UNL     1       3.205   1.425 -10.008  1.00  0.00    -0.206 F 
ATOM     74  C   UNL     1       4.481  -1.528 -11.671  1.00  0.00     0.006 A 
ENDBRANCH  46  67
BRANCH  58  75
ATOM     75  C   UNL     1       7.981   6.688 -13.822  1.00  0.00     0.057 A 
ATOM     76  C   UNL     1       6.993   6.903 -14.790  1.00  0.00     0.134 A 
ATOM     77  C   UNL     1       9.315   6.883 -14.205  1.00  0.00     0.134 A 
ATOM     78  F   UNL     1       5.697   6.726 -14.491  1.00  0.00    -0.206 F 
ATOM     79  C   UNL     1       7.321   7.289 -16.090  1.00  0.00     0.040 A 
ATOM     80  C   UNL     1       9.653   7.302 -15.491  1.00  0.00     0.040 A 
ATOM     81  F   UNL     1      10.310   6.707 -13.322  1.00  0.00    -0.206 F 
ATOM     82  C   UNL     1       8.654   7.502 -16.440  1.00  0.00     0.006 A 
ENDBRANCH  58  75
ENDBRANCH  32  33
ENDBRANCH  25  27
ENDBRANCH  24  25
ENDBRANCH  23  24
ENDBRANCH   1  23
TORSDOF 15
