REMARK SMILES COc1cc(/C=N/c2cccc(F)c2)ccc1OCc1cccc(C(=O)OCCOCCOC(=O)c2ccc(-c3c4nc(c(-c5c(F)cccc5F)c5ccc([nH]5)c(-c5c(F)cccc5F)c5nc(c(-c6c(F)cccc6F)c6ccc3[nH]6)C=C5)C=C4)cc2)c1
REMARK SMILES IDX 28 1 27 2 25 3 26 4 24 5 20 6 21 7 90 8 22 9 23 10 19 11
REMARK SMILES IDX 18 12 17 13 3 14 4 15 5 16 16 17 15 18 2 19 1 20 6 21 7 22
REMARK SMILES IDX 8 23 9 24 14 25 10 26 12 27 11 28 13 29 29 30 30 31 31 32
REMARK SMILES IDX 32 33 33 34 34 35 35 36 36 37 37 38 89 39 38 40 88 41 39 42
REMARK SMILES IDX 40 43 41 44 82 45 42 46 87 47 81 48 83 49 43 50 86 51 80 52
REMARK SMILES IDX 79 53 44 55 70 56 53 57 69 58 54 59 57 60 68 61 84 62 55 63
REMARK SMILES IDX 56 64 67 66 85 67 58 68 45 69 46 70 51 71 47 72 48 73 50 74
REMARK SMILES IDX 52 75 49 76 71 77 72 78 77 79 73 80 74 81 76 82 78 83 75 84
REMARK SMILES IDX 59 85 60 86 65 87 61 88 62 89 64 90 66 91 63 92
REMARK H PARENT 83 54 57 65
REMARK Flexibility Score: inf
ROOT
ATOM      1  C   UNL     1      -0.391  -4.596   2.577  1.00  0.00     0.261 C 
ENDROOT
BRANCH   1   2
ATOM      2  O   UNL     1       0.255  -3.392   2.132  1.00  0.00    -0.460 OA
BRANCH   2   3
ATOM      3  C   UNL     1      -0.564  -2.324   1.987  1.00  0.00     0.338 C 
ATOM      4  O   UNL     1      -1.788  -2.324   2.002  1.00  0.00    -0.246 OA
BRANCH   3   5
ATOM      5  C   UNL     1       0.235  -1.083   2.003  1.00  0.00     0.060 A 
ATOM      6  C   UNL     1       2.059   0.302   1.208  1.00  0.00    -0.010 A 
ATOM      7  C   UNL     1       1.641   1.317   2.086  1.00  0.00     0.007 A 
ATOM      8  C   UNL     1       1.388  -0.933   1.228  1.00  0.00     0.023 A 
ATOM      9  C   UNL     1       0.502   1.156   2.873  1.00  0.00     0.001 A 
ATOM     10  C   UNL     1      -0.217  -0.033   2.812  1.00  0.00     0.016 A 
BRANCH   6  11
ATOM     11  C   UNL     1       3.168   0.533   0.197  1.00  0.00     0.265 C 
BRANCH  11  12
ATOM     12  O   UNL     1       3.382   1.894  -0.201  1.00  0.00    -0.485 OA
BRANCH  12  13
ATOM     13  C   UNL     1       2.352   2.637  -0.718  1.00  0.00     0.161 A 
ATOM     14  C   UNL     1       1.165   2.183  -1.316  1.00  0.00     0.161 A 
ATOM     15  C   UNL     1       0.189   3.115  -1.703  1.00  0.00     0.060 A 
ATOM     16  C   UNL     1       0.390   4.483  -1.493  1.00  0.00    -0.003 A 
ATOM     17  C   UNL     1       2.553   4.017  -0.551  1.00  0.00     0.051 A 
ATOM     18  C   UNL     1       1.577   4.940  -0.926  1.00  0.00     0.014 A 
BRANCH  14  19
ATOM     19  O   UNL     1       1.016   0.847  -1.584  1.00  0.00    -0.493 OA
ATOM     20  C   UNL     1      -0.304   0.341  -1.379  1.00  0.00     0.278 C 
ENDBRANCH  14  19
BRANCH  16  21
ATOM     21  C   UNL     1      -0.619   5.472  -1.923  1.00  0.00     0.120 C 
ATOM     22  N   UNL     1      -1.736   5.113  -2.473  1.00  0.00    -0.256 NA
BRANCH  22  23
ATOM     23  C   UNL     1      -2.577   6.129  -2.953  1.00  0.00     0.066 A 
ATOM     24  C   UNL     1      -3.901   6.201  -2.507  1.00  0.00     0.028 A 
ATOM     25  C   UNL     1      -2.149   7.010  -3.950  1.00  0.00     0.067 A 
ATOM     26  C   UNL     1      -4.785   7.146  -3.040  1.00  0.00     0.005 A 
ATOM     27  C   UNL     1      -3.031   7.949  -4.472  1.00  0.00     0.125 A 
ATOM     28  C   UNL     1      -4.346   8.024  -4.029  1.00  0.00     0.039 A 
ATOM     29  F   UNL     1      -2.608   8.785  -5.430  1.00  0.00    -0.207 F 
ENDBRANCH  22  23
ENDBRANCH  16  21
ENDBRANCH  12  13
ENDBRANCH  11  12
ENDBRANCH   6  11
ENDBRANCH   3   5
ENDBRANCH   2   3
ENDBRANCH   1   2
BRANCH   1  30
ATOM     30  C   UNL     1       0.245  -5.121   3.869  1.00  0.00     0.202 C 
BRANCH  30  31
ATOM     31  O   UNL     1       0.115  -4.311   5.037  1.00  0.00    -0.374 OA
BRANCH  31  32
ATOM     32  C   UNL     1       0.870  -3.103   5.101  1.00  0.00     0.202 C 
BRANCH  32  33
ATOM     33  C   UNL     1       2.376  -3.214   5.375  1.00  0.00     0.261 C 
BRANCH  33  34
ATOM     34  O   UNL     1       3.074  -4.017   4.411  1.00  0.00    -0.460 OA
BRANCH  34  35
ATOM     35  C   UNL     1       3.524  -5.205   4.881  1.00  0.00     0.338 C 
ATOM     36  O   UNL     1       3.452  -5.631   6.026  1.00  0.00    -0.246 OA
BRANCH  35  37
ATOM     37  C   UNL     1       3.993  -6.036   3.760  1.00  0.00     0.060 A 
ATOM     38  C   UNL     1       3.365  -7.270   3.550  1.00  0.00     0.016 A 
ATOM     39  C   UNL     1       5.067  -5.638   2.962  1.00  0.00     0.016 A 
ATOM     40  C   UNL     1       3.815  -8.120   2.542  1.00  0.00     0.010 A 
ATOM     41  C   UNL     1       5.528  -6.499   1.961  1.00  0.00     0.010 A 
ATOM     42  C   UNL     1       4.915  -7.748   1.756  1.00  0.00    -0.014 A 
BRANCH  42  43
ATOM     43  C   UNL     1       5.476  -8.697   0.767  1.00  0.00     0.031 A 
ATOM     44  C   UNL     1       6.689  -9.505   1.123  1.00  0.00     0.074 A 
ATOM     45  C   UNL     1       4.906  -8.826  -0.444  1.00  0.00     0.049 A 
ATOM     46  N   UNL     1       7.384 -10.327   0.379  1.00  0.00    -0.248 NA
ATOM     47  C   UNL     1       7.186  -9.370   2.501  1.00  0.00     0.031 C 
ATOM     48  C   UNL     1       3.702  -8.127  -0.888  1.00  0.00     0.029 A 
ATOM     49  N   UNL     1       5.278  -9.582  -1.527  1.00  0.00    -0.354 N 
ATOM     50  C   UNL     1       8.402 -10.804   1.194  1.00  0.00     0.074 A 
ATOM     51  C   UNL     1       8.248 -10.162   2.482  1.00  0.00     0.031 C 
ATOM     52  C   UNL     1       3.443  -8.473  -2.160  1.00  0.00     0.029 A 
ATOM     53  C   UNL     1       4.484  -9.386  -2.629  1.00  0.00     0.049 A 
ATOM     54  H   UNL     1       6.041 -10.204  -1.515  1.00  0.00     0.167 HD
ATOM     55  C   UNL     1       9.371 -11.701   0.895  1.00  0.00     0.037 A 
ATOM     56  C   UNL     1       4.604  -9.862  -3.883  1.00  0.00     0.037 A 
ATOM     57  C   UNL     1       9.523 -12.332  -0.390  1.00  0.00     0.049 A 
ATOM     58  C   UNL     1       5.751 -10.776  -4.220  1.00  0.00     0.074 A 
ATOM     59  C   UNL     1      10.454 -13.279  -0.782  1.00  0.00     0.029 A 
ATOM     60  N   UNL     1       8.733 -12.066  -1.498  1.00  0.00    -0.354 N 
ATOM     61  N   UNL     1       6.691 -11.245  -3.436  1.00  0.00    -0.248 NA
ATOM     62  C   UNL     1       5.860 -11.217  -5.618  1.00  0.00     0.031 C 
ATOM     63  C   UNL     1      10.259 -13.546  -2.141  1.00  0.00     0.029 A 
ATOM     64  C   UNL     1       9.179 -12.801  -2.585  1.00  0.00     0.049 A 
ATOM     65  H   UNL     1       7.967 -11.447  -1.510  1.00  0.00     0.167 HD
ATOM     66  C   UNL     1       7.493 -12.047  -4.239  1.00  0.00     0.074 A 
ATOM     67  C   UNL     1       6.919 -12.013  -5.569  1.00  0.00     0.031 C 
ATOM     68  C   UNL     1       8.603 -12.749  -3.905  1.00  0.00     0.037 A 
BRANCH  55  69
ATOM     69  C   UNL     1      10.362 -12.031   1.971  1.00  0.00     0.057 A 
ATOM     70  C   UNL     1      10.016 -12.812   3.082  1.00  0.00     0.134 A 
ATOM     71  C   UNL     1      11.688 -11.588   1.880  1.00  0.00     0.134 A 
ATOM     72  F   UNL     1       8.760 -13.257   3.235  1.00  0.00    -0.206 F 
ATOM     73  C   UNL     1      10.948 -13.121   4.075  1.00  0.00     0.040 A 
ATOM     74  C   UNL     1      12.634 -11.910   2.854  1.00  0.00     0.040 A 
ATOM     75  F   UNL     1      12.086 -10.841   0.840  1.00  0.00    -0.206 F 
ATOM     76  C   UNL     1      12.263 -12.674   3.959  1.00  0.00     0.006 A 
ENDBRANCH  55  69
BRANCH  56  77
ATOM     77  C   UNL     1       3.627  -9.459  -4.924  1.00  0.00     0.057 A 
ATOM     78  C   UNL     1       2.710 -10.374  -5.450  1.00  0.00     0.134 A 
ATOM     79  C   UNL     1       3.591  -8.150  -5.422  1.00  0.00     0.134 A 
ATOM     80  F   UNL     1       2.712 -11.648  -5.031  1.00  0.00    -0.206 F 
ATOM     81  C   UNL     1       1.797 -10.006  -6.441  1.00  0.00     0.040 A 
ATOM     82  C   UNL     1       2.670  -7.762  -6.395  1.00  0.00     0.040 A 
ATOM     83  F   UNL     1       4.446  -7.226  -4.958  1.00  0.00    -0.206 F 
ATOM     84  C   UNL     1       1.772  -8.694  -6.911  1.00  0.00     0.006 A 
ENDBRANCH  56  77
BRANCH  68  85
ATOM     85  C   UNL     1       9.268 -13.543  -4.990  1.00  0.00     0.057 A 
ATOM     86  C   UNL     1      10.020 -12.926  -5.997  1.00  0.00     0.134 A 
ATOM     87  C   UNL     1       9.200 -14.943  -4.999  1.00  0.00     0.134 A 
ATOM     88  F   UNL     1      10.113 -11.588  -6.052  1.00  0.00    -0.206 F 
ATOM     89  C   UNL     1      10.669 -13.671  -6.983  1.00  0.00     0.040 A 
ATOM     90  C   UNL     1       9.864 -15.699  -5.965  1.00  0.00     0.040 A 
ATOM     91  F   UNL     1       8.502 -15.597  -4.058  1.00  0.00    -0.206 F 
ATOM     92  C   UNL     1      10.598 -15.063  -6.964  1.00  0.00     0.006 A 
ENDBRANCH  68  85
ENDBRANCH  42  43
ENDBRANCH  35  37
ENDBRANCH  34  35
ENDBRANCH  33  34
ENDBRANCH  32  33
ENDBRANCH  31  32
ENDBRANCH  30  31
ENDBRANCH   1  30
TORSDOF 20
