REMARK SMILES O=C(OCCOCCOC(=O)c1ccccc1/N=C/c1coc2ccccc2c1=O)c1ccc(-c2c3nc(c(-c4c(F)cccc4F)c4ccc([nH]4)c(-c4c(F)cccc4F)c4nc(c(-c5c(F)cccc5F)c5ccc2[nH]5)C=C4)C=C3)cc1
REMARK SMILES IDX 6 1 5 2 4 3 3 4 2 5 1 6 31 7 32 8 84 9 33 10 83 11 34 12
REMARK SMILES IDX 35 13 36 14 77 15 37 16 82 17 76 18 78 19 38 20 81 21 75 22
REMARK SMILES IDX 74 23 39 25 65 26 48 27 64 28 49 29 52 30 63 31 79 32 50 33
REMARK SMILES IDX 51 34 62 36 80 37 53 38 40 39 41 40 46 41 42 42 43 43 45 44
REMARK SMILES IDX 47 45 44 46 66 47 67 48 72 49 68 50 69 51 71 52 73 53 70 54
REMARK SMILES IDX 54 55 55 56 60 57 56 58 57 59 59 60 61 61 58 62 7 63 8 64
REMARK SMILES IDX 9 65 10 66 11 67 12 68 13 69 17 70 14 71 16 72 15 73 18 74
REMARK SMILES IDX 19 75 20 76 21 77 29 78 22 79 28 80 30 81 23 82 27 83 24 84
REMARK SMILES IDX 26 85 25 86
REMARK H PARENT 78 24 52 35
REMARK Flexibility Score: inf
ROOT
ATOM      1  O   UNL     1       4.170   0.988   0.475  1.00  0.00    -0.374 OA
ENDROOT
BRANCH   1   2
ATOM      2  C   UNL     1       4.319   1.076  -0.931  1.00  0.00     0.202 C 
BRANCH   2   3
ATOM      3  C   UNL     1       3.909  -0.192  -1.682  1.00  0.00     0.261 C 
BRANCH   3   4
ATOM      4  O   UNL     1       2.526  -0.511  -1.432  1.00  0.00    -0.460 OA
BRANCH   4   5
ATOM      5  C   UNL     1       2.028  -1.537  -0.698  1.00  0.00     0.338 C 
ATOM      6  O   UNL     1       0.820  -1.761  -0.721  1.00  0.00    -0.246 OA
BRANCH   5   7
ATOM      7  C   UNL     1       2.881  -2.400   0.172  1.00  0.00     0.060 A 
ATOM      8  C   UNL     1       4.062  -1.963   0.764  1.00  0.00     0.016 A 
ATOM      9  C   UNL     1       2.428  -3.687   0.496  1.00  0.00     0.016 A 
ATOM     10  C   UNL     1       4.812  -2.759   1.595  1.00  0.00     0.010 A 
ATOM     11  C   UNL     1       3.160  -4.500   1.371  1.00  0.00     0.010 A 
ATOM     12  C   UNL     1       4.361  -4.029   1.913  1.00  0.00    -0.014 A 
BRANCH  12  13
ATOM     13  C   UNL     1       5.303  -4.843   2.691  1.00  0.00     0.031 A 
ATOM     14  C   UNL     1       6.104  -5.863   1.951  1.00  0.00     0.074 A 
ATOM     15  C   UNL     1       5.601  -4.466   3.949  1.00  0.00     0.049 A 
ATOM     16  N   UNL     1       6.997  -6.697   2.403  1.00  0.00    -0.248 NA
ATOM     17  C   UNL     1       5.890  -5.936   0.493  1.00  0.00     0.031 C 
ATOM     18  C   UNL     1       4.994  -3.331   4.657  1.00  0.00     0.029 A 
ATOM     19  N   UNL     1       6.526  -4.947   4.832  1.00  0.00    -0.354 N 
ATOM     20  C   UNL     1       7.426  -7.414   1.296  1.00  0.00     0.074 A 
ATOM     21  C   UNL     1       6.700  -6.924   0.148  1.00  0.00     0.031 C 
ATOM     22  C   UNL     1       5.584  -3.192   5.855  1.00  0.00     0.029 A 
ATOM     23  C   UNL     1       6.537  -4.278   6.032  1.00  0.00     0.049 A 
ATOM     24  H   UNL     1       7.127  -5.700   4.627  1.00  0.00     0.167 HD
ATOM     25  C   UNL     1       8.346  -8.402   1.260  1.00  0.00     0.037 A 
ATOM     26  C   UNL     1       7.211  -4.561   7.161  1.00  0.00     0.037 A 
ATOM     27  C   UNL     1       9.043  -8.852   2.432  1.00  0.00     0.049 A 
ATOM     28  C   UNL     1       8.121  -5.758   7.128  1.00  0.00     0.074 A 
ATOM     29  C   UNL     1       9.908  -9.918   2.575  1.00  0.00     0.029 A 
ATOM     30  N   UNL     1       8.948  -8.236   3.675  1.00  0.00    -0.354 N 
ATOM     31  N   UNL     1       8.432  -6.532   6.112  1.00  0.00    -0.248 NA
ATOM     32  C   UNL     1       8.758  -6.139   8.392  1.00  0.00     0.031 C 
ATOM     33  C   UNL     1      10.302  -9.972   3.917  1.00  0.00     0.029 A 
ATOM     34  C   UNL     1       9.728  -8.906   4.597  1.00  0.00     0.049 A 
ATOM     35  H   UNL     1       8.404  -7.438   3.870  1.00  0.00     0.167 HD
ATOM     36  C   UNL     1       9.309  -7.483   6.609  1.00  0.00     0.074 A 
ATOM     37  C   UNL     1       9.507  -7.164   8.011  1.00  0.00     0.031 C 
ATOM     38  C   UNL     1       9.891  -8.535   5.981  1.00  0.00     0.037 A 
BRANCH  25  39
ATOM     39  C   UNL     1       8.554  -9.091  -0.054  1.00  0.00     0.057 A 
ATOM     40  C   UNL     1       9.211  -8.476  -1.128  1.00  0.00     0.134 A 
ATOM     41  C   UNL     1       8.034 -10.374  -0.265  1.00  0.00     0.134 A 
ATOM     42  F   UNL     1       9.694  -7.230  -1.006  1.00  0.00    -0.206 F 
ATOM     43  C   UNL     1       9.325  -9.104  -2.370  1.00  0.00     0.040 A 
ATOM     44  C   UNL     1       8.162 -11.022  -1.495  1.00  0.00     0.040 A 
ATOM     45  F   UNL     1       7.376 -11.011   0.714  1.00  0.00    -0.206 F 
ATOM     46  C   UNL     1       8.804 -10.384  -2.554  1.00  0.00     0.006 A 
ENDBRANCH  25  39
BRANCH  26  47
ATOM     47  C   UNL     1       6.977  -3.790   8.412  1.00  0.00     0.057 A 
ATOM     48  C   UNL     1       8.009  -3.106   9.065  1.00  0.00     0.134 A 
ATOM     49  C   UNL     1       5.716  -3.770   9.026  1.00  0.00     0.134 A 
ATOM     50  F   UNL     1       9.246  -3.096   8.546  1.00  0.00    -0.206 F 
ATOM     51  C   UNL     1       7.807  -2.466  10.291  1.00  0.00     0.040 A 
ATOM     52  C   UNL     1       5.490  -3.105  10.233  1.00  0.00     0.040 A 
ATOM     53  F   UNL     1       4.676  -4.404   8.463  1.00  0.00    -0.206 F 
ATOM     54  C   UNL     1       6.543  -2.463  10.877  1.00  0.00     0.006 A 
ENDBRANCH  26  47
BRANCH  38  55
ATOM     55  C   UNL     1      10.813  -9.376   6.810  1.00  0.00     0.057 A 
ATOM     56  C   UNL     1      10.334 -10.226   7.813  1.00  0.00     0.134 A 
ATOM     57  C   UNL     1      12.193  -9.349   6.578  1.00  0.00     0.134 A 
ATOM     58  F   UNL     1       9.023 -10.282   8.091  1.00  0.00    -0.206 F 
ATOM     59  C   UNL     1      11.203 -10.999   8.582  1.00  0.00     0.040 A 
ATOM     60  C   UNL     1      13.067 -10.143   7.316  1.00  0.00     0.040 A 
ATOM     61  F   UNL     1      12.709  -8.562   5.621  1.00  0.00    -0.206 F 
ATOM     62  C   UNL     1      12.573 -10.963   8.328  1.00  0.00     0.006 A 
ENDBRANCH  38  55
ENDBRANCH  12  13
ENDBRANCH   5   7
ENDBRANCH   4   5
ENDBRANCH   3   4
ENDBRANCH   2   3
ENDBRANCH   1   2
BRANCH   1  63
ATOM     63  C   UNL     1       2.860   1.197   1.014  1.00  0.00     0.202 C 
BRANCH  63  64
ATOM     64  C   UNL     1       3.077   1.865   2.356  1.00  0.00     0.261 C 
BRANCH  64  65
ATOM     65  O   UNL     1       3.775   3.077   2.053  1.00  0.00    -0.460 OA
BRANCH  65  66
ATOM     66  C   UNL     1       5.125   3.041   2.123  1.00  0.00     0.340 C 
ATOM     67  O   UNL     1       5.831   2.171   2.608  1.00  0.00    -0.246 OA
BRANCH  66  68
ATOM     68  C   UNL     1       5.634   4.215   1.407  1.00  0.00     0.085 A 
ATOM     69  C   UNL     1       6.471   3.947   0.306  1.00  0.00     0.018 A 
ATOM     70  C   UNL     1       5.216   5.523   1.708  1.00  0.00     0.077 A 
ATOM     71  C   UNL     1       6.884   4.980  -0.530  1.00  0.00     0.001 A 
ATOM     72  C   UNL     1       5.706   6.550   0.883  1.00  0.00     0.029 A 
ATOM     73  C   UNL     1       6.516   6.286  -0.230  1.00  0.00     0.002 A 
BRANCH  70  74
ATOM     74  N   UNL     1       4.100   5.871   2.490  1.00  0.00    -0.255 NA
ATOM     75  C   UNL     1       3.651   5.222   3.514  1.00  0.00     0.127 C 
BRANCH  75  76
ATOM     76  C   UNL     1       2.156   5.160   3.797  1.00  0.00     0.076 A 
ATOM     77  C   UNL     1       1.640   6.288   4.323  1.00  0.00     0.209 A 
ATOM     78  C   UNL     1       1.320   4.921   2.553  1.00  0.00     0.201 A 
ATOM     79  O   UNL     1       1.482   7.460   3.547  1.00  0.00    -0.463 OA
ATOM     80  C   UNL     1       1.437   6.032   1.589  1.00  0.00     0.065 A 
ATOM     81  O   UNL     1       0.638   3.926   2.359  1.00  0.00    -0.288 OA
ATOM     82  C   UNL     1       1.607   7.293   2.177  1.00  0.00     0.137 A 
ATOM     83  C   UNL     1       1.723   5.804   0.244  1.00  0.00     0.016 A 
ATOM     84  C   UNL     1       2.074   8.354   1.417  1.00  0.00     0.048 A 
ATOM     85  C   UNL     1       2.239   6.863  -0.505  1.00  0.00     0.001 A 
ATOM     86  C   UNL     1       2.417   8.127   0.080  1.00  0.00     0.004 A 
ENDBRANCH  75  76
ENDBRANCH  70  74
ENDBRANCH  66  68
ENDBRANCH  65  66
ENDBRANCH  64  65
ENDBRANCH  63  64
ENDBRANCH   1  63
TORSDOF 16
