REMARK SMILES CCC[C@@H](C(=O)OCCOCCOC(=O)c1ccc(-c2c3nc(c(-c4c(F)cccc4F)c4ccc([nH]4)c(-c4c(F)cccc4F)c4nc(c(-c5c(F)cccc5F)c5ccc2[nH]5)C=C4)C=C3)cc1)n1nc(/C=C/c2ccc(OC)cc2)ccc1=O
REMARK SMILES IDX 9 1 8 2 7 3 5 4 6 5 4 6 3 7 2 8 1 9 70 10 71 11 85 12 72 13
REMARK SMILES IDX 84 14 86 15 83 16 73 17 74 18 75 19 76 20 82 21 77 22 81 23
REMARK SMILES IDX 78 24 79 25 80 26 10 27 11 28 12 29 13 30 14 31 15 32 16 33
REMARK SMILES IDX 17 34 69 35 18 36 68 37 19 38 20 39 21 40 62 41 22 42 67 43
REMARK SMILES IDX 61 44 63 45 23 46 66 47 60 48 59 49 24 51 50 52 33 53 49 54
REMARK SMILES IDX 34 55 37 56 48 57 64 58 35 59 36 60 47 62 65 63 38 64 25 65
REMARK SMILES IDX 26 66 31 67 27 68 28 69 30 70 32 71 29 72 51 73 52 74 57 75
REMARK SMILES IDX 53 76 54 77 56 78 58 79 55 80 39 81 40 82 45 83 41 84 42 85
REMARK SMILES IDX 44 86 46 87 43 88
REMARK H PARENT 63 50 37 61
REMARK Flexibility Score: inf
ROOT
ATOM      1  C   UNL     1      -3.820   0.616   2.671  1.00  0.00     0.202 C 
ENDROOT
BRANCH   1   2
ATOM      2  C   UNL     1      -2.993   1.567   1.807  1.00  0.00     0.261 C 
BRANCH   2   3
ATOM      3  O   UNL     1      -1.622   1.145   1.806  1.00  0.00    -0.462 OA
BRANCH   3   4
ATOM      4  C   UNL     1      -0.694   2.125   1.972  1.00  0.00     0.331 C 
ATOM      5  O   UNL     1      -0.968   3.319   1.896  1.00  0.00    -0.250 OA
BRANCH   4   6
ATOM      6  C   UNL     1       0.713   1.559   2.302  1.00  0.00     0.221 C 
BRANCH   6   7
ATOM      7  C   UNL     1       0.901   0.042   2.041  1.00  0.00     0.039 C 
BRANCH   7   8
ATOM      8  C   UNL     1       0.493  -0.556   0.690  1.00  0.00    -0.001 C 
ATOM      9  C   UNL     1       1.028   0.184  -0.518  1.00  0.00     0.004 C 
ENDBRANCH   7   8
ENDBRANCH   6   7
BRANCH   6  10
ATOM     10  N   UNL     1       1.135   2.018   3.678  1.00  0.00    -0.215 N 
ATOM     11  N   UNL     1       0.921   3.369   3.926  1.00  0.00    -0.169 NA
ATOM     12  C   UNL     1       1.664   1.177   4.655  1.00  0.00     0.267 A 
ATOM     13  C   UNL     1       1.220   3.870   5.087  1.00  0.00     0.084 A 
ATOM     14  C   UNL     1       2.089   1.816   5.918  1.00  0.00     0.075 A 
ATOM     15  O   UNL     1       1.817  -0.039   4.581  1.00  0.00    -0.268 OA
ATOM     16  C   UNL     1       1.887   3.110   6.155  1.00  0.00     0.036 A 
BRANCH  13  17
ATOM     17  C   UNL     1       0.803   5.276   5.378  1.00  0.00     0.031 C 
ATOM     18  C   UNL     1       1.141   6.005   6.453  1.00  0.00     0.010 C 
BRANCH  18  19
ATOM     19  C   UNL     1       0.588   7.337   6.739  1.00  0.00    -0.025 A 
ATOM     20  C   UNL     1       1.440   8.350   7.185  1.00  0.00     0.012 A 
ATOM     21  C   UNL     1      -0.789   7.590   6.683  1.00  0.00     0.012 A 
ATOM     22  C   UNL     1       0.924   9.598   7.551  1.00  0.00     0.047 A 
ATOM     23  C   UNL     1      -1.304   8.839   7.054  1.00  0.00     0.047 A 
ATOM     24  C   UNL     1      -0.448   9.850   7.489  1.00  0.00     0.118 A 
BRANCH  24  25
ATOM     25  O   UNL     1      -0.816  11.104   7.888  1.00  0.00    -0.497 OA
ATOM     26  C   UNL     1      -2.197  11.431   7.796  1.00  0.00     0.278 C 
ENDBRANCH  24  25
ENDBRANCH  18  19
ENDBRANCH  13  17
ENDBRANCH   6  10
ENDBRANCH   4   6
ENDBRANCH   3   4
ENDBRANCH   2   3
ENDBRANCH   1   2
BRANCH   1  27
ATOM     27  O   UNL     1      -3.470   0.565   4.055  1.00  0.00    -0.374 OA
BRANCH  27  28
ATOM     28  C   UNL     1      -2.263  -0.114   4.409  1.00  0.00     0.202 C 
BRANCH  28  29
ATOM     29  C   UNL     1      -2.299  -1.648   4.363  1.00  0.00     0.261 C 
BRANCH  29  30
ATOM     30  O   UNL     1      -2.459  -2.162   3.027  1.00  0.00    -0.460 OA
BRANCH  30  31
ATOM     31  C   UNL     1      -3.646  -2.768   2.786  1.00  0.00     0.338 C 
ATOM     32  O   UNL     1      -4.555  -2.968   3.580  1.00  0.00    -0.246 OA
BRANCH  31  33
ATOM     33  C   UNL     1      -3.800  -3.015   1.341  1.00  0.00     0.060 A 
ATOM     34  C   UNL     1      -4.951  -2.518   0.712  1.00  0.00     0.016 A 
ATOM     35  C   UNL     1      -2.879  -3.785   0.630  1.00  0.00     0.016 A 
ATOM     36  C   UNL     1      -5.207  -2.824  -0.623  1.00  0.00     0.010 A 
ATOM     37  C   UNL     1      -3.144  -4.103  -0.706  1.00  0.00     0.010 A 
ATOM     38  C   UNL     1      -4.324  -3.651  -1.327  1.00  0.00    -0.014 A 
BRANCH  38  39
ATOM     39  C   UNL     1      -4.700  -4.177  -2.661  1.00  0.00     0.031 A 
ATOM     40  C   UNL     1      -5.255  -5.569  -2.760  1.00  0.00     0.074 A 
ATOM     41  C   UNL     1      -4.533  -3.436  -3.769  1.00  0.00     0.049 A 
ATOM     42  N   UNL     1      -5.538  -6.278  -3.822  1.00  0.00    -0.248 NA
ATOM     43  C   UNL     1      -5.518  -6.257  -1.486  1.00  0.00     0.031 C 
ATOM     44  C   UNL     1      -4.041  -2.061  -3.799  1.00  0.00     0.029 A 
ATOM     45  N   UNL     1      -4.736  -3.754  -5.089  1.00  0.00    -0.354 N 
ATOM     46  C   UNL     1      -5.991  -7.502  -3.347  1.00  0.00     0.074 A 
ATOM     47  C   UNL     1      -5.930  -7.445  -1.902  1.00  0.00     0.031 C 
ATOM     48  C   UNL     1      -3.945  -1.663  -5.079  1.00  0.00     0.029 A 
ATOM     49  C   UNL     1      -4.333  -2.768  -5.955  1.00  0.00     0.049 A 
ATOM     50  H   UNL     1      -5.131  -4.606  -5.385  1.00  0.00     0.167 HD
ATOM     51  C   UNL     1      -6.417  -8.576  -4.052  1.00  0.00     0.037 A 
ATOM     52  C   UNL     1      -4.249  -2.773  -7.299  1.00  0.00     0.037 A 
ATOM     53  C   UNL     1      -6.481  -8.626  -5.488  1.00  0.00     0.049 A 
ATOM     54  C   UNL     1      -4.672  -3.997  -8.067  1.00  0.00     0.074 A 
ATOM     55  C   UNL     1      -6.936  -9.653  -6.296  1.00  0.00     0.029 A 
ATOM     56  N   UNL     1      -6.062  -7.608  -6.332  1.00  0.00    -0.354 N 
ATOM     57  N   UNL     1      -5.128  -5.139  -7.612  1.00  0.00    -0.248 NA
ATOM     58  C   UNL     1      -4.569  -3.933  -9.532  1.00  0.00     0.031 C 
ATOM     59  C   UNL     1      -6.745  -9.276  -7.630  1.00  0.00     0.029 A 
ATOM     60  C   UNL     1      -6.218  -7.994  -7.652  1.00  0.00     0.049 A 
ATOM     61  H   UNL     1      -5.706  -6.739  -6.035  1.00  0.00     0.167 HD
ATOM     62  C   UNL     1      -5.389  -5.920  -8.732  1.00  0.00     0.074 A 
ATOM     63  C   UNL     1      -5.044  -5.120  -9.889  1.00  0.00     0.031 C 
ATOM     64  C   UNL     1      -5.876  -7.184  -8.794  1.00  0.00     0.037 A 
BRANCH  51  65
ATOM     65  C   UNL     1      -6.807  -9.798  -3.274  1.00  0.00     0.057 A 
ATOM     66  C   UNL     1      -7.974  -9.849  -2.502  1.00  0.00     0.134 A 
ATOM     67  C   UNL     1      -6.001 -10.944  -3.304  1.00  0.00     0.134 A 
ATOM     68  F   UNL     1      -8.782  -8.781  -2.419  1.00  0.00    -0.206 F 
ATOM     69  C   UNL     1      -8.310 -10.985  -1.763  1.00  0.00     0.040 A 
ATOM     70  C   UNL     1      -6.340 -12.094  -2.591  1.00  0.00     0.040 A 
ATOM     71  F   UNL     1      -4.871 -10.963  -4.028  1.00  0.00    -0.206 F 
ATOM     72  C   UNL     1      -7.494 -12.114  -1.810  1.00  0.00     0.006 A 
ENDBRANCH  51  65
BRANCH  52  73
ATOM     73  C   UNL     1      -3.707  -1.583  -8.000  1.00  0.00     0.057 A 
ATOM     74  C   UNL     1      -4.532  -0.742  -8.753  1.00  0.00     0.134 A 
ATOM     75  C   UNL     1      -2.349  -1.250  -7.915  1.00  0.00     0.134 A 
ATOM     76  F   UNL     1      -5.836  -1.022  -8.889  1.00  0.00    -0.206 F 
ATOM     77  C   UNL     1      -4.026   0.387  -9.400  1.00  0.00     0.040 A 
ATOM     78  C   UNL     1      -1.834  -0.113  -8.538  1.00  0.00     0.040 A 
ATOM     79  F   UNL     1      -1.506  -2.017  -7.206  1.00  0.00    -0.206 F 
ATOM     80  C   UNL     1      -2.675   0.709  -9.286  1.00  0.00     0.006 A 
ENDBRANCH  52  73
BRANCH  64  81
ATOM     81  C   UNL     1      -6.100  -7.777 -10.154  1.00  0.00     0.057 A 
ATOM     82  C   UNL     1      -5.040  -8.225 -10.950  1.00  0.00     0.134 A 
ATOM     83  C   UNL     1      -7.401  -7.969 -10.639  1.00  0.00     0.134 A 
ATOM     84  F   UNL     1      -3.771  -8.060 -10.548  1.00  0.00    -0.206 F 
ATOM     85  C   UNL     1      -5.264  -8.838 -12.184  1.00  0.00     0.040 A 
ATOM     86  C   UNL     1      -7.638  -8.601 -11.861  1.00  0.00     0.040 A 
ATOM     87  F   UNL     1      -8.461  -7.570  -9.921  1.00  0.00    -0.206 F 
ATOM     88  C   UNL     1      -6.567  -9.036 -12.638  1.00  0.00     0.006 A 
ENDBRANCH  64  81
ENDBRANCH  38  39
ENDBRANCH  31  33
ENDBRANCH  30  31
ENDBRANCH  29  30
ENDBRANCH  28  29
ENDBRANCH  27  28
ENDBRANCH   1  27
TORSDOF 20
