REMARK SMILES COc1ccc(C(C)(C)C)cc1CC(=O)OCCOCCOC(=O)c1ccc(-c2c3nc(c(-c4c(F)cccc4F)c4ccc([nH]4)c(-c4c(F)cccc4F)c4nc(c(-c5c(F)cccc5F)c5ccc2[nH]5)C=C4)C=C3)cc1
REMARK SMILES IDX 19 1 18 2 17 3 16 4 14 5 15 6 13 7 12 8 3 9 4 10 5 11 11 12
REMARK SMILES IDX 6 13 2 14 1 15 7 16 8 17 9 18 10 19 20 20 21 21 22 22 23 23
REMARK SMILES IDX 24 24 25 25 26 26 78 27 27 28 77 29 28 30 29 31 30 32 71 33
REMARK SMILES IDX 31 34 76 35 70 36 72 37 32 38 75 39 69 40 68 41 33 43 59 44
REMARK SMILES IDX 42 45 58 46 43 47 46 48 57 49 73 50 44 51 45 52 56 54 74 55
REMARK SMILES IDX 47 56 34 57 35 58 40 59 36 60 37 61 39 62 41 63 38 64 60 65
REMARK SMILES IDX 61 66 66 67 62 68 63 69 65 70 67 71 64 72 48 73 49 74 54 75
REMARK SMILES IDX 50 76 51 77 53 78 55 79 52 80
REMARK H PARENT 72 42 46 53
REMARK Flexibility Score: inf
ROOT
ATOM      1  O   UNL     1       6.880  -1.175   3.149  1.00  0.00    -0.374 OA
ENDROOT
BRANCH   1   2
ATOM      2  C   UNL     1       6.199   0.033   3.506  1.00  0.00     0.202 C 
BRANCH   2   3
ATOM      3  C   UNL     1       5.286   0.627   2.427  1.00  0.00     0.261 C 
BRANCH   3   4
ATOM      4  O   UNL     1       4.219  -0.279   2.114  1.00  0.00    -0.463 OA
BRANCH   4   5
ATOM      5  C   UNL     1       3.873  -0.342   0.801  1.00  0.00     0.310 C 
ATOM      6  O   UNL     1       4.219   0.470  -0.051  1.00  0.00    -0.252 OA
BRANCH   5   7
ATOM      7  C   UNL     1       3.176  -1.638   0.451  1.00  0.00     0.162 C 
BRANCH   7   8
ATOM      8  C   UNL     1       2.199  -2.187   1.465  1.00  0.00     0.005 A 
ATOM      9  C   UNL     1       1.072  -1.467   1.877  1.00  0.00     0.122 A 
ATOM     10  C   UNL     1       0.194  -2.021   2.804  1.00  0.00     0.047 A 
ATOM     11  C   UNL     1       0.421  -3.300   3.322  1.00  0.00     0.008 A 
ATOM     12  C   UNL     1       2.416  -3.480   2.005  1.00  0.00     0.012 A 
ATOM     13  C   UNL     1       1.549  -4.055   2.953  1.00  0.00    -0.042 A 
BRANCH   9  14
ATOM     14  O   UNL     1       0.832  -0.170   1.518  1.00  0.00    -0.496 OA
ATOM     15  C   UNL     1       0.496   0.001   0.142  1.00  0.00     0.278 C 
ENDBRANCH   9  14
BRANCH  13  16
ATOM     16  C   UNL     1       1.793  -5.435   3.599  1.00  0.00    -0.013 C 
ATOM     17  C   UNL     1       1.830  -5.281   5.138  1.00  0.00     0.016 C 
ATOM     18  C   UNL     1       0.653  -6.400   3.213  1.00  0.00     0.016 C 
ATOM     19  C   UNL     1       3.111  -6.127   3.182  1.00  0.00     0.016 C 
ENDBRANCH  13  16
ENDBRANCH   7   8
ENDBRANCH   5   7
ENDBRANCH   4   5
ENDBRANCH   3   4
ENDBRANCH   2   3
ENDBRANCH   1   2
BRANCH   1  20
ATOM     20  C   UNL     1       6.090  -2.352   2.989  1.00  0.00     0.202 C 
BRANCH  20  21
ATOM     21  C   UNL     1       5.532  -2.973   4.270  1.00  0.00     0.261 C 
BRANCH  21  22
ATOM     22  O   UNL     1       4.742  -2.058   5.039  1.00  0.00    -0.460 OA
BRANCH  22  23
ATOM     23  C   UNL     1       5.021  -2.076   6.359  1.00  0.00     0.338 C 
ATOM     24  O   UNL     1       5.733  -2.868   6.962  1.00  0.00    -0.246 OA
BRANCH  23  25
ATOM     25  C   UNL     1       4.469  -0.882   7.009  1.00  0.00     0.060 A 
ATOM     26  C   UNL     1       5.382   0.042   7.525  1.00  0.00     0.016 A 
ATOM     27  C   UNL     1       3.098  -0.744   7.238  1.00  0.00     0.016 A 
ATOM     28  C   UNL     1       4.930   1.074   8.339  1.00  0.00     0.010 A 
ATOM     29  C   UNL     1       2.645   0.297   8.057  1.00  0.00     0.010 A 
ATOM     30  C   UNL     1       3.565   1.179   8.649  1.00  0.00    -0.014 A 
BRANCH  30  31
ATOM     31  C   UNL     1       3.163   2.134   9.709  1.00  0.00     0.031 A 
ATOM     32  C   UNL     1       2.985   1.639  11.118  1.00  0.00     0.074 A 
ATOM     33  C   UNL     1       3.072   3.447   9.437  1.00  0.00     0.049 A 
ATOM     34  N   UNL     1       2.809   2.322  12.220  1.00  0.00    -0.248 NA
ATOM     35  C   UNL     1       3.013   0.181  11.312  1.00  0.00     0.031 C 
ATOM     36  C   UNL     1       3.231   4.045   8.112  1.00  0.00     0.029 A 
ATOM     37  N   UNL     1       2.848   4.516  10.267  1.00  0.00    -0.354 N 
ATOM     38  C   UNL     1       2.727   1.381  13.239  1.00  0.00     0.074 A 
ATOM     39  C   UNL     1       2.824   0.077  12.619  1.00  0.00     0.031 C 
ATOM     40  C   UNL     1       3.118   5.380   8.222  1.00  0.00     0.029 A 
ATOM     41  C   UNL     1       2.877   5.726   9.621  1.00  0.00     0.049 A 
ATOM     42  H   UNL     1       2.683   4.423  11.233  1.00  0.00     0.167 HD
ATOM     43  C   UNL     1       2.602   1.585  14.572  1.00  0.00     0.037 A 
ATOM     44  C   UNL     1       2.741   6.974  10.108  1.00  0.00     0.037 A 
ATOM     45  C   UNL     1       2.496   2.882  15.187  1.00  0.00     0.049 A 
ATOM     46  C   UNL     1       2.584   7.176  11.590  1.00  0.00     0.074 A 
ATOM     47  C   UNL     1       2.365   3.195  16.529  1.00  0.00     0.029 A 
ATOM     48  N   UNL     1       2.505   4.084  14.495  1.00  0.00    -0.354 N 
ATOM     49  N   UNL     1       2.554   6.280  12.548  1.00  0.00    -0.248 NA
ATOM     50  C   UNL     1       2.463   8.563  12.061  1.00  0.00     0.031 C 
ATOM     51  C   UNL     1       2.261   4.586  16.646  1.00  0.00     0.029 A 
ATOM     52  C   UNL     1       2.368   5.140  15.380  1.00  0.00     0.049 A 
ATOM     53  H   UNL     1       2.595   4.173  13.519  1.00  0.00     0.167 HD
ATOM     54  C   UNL     1       2.435   6.994  13.733  1.00  0.00     0.074 A 
ATOM     55  C   UNL     1       2.413   8.398  13.375  1.00  0.00     0.031 C 
ATOM     56  C   UNL     1       2.350   6.530  15.004  1.00  0.00     0.037 A 
BRANCH  43  57
ATOM     57  C   UNL     1       2.566   0.371  15.452  1.00  0.00     0.057 A 
ATOM     58  C   UNL     1       3.717  -0.386  15.707  1.00  0.00     0.134 A 
ATOM     59  C   UNL     1       1.375  -0.034  16.067  1.00  0.00     0.134 A 
ATOM     60  F   UNL     1       4.886  -0.058  15.136  1.00  0.00    -0.206 F 
ATOM     61  C   UNL     1       3.681  -1.516  16.526  1.00  0.00     0.040 A 
ATOM     62  C   UNL     1       1.331  -1.149  16.906  1.00  0.00     0.040 A 
ATOM     63  F   UNL     1       0.238   0.648  15.867  1.00  0.00    -0.206 F 
ATOM     64  C   UNL     1       2.485  -1.897  17.133  1.00  0.00     0.006 A 
ENDBRANCH  43  57
BRANCH  44  65
ATOM     65  C   UNL     1       2.781   8.132   9.182  1.00  0.00     0.057 A 
ATOM     66  C   UNL     1       3.874   9.006   9.154  1.00  0.00     0.134 A 
ATOM     67  C   UNL     1       1.726   8.388   8.299  1.00  0.00     0.134 A 
ATOM     68  F   UNL     1       4.906   8.822   9.990  1.00  0.00    -0.206 F 
ATOM     69  C   UNL     1       3.911  10.101   8.290  1.00  0.00     0.040 A 
ATOM     70  C   UNL     1       1.759   9.466   7.414  1.00  0.00     0.040 A 
ATOM     71  F   UNL     1       0.652   7.585   8.277  1.00  0.00    -0.206 F 
ATOM     72  C   UNL     1       2.853  10.330   7.412  1.00  0.00     0.006 A 
ENDBRANCH  44  65
BRANCH  56  73
ATOM     73  C   UNL     1       2.251   7.551  16.099  1.00  0.00     0.057 A 
ATOM     74  C   UNL     1       1.073   8.273  16.328  1.00  0.00     0.134 A 
ATOM     75  C   UNL     1       3.336   7.793  16.949  1.00  0.00     0.134 A 
ATOM     76  F   UNL     1       0.002   8.094  15.540  1.00  0.00    -0.206 F 
ATOM     77  C   UNL     1       0.986   9.219  17.351  1.00  0.00     0.040 A 
ATOM     78  C   UNL     1       3.255   8.720  17.989  1.00  0.00     0.040 A 
ATOM     79  F   UNL     1       4.490   7.128  16.788  1.00  0.00    -0.206 F 
ATOM     80  C   UNL     1       2.079   9.441  18.188  1.00  0.00     0.006 A 
ENDBRANCH  56  73
ENDBRANCH  30  31
ENDBRANCH  23  25
ENDBRANCH  22  23
ENDBRANCH  21  22
ENDBRANCH  20  21
ENDBRANCH   1  20
TORSDOF 17
