REMARK SMILES Cc1cc(C)cc(Oc2nc3ccccn3c(=O)c2/C=C2\SC(=S)N(CCC(=O)OCCOCCOC(=O)c3ccc(-c4c5nc(c(-c6c(F)cccc6F)c6ccc([nH]6)c(-c6c(F)cccc6F)c6nc(c(-c7c(F)cccc7F)c7ccc4[nH]7)C=C6)C=C5)cc3)C2=O)c1
REMARK SMILES IDX 31 1 30 2 28 3 29 4 27 5 26 6 25 7 20 8 21 9 22 10 93 11
REMARK SMILES IDX 23 12 94 13 24 14 19 15 9 16 10 17 11 18 17 19 12 20 16 21
REMARK SMILES IDX 18 22 13 23 15 24 14 25 8 26 7 27 1 28 2 29 3 30 95 31 4 32
REMARK SMILES IDX 5 33 6 34 32 35 33 36 34 37 35 38 36 39 37 40 38 41 39 42
REMARK SMILES IDX 40 43 92 44 41 45 91 46 42 47 43 48 44 49 85 50 45 51 90 52
REMARK SMILES IDX 84 53 86 54 46 55 89 56 83 57 82 58 47 60 73 61 56 62 72 63
REMARK SMILES IDX 57 64 60 65 71 66 87 67 58 68 59 69 70 71 88 72 61 73 48 74
REMARK SMILES IDX 49 75 54 76 50 77 51 78 53 79 55 80 52 81 74 82 75 83 80 84
REMARK SMILES IDX 76 85 77 86 79 87 81 88 78 89 62 90 63 91 68 92 64 93 65 94
REMARK SMILES IDX 67 95 69 96 66 97
REMARK H PARENT 86 59 60 70
REMARK Flexibility Score: inf
ROOT
ATOM      1  C   UNL     1      -0.909   0.481   4.200  1.00  0.00     0.261 C 
ENDROOT
BRANCH   1   2
ATOM      2  O   UNL     1       0.327   1.037   3.701  1.00  0.00    -0.463 OA
BRANCH   2   3
ATOM      3  C   UNL     1       0.794   2.156   4.303  1.00  0.00     0.307 C 
ATOM      4  O   UNL     1       0.210   2.783   5.178  1.00  0.00    -0.252 OA
BRANCH   3   5
ATOM      5  C   UNL     1       2.137   2.578   3.747  1.00  0.00     0.144 C 
BRANCH   5   6
ATOM      6  C   UNL     1       3.327   1.691   4.130  1.00  0.00     0.139 C 
BRANCH   6   7
ATOM      7  N   UNL     1       3.649   0.644   3.147  1.00  0.00    -0.292 N 
ATOM      8  C   UNL     1       2.451  -2.364   1.623  1.00  0.00     0.041 C 
ATOM      9  C   UNL     1       3.273  -1.378   2.007  1.00  0.00     0.081 C 
ATOM     10  S   UNL     1       4.725  -0.817   1.301  1.00  0.00    -0.054 SA
ATOM     11  C   UNL     1       2.913  -0.516   3.141  1.00  0.00     0.266 C 
ATOM     12  C   UNL     1       4.717   0.659   2.272  1.00  0.00     0.148 C 
ATOM     13  O   UNL     1       2.092  -0.855   3.978  1.00  0.00    -0.268 OA
ATOM     14  S   UNL     1       5.871   1.845   2.077  1.00  0.00    -0.052 S 
BRANCH   8  15
ATOM     15  C   UNL     1       2.663  -3.268   0.510  1.00  0.00     0.104 A 
ATOM     16  C   UNL     1       1.843  -3.388  -0.556  1.00  0.00     0.234 A 
ATOM     17  N   UNL     1       2.039  -4.318  -1.542  1.00  0.00    -0.194 NA
ATOM     18  C   UNL     1       2.986  -5.187  -1.414  1.00  0.00     0.143 A 
ATOM     19  C   UNL     1       3.803  -4.234   0.615  1.00  0.00     0.269 A 
ATOM     20  C   UNL     1       3.134  -6.252  -2.445  1.00  0.00     0.048 A 
ATOM     21  N   UNL     1       3.891  -5.197  -0.370  1.00  0.00    -0.267 N 
ATOM     22  O   UNL     1       4.563  -4.181   1.587  1.00  0.00    -0.268 OA
ATOM     23  C   UNL     1       4.108  -7.162  -2.331  1.00  0.00     0.005 A 
ATOM     24  C   UNL     1       4.890  -6.162  -0.293  1.00  0.00     0.096 A 
ATOM     25  C   UNL     1       5.021  -7.116  -1.221  1.00  0.00     0.019 A 
BRANCH  16  26
ATOM     26  O   UNL     1       0.621  -2.720  -0.680  1.00  0.00    -0.438 OA
BRANCH  26  27
ATOM     27  C   UNL     1       0.475  -1.365  -0.536  1.00  0.00     0.130 A 
ATOM     28  C   UNL     1       2.445   1.865  -0.452  1.00  0.00     0.044 C 
ATOM     29  C   UNL     1       1.298   0.903  -0.417  1.00  0.00    -0.047 A 
ATOM     30  C   UNL     1       0.004   1.349  -0.118  1.00  0.00     0.007 A 
ATOM     31  C   UNL     1       1.510  -0.451  -0.687  1.00  0.00     0.050 A 
ATOM     32  C   UNL     1      -1.071   0.452  -0.072  1.00  0.00    -0.047 A 
ATOM     33  C   UNL     1      -2.465   0.969   0.136  1.00  0.00     0.044 C 
ATOM     34  C   UNL     1      -0.821  -0.912  -0.260  1.00  0.00     0.050 A 
ENDBRANCH  26  27
ENDBRANCH  16  26
ENDBRANCH   8  15
ENDBRANCH   6   7
ENDBRANCH   5   6
ENDBRANCH   3   5
ENDBRANCH   2   3
ENDBRANCH   1   2
BRANCH   1  35
ATOM     35  C   UNL     1      -0.711  -0.657   5.217  1.00  0.00     0.202 C 
BRANCH  35  36
ATOM     36  O   UNL     1      -0.354  -0.260   6.543  1.00  0.00    -0.374 OA
BRANCH  36  37
ATOM     37  C   UNL     1       1.039  -0.070   6.780  1.00  0.00     0.202 C 
BRANCH  37  38
ATOM     38  C   UNL     1       1.835  -1.306   7.235  1.00  0.00     0.261 C 
BRANCH  38  39
ATOM     39  O   UNL     1       1.921  -2.332   6.229  1.00  0.00    -0.460 OA
BRANCH  39  40
ATOM     40  C   UNL     1       0.977  -3.297   6.303  1.00  0.00     0.338 C 
ATOM     41  O   UNL     1       0.171  -3.461   7.204  1.00  0.00    -0.246 OA
BRANCH  40  42
ATOM     42  C   UNL     1       0.928  -4.081   5.045  1.00  0.00     0.060 A 
ATOM     43  C   UNL     1      -0.336  -4.410   4.536  1.00  0.00     0.016 A 
ATOM     44  C   UNL     1       2.070  -4.539   4.392  1.00  0.00     0.016 A 
ATOM     45  C   UNL     1      -0.466  -5.232   3.409  1.00  0.00     0.010 A 
ATOM     46  C   UNL     1       1.933  -5.357   3.258  1.00  0.00     0.010 A 
ATOM     47  C   UNL     1       0.667  -5.738   2.761  1.00  0.00    -0.014 A 
BRANCH  47  48
ATOM     48  C   UNL     1       0.554  -6.756   1.666  1.00  0.00     0.031 A 
ATOM     49  C   UNL     1       1.177  -8.118   1.865  1.00  0.00     0.074 A 
ATOM     50  C   UNL     1      -0.088  -6.516   0.501  1.00  0.00     0.049 A 
ATOM     51  N   UNL     1       1.299  -9.113   1.020  1.00  0.00    -0.248 NA
ATOM     52  C   UNL     1       1.731  -8.400   3.200  1.00  0.00     0.031 C 
ATOM     53  C   UNL     1      -0.810  -5.295   0.155  1.00  0.00     0.029 A 
ATOM     54  N   UNL     1      -0.185  -7.284  -0.642  1.00  0.00    -0.354 N 
ATOM     55  C   UNL     1       1.903 -10.141   1.733  1.00  0.00     0.074 A 
ATOM     56  C   UNL     1       2.237  -9.612   3.036  1.00  0.00     0.031 C 
ATOM     57  C   UNL     1      -1.185  -5.350  -1.136  1.00  0.00     0.029 A 
ATOM     58  C   UNL     1      -0.738  -6.613  -1.711  1.00  0.00     0.049 A 
ATOM     59  H   UNL     1       0.112  -8.221  -0.689  1.00  0.00     0.167 HD
ATOM     60  C   UNL     1       2.100 -11.432   1.374  1.00  0.00     0.037 A 
ATOM     61  C   UNL     1      -0.845  -6.955  -3.012  1.00  0.00     0.037 A 
ATOM     62  C   UNL     1       1.756 -11.987   0.093  1.00  0.00     0.049 A 
ATOM     63  C   UNL     1      -0.443  -8.335  -3.454  1.00  0.00     0.074 A 
ATOM     64  C   UNL     1       1.873 -13.298  -0.336  1.00  0.00     0.029 A 
ATOM     65  N   UNL     1       1.230 -11.265  -0.965  1.00  0.00    -0.354 N 
ATOM     66  N   UNL     1       0.079  -9.310  -2.753  1.00  0.00    -0.248 NA
ATOM     67  C   UNL     1      -0.697  -8.683  -4.862  1.00  0.00     0.031 C 
ATOM     68  C   UNL     1       1.469 -13.359  -1.673  1.00  0.00     0.029 A 
ATOM     69  C   UNL     1       1.045 -12.098  -2.057  1.00  0.00     0.049 A 
ATOM     70  H   UNL     1       1.019 -10.304  -0.945  1.00  0.00     0.167 HD
ATOM     71  C   UNL     1       0.121 -10.409  -3.603  1.00  0.00     0.074 A 
ATOM     72  C   UNL     1      -0.388  -9.971  -4.883  1.00  0.00     0.031 C 
ATOM     73  C   UNL     1       0.514 -11.676  -3.327  1.00  0.00     0.037 A 
BRANCH  60  74
ATOM     74  C   UNL     1       2.680 -12.350   2.411  1.00  0.00     0.057 A 
ATOM     75  C   UNL     1       1.946 -12.727   3.545  1.00  0.00     0.134 A 
ATOM     76  C   UNL     1       3.961 -12.893   2.260  1.00  0.00     0.134 A 
ATOM     77  F   UNL     1       0.715 -12.234   3.753  1.00  0.00    -0.206 F 
ATOM     78  C   UNL     1       2.477 -13.586   4.507  1.00  0.00     0.040 A 
ATOM     79  C   UNL     1       4.491 -13.778   3.200  1.00  0.00     0.040 A 
ATOM     80  F   UNL     1       4.712 -12.581   1.194  1.00  0.00    -0.206 F 
ATOM     81  C   UNL     1       3.751 -14.120   4.331  1.00  0.00     0.006 A 
ENDBRANCH  60  74
BRANCH  61  82
ATOM     82  C   UNL     1      -1.374  -5.991  -4.016  1.00  0.00     0.057 A 
ATOM     83  C   UNL     1      -2.640  -6.157  -4.590  1.00  0.00     0.134 A 
ATOM     84  C   UNL     1      -0.586  -4.940  -4.499  1.00  0.00     0.134 A 
ATOM     85  F   UNL     1      -3.425  -7.174  -4.205  1.00  0.00    -0.206 F 
ATOM     86  C   UNL     1      -3.090  -5.332  -5.624  1.00  0.00     0.040 A 
ATOM     87  C   UNL     1      -1.035  -4.088  -5.511  1.00  0.00     0.040 A 
ATOM     88  F   UNL     1       0.655  -4.753  -4.034  1.00  0.00    -0.206 F 
ATOM     89  C   UNL     1      -2.287  -4.291  -6.085  1.00  0.00     0.006 A 
ENDBRANCH  61  82
BRANCH  73  90
ATOM     90  C   UNL     1       0.326 -12.715  -4.395  1.00  0.00     0.057 A 
ATOM     91  C   UNL     1       1.097 -12.741  -5.562  1.00  0.00     0.134 A 
ATOM     92  C   UNL     1      -0.627 -13.731  -4.230  1.00  0.00     0.134 A 
ATOM     93  F   UNL     1       2.017 -11.791  -5.791  1.00  0.00    -0.206 F 
ATOM     94  C   UNL     1       0.911 -13.723  -6.538  1.00  0.00     0.040 A 
ATOM     95  C   UNL     1      -0.800 -14.736  -5.182  1.00  0.00     0.040 A 
ATOM     96  F   UNL     1      -1.396 -13.772  -3.131  1.00  0.00    -0.206 F 
ATOM     97  C   UNL     1      -0.034 -14.729  -6.345  1.00  0.00     0.006 A 
ENDBRANCH  73  90
ENDBRANCH  47  48
ENDBRANCH  40  42
ENDBRANCH  39  40
ENDBRANCH  38  39
ENDBRANCH  37  38
ENDBRANCH  36  37
ENDBRANCH  35  36
ENDBRANCH   1  35
TORSDOF 19
