REMARK SMILES O=C(OCCOCCOC(=O)C1CC[NH+]([C@@H]2CCO[C@]3(CCOC3)C2)CC1)c1ccc(-c2c3nc(c(-c4c(F)cccc4F)c4ccc([nH]4)c(-c4c(F)cccc4F)c4nc(c(-c5c(F)cccc5F)c5ccc2[nH]5)C=C4)C=C3)cc1
REMARK SMILES IDX 5 1 4 2 3 3 2 4 1 5 28 6 29 7 81 8 30 9 80 10 31 11 32 12
REMARK SMILES IDX 33 13 74 14 34 15 79 16 73 17 75 18 35 19 78 20 72 21 71 22
REMARK SMILES IDX 36 24 62 25 45 26 61 27 46 28 49 29 60 30 76 31 47 32 48 33
REMARK SMILES IDX 59 35 77 36 50 37 37 38 38 39 43 40 39 41 40 42 42 43 44 44
REMARK SMILES IDX 41 45 63 46 64 47 69 48 65 49 66 50 68 51 70 52 67 53 51 54
REMARK SMILES IDX 52 55 57 56 53 57 54 58 56 59 58 60 55 61 6 62 7 63 8 64
REMARK SMILES IDX 9 65 10 66 11 67 12 68 13 69 27 70 14 71 26 72 15 73 16 75
REMARK SMILES IDX 17 76 25 77 18 78 20 79 19 80 21 81 24 82 22 83 23 84
REMARK H PARENT 75 23 49 34 15 74
REMARK Flexibility Score: inf
ROOT
ATOM      1  C   UNL     1       3.985   0.772   0.700  1.00  0.00     0.202 C 
ENDROOT
BRANCH   1   2
ATOM      2  C   UNL     1       3.378   0.295  -0.623  1.00  0.00     0.261 C 
BRANCH   2   3
ATOM      3  O   UNL     1       1.944   0.145  -0.536  1.00  0.00    -0.460 OA
BRANCH   3   4
ATOM      4  C   UNL     1       1.295  -1.043  -0.676  1.00  0.00     0.338 C 
ATOM      5  O   UNL     1       0.086  -1.112  -0.856  1.00  0.00    -0.246 OA
BRANCH   4   6
ATOM      6  C   UNL     1       2.122  -2.263  -0.630  1.00  0.00     0.060 A 
ATOM      7  C   UNL     1       3.049  -2.401   0.392  1.00  0.00     0.016 A 
ATOM      8  C   UNL     1       2.048  -3.224  -1.634  1.00  0.00     0.016 A 
ATOM      9  C   UNL     1       4.084  -3.296   0.272  1.00  0.00     0.010 A 
ATOM     10  C   UNL     1       2.951  -4.291  -1.613  1.00  0.00     0.010 A 
ATOM     11  C   UNL     1       3.994  -4.317  -0.669  1.00  0.00    -0.014 A 
BRANCH  11  12
ATOM     12  C   UNL     1       4.969  -5.428  -0.585  1.00  0.00     0.031 A 
ATOM     13  C   UNL     1       5.781  -5.801  -1.784  1.00  0.00     0.074 A 
ATOM     14  C   UNL     1       5.129  -6.064   0.595  1.00  0.00     0.049 A 
ATOM     15  N   UNL     1       6.499  -6.872  -1.987  1.00  0.00    -0.248 NA
ATOM     16  C   UNL     1       5.771  -4.858  -2.915  1.00  0.00     0.031 C 
ATOM     17  C   UNL     1       4.440  -5.724   1.849  1.00  0.00     0.029 A 
ATOM     18  N   UNL     1       5.937  -7.110   0.953  1.00  0.00    -0.354 N 
ATOM     19  C   UNL     1       6.962  -6.772  -3.292  1.00  0.00     0.074 A 
ATOM     20  C   UNL     1       6.460  -5.526  -3.829  1.00  0.00     0.031 C 
ATOM     21  C   UNL     1       4.911  -6.484   2.843  1.00  0.00     0.029 A 
ATOM     22  C   UNL     1       5.807  -7.473   2.273  1.00  0.00     0.049 A 
ATOM     23  H   UNL     1       6.550  -7.558   0.326  1.00  0.00     0.167 HD
ATOM     24  C   UNL     1       7.718  -7.665  -3.971  1.00  0.00     0.037 A 
ATOM     25  C   UNL     1       6.291  -8.536   2.936  1.00  0.00     0.037 A 
ATOM     26  C   UNL     1       8.222  -8.877  -3.379  1.00  0.00     0.049 A 
ATOM     27  C   UNL     1       7.088  -9.530   2.149  1.00  0.00     0.074 A 
ATOM     28  C   UNL     1       8.961  -9.889  -3.962  1.00  0.00     0.029 A 
ATOM     29  N   UNL     1       8.043  -9.227  -2.045  1.00  0.00    -0.354 N 
ATOM     30  N   UNL     1       7.434  -9.489   0.884  1.00  0.00    -0.248 NA
ATOM     31  C   UNL     1       7.529 -10.732   2.862  1.00  0.00     0.031 C 
ATOM     32  C   UNL     1       9.201 -10.866  -2.989  1.00  0.00     0.029 A 
ATOM     33  C   UNL     1       8.654 -10.441  -1.787  1.00  0.00     0.049 A 
ATOM     34  H   UNL     1       7.554  -8.690  -1.381  1.00  0.00     0.167 HD
ATOM     35  C   UNL     1       8.143 -10.654   0.648  1.00  0.00     0.074 A 
ATOM     36  C   UNL     1       8.197 -11.368   1.910  1.00  0.00     0.031 C 
ATOM     37  C   UNL     1       8.692 -11.104  -0.507  1.00  0.00     0.037 A 
BRANCH  24  38
ATOM     38  C   UNL     1       7.970  -7.391  -5.425  1.00  0.00     0.057 A 
ATOM     39  C   UNL     1       8.817  -6.365  -5.863  1.00  0.00     0.134 A 
ATOM     40  C   UNL     1       7.327  -8.156  -6.408  1.00  0.00     0.134 A 
ATOM     41  F   UNL     1       9.444  -5.578  -4.976  1.00  0.00    -0.206 F 
ATOM     42  C   UNL     1       8.991  -6.091  -7.222  1.00  0.00     0.040 A 
ATOM     43  C   UNL     1       7.512  -7.908  -7.769  1.00  0.00     0.040 A 
ATOM     44  F   UNL     1       6.499  -9.153  -6.061  1.00  0.00    -0.206 F 
ATOM     45  C   UNL     1       8.339  -6.866  -8.180  1.00  0.00     0.006 A 
ENDBRANCH  24  38
BRANCH  25  46
ATOM     46  C   UNL     1       5.963  -8.745   4.371  1.00  0.00     0.057 A 
ATOM     47  C   UNL     1       6.957  -8.707   5.354  1.00  0.00     0.134 A 
ATOM     48  C   UNL     1       4.647  -8.970   4.801  1.00  0.00     0.134 A 
ATOM     49  F   UNL     1       8.239  -8.509   5.010  1.00  0.00    -0.206 F 
ATOM     50  C   UNL     1       6.660  -8.899   6.705  1.00  0.00     0.040 A 
ATOM     51  C   UNL     1       4.330  -9.130   6.151  1.00  0.00     0.040 A 
ATOM     52  F   UNL     1       3.640  -9.009   3.914  1.00  0.00    -0.206 F 
ATOM     53  C   UNL     1       5.341  -9.104   7.107  1.00  0.00     0.006 A 
ENDBRANCH  25  46
BRANCH  37  54
ATOM     54  C   UNL     1       9.434 -12.400  -0.425  1.00  0.00     0.057 A 
ATOM     55  C   UNL     1       8.767 -13.626  -0.318  1.00  0.00     0.134 A 
ATOM     56  C   UNL     1      10.832 -12.417  -0.486  1.00  0.00     0.134 A 
ATOM     57  F   UNL     1       7.428 -13.668  -0.234  1.00  0.00    -0.206 F 
ATOM     58  C   UNL     1       9.470 -14.828  -0.254  1.00  0.00     0.040 A 
ATOM     59  C   UNL     1      11.544 -13.614  -0.451  1.00  0.00     0.040 A 
ATOM     60  F   UNL     1      11.523 -11.272  -0.592  1.00  0.00    -0.206 F 
ATOM     61  C   UNL     1      10.862 -14.823  -0.329  1.00  0.00     0.006 A 
ENDBRANCH  37  54
ENDBRANCH  11  12
ENDBRANCH   4   6
ENDBRANCH   3   4
ENDBRANCH   2   3
ENDBRANCH   1   2
BRANCH   1  62
ATOM     62  O   UNL     1       3.580   0.142   1.910  1.00  0.00    -0.374 OA
BRANCH  62  63
ATOM     63  C   UNL     1       2.366   0.672   2.464  1.00  0.00     0.202 C 
BRANCH  63  64
ATOM     64  C   UNL     1       2.643   1.504   3.719  1.00  0.00     0.261 C 
BRANCH  64  65
ATOM     65  O   UNL     1       3.426   2.674   3.387  1.00  0.00    -0.463 OA
BRANCH  65  66
ATOM     66  C   UNL     1       4.646   2.766   3.983  1.00  0.00     0.309 C 
ATOM     67  O   UNL     1       5.064   1.991   4.836  1.00  0.00    -0.252 OA
BRANCH  66  68
ATOM     68  C   UNL     1       5.532   3.849   3.370  1.00  0.00     0.110 C 
ATOM     69  C   UNL     1       4.937   5.273   3.272  1.00  0.00     0.077 C 
ATOM     70  C   UNL     1       6.053   3.322   2.046  1.00  0.00     0.077 C 
ATOM     71  C   UNL     1       4.597   5.844   1.856  1.00  0.00     0.263 C 
ATOM     72  C   UNL     1       5.108   3.766   0.953  1.00  0.00     0.263 C 
ATOM     73  N   UNL     1       5.296   5.177   0.738  1.00  0.00    -0.332 N 
ATOM     74  H   UNL     1       6.288   5.417   0.747  1.00  0.00     0.348 HD
BRANCH  73  75
ATOM     75  C   UNL     1       4.927   5.657  -0.620  1.00  0.00     0.189 C 
ATOM     76  C   UNL     1       3.499   5.412  -1.119  1.00  0.00     0.093 C 
ATOM     77  C   UNL     1       5.882   5.201  -1.763  1.00  0.00     0.103 C 
ATOM     78  C   UNL     1       3.268   3.993  -1.600  1.00  0.00     0.167 C 
ATOM     79  C   UNL     1       5.602   3.821  -2.419  1.00  0.00     0.099 C 
ATOM     80  O   UNL     1       4.212   3.502  -2.538  1.00  0.00    -0.372 OA
ATOM     81  C   UNL     1       6.449   2.687  -1.804  1.00  0.00     0.066 C 
ATOM     82  C   UNL     1       6.126   3.776  -3.872  1.00  0.00     0.195 C 
ATOM     83  C   UNL     1       7.476   2.278  -2.843  1.00  0.00     0.163 C 
ATOM     84  O   UNL     1       7.474   3.308  -3.825  1.00  0.00    -0.378 OA
ENDBRANCH  73  75
ENDBRANCH  66  68
ENDBRANCH  65  66
ENDBRANCH  64  65
ENDBRANCH  63  64
ENDBRANCH  62  63
ENDBRANCH   1  62
TORSDOF 15
