REMARK SMILES O=C(OCCOCCOC(=O)c1ccc(-c2c3nc(c(-c4c(F)cccc4F)c4ccc([nH]4)c(-c4c(F)cccc4F)c4nc(c(-c5c(F)cccc5F)c5ccc2[nH]5)C=C4)C=C3)cc1)c1ccc(-c2ccc(=O)[nH]c2)cc1
REMARK SMILES IDX 7 1 6 2 5 3 4 4 3 5 2 6 1 7 66 8 67 9 78 10 68 11 77 12
REMARK SMILES IDX 69 13 70 14 71 15 76 16 72 17 75 18 73 19 74 21 8 22 9 23
REMARK SMILES IDX 10 24 11 25 12 26 13 27 65 28 14 29 64 30 15 31 16 32 17 33
REMARK SMILES IDX 58 34 18 35 63 36 57 37 59 38 19 39 62 40 56 41 55 42 20 44
REMARK SMILES IDX 46 45 29 46 45 47 30 48 33 49 44 50 60 51 31 52 32 53 43 55
REMARK SMILES IDX 61 56 34 57 21 58 22 59 27 60 23 61 24 62 26 63 28 64 25 65
REMARK SMILES IDX 47 66 48 67 53 68 49 69 50 70 52 71 54 72 51 73 35 74 36 75
REMARK SMILES IDX 41 76 37 77 38 78 40 79 42 80 39 81
REMARK H PARENT 75 20 59 43 33 54
REMARK Flexibility Score: inf
ROOT
ATOM      1  C   UNL     1       2.663  -1.176   1.707  1.00  0.00     0.202 C 
ENDROOT
BRANCH   1   2
ATOM      2  O   UNL     1       4.047  -0.883   1.462  1.00  0.00    -0.374 OA
BRANCH   2   3
ATOM      3  C   UNL     1       4.383   0.501   1.384  1.00  0.00     0.202 C 
BRANCH   3   4
ATOM      4  C   UNL     1       4.182   1.102  -0.006  1.00  0.00     0.261 C 
BRANCH   4   5
ATOM      5  O   UNL     1       2.804   0.974  -0.400  1.00  0.00    -0.460 OA
BRANCH   5   6
ATOM      6  C   UNL     1       2.307   0.178  -1.375  1.00  0.00     0.338 C 
ATOM      7  O   UNL     1       1.104   0.202  -1.624  1.00  0.00    -0.246 OA
BRANCH   6   8
ATOM      8  C   UNL     1       3.168  -0.730  -2.181  1.00  0.00     0.060 A 
ATOM      9  C   UNL     1       4.135  -1.571  -1.628  1.00  0.00     0.016 A 
ATOM     10  C   UNL     1       2.881  -0.848  -3.548  1.00  0.00     0.016 A 
ATOM     11  C   UNL     1       4.827  -2.485  -2.416  1.00  0.00     0.009 A 
ATOM     12  C   UNL     1       3.557  -1.786  -4.340  1.00  0.00     0.009 A 
ATOM     13  C   UNL     1       4.524  -2.621  -3.772  1.00  0.00    -0.017 A 
BRANCH  13  14
ATOM     14  C   UNL     1       5.204  -3.668  -4.549  1.00  0.00    -0.002 A 
ATOM     15  C   UNL     1       6.086  -3.395  -5.670  1.00  0.00     0.016 A 
ATOM     16  C   UNL     1       5.036  -4.947  -4.161  1.00  0.00     0.094 A 
ATOM     17  C   UNL     1       6.744  -4.385  -6.293  1.00  0.00     0.072 A 
ATOM     18  N   UNL     1       5.699  -5.970  -4.792  1.00  0.00    -0.328 N 
ATOM     19  C   UNL     1       6.565  -5.788  -5.840  1.00  0.00     0.247 A 
ATOM     20  H   UNL     1       5.543  -6.888  -4.473  1.00  0.00     0.169 HD
ATOM     21  O   UNL     1       7.162  -6.713  -6.378  1.00  0.00    -0.270 OA
ENDBRANCH  13  14
ENDBRANCH   6   8
ENDBRANCH   5   6
ENDBRANCH   4   5
ENDBRANCH   3   4
ENDBRANCH   2   3
ENDBRANCH   1   2
BRANCH   1  22
ATOM     22  C   UNL     1       2.568  -2.375   2.656  1.00  0.00     0.261 C 
BRANCH  22  23
ATOM     23  O   UNL     1       3.115  -1.969   3.918  1.00  0.00    -0.460 OA
BRANCH  23  24
ATOM     24  C   UNL     1       4.469  -2.040   3.967  1.00  0.00     0.338 C 
ATOM     25  O   UNL     1       5.186  -2.832   3.385  1.00  0.00    -0.246 OA
BRANCH  24  26
ATOM     26  C   UNL     1       4.968  -0.855   4.704  1.00  0.00     0.060 A 
ATOM     27  C   UNL     1       6.254  -0.389   4.401  1.00  0.00     0.016 A 
ATOM     28  C   UNL     1       4.187  -0.204   5.666  1.00  0.00     0.016 A 
ATOM     29  C   UNL     1       6.801   0.662   5.130  1.00  0.00     0.010 A 
ATOM     30  C   UNL     1       4.729   0.854   6.391  1.00  0.00     0.010 A 
ATOM     31  C   UNL     1       6.061   1.237   6.171  1.00  0.00    -0.014 A 
BRANCH  31  32
ATOM     32  C   UNL     1       6.765   2.015   7.211  1.00  0.00     0.031 A 
ATOM     33  C   UNL     1       7.184   1.281   8.457  1.00  0.00     0.074 A 
ATOM     34  C   UNL     1       7.037   3.318   7.045  1.00  0.00     0.049 A 
ATOM     35  N   UNL     1       7.805   1.726   9.517  1.00  0.00    -0.248 NA
ATOM     36  C   UNL     1       6.846  -0.153   8.517  1.00  0.00     0.031 C 
ATOM     37  C   UNL     1       6.689   4.115   5.871  1.00  0.00     0.029 A 
ATOM     38  N   UNL     1       7.671   4.200   7.879  1.00  0.00    -0.354 N 
ATOM     39  C   UNL     1       7.921   0.633  10.367  1.00  0.00     0.074 A 
ATOM     40  C   UNL     1       7.272  -0.485   9.724  1.00  0.00     0.031 C 
ATOM     41  C   UNL     1       7.117   5.375   6.060  1.00  0.00     0.029 A 
ATOM     42  C   UNL     1       7.748   5.473   7.375  1.00  0.00     0.049 A 
ATOM     43  H   UNL     1       8.037   3.944   8.757  1.00  0.00     0.167 HD
ATOM     44  C   UNL     1       8.529   0.564  11.574  1.00  0.00     0.037 A 
ATOM     45  C   UNL     1       8.270   6.586   7.925  1.00  0.00     0.037 A 
ATOM     46  C   UNL     1       9.176   1.683  12.202  1.00  0.00     0.049 A 
ATOM     47  C   UNL     1       8.912   6.492   9.285  1.00  0.00     0.074 A 
ATOM     48  C   UNL     1       9.844   1.728  13.411  1.00  0.00     0.029 A 
ATOM     49  N   UNL     1       9.228   2.960  11.662  1.00  0.00    -0.354 N 
ATOM     50  N   UNL     1       9.054   5.447  10.066  1.00  0.00    -0.248 NA
ATOM     51  C   UNL     1       9.478   7.732   9.833  1.00  0.00     0.031 C 
ATOM     52  C   UNL     1      10.262   3.046  13.625  1.00  0.00     0.029 A 
ATOM     53  C   UNL     1       9.902   3.808  12.523  1.00  0.00     0.049 A 
ATOM     54  H   UNL     1       8.842   3.224  10.796  1.00  0.00     0.167 HD
ATOM     55  C   UNL     1       9.758   5.893  11.177  1.00  0.00     0.074 A 
ATOM     56  C   UNL     1      10.020   7.303  10.964  1.00  0.00     0.031 C 
ATOM     57  C   UNL     1      10.158   5.204  12.275  1.00  0.00     0.037 A 
BRANCH  44  58
ATOM     58  C   UNL     1       8.493  -0.754  12.289  1.00  0.00     0.057 A 
ATOM     59  C   UNL     1       9.221  -1.865  11.839  1.00  0.00     0.134 A 
ATOM     60  C   UNL     1       7.718  -0.917  13.444  1.00  0.00     0.134 A 
ATOM     61  F   UNL     1       9.965  -1.784  10.726  1.00  0.00    -0.206 F 
ATOM     62  C   UNL     1       9.159  -3.095  12.497  1.00  0.00     0.040 A 
ATOM     63  C   UNL     1       7.670  -2.134  14.126  1.00  0.00     0.040 A 
ATOM     64  F   UNL     1       6.994   0.103  13.928  1.00  0.00    -0.206 F 
ATOM     65  C   UNL     1       8.385  -3.229  13.648  1.00  0.00     0.006 A 
ENDBRANCH  44  58
BRANCH  45  66
ATOM     66  C   UNL     1       8.231   7.872   7.186  1.00  0.00     0.057 A 
ATOM     67  C   UNL     1       9.402   8.457   6.688  1.00  0.00     0.134 A 
ATOM     68  C   UNL     1       7.029   8.557   6.972  1.00  0.00     0.134 A 
ATOM     69  F   UNL     1      10.587   7.859   6.877  1.00  0.00    -0.206 F 
ATOM     70  C   UNL     1       9.382   9.683   6.022  1.00  0.00     0.040 A 
ATOM     71  C   UNL     1       6.991   9.772   6.286  1.00  0.00     0.040 A 
ATOM     72  F   UNL     1       5.871   8.049   7.420  1.00  0.00    -0.206 F 
ATOM     73  C   UNL     1       8.172  10.342   5.816  1.00  0.00     0.006 A 
ENDBRANCH  45  66
BRANCH  57  74
ATOM     74  C   UNL     1      10.965   5.952  13.295  1.00  0.00     0.057 A 
ATOM     75  C   UNL     1      10.395   6.922  14.129  1.00  0.00     0.134 A 
ATOM     76  C   UNL     1      12.327   5.671  13.465  1.00  0.00     0.134 A 
ATOM     77  F   UNL     1       9.098   7.244  14.010  1.00  0.00    -0.206 F 
ATOM     78  C   UNL     1      11.159   7.610  15.072  1.00  0.00     0.040 A 
ATOM     79  C   UNL     1      13.094   6.330  14.425  1.00  0.00     0.040 A 
ATOM     80  F   UNL     1      12.931   4.742  12.707  1.00  0.00    -0.206 F 
ATOM     81  C   UNL     1      12.512   7.310  15.226  1.00  0.00     0.006 A 
ENDBRANCH  57  74
ENDBRANCH  31  32
ENDBRANCH  24  26
ENDBRANCH  23  24
ENDBRANCH  22  23
ENDBRANCH   1  22
TORSDOF 15
