REMARK SMILES CS(=O)(=O)c1ccc(/C=C(/C(=O)OCCOCCOC(=O)c2ccc(-c3c4nc(c(-c5c(F)cccc5F)c5ccc([nH]5)c(-c5c(F)cccc5F)c5nc(c(-c6c(F)cccc6F)c6ccc3[nH]6)C=C5)C=C4)cc2)c2cccc(Br)c2)cc1
REMARK SMILES IDX 16 1 15 2 14 3 13 4 11 5 12 6 10 7 9 8 8 9 5 10 6 11 84 12
REMARK SMILES IDX 7 13 83 14 2 15 1 16 3 17 4 18 76 19 77 20 82 21 78 22 80 23
REMARK SMILES IDX 79 24 81 25 17 26 18 27 19 28 20 29 21 30 22 31 23 32 75 33
REMARK SMILES IDX 24 34 74 35 25 36 26 37 27 38 68 39 28 40 73 41 67 42 69 43
REMARK SMILES IDX 29 44 72 45 66 46 65 47 30 49 56 50 39 51 55 52 40 53 43 54
REMARK SMILES IDX 54 55 70 56 41 57 42 58 53 60 71 61 44 62 31 63 32 64 37 65
REMARK SMILES IDX 33 66 34 67 36 68 38 69 35 70 57 71 58 72 63 73 59 74 60 75
REMARK SMILES IDX 62 76 64 77 61 78 45 79 46 80 51 81 47 82 48 83 50 84 52 85
REMARK SMILES IDX 49 86
REMARK H PARENT 69 48 43 59
REMARK Flexibility Score: inf
ROOT
ATOM      1  O   UNL     1       1.325  -5.456  10.263  1.00  0.00    -0.374 OA
ENDROOT
BRANCH   1   2
ATOM      2  C   UNL     1       2.275  -4.522  10.777  1.00  0.00     0.202 C 
BRANCH   2   3
ATOM      3  C   UNL     1       3.389  -4.069   9.827  1.00  0.00     0.261 C 
BRANCH   3   4
ATOM      4  O   UNL     1       2.860  -3.313   8.722  1.00  0.00    -0.460 OA
BRANCH   4   5
ATOM      5  C   UNL     1       3.143  -3.825   7.495  1.00  0.00     0.338 C 
ATOM      6  O   UNL     1       3.921  -4.741   7.270  1.00  0.00    -0.246 OA
BRANCH   5   7
ATOM      7  C   UNL     1       2.292  -3.217   6.423  1.00  0.00     0.067 C 
ATOM      8  C   UNL     1       1.978  -1.900   6.455  1.00  0.00     0.024 C 
BRANCH   8   9
ATOM      9  C   UNL     1       1.369  -1.093   5.367  1.00  0.00    -0.025 A 
ATOM     10  C   UNL     1       0.640   0.381   3.091  1.00  0.00     0.067 A 
ATOM     11  C   UNL     1       0.048  -0.857   3.330  1.00  0.00     0.021 A 
ATOM     12  C   UNL     1       1.496   0.948   4.034  1.00  0.00     0.021 A 
ATOM     13  C   UNL     1       0.392  -1.571   4.481  1.00  0.00     0.009 A 
ATOM     14  C   UNL     1       1.858   0.208   5.166  1.00  0.00     0.009 A 
BRANCH  10  15
ATOM     15  S   UNL     1       0.311   1.209   1.554  1.00  0.00     0.175 S 
ATOM     16  C   UNL     1       1.091   0.166   0.344  1.00  0.00     0.163 C 
ATOM     17  O   UNL     1       1.032   2.472   1.572  1.00  0.00    -0.224 OA
ATOM     18  O   UNL     1      -1.119   1.168   1.345  1.00  0.00    -0.224 OA
ENDBRANCH  10  15
ENDBRANCH   8   9
BRANCH   7  19
ATOM     19  C   UNL     1       1.906  -4.112   5.313  1.00  0.00    -0.010 A 
ATOM     20  C   UNL     1       0.793  -4.958   5.462  1.00  0.00     0.009 A 
ATOM     21  C   UNL     1       2.587  -4.080   4.092  1.00  0.00     0.024 A 
ATOM     22  C   UNL     1       0.347  -5.738   4.396  1.00  0.00     0.002 A 
ATOM     23  C   UNL     1       2.127  -4.855   3.028  1.00  0.00     0.018 A 
ATOM     24  C   UNL     1       1.011  -5.679   3.172  1.00  0.00     0.016 A 
ATOM     25  Br  UNL     1       3.002  -4.749   1.356  1.00  0.00    -0.051 Br
ENDBRANCH   7  19
ENDBRANCH   5   7
ENDBRANCH   4   5
ENDBRANCH   3   4
ENDBRANCH   2   3
ENDBRANCH   1   2
BRANCH   1  26
ATOM     26  C   UNL     1       0.381  -4.980   9.309  1.00  0.00     0.202 C 
BRANCH  26  27
ATOM     27  C   UNL     1      -0.826  -4.193   9.832  1.00  0.00     0.261 C 
BRANCH  27  28
ATOM     28  O   UNL     1      -0.449  -3.077  10.651  1.00  0.00    -0.460 OA
BRANCH  28  29
ATOM     29  C   UNL     1      -0.637  -3.286  11.975  1.00  0.00     0.338 C 
ATOM     30  O   UNL     1      -1.171  -4.250  12.505  1.00  0.00    -0.246 OA
BRANCH  29  31
ATOM     31  C   UNL     1       0.048  -2.245  12.761  1.00  0.00     0.060 A 
ATOM     32  C   UNL     1       0.875  -2.681  13.802  1.00  0.00     0.016 A 
ATOM     33  C   UNL     1      -0.179  -0.882  12.552  1.00  0.00     0.016 A 
ATOM     34  C   UNL     1       1.414  -1.760  14.693  1.00  0.00     0.010 A 
ATOM     35  C   UNL     1       0.361   0.044  13.451  1.00  0.00     0.010 A 
ATOM     36  C   UNL     1       1.114  -0.398  14.555  1.00  0.00    -0.014 A 
BRANCH  36  37
ATOM     37  C   UNL     1       1.437   0.511  15.679  1.00  0.00     0.031 A 
ATOM     38  C   UNL     1       0.352   0.863  16.662  1.00  0.00     0.074 A 
ATOM     39  C   UNL     1       2.695   0.943  15.875  1.00  0.00     0.049 A 
ATOM     40  N   UNL     1       0.423   1.573  17.759  1.00  0.00    -0.248 NA
ATOM     41  C   UNL     1      -0.992   0.339  16.370  1.00  0.00     0.031 C 
ATOM     42  C   UNL     1       3.835   0.643  15.011  1.00  0.00     0.029 A 
ATOM     43  N   UNL     1       3.222   1.718  16.876  1.00  0.00    -0.354 N 
ATOM     44  C   UNL     1      -0.862   1.579  18.287  1.00  0.00     0.074 A 
ATOM     45  C   UNL     1      -1.701   0.838  17.371  1.00  0.00     0.031 C 
ATOM     46  C   UNL     1       4.933   1.224  15.525  1.00  0.00     0.029 A 
ATOM     47  C   UNL     1       4.568   1.949  16.741  1.00  0.00     0.049 A 
ATOM     48  H   UNL     1       2.686   2.074  17.622  1.00  0.00     0.167 HD
ATOM     49  C   UNL     1      -1.302   2.138  19.439  1.00  0.00     0.037 A 
ATOM     50  C   UNL     1       5.407   2.666  17.512  1.00  0.00     0.037 A 
ATOM     51  C   UNL     1      -0.467   2.873  20.352  1.00  0.00     0.049 A 
ATOM     52  C   UNL     1       4.884   3.318  18.764  1.00  0.00     0.074 A 
ATOM     53  C   UNL     1      -0.815   3.468  21.552  1.00  0.00     0.029 A 
ATOM     54  N   UNL     1       0.884   3.117  20.161  1.00  0.00    -0.354 N 
ATOM     55  N   UNL     1       3.674   3.292  19.268  1.00  0.00    -0.248 NA
ATOM     56  C   UNL     1       5.849   4.088  19.560  1.00  0.00     0.031 C 
ATOM     57  C   UNL     1       0.318   4.110  22.066  1.00  0.00     0.029 A 
ATOM     58  C   UNL     1       1.382   3.871  21.211  1.00  0.00     0.049 A 
ATOM     59  H   UNL     1       1.412   2.800  19.392  1.00  0.00     0.167 HD
ATOM     60  C   UNL     1       3.739   4.017  20.452  1.00  0.00     0.074 A 
ATOM     61  C   UNL     1       5.112   4.454  20.598  1.00  0.00     0.031 C 
ATOM     62  C   UNL     1       2.752   4.296  21.340  1.00  0.00     0.037 A 
BRANCH  49  63
ATOM     63  C   UNL     1      -2.760   1.988  19.764  1.00  0.00     0.057 A 
ATOM     64  C   UNL     1      -3.309   0.761  20.159  1.00  0.00     0.134 A 
ATOM     65  C   UNL     1      -3.622   3.090  19.697  1.00  0.00     0.134 A 
ATOM     66  F   UNL     1      -2.541  -0.337  20.227  1.00  0.00    -0.206 F 
ATOM     67  C   UNL     1      -4.668   0.630  20.454  1.00  0.00     0.040 A 
ATOM     68  C   UNL     1      -4.977   2.977  20.013  1.00  0.00     0.040 A 
ATOM     69  F   UNL     1      -3.161   4.294  19.327  1.00  0.00    -0.206 F 
ATOM     70  C   UNL     1      -5.504   1.743  20.387  1.00  0.00     0.006 A 
ENDBRANCH  49  63
BRANCH  50  71
ATOM     71  C   UNL     1       6.835   2.802  17.129  1.00  0.00     0.057 A 
ATOM     72  C   UNL     1       7.851   2.198  17.879  1.00  0.00     0.134 A 
ATOM     73  C   UNL     1       7.218   3.562  16.018  1.00  0.00     0.134 A 
ATOM     74  F   UNL     1       7.548   1.476  18.968  1.00  0.00    -0.206 F 
ATOM     75  C   UNL     1       9.198   2.361  17.550  1.00  0.00     0.040 A 
ATOM     76  C   UNL     1       8.559   3.713  15.662  1.00  0.00     0.040 A 
ATOM     77  F   UNL     1       6.292   4.164  15.257  1.00  0.00    -0.206 F 
ATOM     78  C   UNL     1       9.554   3.118  16.435  1.00  0.00     0.006 A 
ENDBRANCH  50  71
BRANCH  62  79
ATOM     79  C   UNL     1       3.135   5.083  22.561  1.00  0.00     0.057 A 
ATOM     80  C   UNL     1       3.461   6.444  22.493  1.00  0.00     0.134 A 
ATOM     81  C   UNL     1       3.163   4.473  23.822  1.00  0.00     0.134 A 
ATOM     82  F   UNL     1       3.464   7.085  21.315  1.00  0.00    -0.206 F 
ATOM     83  C   UNL     1       3.834   7.161  23.631  1.00  0.00     0.040 A 
ATOM     84  C   UNL     1       3.507   5.187  24.970  1.00  0.00     0.040 A 
ATOM     85  F   UNL     1       2.851   3.176  23.959  1.00  0.00    -0.206 F 
ATOM     86  C   UNL     1       3.854   6.533  24.875  1.00  0.00     0.006 A 
ENDBRANCH  62  79
ENDBRANCH  36  37
ENDBRANCH  29  31
ENDBRANCH  28  29
ENDBRANCH  27  28
ENDBRANCH  26  27
ENDBRANCH   1  26
TORSDOF 17
