REMARK SMILES COC(=O)c1ccc(NC(=O)[C@@H]2CC=CC[C@@H]2C(=O)OCCOCCOC(=O)c2ccc(-c3c4nc(c(-c5c(F)cccc5F)c5ccc([nH]5)c(-c5c(F)cccc5F)c5nc(c(-c6c(F)cccc6F)c6ccc3[nH]6)C=C5)C=C4)cc2)c(C)c1
REMARK SMILES IDX 22 1 21 2 20 3 18 4 19 5 17 6 12 7 13 8 14 9 16 10 15 11
REMARK SMILES IDX 10 12 9 13 11 15 8 16 5 17 6 18 85 19 7 20 83 21 84 22 3 23
REMARK SMILES IDX 4 24 2 25 1 26 23 27 24 28 25 29 26 30 27 31 28 32 29 33
REMARK SMILES IDX 30 34 82 35 31 36 81 37 32 38 33 39 34 40 75 41 35 42 80 43
REMARK SMILES IDX 74 44 76 45 36 46 79 47 73 48 72 49 37 51 63 52 46 53 62 54
REMARK SMILES IDX 47 55 50 56 61 57 77 58 48 59 49 60 60 62 78 63 51 64 38 65
REMARK SMILES IDX 39 66 44 67 40 68 41 69 43 70 45 71 42 72 64 73 65 74 70 75
REMARK SMILES IDX 66 76 67 77 69 78 71 79 68 80 52 81 53 82 58 83 54 84 55 85
REMARK SMILES IDX 57 86 59 87 56 88
REMARK H PARENT 9 14 76 50 50 61
REMARK Flexibility Score: inf
ROOT
ATOM      1  C   UNL     1       2.276  -0.282   7.212  1.00  0.00     0.202 C 
ENDROOT
BRANCH   1   2
ATOM      2  C   UNL     1       1.847   0.495   5.991  1.00  0.00     0.261 C 
BRANCH   2   3
ATOM      3  O   UNL     1       2.995   0.913   5.220  1.00  0.00    -0.463 OA
BRANCH   3   4
ATOM      4  C   UNL     1       3.725   1.997   5.647  1.00  0.00     0.310 C 
ATOM      5  O   UNL     1       3.387   2.794   6.490  1.00  0.00    -0.252 OA
BRANCH   4   6
ATOM      6  C   UNL     1       5.085   1.961   5.003  1.00  0.00     0.116 C 
ATOM      7  C   UNL     1       6.059   3.051   5.506  1.00  0.00     0.097 C 
ATOM      8  C   UNL     1       5.594   4.458   5.125  1.00  0.00     0.041 C 
ATOM      9  C   UNL     1       5.301   4.498   3.645  1.00  0.00    -0.030 C 
ATOM     10  C   UNL     1       4.994   2.009   3.471  1.00  0.00     0.043 C 
ATOM     11  C   UNL     1       5.066   3.400   2.906  1.00  0.00    -0.030 C 
BRANCH   7  12
ATOM     12  C   UNL     1       6.435   2.855   6.965  1.00  0.00     0.228 C 
ATOM     13  N   UNL     1       7.451   1.994   7.314  1.00  0.00    -0.326 N 
ATOM     14  H   UNL     1       7.543   1.862   8.286  1.00  0.00     0.169 HD
ATOM     15  O   UNL     1       5.899   3.487   7.877  1.00  0.00    -0.274 OA
BRANCH  13  16
ATOM     16  C   UNL     1       8.390   1.262   6.548  1.00  0.00     0.044 A 
ATOM     17  C   UNL     1      10.434   0.175   4.927  1.00  0.00     0.060 A 
ATOM     18  C   UNL     1       9.166   0.350   4.411  1.00  0.00     0.018 A 
ATOM     19  C   UNL     1      10.667   0.456   6.280  1.00  0.00     0.021 A 
ATOM     20  C   UNL     1       8.171   0.868   5.226  1.00  0.00     0.027 A 
ATOM     21  C   UNL     1       9.640   0.952   7.113  1.00  0.00    -0.027 A 
ATOM     22  C   UNL     1       9.942   1.179   8.570  1.00  0.00     0.046 C 
BRANCH  17  23
ATOM     23  C   UNL     1      11.475  -0.308   3.987  1.00  0.00     0.337 C 
ATOM     24  O   UNL     1      11.404  -0.142   2.779  1.00  0.00    -0.246 OA
BRANCH  23  25
ATOM     25  O   UNL     1      12.511  -0.915   4.606  1.00  0.00    -0.465 OA
ATOM     26  C   UNL     1      12.181  -2.194   5.153  1.00  0.00     0.282 C 
ENDBRANCH  23  25
ENDBRANCH  17  23
ENDBRANCH  13  16
ENDBRANCH   7  12
ENDBRANCH   4   6
ENDBRANCH   3   4
ENDBRANCH   2   3
ENDBRANCH   1   2
BRANCH   1  27
ATOM     27  O   UNL     1       2.981   0.632   8.031  1.00  0.00    -0.374 OA
BRANCH  27  28
ATOM     28  C   UNL     1       3.767   0.090   9.070  1.00  0.00     0.202 C 
BRANCH  28  29
ATOM     29  C   UNL     1       2.933  -0.689  10.093  1.00  0.00     0.261 C 
BRANCH  29  30
ATOM     30  O   UNL     1       2.020   0.196  10.780  1.00  0.00    -0.460 OA
BRANCH  30  31
ATOM     31  C   UNL     1       0.756   0.255  10.271  1.00  0.00     0.338 C 
ATOM     32  O   UNL     1       0.026  -0.707  10.094  1.00  0.00    -0.246 OA
BRANCH  31  33
ATOM     33  C   UNL     1       0.498   1.610   9.703  1.00  0.00     0.060 A 
ATOM     34  C   UNL     1      -0.608   1.823   8.855  1.00  0.00     0.016 A 
ATOM     35  C   UNL     1       1.535   2.532   9.730  1.00  0.00     0.016 A 
ATOM     36  C   UNL     1      -0.587   2.863   7.911  1.00  0.00     0.010 A 
ATOM     37  C   UNL     1       1.609   3.453   8.711  1.00  0.00     0.010 A 
ATOM     38  C   UNL     1       0.568   3.627   7.781  1.00  0.00    -0.014 A 
BRANCH  38  39
ATOM     39  C   UNL     1       0.858   4.616   6.734  1.00  0.00     0.031 A 
ATOM     40  C   UNL     1       1.192   5.998   7.168  1.00  0.00     0.074 A 
ATOM     41  C   UNL     1       1.157   4.253   5.460  1.00  0.00     0.049 A 
ATOM     42  N   UNL     1       1.377   6.984   6.363  1.00  0.00    -0.248 NA
ATOM     43  C   UNL     1       1.335   6.398   8.564  1.00  0.00     0.031 C 
ATOM     44  C   UNL     1       2.037   4.966   4.532  1.00  0.00     0.029 A 
ATOM     45  N   UNL     1       0.803   3.117   4.720  1.00  0.00    -0.354 N 
ATOM     46  C   UNL     1       2.019   7.984   7.056  1.00  0.00     0.074 A 
ATOM     47  C   UNL     1       1.863   7.617   8.440  1.00  0.00     0.031 C 
ATOM     48  C   UNL     1       1.951   4.421   3.309  1.00  0.00     0.029 A 
ATOM     49  C   UNL     1       0.881   3.454   3.353  1.00  0.00     0.049 A 
ATOM     50  H   UNL     1       0.547   2.240   5.088  1.00  0.00     0.167 HD
ATOM     51  C   UNL     1       2.713   8.922   6.347  1.00  0.00     0.037 A 
ATOM     52  C   UNL     1      -0.224   3.428   2.559  1.00  0.00     0.037 A 
ATOM     53  C   UNL     1       2.612   8.664   4.896  1.00  0.00     0.049 A 
ATOM     54  C   UNL     1      -0.559   4.817   2.074  1.00  0.00     0.074 A 
ATOM     55  C   UNL     1       3.487   8.234   3.910  1.00  0.00     0.029 A 
ATOM     56  N   UNL     1       1.351   8.576   4.322  1.00  0.00    -0.354 N 
ATOM     57  N   UNL     1       0.102   5.871   2.468  1.00  0.00    -0.248 NA
ATOM     58  C   UNL     1      -1.634   5.176   1.161  1.00  0.00     0.031 C 
ATOM     59  C   UNL     1       2.730   7.955   2.728  1.00  0.00     0.029 A 
ATOM     60  C   UNL     1       1.398   8.227   2.990  1.00  0.00     0.049 A 
ATOM     61  H   UNL     1       0.515   8.745   4.813  1.00  0.00     0.167 HD
ATOM     62  C   UNL     1      -0.405   7.006   1.930  1.00  0.00     0.074 A 
ATOM     63  C   UNL     1      -1.531   6.521   1.144  1.00  0.00     0.031 C 
ATOM     64  C   UNL     1       0.156   8.220   2.216  1.00  0.00     0.037 A 
BRANCH  51  65
ATOM     65  C   UNL     1       3.643   9.976   6.934  1.00  0.00     0.057 A 
ATOM     66  C   UNL     1       4.519  10.701   6.099  1.00  0.00     0.134 A 
ATOM     67  C   UNL     1       3.741  10.341   8.291  1.00  0.00     0.134 A 
ATOM     68  F   UNL     1       4.499  10.567   4.766  1.00  0.00    -0.206 F 
ATOM     69  C   UNL     1       5.456  11.630   6.578  1.00  0.00     0.040 A 
ATOM     70  C   UNL     1       4.696  11.242   8.790  1.00  0.00     0.040 A 
ATOM     71  F   UNL     1       2.880   9.916   9.216  1.00  0.00    -0.206 F 
ATOM     72  C   UNL     1       5.566  11.887   7.933  1.00  0.00     0.006 A 
ENDBRANCH  51  65
BRANCH  52  73
ATOM     73  C   UNL     1      -1.126   2.305   2.952  1.00  0.00     0.057 A 
ATOM     74  C   UNL     1      -0.677   0.995   2.677  1.00  0.00     0.134 A 
ATOM     75  C   UNL     1      -2.015   2.452   4.024  1.00  0.00     0.134 A 
ATOM     76  F   UNL     1       0.197   0.777   1.681  1.00  0.00    -0.206 F 
ATOM     77  C   UNL     1      -0.980  -0.087   3.514  1.00  0.00     0.040 A 
ATOM     78  C   UNL     1      -2.309   1.377   4.877  1.00  0.00     0.040 A 
ATOM     79  F   UNL     1      -2.467   3.667   4.367  1.00  0.00    -0.206 F 
ATOM     80  C   UNL     1      -1.759   0.116   4.649  1.00  0.00     0.006 A 
ENDBRANCH  52  73
BRANCH  64  81
ATOM     81  C   UNL     1      -0.450   9.538   1.826  1.00  0.00     0.057 A 
ATOM     82  C   UNL     1      -1.095   9.756   0.608  1.00  0.00     0.134 A 
ATOM     83  C   UNL     1      -0.366  10.667   2.674  1.00  0.00     0.134 A 
ATOM     84  F   UNL     1      -1.097   8.823  -0.355  1.00  0.00    -0.206 F 
ATOM     85  C   UNL     1      -1.738  10.964   0.315  1.00  0.00     0.040 A 
ATOM     86  C   UNL     1      -0.949  11.893   2.368  1.00  0.00     0.040 A 
ATOM     87  F   UNL     1       0.261  10.641   3.857  1.00  0.00    -0.206 F 
ATOM     88  C   UNL     1      -1.675  12.034   1.201  1.00  0.00     0.006 A 
ENDBRANCH  64  81
ENDBRANCH  38  39
ENDBRANCH  31  33
ENDBRANCH  30  31
ENDBRANCH  29  30
ENDBRANCH  28  29
ENDBRANCH  27  28
ENDBRANCH   1  27
TORSDOF 18
