REMARK SMILES CC[NH2+][C@@]1(C(=O)OCCOCCOC(=O)c2ccc(-c3c4nc(c(-c5c(F)cccc5F)c5ccc([nH]5)c(-c5c(F)cccc5F)c5nc(c(-c6c(F)cccc6F)c6ccc3[nH]6)C=C5)C=C4)cc2)CC[C@@H](n2cnc3ccccc32)C1
REMARK SMILES IDX 10 1 9 2 8 3 7 4 5 5 6 6 4 7 70 8 82 9 71 10 72 11 3 12 2 15
REMARK SMILES IDX 1 16 73 17 74 18 81 19 75 20 76 21 80 22 77 23 79 24 78 25
REMARK SMILES IDX 11 26 12 27 13 28 14 29 15 30 16 31 17 32 69 33 18 34 68 35
REMARK SMILES IDX 19 36 20 37 21 38 62 39 22 40 67 41 61 42 63 43 23 44 66 45
REMARK SMILES IDX 60 46 59 47 24 49 50 50 33 51 49 52 34 53 37 54 48 55 64 56
REMARK SMILES IDX 35 57 36 58 47 60 65 61 38 62 25 63 26 64 31 65 27 66 28 67
REMARK SMILES IDX 30 68 32 69 29 70 51 71 52 72 57 73 53 74 54 75 56 76 58 77
REMARK SMILES IDX 55 78 39 79 40 80 45 81 41 82 42 83 44 84 46 85 43 86
REMARK H PARENT 3 13 3 14 63 48 37 59
REMARK Flexibility Score: inf
ROOT
ATOM      1  O   UNL     1       4.740   1.059   5.418  1.00  0.00    -0.374 OA
ENDROOT
BRANCH   1   2
ATOM      2  C   UNL     1       3.749   1.361   6.409  1.00  0.00     0.202 C 
BRANCH   2   3
ATOM      3  C   UNL     1       2.545   2.129   5.857  1.00  0.00     0.261 C 
BRANCH   3   4
ATOM      4  O   UNL     1       1.701   1.201   5.157  1.00  0.00    -0.459 OA
BRANCH   4   5
ATOM      5  C   UNL     1       0.468   1.658   4.768  1.00  0.00     0.368 C 
ATOM      6  O   UNL     1       0.025   2.749   5.120  1.00  0.00    -0.245 OA
BRANCH   5   7
ATOM      7  C   UNL     1      -0.375   0.444   3.816  1.00  0.00     0.196 C 
ATOM      8  C   UNL     1      -1.823   0.503   4.926  1.00  0.00     0.083 C 
ATOM      9  C   UNL     1       0.149  -0.904   4.949  1.00  0.00     0.106 C 
ATOM     10  C   UNL     1      -2.107  -0.899   5.535  1.00  0.00     0.033 C 
ATOM     11  C   UNL     1      -1.047  -1.843   4.968  1.00  0.00     0.096 C 
BRANCH   7  12
ATOM     12  N   UNL     1      -0.356   0.395   1.717  1.00  0.00    -0.332 N 
ATOM     13  H   UNL     1      -1.278   0.778   1.508  1.00  0.00     0.347 HD
ATOM     14  H   UNL     1       0.624   0.674   1.690  1.00  0.00     0.347 HD
BRANCH  12  15
ATOM     15  C   UNL     1      -0.163  -0.574   0.516  1.00  0.00     0.257 C 
ATOM     16  C   UNL     1       0.426   0.218  -0.658  1.00  0.00     0.071 C 
ENDBRANCH  12  15
ENDBRANCH   7  12
BRANCH  11  17
ATOM     17  N   UNL     1      -1.281  -2.223   3.565  1.00  0.00    -0.327 N 
ATOM     18  C   UNL     1      -2.586  -2.299   3.053  1.00  0.00     0.200 A 
ATOM     19  C   UNL     1      -0.587  -1.347   2.726  1.00  0.00     0.068 A 
ATOM     20  N   UNL     1      -3.109  -1.128   2.702  1.00  0.00    -0.237 NA
ATOM     21  C   UNL     1      -2.027  -0.297   2.606  1.00  0.00     0.088 A 
ATOM     22  C   UNL     1       1.098  -0.590   2.700  1.00  0.00     0.028 A 
ATOM     23  C   UNL     1      -1.827   1.514   2.585  1.00  0.00     0.030 A 
ATOM     24  C   UNL     1       1.279   1.205   2.554  1.00  0.00     0.002 A 
ATOM     25  C   UNL     1      -0.178   2.260   2.546  1.00  0.00     0.002 A 
ENDBRANCH  11  17
ENDBRANCH   5   7
ENDBRANCH   4   5
ENDBRANCH   3   4
ENDBRANCH   2   3
ENDBRANCH   1   2
BRANCH   1  26
ATOM     26  C   UNL     1       4.433  -0.024   4.538  1.00  0.00     0.202 C 
BRANCH  26  27
ATOM     27  C   UNL     1       4.956  -1.381   5.013  1.00  0.00     0.261 C 
BRANCH  27  28
ATOM     28  O   UNL     1       4.338  -1.760   6.255  1.00  0.00    -0.460 OA
BRANCH  28  29
ATOM     29  C   UNL     1       5.156  -1.695   7.333  1.00  0.00     0.338 C 
ATOM     30  O   UNL     1       6.355  -1.467   7.329  1.00  0.00    -0.246 OA
BRANCH  29  31
ATOM     31  C   UNL     1       4.386  -1.854   8.589  1.00  0.00     0.060 A 
ATOM     32  C   UNL     1       4.898  -1.222   9.728  1.00  0.00     0.016 A 
ATOM     33  C   UNL     1       3.229  -2.639   8.683  1.00  0.00     0.016 A 
ATOM     34  C   UNL     1       4.295  -1.418  10.967  1.00  0.00     0.010 A 
ATOM     35  C   UNL     1       2.625  -2.840   9.931  1.00  0.00     0.010 A 
ATOM     36  C   UNL     1       3.180  -2.259  11.082  1.00  0.00    -0.014 A 
BRANCH  36  37
ATOM     37  C   UNL     1       2.730  -2.629  12.443  1.00  0.00     0.031 A 
ATOM     38  C   UNL     1       3.401  -3.781  13.137  1.00  0.00     0.074 A 
ATOM     39  C   UNL     1       1.817  -1.891  13.097  1.00  0.00     0.049 A 
ATOM     40  N   UNL     1       3.344  -4.136  14.394  1.00  0.00    -0.248 NA
ATOM     41  C   UNL     1       4.261  -4.636  12.304  1.00  0.00     0.031 C 
ATOM     42  C   UNL     1       1.092  -0.750  12.541  1.00  0.00     0.029 A 
ATOM     43  N   UNL     1       1.370  -1.982  14.390  1.00  0.00    -0.354 N 
ATOM     44  C   UNL     1       4.191  -5.229  14.513  1.00  0.00     0.074 A 
ATOM     45  C   UNL     1       4.715  -5.508  13.193  1.00  0.00     0.031 C 
ATOM     46  C   UNL     1       0.296  -0.236  13.496  1.00  0.00     0.029 A 
ATOM     47  C   UNL     1       0.474  -1.000  14.730  1.00  0.00     0.049 A 
ATOM     48  H   UNL     1       1.663  -2.684  15.014  1.00  0.00     0.167 HD
ATOM     49  C   UNL     1       4.523  -5.924  15.625  1.00  0.00     0.037 A 
ATOM     50  C   UNL     1      -0.112  -0.733  15.912  1.00  0.00     0.037 A 
ATOM     51  C   UNL     1       3.998  -5.669  16.937  1.00  0.00     0.049 A 
ATOM     52  C   UNL     1       0.236  -1.548  17.125  1.00  0.00     0.074 A 
ATOM     53  C   UNL     1       4.295  -6.308  18.128  1.00  0.00     0.029 A 
ATOM     54  N   UNL     1       3.053  -4.699  17.225  1.00  0.00    -0.354 N 
ATOM     55  N   UNL     1       1.096  -2.530  17.241  1.00  0.00    -0.248 NA
ATOM     56  C   UNL     1      -0.458  -1.205  18.375  1.00  0.00     0.031 C 
ATOM     57  C   UNL     1       3.509  -5.736  19.137  1.00  0.00     0.029 A 
ATOM     58  C   UNL     1       2.737  -4.734  18.571  1.00  0.00     0.049 A 
ATOM     59  H   UNL     1       2.664  -4.076  16.569  1.00  0.00     0.167 HD
ATOM     60  C   UNL     1       1.063  -2.908  18.577  1.00  0.00     0.074 A 
ATOM     61  C   UNL     1       0.097  -2.051  19.233  1.00  0.00     0.031 C 
ATOM     62  C   UNL     1       1.775  -3.874  19.205  1.00  0.00     0.037 A 
BRANCH  49  63
ATOM     63  C   UNL     1       5.519  -7.026  15.457  1.00  0.00     0.057 A 
ATOM     64  C   UNL     1       6.893  -6.758  15.428  1.00  0.00     0.134 A 
ATOM     65  C   UNL     1       5.107  -8.356  15.328  1.00  0.00     0.134 A 
ATOM     66  F   UNL     1       7.342  -5.498  15.531  1.00  0.00    -0.206 F 
ATOM     67  C   UNL     1       7.827  -7.780  15.267  1.00  0.00     0.040 A 
ATOM     68  C   UNL     1       6.034  -9.388  15.172  1.00  0.00     0.040 A 
ATOM     69  F   UNL     1       3.804  -8.669  15.338  1.00  0.00    -0.206 F 
ATOM     70  C   UNL     1       7.398  -9.101  15.140  1.00  0.00     0.006 A 
ENDBRANCH  49  63
BRANCH  50  71
ATOM     71  C   UNL     1      -1.069   0.390  16.020  1.00  0.00     0.057 A 
ATOM     72  C   UNL     1      -0.682   1.620  16.562  1.00  0.00     0.134 A 
ATOM     73  C   UNL     1      -2.394   0.251  15.596  1.00  0.00     0.134 A 
ATOM     74  F   UNL     1       0.572   1.800  17.000  1.00  0.00    -0.206 F 
ATOM     75  C   UNL     1      -1.586   2.675  16.686  1.00  0.00     0.040 A 
ATOM     76  C   UNL     1      -3.306   1.300  15.707  1.00  0.00     0.040 A 
ATOM     77  F   UNL     1      -2.819  -0.910  15.074  1.00  0.00    -0.206 F 
ATOM     78  C   UNL     1      -2.902   2.516  16.255  1.00  0.00     0.006 A 
ENDBRANCH  50  71
BRANCH  62  79
ATOM     79  C   UNL     1       1.541  -4.049  20.671  1.00  0.00     0.057 A 
ATOM     80  C   UNL     1       0.459  -4.796  21.149  1.00  0.00     0.134 A 
ATOM     81  C   UNL     1       2.424  -3.503  21.609  1.00  0.00     0.134 A 
ATOM     82  F   UNL     1      -0.426  -5.335  20.296  1.00  0.00    -0.206 F 
ATOM     83  C   UNL     1       0.259  -4.990  22.517  1.00  0.00     0.040 A 
ATOM     84  C   UNL     1       2.240  -3.697  22.978  1.00  0.00     0.040 A 
ATOM     85  F   UNL     1       3.479  -2.778  21.208  1.00  0.00    -0.206 F 
ATOM     86  C   UNL     1       1.154  -4.442  23.435  1.00  0.00     0.006 A 
ENDBRANCH  62  79
ENDBRANCH  36  37
ENDBRANCH  29  31
ENDBRANCH  28  29
ENDBRANCH  27  28
ENDBRANCH  26  27
ENDBRANCH   1  26
TORSDOF 17
