REMARK SMILES Cc1ccc(C(=O)NC2CC2)cc1NC(=O)[C@@H]1[C@@H](C(=O)OCCOCCOC(=O)c2ccc(-c3c4nc(c(-c5c(F)cccc5F)c5ccc([nH]5)c(-c5c(F)cccc5F)c5nc(c(-c6c(F)cccc6F)c6ccc3[nH]6)C=C5)C=C4)cc2)[C@H]2C=C[C@@H]1C2
REMARK SMILES IDX 23 1 22 2 21 3 19 4 20 5 18 6 17 7 87 8 84 9 86 10 88 11
REMARK SMILES IDX 85 12 15 13 14 14 16 16 13 17 1 18 2 19 3 20 4 21 12 22 5 23
REMARK SMILES IDX 6 24 7 25 8 26 9 28 10 29 11 30 24 31 25 32 26 33 27 34
REMARK SMILES IDX 28 35 29 36 30 37 31 38 83 39 32 40 82 41 33 42 34 43 35 44
REMARK SMILES IDX 76 45 36 46 81 47 75 48 77 49 37 50 80 51 74 52 73 53 38 55
REMARK SMILES IDX 64 56 47 57 63 58 48 59 51 60 62 61 78 62 49 63 50 64 61 66
REMARK SMILES IDX 79 67 52 68 39 69 40 70 45 71 41 72 42 73 44 74 46 75 43 76
REMARK SMILES IDX 65 77 66 78 71 79 67 80 68 81 70 82 72 83 69 84 53 85 54 86
REMARK SMILES IDX 59 87 55 88 56 89 58 90 60 91 57 92
REMARK H PARENT 14 15 8 27 77 54 51 65
REMARK Flexibility Score: inf
ROOT
ATOM      1  C   UNL     1      -1.485   8.176  -1.515  1.00  0.00     0.202 C 
ENDROOT
BRANCH   1   2
ATOM      2  C   UNL     1      -2.563   7.407  -0.786  1.00  0.00     0.261 C 
BRANCH   2   3
ATOM      3  O   UNL     1      -2.005   6.684   0.323  1.00  0.00    -0.463 OA
BRANCH   3   4
ATOM      4  C   UNL     1      -1.555   5.428   0.049  1.00  0.00     0.310 C 
ATOM      5  O   UNL     1      -1.746   4.820  -0.995  1.00  0.00    -0.252 OA
BRANCH   4   6
ATOM      6  C   UNL     1      -0.705   4.933   1.194  1.00  0.00     0.119 C 
ATOM      7  C   UNL     1      -0.292   3.434   1.022  1.00  0.00     0.100 C 
ATOM      8  C   UNL     1      -0.624   2.839   2.415  1.00  0.00     0.025 C 
ATOM      9  C   UNL     1      -1.444   4.921   2.552  1.00  0.00     0.027 C 
ATOM     10  C   UNL     1      -2.132   2.721   2.484  1.00  0.00    -0.027 C 
ATOM     11  C   UNL     1      -0.470   4.049   3.349  1.00  0.00     0.017 C 
ATOM     12  C   UNL     1      -2.623   3.969   2.530  1.00  0.00    -0.027 C 
BRANCH   7  13
ATOM     13  C   UNL     1       1.139   3.201   0.562  1.00  0.00     0.228 C 
ATOM     14  N   UNL     1       1.616   1.958   0.213  1.00  0.00    -0.326 N 
ATOM     15  H   UNL     1       2.573   1.963  -0.017  1.00  0.00     0.169 HD
ATOM     16  O   UNL     1       1.942   4.140   0.516  1.00  0.00    -0.274 OA
BRANCH  14  17
ATOM     17  C   UNL     1       1.027   0.672   0.114  1.00  0.00     0.044 A 
ATOM     18  C   UNL     1       3.299  -0.506   0.268  1.00  0.00     0.046 C 
ATOM     19  C   UNL     1       1.798  -0.491   0.214  1.00  0.00    -0.027 A 
ATOM     20  C   UNL     1       1.145  -1.744   0.237  1.00  0.00     0.006 A 
ATOM     21  C   UNL     1      -0.247  -1.848   0.158  1.00  0.00     0.014 A 
ATOM     22  C   UNL     1      -0.335   0.509  -0.121  1.00  0.00     0.040 A 
ATOM     23  C   UNL     1      -1.019  -0.711  -0.045  1.00  0.00     0.041 A 
BRANCH  23  24
ATOM     24  C   UNL     1      -2.517  -0.879  -0.111  1.00  0.00     0.251 C 
ATOM     25  O   UNL     1      -3.013  -1.960   0.211  1.00  0.00    -0.269 OA
ATOM     26  N   UNL     1      -3.362   0.144  -0.488  1.00  0.00    -0.349 N 
ATOM     27  H   UNL     1      -4.327  -0.041  -0.424  1.00  0.00     0.164 HD
BRANCH  26  28
ATOM     28  C   UNL     1      -3.001   1.420  -0.955  1.00  0.00     0.082 C 
ATOM     29  C   UNL     1      -2.615   1.565  -2.369  1.00  0.00     0.027 C 
ATOM     30  C   UNL     1      -3.790   2.335  -1.835  1.00  0.00     0.027 C 
ENDBRANCH  26  28
ENDBRANCH  23  24
ENDBRANCH  14  17
ENDBRANCH   7  13
ENDBRANCH   4   6
ENDBRANCH   3   4
ENDBRANCH   2   3
ENDBRANCH   1   2
BRANCH   1  31
ATOM     31  O   UNL     1      -0.881   7.270  -2.433  1.00  0.00    -0.374 OA
BRANCH  31  32
ATOM     32  C   UNL     1       0.256   7.765  -3.126  1.00  0.00     0.202 C 
BRANCH  32  33
ATOM     33  C   UNL     1      -0.029   8.998  -3.995  1.00  0.00     0.261 C 
BRANCH  33  34
ATOM     34  O   UNL     1      -1.026   8.665  -4.979  1.00  0.00    -0.460 OA
BRANCH  34  35
ATOM     35  C   UNL     1      -2.245   9.243  -4.783  1.00  0.00     0.338 C 
ATOM     36  O   UNL     1      -2.443  10.411  -4.532  1.00  0.00    -0.246 OA
BRANCH  35  37
ATOM     37  C   UNL     1      -3.274   8.174  -4.629  1.00  0.00     0.060 A 
ATOM     38  C   UNL     1      -4.559   8.515  -4.173  1.00  0.00     0.016 A 
ATOM     39  C   UNL     1      -2.882   6.837  -4.659  1.00  0.00     0.016 A 
ATOM     40  C   UNL     1      -5.400   7.530  -3.637  1.00  0.00     0.010 A 
ATOM     41  C   UNL     1      -3.679   5.887  -4.051  1.00  0.00     0.010 A 
ATOM     42  C   UNL     1      -4.931   6.224  -3.516  1.00  0.00    -0.014 A 
BRANCH  42  43
ATOM     43  C   UNL     1      -5.652   5.147  -2.823  1.00  0.00     0.031 A 
ATOM     44  C   UNL     1      -6.072   3.955  -3.613  1.00  0.00     0.074 A 
ATOM     45  C   UNL     1      -5.650   5.092  -1.467  1.00  0.00     0.049 A 
ATOM     46  N   UNL     1      -6.785   2.980  -3.167  1.00  0.00    -0.248 NA
ATOM     47  C   UNL     1      -5.642   3.733  -4.989  1.00  0.00     0.031 C 
ATOM     48  C   UNL     1      -5.962   3.946  -0.605  1.00  0.00     0.029 A 
ATOM     49  N   UNL     1      -5.323   6.085  -0.529  1.00  0.00    -0.354 N 
ATOM     50  C   UNL     1      -6.589   1.887  -3.990  1.00  0.00     0.074 A 
ATOM     51  C   UNL     1      -5.945   2.443  -5.155  1.00  0.00     0.031 C 
ATOM     52  C   UNL     1      -6.037   4.330   0.678  1.00  0.00     0.029 A 
ATOM     53  C   UNL     1      -6.039   5.776   0.646  1.00  0.00     0.049 A 
ATOM     54  H   UNL     1      -4.715   6.846  -0.665  1.00  0.00     0.167 HD
ATOM     55  C   UNL     1      -6.865   0.634  -3.503  1.00  0.00     0.037 A 
ATOM     56  C   UNL     1      -7.101   6.543   1.019  1.00  0.00     0.037 A 
ATOM     57  C   UNL     1      -7.447   0.724  -2.137  1.00  0.00     0.049 A 
ATOM     58  C   UNL     1      -8.352   5.697   0.939  1.00  0.00     0.074 A 
ATOM     59  C   UNL     1      -7.060   0.261  -0.890  1.00  0.00     0.029 A 
ATOM     60  N   UNL     1      -8.508   1.613  -1.881  1.00  0.00    -0.354 N 
ATOM     61  N   UNL     1      -8.550   4.772   0.027  1.00  0.00    -0.248 NA
ATOM     62  C   UNL     1      -9.320   5.638   2.029  1.00  0.00     0.031 C 
ATOM     63  C   UNL     1      -7.756   1.002   0.105  1.00  0.00     0.029 A 
ATOM     64  C   UNL     1      -8.653   1.854  -0.525  1.00  0.00     0.049 A 
ATOM     65  H   UNL     1      -9.076   2.013  -2.578  1.00  0.00     0.167 HD
ATOM     66  C   UNL     1      -9.506   3.906   0.488  1.00  0.00     0.074 A 
ATOM     67  C   UNL     1     -10.016   4.536   1.701  1.00  0.00     0.031 C 
ATOM     68  C   UNL     1      -9.753   2.649   0.010  1.00  0.00     0.037 A 
BRANCH  55  69
ATOM     69  C   UNL     1      -6.350  -0.676  -4.136  1.00  0.00     0.057 A 
ATOM     70  C   UNL     1      -6.318  -1.889  -3.414  1.00  0.00     0.134 A 
ATOM     71  C   UNL     1      -5.832  -0.817  -5.441  1.00  0.00     0.134 A 
ATOM     72  F   UNL     1      -6.915  -2.017  -2.224  1.00  0.00    -0.206 F 
ATOM     73  C   UNL     1      -5.707  -3.068  -3.888  1.00  0.00     0.040 A 
ATOM     74  C   UNL     1      -5.189  -1.975  -5.919  1.00  0.00     0.040 A 
ATOM     75  F   UNL     1      -5.999   0.117  -6.378  1.00  0.00    -0.206 F 
ATOM     76  C   UNL     1      -5.106  -3.106  -5.133  1.00  0.00     0.006 A 
ENDBRANCH  55  69
BRANCH  56  77
ATOM     77  C   UNL     1      -6.872   7.983   0.719  1.00  0.00     0.057 A 
ATOM     78  C   UNL     1      -5.834   8.625   1.433  1.00  0.00     0.134 A 
ATOM     79  C   UNL     1      -7.268   8.587  -0.477  1.00  0.00     0.134 A 
ATOM     80  F   UNL     1      -5.374   8.088   2.575  1.00  0.00    -0.206 F 
ATOM     81  C   UNL     1      -5.146   9.735   0.926  1.00  0.00     0.040 A 
ATOM     82  C   UNL     1      -6.587   9.705  -0.991  1.00  0.00     0.040 A 
ATOM     83  F   UNL     1      -8.225   8.035  -1.236  1.00  0.00    -0.206 F 
ATOM     84  C   UNL     1      -5.499  10.255  -0.313  1.00  0.00     0.006 A 
ENDBRANCH  56  77
BRANCH  68  85
ATOM     85  C   UNL     1     -11.097   1.985   0.161  1.00  0.00     0.057 A 
ATOM     86  C   UNL     1     -12.286   2.721   0.272  1.00  0.00     0.134 A 
ATOM     87  C   UNL     1     -11.259   0.595  -0.028  1.00  0.00     0.134 A 
ATOM     88  F   UNL     1     -12.279   4.059   0.358  1.00  0.00    -0.206 F 
ATOM     89  C   UNL     1     -13.544   2.116   0.245  1.00  0.00     0.040 A 
ATOM     90  C   UNL     1     -12.512  -0.012  -0.105  1.00  0.00     0.040 A 
ATOM     91  F   UNL     1     -10.218  -0.234  -0.186  1.00  0.00    -0.206 F 
ATOM     92  C   UNL     1     -13.661   0.748   0.040  1.00  0.00     0.006 A 
ENDBRANCH  68  85
ENDBRANCH  42  43
ENDBRANCH  35  37
ENDBRANCH  34  35
ENDBRANCH  33  34
ENDBRANCH  32  33
ENDBRANCH  31  32
ENDBRANCH   1  31
TORSDOF 18
