REMARK SMILES CC1(C)C[C@](CC(=O)OCCOCCOC(=O)c2ccc(-c3c4nc(c(-c5c(F)cccc5F)c5ccc([nH]5)c(-c5c(F)cccc5F)c5nc(c(-c6c(F)cccc6F)c6ccc3[nH]6)C=C5)C=C4)cc2)([NH+]2CCCC2)C(C)(C)O1
REMARK SMILES IDX 12 1 11 2 10 3 9 4 7 5 8 6 6 7 5 8 1 9 2 10 3 11 4 12 80 13
REMARK SMILES IDX 77 14 78 15 79 16 72 17 73 18 76 19 74 21 75 22 13 23 14 24
REMARK SMILES IDX 15 25 16 26 17 27 18 28 19 29 71 30 20 31 70 32 21 33 22 34
REMARK SMILES IDX 23 35 64 36 24 37 69 38 63 39 65 40 25 41 68 42 62 43 61 44
REMARK SMILES IDX 26 46 52 47 35 48 51 49 36 50 39 51 50 52 66 53 37 54 38 55
REMARK SMILES IDX 49 57 67 58 40 59 27 60 28 61 33 62 29 63 30 64 32 65 34 66
REMARK SMILES IDX 31 67 53 68 54 69 59 70 55 71 56 72 58 73 60 74 57 75 41 76
REMARK SMILES IDX 42 77 47 78 43 79 44 80 46 81 48 82 45 83
REMARK H PARENT 72 20 65 45 39 56
REMARK Flexibility Score: inf
ROOT
ATOM      1  O   UNL     1      -1.989  -8.634   1.457  1.00  0.00    -0.374 OA
ENDROOT
BRANCH   1   2
ATOM      2  C   UNL     1      -2.184  -7.698   2.515  1.00  0.00     0.202 C 
BRANCH   2   3
ATOM      3  C   UNL     1      -0.972  -6.839   2.892  1.00  0.00     0.261 C 
BRANCH   3   4
ATOM      4  O   UNL     1      -0.692  -5.738   1.993  1.00  0.00    -0.463 OA
BRANCH   4   5
ATOM      5  C   UNL     1       0.435  -5.870   1.255  1.00  0.00     0.312 C 
ATOM      6  O   UNL     1       1.063  -6.921   1.154  1.00  0.00    -0.252 OA
BRANCH   5   7
ATOM      7  C   UNL     1       0.999  -4.585   0.684  1.00  0.00     0.194 C 
BRANCH   7   8
ATOM      8  C   UNL     1       0.197  -3.339   0.176  1.00  0.00     0.140 C 
ATOM      9  C   UNL     1       1.707  -0.045   0.942  1.00  0.00     0.042 C 
ATOM     10  C   UNL     1       0.775  -0.906   0.075  1.00  0.00     0.070 C 
ATOM     11  C   UNL     1       0.528  -0.119  -1.225  1.00  0.00     0.042 C 
ATOM     12  C   UNL     1       1.330  -2.308  -0.184  1.00  0.00     0.107 C 
ATOM     13  O   UNL     1      -0.453  -1.099   0.809  1.00  0.00    -0.363 OA
ATOM     14  C   UNL     1      -0.548  -2.485   1.271  1.00  0.00     0.118 C 
ATOM     15  C   UNL     1       0.106  -2.535   2.668  1.00  0.00     0.049 C 
ATOM     16  C   UNL     1      -2.037  -2.783   1.481  1.00  0.00     0.049 C 
BRANCH   8  17
ATOM     17  N   UNL     1      -0.542  -3.638  -1.092  1.00  0.00    -0.327 N 
ATOM     18  C   UNL     1      -1.311  -4.873  -1.152  1.00  0.00     0.263 C 
ATOM     19  C   UNL     1      -1.323  -2.600  -1.776  1.00  0.00     0.263 C 
ATOM     20  H   UNL     1       0.330  -3.727  -1.613  1.00  0.00     0.348 HD
ATOM     21  C   UNL     1      -2.231  -4.715  -2.350  1.00  0.00     0.067 C 
ATOM     22  C   UNL     1      -2.598  -3.256  -2.287  1.00  0.00     0.067 C 
ENDBRANCH   8  17
ENDBRANCH   7   8
ENDBRANCH   5   7
ENDBRANCH   4   5
ENDBRANCH   3   4
ENDBRANCH   2   3
ENDBRANCH   1   2
BRANCH   1  23
ATOM     23  C   UNL     1      -2.014  -8.120   0.127  1.00  0.00     0.202 C 
BRANCH  23  24
ATOM     24  C   UNL     1      -3.405  -7.712  -0.363  1.00  0.00     0.261 C 
BRANCH  24  25
ATOM     25  O   UNL     1      -3.838  -6.528   0.332  1.00  0.00    -0.460 OA
BRANCH  25  26
ATOM     26  C   UNL     1      -5.178  -6.387   0.399  1.00  0.00     0.338 C 
ATOM     27  O   UNL     1      -6.014  -6.954  -0.288  1.00  0.00    -0.246 OA
BRANCH  26  28
ATOM     28  C   UNL     1      -5.512  -5.620   1.610  1.00  0.00     0.060 A 
ATOM     29  C   UNL     1      -6.001  -6.341   2.703  1.00  0.00     0.016 A 
ATOM     30  C   UNL     1      -5.435  -4.226   1.655  1.00  0.00     0.016 A 
ATOM     31  C   UNL     1      -6.492  -5.663   3.817  1.00  0.00     0.010 A 
ATOM     32  C   UNL     1      -5.915  -3.548   2.787  1.00  0.00     0.010 A 
ATOM     33  C   UNL     1      -6.498  -4.259   3.852  1.00  0.00    -0.014 A 
BRANCH  33  34
ATOM     34  C   UNL     1      -7.270  -3.587   4.934  1.00  0.00     0.031 A 
ATOM     35  C   UNL     1      -8.638  -3.028   4.634  1.00  0.00     0.074 A 
ATOM     36  C   UNL     1      -6.826  -3.590   6.206  1.00  0.00     0.049 A 
ATOM     37  N   UNL     1      -9.554  -2.588   5.462  1.00  0.00    -0.248 NA
ATOM     38  C   UNL     1      -9.030  -2.960   3.218  1.00  0.00     0.031 C 
ATOM     39  C   UNL     1      -5.530  -4.099   6.649  1.00  0.00     0.029 A 
ATOM     40  N   UNL     1      -7.438  -3.174   7.364  1.00  0.00    -0.354 N 
ATOM     41  C   UNL     1     -10.632  -2.211   4.670  1.00  0.00     0.074 A 
ATOM     42  C   UNL     1     -10.238  -2.421   3.294  1.00  0.00     0.031 C 
ATOM     43  C   UNL     1      -5.454  -3.993   7.987  1.00  0.00     0.029 A 
ATOM     44  C   UNL     1      -6.692  -3.402   8.495  1.00  0.00     0.049 A 
ATOM     45  H   UNL     1      -8.327  -2.751   7.382  1.00  0.00     0.167 HD
ATOM     46  C   UNL     1     -11.851  -1.756   5.048  1.00  0.00     0.037 A 
ATOM     47  C   UNL     1      -6.977  -3.179   9.793  1.00  0.00     0.037 A 
ATOM     48  C   UNL     1     -12.263  -1.547   6.410  1.00  0.00     0.049 A 
ATOM     49  C   UNL     1      -8.324  -2.631  10.186  1.00  0.00     0.074 A 
ATOM     50  C   UNL     1     -13.493  -1.121   6.882  1.00  0.00     0.029 A 
ATOM     51  N   UNL     1     -11.456  -1.740   7.519  1.00  0.00    -0.354 N 
ATOM     52  N   UNL     1      -9.356  -2.346   9.430  1.00  0.00    -0.248 NA
ATOM     53  C   UNL     1      -8.548  -2.385  11.620  1.00  0.00     0.031 C 
ATOM     54  C   UNL     1     -13.416  -1.013   8.275  1.00  0.00     0.029 A 
ATOM     55  C   UNL     1     -12.152  -1.415   8.672  1.00  0.00     0.049 A 
ATOM     56  H   UNL     1     -10.525  -2.060   7.492  1.00  0.00     0.167 HD
ATOM     57  C   UNL     1     -10.356  -1.916  10.295  1.00  0.00     0.074 A 
ATOM     58  C   UNL     1      -9.814  -1.992  11.634  1.00  0.00     0.031 C 
ATOM     59  C   UNL     1     -11.611  -1.496  10.004  1.00  0.00     0.037 A 
BRANCH  46  60
ATOM     60  C   UNL     1     -12.839  -1.452   3.961  1.00  0.00     0.057 A 
ATOM     61  C   UNL     1     -13.481  -2.471   3.246  1.00  0.00     0.134 A 
ATOM     62  C   UNL     1     -13.187  -0.130   3.660  1.00  0.00     0.134 A 
ATOM     63  F   UNL     1     -13.182  -3.758   3.480  1.00  0.00    -0.206 F 
ATOM     64  C   UNL     1     -14.421  -2.185   2.255  1.00  0.00     0.040 A 
ATOM     65  C   UNL     1     -14.143   0.168   2.688  1.00  0.00     0.040 A 
ATOM     66  F   UNL     1     -12.613   0.891   4.314  1.00  0.00    -0.206 F 
ATOM     67  C   UNL     1     -14.760  -0.862   1.979  1.00  0.00     0.006 A 
ENDBRANCH  46  60
BRANCH  47  68
ATOM     68  C   UNL     1      -5.972  -3.494  10.840  1.00  0.00     0.057 A 
ATOM     69  C   UNL     1      -6.164  -4.548  11.741  1.00  0.00     0.134 A 
ATOM     70  C   UNL     1      -4.817  -2.718  10.990  1.00  0.00     0.134 A 
ATOM     71  F   UNL     1      -7.265  -5.310  11.664  1.00  0.00    -0.206 F 
ATOM     72  C   UNL     1      -5.253  -4.808  12.766  1.00  0.00     0.040 A 
ATOM     73  C   UNL     1      -3.886  -2.980  11.996  1.00  0.00     0.040 A 
ATOM     74  F   UNL     1      -4.578  -1.692  10.160  1.00  0.00    -0.206 F 
ATOM     75  C   UNL     1      -4.108  -4.023  12.893  1.00  0.00     0.006 A 
ENDBRANCH  47  68
BRANCH  59  76
ATOM     76  C   UNL     1     -12.496  -1.108  11.152  1.00  0.00     0.057 A 
ATOM     77  C   UNL     1     -12.292   0.074  11.876  1.00  0.00     0.134 A 
ATOM     78  C   UNL     1     -13.586  -1.908  11.519  1.00  0.00     0.134 A 
ATOM     79  F   UNL     1     -11.261   0.881  11.583  1.00  0.00    -0.206 F 
ATOM     80  C   UNL     1     -13.125   0.434  12.937  1.00  0.00     0.040 A 
ATOM     81  C   UNL     1     -14.440  -1.547  12.562  1.00  0.00     0.040 A 
ATOM     82  F   UNL     1     -13.845  -3.049  10.862  1.00  0.00    -0.206 F 
ATOM     83  C   UNL     1     -14.207  -0.376  13.279  1.00  0.00     0.006 A 
ENDBRANCH  59  76
ENDBRANCH  33  34
ENDBRANCH  26  28
ENDBRANCH  25  26
ENDBRANCH  24  25
ENDBRANCH  23  24
ENDBRANCH   1  23
TORSDOF 16
