REMARK SMILES COc1cccc(CSc2nc3ccccc3c(=O)n2CCC(=O)OCCOCCOC(=O)c2ccc(-c3c4nc(c(-c5c(F)cccc5F)c5ccc([nH]5)c(-c5c(F)cccc5F)c5nc(c(-c6c(F)cccc6F)c6ccc3[nH]6)C=C5)C=C4)cc2)c1
REMARK SMILES IDX 26 1 25 2 23 3 24 4 22 5 21 6 20 7 10 8 11 9 12 10 18 11
REMARK SMILES IDX 13 12 17 13 19 14 14 15 16 16 15 17 9 18 8 19 7 20 3 21 4 22
REMARK SMILES IDX 88 23 5 24 6 25 2 26 1 27 27 28 28 29 29 30 30 31 31 32
REMARK SMILES IDX 32 33 33 34 34 35 35 36 87 37 36 38 86 39 37 40 38 41 39 42
REMARK SMILES IDX 80 43 40 44 85 45 79 46 81 47 41 48 84 49 78 50 77 51 42 53
REMARK SMILES IDX 68 54 51 55 67 56 52 57 55 58 66 59 82 60 53 61 54 62 65 64
REMARK SMILES IDX 83 65 56 66 43 67 44 68 49 69 45 70 46 71 48 72 50 73 47 74
REMARK SMILES IDX 69 75 70 76 75 77 71 78 72 79 74 80 76 81 73 82 57 83 58 84
REMARK SMILES IDX 63 85 59 86 60 87 62 88 64 89 61 90
REMARK H PARENT 81 52 55 63
REMARK Flexibility Score: inf
ROOT
ATOM      1  C   UNL     1       6.859  -4.606   2.738  1.00  0.00     0.261 C 
ENDROOT
BRANCH   1   2
ATOM      2  O   UNL     1       6.421  -3.220   2.879  1.00  0.00    -0.463 OA
BRANCH   2   3
ATOM      3  C   UNL     1       6.061  -2.540   1.753  1.00  0.00     0.307 C 
ATOM      4  O   UNL     1       5.962  -3.044   0.641  1.00  0.00    -0.252 OA
BRANCH   3   5
ATOM      5  C   UNL     1       5.813  -1.052   2.006  1.00  0.00     0.144 C 
BRANCH   5   6
ATOM      6  C   UNL     1       4.410  -0.528   2.382  1.00  0.00     0.140 C 
BRANCH   6   7
ATOM      7  N   UNL     1       3.892  -0.915   3.684  1.00  0.00    -0.286 N 
ATOM      8  C   UNL     1       4.011  -2.159   4.206  1.00  0.00     0.171 A 
ATOM      9  N   UNL     1       4.484  -2.349   5.399  1.00  0.00    -0.224 NA
ATOM     10  C   UNL     1       4.623  -1.201   6.203  1.00  0.00     0.079 A 
ATOM     11  C   UNL     1       3.365   0.040   4.536  1.00  0.00     0.262 A 
ATOM     12  C   UNL     1       5.426  -1.185   7.341  1.00  0.00     0.029 A 
ATOM     13  C   UNL     1       3.811  -0.096   5.941  1.00  0.00     0.066 A 
ATOM     14  O   UNL     1       2.658   0.974   4.178  1.00  0.00    -0.269 OA
ATOM     15  C   UNL     1       5.320  -0.128   8.253  1.00  0.00     0.002 A 
ATOM     16  C   UNL     1       3.615   0.909   6.886  1.00  0.00     0.016 A 
ATOM     17  C   UNL     1       4.369   0.880   8.058  1.00  0.00     0.001 A 
BRANCH   8  18
ATOM     18  S   UNL     1       3.340  -3.520   3.393  1.00  0.00    -0.083 SA
BRANCH  18  19
ATOM     19  C   UNL     1       2.910  -3.287   1.664  1.00  0.00     0.113 C 
BRANCH  19  20
ATOM     20  C   UNL     1       1.471  -2.911   1.504  1.00  0.00    -0.034 A 
ATOM     21  C   UNL     1      -0.167  -1.189   1.081  1.00  0.00     0.119 A 
ATOM     22  C   UNL     1      -1.141  -1.996   1.670  1.00  0.00     0.046 A 
ATOM     23  C   UNL     1       1.133  -1.664   0.974  1.00  0.00     0.051 A 
ATOM     24  C   UNL     1      -0.841  -3.299   2.069  1.00  0.00     0.004 A 
ATOM     25  C   UNL     1       0.462  -3.763   1.969  1.00  0.00     0.005 A 
BRANCH  21  26
ATOM     26  O   UNL     1      -0.577   0.056   0.695  1.00  0.00    -0.497 OA
ATOM     27  C   UNL     1       0.308   0.766  -0.167  1.00  0.00     0.278 C 
ENDBRANCH  21  26
ENDBRANCH  19  20
ENDBRANCH  18  19
ENDBRANCH   8  18
ENDBRANCH   6   7
ENDBRANCH   5   6
ENDBRANCH   3   5
ENDBRANCH   2   3
ENDBRANCH   1   2
BRANCH   1  28
ATOM     28  C   UNL     1       6.118  -5.594   3.670  1.00  0.00     0.202 C 
BRANCH  28  29
ATOM     29  O   UNL     1       5.593  -6.770   3.025  1.00  0.00    -0.374 OA
BRANCH  29  30
ATOM     30  C   UNL     1       4.338  -6.608   2.361  1.00  0.00     0.202 C 
BRANCH  30  31
ATOM     31  C   UNL     1       3.080  -6.872   3.219  1.00  0.00     0.261 C 
BRANCH  31  32
ATOM     32  O   UNL     1       3.153  -6.239   4.502  1.00  0.00    -0.460 OA
BRANCH  32  33
ATOM     33  C   UNL     1       3.500  -7.051   5.511  1.00  0.00     0.338 C 
ATOM     34  O   UNL     1       3.492  -8.278   5.505  1.00  0.00    -0.246 OA
BRANCH  33  35
ATOM     35  C   UNL     1       4.107  -6.277   6.604  1.00  0.00     0.060 A 
ATOM     36  C   UNL     1       5.321  -6.776   7.081  1.00  0.00     0.016 A 
ATOM     37  C   UNL     1       3.506  -5.165   7.205  1.00  0.00     0.016 A 
ATOM     38  C   UNL     1       5.873  -6.257   8.238  1.00  0.00     0.010 A 
ATOM     39  C   UNL     1       4.075  -4.628   8.368  1.00  0.00     0.010 A 
ATOM     40  C   UNL     1       5.219  -5.225   8.925  1.00  0.00    -0.014 A 
BRANCH  40  41
ATOM     41  C   UNL     1       5.660  -4.960  10.314  1.00  0.00     0.031 A 
ATOM     42  C   UNL     1       4.851  -5.530  11.449  1.00  0.00     0.074 A 
ATOM     43  C   UNL     1       6.855  -4.387  10.541  1.00  0.00     0.049 A 
ATOM     44  N   UNL     1       5.125  -5.566  12.728  1.00  0.00    -0.248 NA
ATOM     45  C   UNL     1       3.567  -6.157  11.096  1.00  0.00     0.031 C 
ATOM     46  C   UNL     1       7.746  -3.867   9.505  1.00  0.00     0.029 A 
ATOM     47  N   UNL     1       7.542  -4.184  11.710  1.00  0.00    -0.354 N 
ATOM     48  C   UNL     1       4.051  -6.215  13.327  1.00  0.00     0.074 A 
ATOM     49  C   UNL     1       3.103  -6.522  12.281  1.00  0.00     0.031 C 
ATOM     50  C   UNL     1       8.873  -3.420  10.082  1.00  0.00     0.029 A 
ATOM     51  C   UNL     1       8.769  -3.596  11.528  1.00  0.00     0.049 A 
ATOM     52  H   UNL     1       7.189  -4.436  12.594  1.00  0.00     0.167 HD
ATOM     53  C   UNL     1       3.880  -6.539  14.630  1.00  0.00     0.037 A 
ATOM     54  C   UNL     1       9.700  -3.238  12.432  1.00  0.00     0.037 A 
ATOM     55  C   UNL     1       4.838  -6.235  15.660  1.00  0.00     0.049 A 
ATOM     56  C   UNL     1       9.455  -3.547  13.884  1.00  0.00     0.074 A 
ATOM     57  C   UNL     1       4.774  -6.521  17.011  1.00  0.00     0.029 A 
ATOM     58  N   UNL     1       6.036  -5.566  15.447  1.00  0.00    -0.354 N 
ATOM     59  N   UNL     1       8.443  -4.173  14.437  1.00  0.00    -0.248 NA
ATOM     60  C   UNL     1      10.482  -3.106  14.837  1.00  0.00     0.031 C 
ATOM     61  C   UNL     1       5.900  -5.966  17.627  1.00  0.00     0.029 A 
ATOM     62  C   UNL     1       6.702  -5.397  16.649  1.00  0.00     0.049 A 
ATOM     63  H   UNL     1       6.363  -5.258  14.572  1.00  0.00     0.167 HD
ATOM     64  C   UNL     1       8.720  -4.221  15.797  1.00  0.00     0.074 A 
ATOM     65  C   UNL     1      10.006  -3.579  15.980  1.00  0.00     0.031 C 
ATOM     66  C   UNL     1       7.981  -4.749  16.805  1.00  0.00     0.037 A 
BRANCH  53  67
ATOM     67  C   UNL     1       2.594  -7.214  15.018  1.00  0.00     0.057 A 
ATOM     68  C   UNL     1       2.294  -8.531  14.644  1.00  0.00     0.134 A 
ATOM     69  C   UNL     1       1.647  -6.537  15.798  1.00  0.00     0.134 A 
ATOM     70  F   UNL     1       3.148  -9.234  13.885  1.00  0.00    -0.206 F 
ATOM     71  C   UNL     1       1.089  -9.138  15.007  1.00  0.00     0.040 A 
ATOM     72  C   UNL     1       0.453  -7.143  16.193  1.00  0.00     0.040 A 
ATOM     73  F   UNL     1       1.869  -5.275  16.196  1.00  0.00    -0.206 F 
ATOM     74  C   UNL     1       0.167  -8.446  15.790  1.00  0.00     0.006 A 
ENDBRANCH  53  67
BRANCH  54  75
ATOM     75  C   UNL     1      10.929  -2.533  11.987  1.00  0.00     0.057 A 
ATOM     76  C   UNL     1      12.196  -3.118  12.095  1.00  0.00     0.134 A 
ATOM     77  C   UNL     1      10.861  -1.245  11.439  1.00  0.00     0.134 A 
ATOM     78  F   UNL     1      12.333  -4.341  12.626  1.00  0.00    -0.206 F 
ATOM     79  C   UNL     1      13.350  -2.443  11.688  1.00  0.00     0.040 A 
ATOM     80  C   UNL     1      12.002  -0.571  11.002  1.00  0.00     0.040 A 
ATOM     81  F   UNL     1       9.677  -0.629  11.302  1.00  0.00    -0.206 F 
ATOM     82  C   UNL     1      13.253  -1.168  11.134  1.00  0.00     0.006 A 
ENDBRANCH  54  75
BRANCH  66  83
ATOM     83  C   UNL     1       8.559  -4.675  18.188  1.00  0.00     0.057 A 
ATOM     84  C   UNL     1       8.663  -3.464  18.885  1.00  0.00     0.134 A 
ATOM     85  C   UNL     1       8.980  -5.838  18.846  1.00  0.00     0.134 A 
ATOM     86  F   UNL     1       8.287  -2.313  18.308  1.00  0.00    -0.206 F 
ATOM     87  C   UNL     1       9.193  -3.409  20.175  1.00  0.00     0.040 A 
ATOM     88  C   UNL     1       9.481  -5.800  20.148  1.00  0.00     0.040 A 
ATOM     89  F   UNL     1       8.896  -7.032  18.241  1.00  0.00    -0.206 F 
ATOM     90  C   UNL     1       9.596  -4.581  20.812  1.00  0.00     0.006 A 
ENDBRANCH  66  83
ENDBRANCH  40  41
ENDBRANCH  33  35
ENDBRANCH  32  33
ENDBRANCH  31  32
ENDBRANCH  30  31
ENDBRANCH  29  30
ENDBRANCH  28  29
ENDBRANCH   1  28
TORSDOF 20
