REMARK SMILES O=C(OCCOCCOC(=O)[C@H]1Cc2c([nH]c3ccccc23)[C@@H](c2ccc(OC(F)(F)F)cc2)[NH2+]1)c1ccc(-c2c3nc(c(-c4c(F)cccc4F)c4ccc([nH]4)c(-c4c(F)cccc4F)c4nc(c(-c5c(F)cccc5F)c5ccc2[nH]5)C=C4)C=C3)cc1
REMARK SMILES IDX 7 1 6 2 5 3 4 4 3 5 2 6 1 7 36 8 37 9 89 10 38 11 88 12
REMARK SMILES IDX 39 13 40 14 41 15 82 16 42 17 87 18 81 19 83 20 43 21 86 22
REMARK SMILES IDX 80 23 79 24 44 26 70 27 53 28 69 29 54 30 57 31 68 32 84 33
REMARK SMILES IDX 55 34 56 35 67 37 85 38 58 39 45 40 46 41 51 42 47 43 48 44
REMARK SMILES IDX 50 45 52 46 49 47 71 48 72 49 77 50 73 51 74 52 76 53 78 54
REMARK SMILES IDX 75 55 59 56 60 57 65 58 61 59 62 60 64 61 66 62 63 63 8 64
REMARK SMILES IDX 9 65 10 66 11 67 12 68 13 69 35 70 14 71 23 72 15 75 22 76
REMARK SMILES IDX 16 77 17 78 21 79 18 81 20 82 19 83 24 84 25 85 34 86 26 87
REMARK SMILES IDX 33 88 27 89 28 90 29 91 30 92 31 93 32 94
REMARK H PARENT 83 25 57 36 35 73 35 74 16 80
REMARK Flexibility Score: inf
ROOT
ATOM      1  C   UNL     1       2.627   1.668  -1.342  1.00  0.00     0.202 C 
ENDROOT
BRANCH   1   2
ATOM      2  O   UNL     1       3.978   1.353  -0.978  1.00  0.00    -0.374 OA
BRANCH   2   3
ATOM      3  C   UNL     1       4.390   0.016  -1.271  1.00  0.00     0.202 C 
BRANCH   3   4
ATOM      4  C   UNL     1       4.115  -1.055  -0.207  1.00  0.00     0.261 C 
BRANCH   4   5
ATOM      5  O   UNL     1       2.716  -1.087   0.126  1.00  0.00    -0.460 OA
BRANCH   5   6
ATOM      6  C   UNL     1       2.084  -0.445   1.138  1.00  0.00     0.338 C 
ATOM      7  O   UNL     1       0.866  -0.547   1.245  1.00  0.00    -0.246 OA
BRANCH   6   8
ATOM      8  C   UNL     1       2.819   0.349   2.163  1.00  0.00     0.060 A 
ATOM      9  C   UNL     1       4.036   0.984   1.933  1.00  0.00     0.016 A 
ATOM     10  C   UNL     1       2.228   0.498   3.428  1.00  0.00     0.016 A 
ATOM     11  C   UNL     1       4.712   1.647   2.927  1.00  0.00     0.010 A 
ATOM     12  C   UNL     1       2.877   1.219   4.436  1.00  0.00     0.010 A 
ATOM     13  C   UNL     1       4.138   1.767   4.183  1.00  0.00    -0.014 A 
BRANCH  13  14
ATOM     14  C   UNL     1       5.013   2.345   5.208  1.00  0.00     0.031 A 
ATOM     15  C   UNL     1       5.710   1.403   6.135  1.00  0.00     0.074 A 
ATOM     16  C   UNL     1       5.369   3.637   5.089  1.00  0.00     0.049 A 
ATOM     17  N   UNL     1       6.581   1.658   7.069  1.00  0.00    -0.248 NA
ATOM     18  C   UNL     1       5.409  -0.031   5.963  1.00  0.00     0.031 C 
ATOM     19  C   UNL     1       4.871   4.556   4.058  1.00  0.00     0.029 A 
ATOM     20  N   UNL     1       6.286   4.377   5.778  1.00  0.00    -0.354 N 
ATOM     21  C   UNL     1       6.894   0.427   7.629  1.00  0.00     0.074 A 
ATOM     22  C   UNL     1       6.141  -0.579   6.918  1.00  0.00     0.031 C 
ATOM     23  C   UNL     1       5.530   5.720   4.153  1.00  0.00     0.029 A 
ATOM     24  C   UNL     1       6.424   5.657   5.301  1.00  0.00     0.049 A 
ATOM     25  H   UNL     1       6.799   4.027   6.542  1.00  0.00     0.167 HD
ATOM     26  C   UNL     1       7.727   0.180   8.664  1.00  0.00     0.037 A 
ATOM     27  C   UNL     1       7.171   6.669   5.777  1.00  0.00     0.037 A 
ATOM     28  C   UNL     1       8.465   1.217   9.330  1.00  0.00     0.049 A 
ATOM     29  C   UNL     1       8.001   6.391   6.998  1.00  0.00     0.074 A 
ATOM     30  C   UNL     1       9.268   1.132  10.450  1.00  0.00     0.029 A 
ATOM     31  N   UNL     1       8.484   2.544   8.916  1.00  0.00    -0.354 N 
ATOM     32  N   UNL     1       8.202   5.250   7.616  1.00  0.00    -0.248 NA
ATOM     33  C   UNL     1       8.680   7.538   7.608  1.00  0.00     0.031 C 
ATOM     34  C   UNL     1       9.738   2.419  10.739  1.00  0.00     0.029 A 
ATOM     35  C   UNL     1       9.269   3.295   9.769  1.00  0.00     0.049 A 
ATOM     36  H   UNL     1       8.007   2.897   8.130  1.00  0.00     0.167 HD
ATOM     37  C   UNL     1       9.042   5.535   8.681  1.00  0.00     0.074 A 
ATOM     38  C   UNL     1       9.328   6.957   8.608  1.00  0.00     0.031 C 
ATOM     39  C   UNL     1       9.528   4.709   9.640  1.00  0.00     0.037 A 
BRANCH  26  40
ATOM     40  C   UNL     1       7.764  -1.228   9.178  1.00  0.00     0.057 A 
ATOM     41  C   UNL     1       8.380  -2.273   8.478  1.00  0.00     0.134 A 
ATOM     42  C   UNL     1       7.098  -1.552  10.366  1.00  0.00     0.134 A 
ATOM     43  F   UNL     1       9.001  -2.039   7.311  1.00  0.00    -0.206 F 
ATOM     44  C   UNL     1       8.305  -3.595   8.927  1.00  0.00     0.040 A 
ATOM     45  C   UNL     1       7.036  -2.864  10.837  1.00  0.00     0.040 A 
ATOM     46  F   UNL     1       6.473  -0.601  11.077  1.00  0.00    -0.206 F 
ATOM     47  C   UNL     1       7.632  -3.892  10.111  1.00  0.00     0.006 A 
ENDBRANCH  26  40
BRANCH  27  48
ATOM     48  C   UNL     1       7.109   8.017   5.155  1.00  0.00     0.057 A 
ATOM     49  C   UNL     1       8.232   8.608   4.569  1.00  0.00     0.134 A 
ATOM     50  C   UNL     1       5.918   8.759   5.146  1.00  0.00     0.134 A 
ATOM     51  F   UNL     1       9.408   7.963   4.559  1.00  0.00    -0.206 F 
ATOM     52  C   UNL     1       8.180   9.889   4.010  1.00  0.00     0.040 A 
ATOM     53  C   UNL     1       5.843  10.026   4.565  1.00  0.00     0.040 A 
ATOM     54  F   UNL     1       4.801   8.256   5.692  1.00  0.00    -0.206 F 
ATOM     55  C   UNL     1       6.980  10.598   4.002  1.00  0.00     0.006 A 
ENDBRANCH  27  48
BRANCH  39  56
ATOM     56  C   UNL     1      10.446   5.327  10.648  1.00  0.00     0.057 A 
ATOM     57  C   UNL     1       9.970   6.168  11.660  1.00  0.00     0.134 A 
ATOM     58  C   UNL     1      11.817   5.045  10.619  1.00  0.00     0.134 A 
ATOM     59  F   UNL     1       8.668   6.485  11.726  1.00  0.00    -0.206 F 
ATOM     60  C   UNL     1      10.834   6.728  12.601  1.00  0.00     0.040 A 
ATOM     61  C   UNL     1      12.685   5.576  11.570  1.00  0.00     0.040 A 
ATOM     62  F   UNL     1      12.328   4.239   9.676  1.00  0.00    -0.206 F 
ATOM     63  C   UNL     1      12.195   6.425  12.561  1.00  0.00     0.006 A 
ENDBRANCH  39  56
ENDBRANCH  13  14
ENDBRANCH   6   8
ENDBRANCH   5   6
ENDBRANCH   4   5
ENDBRANCH   3   4
ENDBRANCH   2   3
ENDBRANCH   1   2
BRANCH   1  64
ATOM     64  C   UNL     1       2.593   2.526  -2.606  1.00  0.00     0.261 C 
BRANCH  64  65
ATOM     65  O   UNL     1       3.124   1.750  -3.694  1.00  0.00    -0.459 OA
BRANCH  65  66
ATOM     66  C   UNL     1       4.425   1.984  -4.008  1.00  0.00     0.365 C 
ATOM     67  O   UNL     1       5.050   2.989  -3.684  1.00  0.00    -0.245 OA
BRANCH  66  68
ATOM     68  C   UNL     1       5.044   0.856  -4.847  1.00  0.00     0.298 C 
ATOM     69  C   UNL     1       4.476  -0.547  -4.505  1.00  0.00     0.115 C 
ATOM     70  N   UNL     1       5.160   1.268  -6.268  1.00  0.00    -0.323 N 
ATOM     71  C   UNL     1       4.529  -1.460  -5.656  1.00  0.00    -0.006 A 
ATOM     72  C   UNL     1       4.423   0.502  -7.277  1.00  0.00     0.262 C 
ATOM     73  H   UNL     1       6.148   1.221  -6.516  1.00  0.00     0.347 HD
ATOM     74  H   UNL     1       4.735   2.195  -6.296  1.00  0.00     0.347 HD
ATOM     75  C   UNL     1       4.523  -0.951  -6.929  1.00  0.00     0.083 A 
ATOM     76  C   UNL     1       4.537  -2.872  -5.726  1.00  0.00     0.003 A 
ATOM     77  N   UNL     1       4.606  -2.008  -7.794  1.00  0.00    -0.353 N 
ATOM     78  C   UNL     1       4.577  -3.194  -7.084  1.00  0.00     0.046 A 
ATOM     79  C   UNL     1       4.500  -3.908  -4.772  1.00  0.00     0.010 A 
ATOM     80  H   UNL     1       4.676  -1.935  -8.774  1.00  0.00     0.166 HD
ATOM     81  C   UNL     1       4.579  -4.519  -7.534  1.00  0.00     0.026 A 
ATOM     82  C   UNL     1       4.503  -5.236  -5.209  1.00  0.00     0.001 A 
ATOM     83  C   UNL     1       4.541  -5.533  -6.569  1.00  0.00     0.002 A 
BRANCH  72  84
ATOM     84  C   UNL     1       2.996   1.001  -7.534  1.00  0.00     0.016 A 
ATOM     85  C   UNL     1       1.927   0.116  -7.756  1.00  0.00     0.014 A 
ATOM     86  C   UNL     1       2.739   2.371  -7.723  1.00  0.00     0.014 A 
ATOM     87  C   UNL     1       0.686   0.572  -8.210  1.00  0.00     0.047 A 
ATOM     88  C   UNL     1       1.486   2.831  -8.160  1.00  0.00     0.047 A 
ATOM     89  C   UNL     1       0.464   1.928  -8.442  1.00  0.00     0.129 A 
BRANCH  89  90
ATOM     90  O   UNL     1      -0.766   2.218  -8.954  1.00  0.00    -0.406 OA
BRANCH  90  91
ATOM     91  C   UNL     1      -1.024   3.558  -9.335  1.00  0.00     0.573 C 
ATOM     92  F   UNL     1      -1.057   4.365  -8.254  1.00  0.00    -0.132 F 
ATOM     93  F   UNL     1      -0.102   4.013 -10.211  1.00  0.00    -0.132 F 
ATOM     94  F   UNL     1      -2.233   3.611  -9.938  1.00  0.00    -0.132 F 
ENDBRANCH  90  91
ENDBRANCH  89  90
ENDBRANCH  72  84
ENDBRANCH  66  68
ENDBRANCH  65  66
ENDBRANCH  64  65
ENDBRANCH   1  64
TORSDOF 17
