REMARK SMILES COc1ccc2[nH]c(C(=O)c3cc(C)ccn3)c(CC(=O)OCCOCCOC(=O)c3ccc(-c4c5nc(c(-c6c(F)cccc6F)c6ccc([nH]6)c(-c6c(F)cccc6F)c6nc(c(-c7c(F)cccc7F)c7ccc4[nH]7)C=C6)C=C5)cc3)c2c1
REMARK SMILES IDX 24 1 23 2 22 3 20 4 21 5 19 6 18 7 3 8 4 9 86 10 5 11 85 12
REMARK SMILES IDX 6 13 7 14 8 15 2 17 1 18 9 19 10 20 11 21 12 22 17 23 13 24
REMARK SMILES IDX 16 25 14 26 15 27 25 28 26 29 27 30 28 31 29 32 30 33 31 34
REMARK SMILES IDX 32 35 84 36 33 37 83 38 34 39 35 40 36 41 77 42 37 43 82 44
REMARK SMILES IDX 76 45 78 46 38 47 81 48 75 49 74 50 39 52 65 53 48 54 64 55
REMARK SMILES IDX 49 56 52 57 63 58 79 59 50 60 51 61 62 63 80 64 53 65 40 66
REMARK SMILES IDX 41 67 46 68 42 69 43 70 45 71 47 72 44 73 66 74 67 75 72 76
REMARK SMILES IDX 68 77 69 78 71 79 73 80 70 81 54 82 55 83 60 84 56 85 57 86
REMARK SMILES IDX 59 87 61 88 58 89
REMARK H PARENT 7 16 78 51 52 62
REMARK Flexibility Score: inf
ROOT
ATOM      1  C   UNL     1      -3.748  -3.914  -7.414  1.00  0.00     0.202 C 
ENDROOT
BRANCH   1   2
ATOM      2  C   UNL     1      -3.769  -3.560  -5.918  1.00  0.00     0.261 C 
BRANCH   2   3
ATOM      3  O   UNL     1      -2.612  -4.016  -5.184  1.00  0.00    -0.463 OA
BRANCH   3   4
ATOM      4  C   UNL     1      -2.887  -4.595  -3.981  1.00  0.00     0.310 C 
ATOM      5  O   UNL     1      -4.009  -4.619  -3.476  1.00  0.00    -0.252 OA
BRANCH   4   6
ATOM      6  C   UNL     1      -1.731  -5.337  -3.337  1.00  0.00     0.161 C 
BRANCH   6   7
ATOM      7  C   UNL     1      -0.332  -4.858  -3.619  1.00  0.00     0.000 A 
ATOM      8  C   UNL     1       0.745  -1.857  -1.479  1.00  0.00     0.119 A 
ATOM      9  C   UNL     1       2.049  -1.796  -1.967  1.00  0.00     0.048 A 
ATOM     10  C   UNL     1      -0.147  -2.811  -1.990  1.00  0.00     0.057 A 
ATOM     11  C   UNL     1       2.489  -2.676  -2.966  1.00  0.00     0.030 A 
ATOM     12  C   UNL     1       0.279  -3.729  -2.974  1.00  0.00     0.008 A 
ATOM     13  C   UNL     1       1.586  -3.637  -3.436  1.00  0.00     0.046 A 
ATOM     14  N   UNL     1       1.756  -4.640  -4.359  1.00  0.00    -0.352 N 
ATOM     15  C   UNL     1       0.668  -5.491  -4.371  1.00  0.00     0.093 A 
ATOM     16  H   UNL     1       2.547  -4.739  -4.936  1.00  0.00     0.167 HD
BRANCH   8  17
ATOM     17  O   UNL     1       0.225  -1.077  -0.481  1.00  0.00    -0.497 OA
ATOM     18  C   UNL     1       0.987   0.053  -0.077  1.00  0.00     0.278 C 
ENDBRANCH   8  17
BRANCH  15  19
ATOM     19  C   UNL     1       0.636  -6.792  -5.045  1.00  0.00     0.227 C 
ATOM     20  O   UNL     1      -0.281  -7.599  -4.909  1.00  0.00    -0.285 OA
BRANCH  19  21
ATOM     21  C   UNL     1       1.739  -7.165  -5.984  1.00  0.00     0.113 A 
ATOM     22  C   UNL     1       2.998  -7.527  -5.526  1.00  0.00     0.036 A 
ATOM     23  N   UNL     1       1.414  -7.108  -7.300  1.00  0.00    -0.253 NA
ATOM     24  C   UNL     1       3.980  -7.826  -6.480  1.00  0.00    -0.047 A 
ATOM     25  C   UNL     1       2.373  -7.388  -8.198  1.00  0.00     0.112 A 
ATOM     26  C   UNL     1       5.362  -8.247  -6.084  1.00  0.00     0.044 C 
ATOM     27  C   UNL     1       3.657  -7.743  -7.840  1.00  0.00     0.023 A 
ENDBRANCH  19  21
ENDBRANCH  15  19
ENDBRANCH   6   7
ENDBRANCH   4   6
ENDBRANCH   3   4
ENDBRANCH   2   3
ENDBRANCH   1   2
BRANCH   1  28
ATOM     28  O   UNL     1      -3.540  -5.280  -7.770  1.00  0.00    -0.374 OA
BRANCH  28  29
ATOM     29  C   UNL     1      -2.319  -5.881  -7.351  1.00  0.00     0.202 C 
BRANCH  29  30
ATOM     30  C   UNL     1      -1.025  -5.301  -7.923  1.00  0.00     0.261 C 
BRANCH  30  31
ATOM     31  O   UNL     1      -0.949  -3.876  -7.941  1.00  0.00    -0.460 OA
BRANCH  31  32
ATOM     32  C   UNL     1      -0.458  -3.355  -9.082  1.00  0.00     0.338 C 
ATOM     33  O   UNL     1      -0.025  -3.933 -10.067  1.00  0.00    -0.246 OA
BRANCH  32  34
ATOM     34  C   UNL     1      -0.567  -1.899  -8.999  1.00  0.00     0.060 A 
ATOM     35  C   UNL     1      -1.599  -1.266  -9.697  1.00  0.00     0.016 A 
ATOM     36  C   UNL     1       0.412  -1.171  -8.322  1.00  0.00     0.016 A 
ATOM     37  C   UNL     1      -1.620   0.123  -9.765  1.00  0.00     0.010 A 
ATOM     38  C   UNL     1       0.386   0.219  -8.388  1.00  0.00     0.010 A 
ATOM     39  C   UNL     1      -0.606   0.867  -9.145  1.00  0.00    -0.014 A 
BRANCH  39  40
ATOM     40  C   UNL     1      -0.494   2.315  -9.416  1.00  0.00     0.031 A 
ATOM     41  C   UNL     1       0.495   2.784 -10.445  1.00  0.00     0.074 A 
ATOM     42  C   UNL     1      -1.280   3.187  -8.763  1.00  0.00     0.049 A 
ATOM     43  N   UNL     1       0.783   4.001 -10.823  1.00  0.00    -0.248 NA
ATOM     44  C   UNL     1       1.266   1.738 -11.138  1.00  0.00     0.031 C 
ATOM     45  C   UNL     1      -2.288   2.830  -7.765  1.00  0.00     0.029 A 
ATOM     46  N   UNL     1      -1.348   4.553  -8.841  1.00  0.00    -0.354 N 
ATOM     47  C   UNL     1       1.768   3.869 -11.794  1.00  0.00     0.074 A 
ATOM     48  C   UNL     1       2.053   2.458 -11.925  1.00  0.00     0.031 C 
ATOM     49  C   UNL     1      -2.873   3.954  -7.318  1.00  0.00     0.029 A 
ATOM     50  C   UNL     1      -2.261   5.105  -7.977  1.00  0.00     0.049 A 
ATOM     51  H   UNL     1      -0.796   5.087  -9.456  1.00  0.00     0.167 HD
ATOM     52  C   UNL     1       2.370   4.841 -12.519  1.00  0.00     0.037 A 
ATOM     53  C   UNL     1      -2.553   6.397  -7.740  1.00  0.00     0.037 A 
ATOM     54  C   UNL     1       2.077   6.242 -12.379  1.00  0.00     0.049 A 
ATOM     55  C   UNL     1      -1.834   7.462  -8.523  1.00  0.00     0.074 A 
ATOM     56  C   UNL     1       2.623   7.312 -13.065  1.00  0.00     0.029 A 
ATOM     57  N   UNL     1       1.154   6.766 -11.485  1.00  0.00    -0.354 N 
ATOM     58  N   UNL     1      -0.919   7.327  -9.453  1.00  0.00    -0.248 NA
ATOM     59  C   UNL     1      -2.191   8.856  -8.229  1.00  0.00     0.031 C 
ATOM     60  C   UNL     1       2.056   8.487 -12.559  1.00  0.00     0.029 A 
ATOM     61  C   UNL     1       1.126   8.145 -11.590  1.00  0.00     0.049 A 
ATOM     62  H   UNL     1       0.601   6.234 -10.868  1.00  0.00     0.167 HD
ATOM     63  C   UNL     1      -0.612   8.614  -9.876  1.00  0.00     0.074 A 
ATOM     64  C   UNL     1      -1.445   9.515  -9.105  1.00  0.00     0.031 C 
ATOM     65  C   UNL     1       0.276   9.016 -10.818  1.00  0.00     0.037 A 
BRANCH  52  66
ATOM     66  C   UNL     1       3.417   4.419 -13.508  1.00  0.00     0.057 A 
ATOM     67  C   UNL     1       3.084   3.764 -14.701  1.00  0.00     0.134 A 
ATOM     68  C   UNL     1       4.771   4.691 -13.275  1.00  0.00     0.134 A 
ATOM     69  F   UNL     1       1.807   3.459 -14.976  1.00  0.00    -0.206 F 
ATOM     70  C   UNL     1       4.064   3.377 -15.618  1.00  0.00     0.040 A 
ATOM     71  C   UNL     1       5.756   4.330 -14.196  1.00  0.00     0.040 A 
ATOM     72  F   UNL     1       5.157   5.316 -12.153  1.00  0.00    -0.206 F 
ATOM     73  C   UNL     1       5.404   3.666 -15.369  1.00  0.00     0.006 A 
ENDBRANCH  52  66
BRANCH  53  74
ATOM     74  C   UNL     1      -3.571   6.752  -6.720  1.00  0.00     0.057 A 
ATOM     75  C   UNL     1      -4.807   7.296  -7.085  1.00  0.00     0.134 A 
ATOM     76  C   UNL     1      -3.330   6.558  -5.354  1.00  0.00     0.134 A 
ATOM     77  F   UNL     1      -5.089   7.523  -8.376  1.00  0.00    -0.206 F 
ATOM     78  C   UNL     1      -5.762   7.647  -6.130  1.00  0.00     0.040 A 
ATOM     79  C   UNL     1      -4.285   6.882  -4.389  1.00  0.00     0.040 A 
ATOM     80  F   UNL     1      -2.165   6.038  -4.939  1.00  0.00    -0.206 F 
ATOM     81  C   UNL     1      -5.504   7.434  -4.777  1.00  0.00     0.006 A 
ENDBRANCH  53  74
BRANCH  65  82
ATOM     82  C   UNL     1       0.360  10.487 -11.094  1.00  0.00     0.057 A 
ATOM     83  C   UNL     1       0.987  11.370 -10.208  1.00  0.00     0.134 A 
ATOM     84  C   UNL     1      -0.150  11.014 -12.287  1.00  0.00     0.134 A 
ATOM     85  F   UNL     1       1.486  10.927  -9.044  1.00  0.00    -0.206 F 
ATOM     86  C   UNL     1       1.087  12.733 -10.491  1.00  0.00     0.040 A 
ATOM     87  C   UNL     1      -0.035  12.370 -12.591  1.00  0.00     0.040 A 
ATOM     88  F   UNL     1      -0.754  10.217 -13.182  1.00  0.00    -0.206 F 
ATOM     89  C   UNL     1       0.581  13.235 -11.689  1.00  0.00     0.006 A 
ENDBRANCH  65  82
ENDBRANCH  39  40
ENDBRANCH  32  34
ENDBRANCH  31  32
ENDBRANCH  30  31
ENDBRANCH  29  30
ENDBRANCH  28  29
ENDBRANCH   1  28
TORSDOF 18
