REMARK SMILES CC1=C(CC(=O)OCCOCCOC(=O)c2ccc(-c3c4nc(c(-c5c(F)cccc5F)c5ccc([nH]5)c(-c5c(F)cccc5F)c5nc(c(-c6c(F)cccc6F)c6ccc3[nH]6)C=C5)C=C4)cc2)c2cc(F)ccc2/C1=C\c1ccc([S@@+](C)[O-])cc1
REMARK SMILES IDX 9 1 8 2 7 3 5 4 6 5 4 6 3 7 1 8 2 9 77 10 70 11 76 12 78 13
REMARK SMILES IDX 71 14 75 15 72 16 74 17 73 18 79 19 80 20 87 21 81 22 86 23
REMARK SMILES IDX 82 24 83 25 84 26 85 27 10 28 11 29 12 30 13 31 14 32 15 33
REMARK SMILES IDX 16 34 17 35 69 36 18 37 68 38 19 39 20 40 21 41 62 42 22 43
REMARK SMILES IDX 67 44 61 45 63 46 23 47 66 48 60 49 59 50 24 52 50 53 33 54
REMARK SMILES IDX 49 55 34 56 37 57 48 58 64 59 35 60 36 61 47 63 65 64 38 65
REMARK SMILES IDX 25 66 26 67 31 68 27 69 28 70 30 71 32 72 29 73 51 74 52 75
REMARK SMILES IDX 57 76 53 77 54 78 56 79 58 80 55 81 39 82 40 83 45 84 41 85
REMARK SMILES IDX 42 86 44 87 46 88 43 89
REMARK H PARENT 63 51 37 62
REMARK Flexibility Score: inf
ROOT
ATOM      1  C   UNL     1      -4.600  -1.300  -3.268  1.00  0.00     0.202 C 
ENDROOT
BRANCH   1   2
ATOM      2  C   UNL     1      -3.629  -1.862  -2.219  1.00  0.00     0.261 C 
BRANCH   2   3
ATOM      3  O   UNL     1      -2.326  -1.241  -2.209  1.00  0.00    -0.463 OA
BRANCH   3   4
ATOM      4  C   UNL     1      -1.282  -2.090  -2.420  1.00  0.00     0.310 C 
ATOM      5  O   UNL     1      -1.401  -3.303  -2.580  1.00  0.00    -0.252 OA
BRANCH   4   6
ATOM      6  C   UNL     1       0.098  -1.437  -2.479  1.00  0.00     0.159 C 
BRANCH   6   7
ATOM      7  C   UNL     1       0.250   0.037  -2.275  1.00  0.00    -0.025 C 
ATOM      8  C   UNL     1       0.738   0.126   0.223  1.00  0.00     0.045 C 
ATOM      9  C   UNL     1       0.533   0.711  -1.135  1.00  0.00    -0.039 C 
ATOM     10  C   UNL     1       0.683   2.150  -1.422  1.00  0.00    -0.014 C 
ATOM     11  C   UNL     1       0.306   1.007  -3.384  1.00  0.00    -0.011 A 
ATOM     12  C   UNL     1       0.519   2.305  -2.882  1.00  0.00    -0.010 A 
ATOM     13  C   UNL     1       0.952   3.093  -0.495  1.00  0.00     0.017 C 
ATOM     14  C   UNL     1       0.220   0.790  -4.754  1.00  0.00     0.048 A 
ATOM     15  C   UNL     1       0.572   3.393  -3.746  1.00  0.00     0.012 A 
ATOM     16  C   UNL     1       0.257   1.892  -5.606  1.00  0.00     0.123 A 
ATOM     17  C   UNL     1       0.410   3.187  -5.116  1.00  0.00     0.040 A 
ATOM     18  F   UNL     1       0.091   1.708  -6.923  1.00  0.00    -0.207 F 
BRANCH  13  19
ATOM     19  C   UNL     1       1.127   4.524  -0.768  1.00  0.00    -0.025 A 
ATOM     20  C   UNL     1       0.020   5.330  -1.055  1.00  0.00     0.013 A 
ATOM     21  C   UNL     1       2.413   5.059  -0.878  1.00  0.00     0.013 A 
ATOM     22  C   UNL     1       0.202   6.615  -1.581  1.00  0.00     0.061 A 
ATOM     23  C   UNL     1       2.593   6.352  -1.381  1.00  0.00     0.061 A 
ATOM     24  C   UNL     1       1.492   7.121  -1.781  1.00  0.00     0.152 A 
BRANCH  24  25
ATOM     25  S   UNL     1       1.766   8.637  -2.733  1.00  0.00    -0.018 S 
ATOM     26  C   UNL     1       0.656   9.763  -1.869  1.00  0.00     0.346 C 
ATOM     27  O   UNL     1       3.241   9.099  -2.454  1.00  0.00    -0.612 OA
ENDBRANCH  24  25
ENDBRANCH  13  19
ENDBRANCH   6   7
ENDBRANCH   4   6
ENDBRANCH   3   4
ENDBRANCH   2   3
ENDBRANCH   1   2
BRANCH   1  28
ATOM     28  O   UNL     1      -4.179  -1.255  -4.627  1.00  0.00    -0.374 OA
BRANCH  28  29
ATOM     29  C   UNL     1      -3.080  -0.411  -4.957  1.00  0.00     0.202 C 
BRANCH  29  30
ATOM     30  C   UNL     1      -3.275   1.105  -4.831  1.00  0.00     0.261 C 
BRANCH  30  31
ATOM     31  O   UNL     1      -3.742   1.526  -3.548  1.00  0.00    -0.460 OA
BRANCH  31  32
ATOM     32  C   UNL     1      -4.942   2.147  -3.574  1.00  0.00     0.338 C 
ATOM     33  O   UNL     1      -5.625   2.428  -4.549  1.00  0.00    -0.246 OA
BRANCH  32  34
ATOM     34  C   UNL     1      -5.419   2.317  -2.199  1.00  0.00     0.060 A 
ATOM     35  C   UNL     1      -4.678   3.046  -1.267  1.00  0.00     0.016 A 
ATOM     36  C   UNL     1      -6.666   1.774  -1.870  1.00  0.00     0.016 A 
ATOM     37  C   UNL     1      -5.215   3.266  -0.001  1.00  0.00     0.010 A 
ATOM     38  C   UNL     1      -7.203   2.000  -0.609  1.00  0.00     0.010 A 
ATOM     39  C   UNL     1      -6.492   2.770   0.323  1.00  0.00    -0.014 A 
BRANCH  39  40
ATOM     40  C   UNL     1      -7.149   3.172   1.586  1.00  0.00     0.031 A 
ATOM     41  C   UNL     1      -7.341   2.198   2.705  1.00  0.00     0.074 A 
ATOM     42  C   UNL     1      -7.616   4.431   1.679  1.00  0.00     0.049 A 
ATOM     43  N   UNL     1      -7.863   2.397   3.888  1.00  0.00    -0.248 NA
ATOM     44  C   UNL     1      -6.902   0.817   2.460  1.00  0.00     0.031 C 
ATOM     45  C   UNL     1      -7.523   5.443   0.624  1.00  0.00     0.029 A 
ATOM     46  N   UNL     1      -8.257   5.074   2.704  1.00  0.00    -0.354 N 
ATOM     47  C   UNL     1      -7.811   1.171   4.535  1.00  0.00     0.074 A 
ATOM     48  C   UNL     1      -7.251   0.223   3.593  1.00  0.00     0.031 C 
ATOM     49  C   UNL     1      -8.049   6.593   1.073  1.00  0.00     0.029 A 
ATOM     50  C   UNL     1      -8.549   6.387   2.427  1.00  0.00     0.049 A 
ATOM     51  H   UNL     1      -8.487   4.638   3.556  1.00  0.00     0.167 HD
ATOM     52  C   UNL     1      -8.185   0.871   5.803  1.00  0.00     0.037 A 
ATOM     53  C   UNL     1      -9.150   7.318   3.187  1.00  0.00     0.037 A 
ATOM     54  C   UNL     1      -8.772   1.821   6.716  1.00  0.00     0.049 A 
ATOM     55  C   UNL     1      -9.604   6.939   4.568  1.00  0.00     0.074 A 
ATOM     56  C   UNL     1      -9.150   1.635   8.034  1.00  0.00     0.029 A 
ATOM     57  N   UNL     1      -9.091   3.134   6.393  1.00  0.00    -0.354 N 
ATOM     58  N   UNL     1      -9.466   5.802   5.206  1.00  0.00    -0.248 NA
ATOM     59  C   UNL     1     -10.297   7.982   5.335  1.00  0.00     0.031 C 
ATOM     60  C   UNL     1      -9.752   2.815   8.489  1.00  0.00     0.029 A 
ATOM     61  C   UNL     1      -9.693   3.758   7.475  1.00  0.00     0.049 A 
ATOM     62  H   UNL     1      -8.914   3.559   5.523  1.00  0.00     0.167 HD
ATOM     63  C   UNL     1     -10.025   6.000   6.461  1.00  0.00     0.074 A 
ATOM     64  C   UNL     1     -10.481   7.376   6.498  1.00  0.00     0.031 C 
ATOM     65  C   UNL     1     -10.151   5.126   7.490  1.00  0.00     0.037 A 
BRANCH  52  66
ATOM     66  C   UNL     1      -7.992  -0.549   6.258  1.00  0.00     0.057 A 
ATOM     67  C   UNL     1      -9.093  -1.374   6.521  1.00  0.00     0.134 A 
ATOM     68  C   UNL     1      -6.717  -1.103   6.438  1.00  0.00     0.134 A 
ATOM     69  F   UNL     1     -10.343  -0.909   6.379  1.00  0.00    -0.206 F 
ATOM     70  C   UNL     1      -8.933  -2.698   6.936  1.00  0.00     0.040 A 
ATOM     71  C   UNL     1      -6.544  -2.435   6.822  1.00  0.00     0.040 A 
ATOM     72  F   UNL     1      -5.617  -0.373   6.194  1.00  0.00    -0.206 F 
ATOM     73  C   UNL     1      -7.655  -3.235   7.075  1.00  0.00     0.006 A 
ENDBRANCH  52  66
BRANCH  53  74
ATOM     74  C   UNL     1      -9.329   8.702   2.682  1.00  0.00     0.057 A 
ATOM     75  C   UNL     1     -10.210   8.997   1.636  1.00  0.00     0.134 A 
ATOM     76  C   UNL     1      -8.635   9.770   3.263  1.00  0.00     0.134 A 
ATOM     77  F   UNL     1     -10.896   8.017   1.029  1.00  0.00    -0.206 F 
ATOM     78  C   UNL     1     -10.398  10.306   1.188  1.00  0.00     0.040 A 
ATOM     79  C   UNL     1      -8.835  11.086   2.845  1.00  0.00     0.040 A 
ATOM     80  F   UNL     1      -7.786   9.551   4.278  1.00  0.00    -0.206 F 
ATOM     81  C   UNL     1      -9.718  11.356   1.802  1.00  0.00     0.006 A 
ENDBRANCH  53  74
BRANCH  65  82
ATOM     82  C   UNL     1     -10.778   5.658   8.749  1.00  0.00     0.057 A 
ATOM     83  C   UNL     1     -10.009   5.839   9.906  1.00  0.00     0.134 A 
ATOM     84  C   UNL     1     -12.133   6.012   8.813  1.00  0.00     0.134 A 
ATOM     85  F   UNL     1      -8.708   5.513   9.918  1.00  0.00    -0.206 F 
ATOM     86  C   UNL     1     -10.561   6.362  11.075  1.00  0.00     0.040 A 
ATOM     87  C   UNL     1     -12.688   6.571   9.966  1.00  0.00     0.040 A 
ATOM     88  F   UNL     1     -12.922   5.881   7.736  1.00  0.00    -0.206 F 
ATOM     89  C   UNL     1     -11.901   6.744  11.103  1.00  0.00     0.006 A 
ENDBRANCH  65  82
ENDBRANCH  39  40
ENDBRANCH  32  34
ENDBRANCH  31  32
ENDBRANCH  30  31
ENDBRANCH  29  30
ENDBRANCH  28  29
ENDBRANCH   1  28
TORSDOF 17
